data_PCOD8088081
_publ_section_title
;
Structure prediction by ZEFSAII (Michael W. Deem and Ramdas Pophale) SiO2 
 PCOD8088081
Probable space group: C 2/M
;
_chemical_formula_sum "Si O2"
_cell_formula_units_Z 40
_cell_length_a 25.411993
_cell_length_b 9.230073
_cell_length_c 8.809793
_cell_angle_alpha 90.000000
_cell_angle_beta 98.694590
_cell_angle_gamma 90.000000
_cell_volume 2042.630572
_symmetry_space_group_name_H-M "C 2/M"
_symmetry_group_IT_number 12
_symmetry_cell_setting 'monoclinic'
loop_
_space_group_symop_operation_xyz
x,y,z
-x,y,-z
-x,-y,-z
x,-y,z
1/2+x,1/2+y,z
1/2-x,1/2+y,-z
1/2-x,1/2-y,-z
1/2+x,1/2-y,z
loop_
_atom_site_type_symbol
_atom_site_label
_atom_site_fract_x
_atom_site_fract_y
_atom_site_fract_z
Si Si1 0.141158 0.671315 0.274487
Si Si2 0.571372 0.337835 0.665962
Si Si3 0.167122 0.666131 0.625723
Si Si4 0.730615 0.670584 0.140792
Si Si5 0.958219 0.164243 0.697735
O O1 0.144135 0.500000 0.246699
O O2 0.163293 0.716754 0.449670
O O3 0.175626 0.756048 0.165915
O O4 0.080274 0.726194 0.228475
O O5 0.585704 0.500000 0.721898
O O6 0.624125 0.243607 0.716781
O O7 0.556463 0.331166 0.484155
O O8 0.520017 0.284675 0.741603
O O9 0.151833 0.500000 0.631404
O O10 0.226281 0.698982 0.708555
O O11 0.722393 0.500000 0.107242
O O12 0.750000 0.750000 0.000000
O O13 0.951219 0.000000 0.756244
#
# Coordination Sequence:
#
# PCOD8088081 Si02
#       5
#     8   8   8   8   8
#     4  10  19  32  52  78 103 131 166 204 246 295
#     4   8  14  25  45  72 102 133 164 197 239 289
#     4   9  19  33  51  76 104 131 164 205 249 294
#     4  11  23  38  53  71  98 133 169 209 253 298
#     4   8  14  26  44  71 104 134 162 197 240 288
#
# _framework density 19.582592000000002
#
# number of rings (size 3 to 8) (size 9 to 14) (size 15 to 20)
#    0.000    2.800    0.000    3.000    0.000    3.200 
#    0.000    4.000    0.000    1.200    0.000    8.400 
#    0.000    0.000    0.000    0.000    0.000    0.000 
#
# Total GULP energy -247905.827417 kJ/mol
# GULP energy per Si atom -12395.291371 kJ/mol
# Density = 1.953802 g / cm^3
# Si number density = 19.582592 Si / 1000 Ang^3
#
#
#
# Elastic Constant Matrix: (Units=GPa)
#
#
# Indices 1 2 3 4 5 6 
#
# 1 124.6558 64.3072 24.0329 0.0000 -43.2433 0.0000
# 2 64.3072 98.6444 30.4518 0.0000 -25.8431 0.0000
# 3 24.0329 30.4518 39.8013 0.0000 -22.9529 0.0000
# 4 0.0000 0.0000 0.0000 21.5279 0.0000 -7.3350
# 5 -43.2433 -25.8431 -22.9529 0.0000 24.5385 0.0000
# 6 0.0000 0.0000 0.0000 -7.3350 0.0000 42.2954
#
#
#
# Elastic Compliance Matrix: (Units=1/GPa)
#
#
# Indices 1 2 3 4 5 6 
#
# 1 0.039740 -0.013990 0.040380 0.000000 0.093070 0.000000
# 2 -0.013990 0.019360 -0.019159 0.000000 -0.022186 0.000000
# 3 0.040380 -0.019159 0.097274 0.000000 0.141971 0.000000
# 4 0.000000 0.000000 0.000000 0.049369 0.000000 0.008562
# 5 0.093070 -0.022186 0.141971 0.000000 0.314199 0.000000
# 6 0.000000 0.000000 0.000000 0.008562 0.000000 0.025128
#
#
# Mechanical properties :
#
#
# Convention : Reuss Voigt Hill
#
# Bulk Modulus (GPa) = 5.85354 55.63169 30.74262
# Shear Modulus (GPa) = 8.50988 27.29300 17.90144
#
# Velocity S-wave (km/s) = 2.08688 3.73733 3.02677
# Velocity P-wave (km/s) = 2.96688 6.86250 5.28660
#
# Compressibility (1/GPa) = 0.17083669
#
# Stress axis : x y z
#
# Youngs Moduli (GPa) = 25.16341 51.65400 10.28022
#
# Poissons Ratio (x) = 0.72262 -0.41511
# Poissons Ratio (y) = 0.35203 0.19696
# Poissons Ratio (z) = -1.01610 0.98963
#
# Static dielectric constant tensor:
#      x y z
#    x 4.017780 0.000000 -0.104950 
#    y 0.000000 3.600420 0.000000 
#    z -0.104950 0.000000 3.265190 
# 
# 
# High freq. dielectric constant tensor:
#      x y z
#    x 1.778130 0.000000 -0.014400 
#    y 0.000000 1.760180 0.000000 
#    z -0.014400 0.000000 1.715090 
# 
# From -- ./inp_files/92786.got.cif
#   From: 2010.06.25/outbox.cif.g09.slc.cpg/sg12_47_cif.got.tgz:92786.got - 2010.06.28 00:19:55.
