data_PCOD8088008
_publ_section_title
;
Structure prediction by ZEFSAII (Michael W. Deem and Ramdas Pophale) SiO2 
 PCOD8088008
Probable space group: C 2/M
;
_chemical_formula_sum "Si O2"
_cell_formula_units_Z 48
_cell_length_a 27.719301
_cell_length_b 23.589025
_cell_length_c 19.709536
_cell_angle_alpha 90.000000
_cell_angle_beta 167.547538
_cell_angle_gamma 90.000000
_cell_volume 2778.925253
_symmetry_space_group_name_H-M "C 2/M"
_symmetry_group_IT_number 12
_symmetry_cell_setting 'monoclinic'
loop_
_space_group_symop_operation_xyz
x,y,z
-x,y,-z
-x,-y,-z
x,-y,z
1/2+x,1/2+y,z
1/2-x,1/2+y,-z
1/2-x,1/2-y,-z
1/2+x,1/2-y,z
loop_
_atom_site_type_symbol
_atom_site_label
_atom_site_fract_x
_atom_site_fract_y
_atom_site_fract_z
Si Si1 0.739910 0.936867 0.637591
Si Si2 0.969939 0.325619 0.686470
Si Si3 0.174695 0.171506 0.942715
Si Si4 0.268402 0.770338 0.705851
Si Si5 0.909285 0.436331 0.303785
Si Si6 0.750694 0.240450 0.165482
O O1 0.612674 0.890097 0.417573
O O2 0.628963 0.933691 0.558863
O O3 0.707859 0.000000 0.561889
O O4 0.000000 0.921697 0.000000
O O5 0.763631 0.284204 0.386934
O O6 0.143386 0.310886 0.863762
O O7 0.083840 0.309868 0.914048
O O8 0.928685 0.183340 0.574710
O O9 0.208831 0.104501 0.003763
O O10 0.213528 0.204729 0.066580
O O11 0.291692 0.746538 0.814162
O O12 0.500000 0.799364 0.000000
O O13 0.810289 0.500000 0.170909
O O14 0.000000 0.415025 0.500000
O O15 0.000000 0.217147 0.500000
#
# Coordination Sequence:
#
# PCOD8088008 Si02
#       6
#     8   8   8   8   8   8
#     4   9  18  33  51  73 103 129 156 205 251 282
#     4  10  19  32  52  76  97 132 169 196 239 303
#     4  10  19  32  53  74  98 132 166 199 245 293
#     4  11  22  34  48  76 104 125 165 208 245 291
#     4   9  18  32  52  75  97 128 167 201 239 292
#     4  11  18  33  54  70  97 138 161 198 247 291
#
# _framework density 17.272864999999999
#
# number of rings (size 3 to 8) (size 9 to 14) (size 15 to 20)
#    0.000    2.000    3.333    2.000    2.333    2.667 
#    3.000    0.000    0.000    2.000    0.000    0.000 
#    0.000    0.000    0.000    0.000    0.000    0.000 
#
# Total GULP energy -297489.001066 kJ/mol
# GULP energy per Si atom -12395.375044 kJ/mol
# Density = 1.723355 g / cm^3
# Si number density = 17.272865 Si / 1000 Ang^3
#
#
#
# Elastic Constant Matrix: (Units=GPa)
#
#
# Indices 1 2 3 4 5 6 
#
# 1 52.8708 16.4914 37.5374 0.0014 -9.0103 0.0017
# 2 16.4914 96.6560 55.1474 0.0004 -3.4393 0.0002
# 3 37.5374 55.1474 110.9194 0.0029 0.8884 0.0029
# 4 0.0014 0.0004 0.0029 22.6314 0.0022 1.9426
# 5 -9.0103 -3.4393 0.8884 0.0022 28.6653 0.0018
# 6 0.0017 0.0002 0.0029 1.9426 0.0018 14.7298
#
#
#
# Elastic Compliance Matrix: (Units=1/GPa)
#
#
# Indices 1 2 3 4 5 6 
#
# 1 0.027048 0.001351 -0.009897 -0.000001 0.008971 -0.000002
# 2 0.001351 0.014621 -0.007746 0.000000 0.002419 0.000001
# 3 -0.009897 -0.007746 0.016253 -0.000001 -0.004544 -0.000001
# 4 -0.000001 0.000000 -0.000001 0.044692 -0.000003 -0.005894
# 5 0.008971 0.002419 -0.004544 -0.000003 0.038136 -0.000004
# 6 -0.000002 0.000001 -0.000001 -0.005894 -0.000004 0.068667
#
#
# Mechanical properties :
#
#
# Convention : Reuss Voigt Hill
#
# Bulk Modulus (GPa) = 39.46696 53.19986 46.33341
# Shear Modulus (GPa) = 19.96426 23.28998 21.62712
#
# Velocity S-wave (km/s) = 3.40342 3.67598 3.54232
# Velocity P-wave (km/s) = 6.19218 6.99168 6.60404
#
# Compressibility (1/GPa) = 0.02533765
#
# Stress axis : x y z
#
# Youngs Moduli (GPa) = 36.97085 68.39481 61.52866
#
# Poissons Ratio (x) = -0.09241 0.60897
# Poissons Ratio (y) = -0.04995 0.47660
# Poissons Ratio (z) = 0.36591 0.52978
#
# Static dielectric constant tensor:
#      x y z
#    x 3.188430 0.000000 -0.020600 
#    y 0.000000 3.261630 0.000000 
#    z -0.020600 0.000000 3.253390 
# 
# 
# High freq. dielectric constant tensor:
#      x y z
#    x 1.659590 0.000000 0.004840 
#    y 0.000000 1.654720 0.000000 
#    z 0.004840 0.000000 1.660760 
# 
# From -- ./inp_files/52746.got.cif
#   From: 2010.06.25/outbox.cif.g09.slc.cpg/sg12_27_cif.got.tgz:52746.got - 2010.06.28 00:19:55.
