data_PCOD8088935
_publ_section_title
;
Structure prediction by ZEFSAII (Michael W. Deem and Ramdas Pophale) SiO2 
 PCOD8088935
Probable space group: C 2/M
;
_chemical_formula_sum "Si O2"
_cell_formula_units_Z 56
_cell_length_a 10.942635
_cell_length_b 28.039152
_cell_length_c 9.776380
_cell_angle_alpha 90.000000
_cell_angle_beta 106.935495
_cell_angle_gamma 90.000000
_cell_volume 2869.527298
_symmetry_space_group_name_H-M "C 2/M"
_symmetry_group_IT_number 12
_symmetry_cell_setting 'monoclinic'
loop_
_space_group_symop_operation_xyz
x,y,z
-x,y,-z
-x,-y,-z
x,-y,z
1/2+x,1/2+y,z
1/2-x,1/2+y,-z
1/2-x,1/2-y,-z
1/2+x,1/2-y,z
loop_
_atom_site_type_symbol
_atom_site_label
_atom_site_fract_x
_atom_site_fract_y
_atom_site_fract_z
Si Si1 0.899664 0.799893 0.092299
Si Si2 0.546355 0.905538 0.861753
Si Si3 0.395651 0.804594 0.085645
Si Si4 0.814982 0.054731 0.929192
Si Si5 0.360998 0.444337 0.639128
Si Si6 0.599425 0.395705 0.782411
Si Si7 0.200027 0.444270 0.328910
O O1 0.911872 0.747063 0.164561
O O2 0.926965 0.839119 0.218223
O O3 0.752570 0.809468 0.004223
O O4 0.000000 0.805717 0.000000
O O5 0.576207 0.851799 0.813795
O O6 0.667396 0.939456 0.916370
O O7 0.449307 0.931810 0.727153
O O8 0.500000 0.899484 0.000000
O O9 0.500000 0.803582 0.000000
O O10 0.826193 0.074349 0.778545
O O11 0.856086 0.000000 0.954856
O O12 0.905608 0.083433 0.063975
O O13 0.387833 0.500000 0.644821
O O14 0.494148 0.418511 0.646880
O O15 0.249878 0.430972 0.496443
O O16 0.734652 0.409975 0.761370
O O17 0.224410 0.500000 0.302610
#
# Coordination Sequence:
#
# PCOD8088935 Si02
#       7
#     8   8   8   8   8   8   8
#     4  10  19  32  56  86 119 150 188 242 301 348
#     4  11  20  35  57  83 113 143 192 239 288 339
#     4   9  18  34  53  85 120 149 188 244 296 350
#     4  11  21  33  54  83 113 144 182 236 286 332
#     4  10  23  38  52  78 116 154 190 227 280 348
#     4  12  20  34  58  85 112 145 189 237 287 337
#     4  11  23  38  57  81 114 157 194 230 283 350
#
# _framework density 19.515408999999998
#
# number of rings (size 3 to 8) (size 9 to 14) (size 15 to 20)
#    0.000    1.429    2.857    4.286    0.000    3.429 
#    0.000    2.143    0.000    0.857    3.714    0.000 
#    0.000    0.000    0.000    0.000    0.000    0.000 
#
# Total GULP energy -346971.495033 kJ/mol
# GULP energy per Si atom -12391.839108 kJ/mol
# Density = 1.947099 g / cm^3
# Si number density = 19.515409 Si / 1000 Ang^3
#
#
#
# Elastic Constant Matrix: (Units=GPa)
#
#
# Indices 1 2 3 4 5 6 
#
# 1 79.2714 13.2825 15.5800 0.0000 17.0558 0.0000
# 2 13.2825 86.6954 37.3805 0.0000 4.7297 0.0000
# 3 15.5800 37.3805 90.1333 0.0000 19.3480 0.0000
# 4 0.0000 0.0000 0.0000 14.4140 0.0000 2.9322
# 5 17.0558 4.7297 19.3480 0.0000 30.1689 0.0000
# 6 0.0000 0.0000 0.0000 2.9322 0.0000 27.5691
#
#
#
# Elastic Compliance Matrix: (Units=1/GPa)
#
#
# Indices 1 2 3 4 5 6 
#
# 1 0.014638 -0.001770 -0.000092 0.000000 -0.007939 0.000000
# 2 -0.001770 0.014343 -0.006233 0.000000 0.002749 0.000000
# 3 -0.000092 -0.006233 0.015626 0.000000 -0.008992 0.000000
# 4 0.000000 0.000000 0.000000 0.070911 0.000000 -0.007542
# 5 -0.007939 0.002749 -0.008992 0.000000 0.042971 0.000000
# 6 0.000000 0.000000 0.000000 -0.007542 0.000000 0.037075
#
#
# Mechanical properties :
#
#
# Convention : Reuss Voigt Hill
#
# Bulk Modulus (GPa) = 35.18979 43.17622 39.18301
# Shear Modulus (GPa) = 22.60148 27.08753 24.84450
#
# Velocity S-wave (km/s) = 3.40683 3.72964 3.57188
# Velocity P-wave (km/s) = 5.79191 6.38115 6.09366
#
# Compressibility (1/GPa) = 0.02841733
#
# Stress axis : x y z
#
# Youngs Moduli (GPa) = 68.31720 69.71976 63.99748
#
# Poissons Ratio (x) = 0.12339 0.00589
# Poissons Ratio (y) = 0.12091 0.39887
# Poissons Ratio (z) = 0.00629 0.43454
#
# Static dielectric constant tensor:
#      x y z
#    x 3.891450 0.000000 0.129450 
#    y 0.000000 3.976390 0.000000 
#    z 0.129450 0.000000 3.321810 
# 
# 
# High freq. dielectric constant tensor:
#      x y z
#    x 1.777980 0.000000 0.016680 
#    y 0.000000 1.766970 0.000000 
#    z 0.016680 0.000000 1.715960 
# 
# From -- ./inp_files/53176.got.cif
#   From: 2010.06.25/outbox.cif.g09.slc.cpg/sg12_27_cif.got.tgz:53176.got - 2010.06.28 00:19:55.
