data_PCOD8088582
_publ_section_title
;
Structure prediction by ZEFSAII (Michael W. Deem and Ramdas Pophale) SiO2 
 PCOD8088582
Probable space group: C 2/M
;
_chemical_formula_sum "Si O2"
_cell_formula_units_Z 64
_cell_length_a 22.964013
_cell_length_b 9.549161
_cell_length_c 20.977408
_cell_angle_alpha 90.000000
_cell_angle_beta 51.924398
_cell_angle_gamma 90.000000
_cell_volume 3621.167729
_symmetry_space_group_name_H-M "C 2/M"
_symmetry_group_IT_number 12
_symmetry_cell_setting 'monoclinic'
loop_
_space_group_symop_operation_xyz
x,y,z
-x,y,-z
-x,-y,-z
x,-y,z
1/2+x,1/2+y,z
1/2-x,1/2+y,-z
1/2-x,1/2-y,-z
1/2+x,1/2-y,z
loop_
_atom_site_type_symbol
_atom_site_label
_atom_site_fract_x
_atom_site_fract_y
_atom_site_fract_z
Si Si1 0.413576 0.840412 0.549884
Si Si2 0.663774 0.660707 0.494981
Si Si3 0.195427 0.156587 0.613384
Si Si4 0.699428 0.834753 0.268246
Si Si5 0.008728 0.658156 0.919086
Si Si6 0.720947 0.163207 0.111884
Si Si7 0.355536 0.339921 0.216156
Si Si8 0.853061 0.663181 0.968413
O O1 0.500000 0.830289 0.500000
O O2 0.399599 0.745025 0.498008
O O3 0.368128 0.779962 0.641797
O O4 0.389000 0.000000 0.552786
O O5 0.663731 0.500000 0.473057
O O6 0.742145 0.726671 0.423544
O O7 0.648286 0.676581 0.580834
O O8 0.141205 0.173967 0.709620
O O9 0.231458 0.000000 0.589892
O O10 0.687755 0.787631 0.202547
O O11 0.777916 0.778371 0.241889
O O12 0.699728 0.000000 0.272442
O O13 0.025562 0.500000 0.885728
O O14 0.077199 0.753410 0.855975
O O15 0.935134 0.712479 0.932507
O O16 0.000000 0.666781 0.000000
O O17 0.660094 0.192425 0.098027
O O18 0.742967 0.000000 0.098607
O O19 0.795267 0.249509 0.049104
O O20 0.365282 0.500000 0.187448
O O21 0.841569 0.500000 0.992697
#
# Coordination Sequence:
#
# PCOD8088582 Si02
#       8
#     8   8   8   8   8   8   8   8
#     4  10  20  36  55  75 103 140 177 214 262 315
#     4  10  19  32  54  79 104 134 170 214 265 313
#     4   9  18  34  54  76 104 137 171 213 260 310
#     4   9  17  32  53  75  98 126 168 216 254 294
#     4  10  21  35  49  72 109 142 166 204 257 308
#     4   9  17  31  54  76  95 128 172 211 247 294
#     4  10  19  33  54  75 100 133 171 215 254 298
#     4   9  18  33  50  72 104 134 162 206 255 297
#
# _framework density 17.673857999999999
#
# number of rings (size 3 to 8) (size 9 to 14) (size 15 to 20)
#    0.000    2.500    1.250    1.125    0.000    2.000 
#    2.250    0.625    0.000    0.000    0.000    0.000 
#    0.000    0.000    0.000    0.000    0.000    0.000 
#
# Total GULP energy -396716.828296 kJ/mol
# GULP energy per Si atom -12397.400884 kJ/mol
# Density = 1.763363 g / cm^3
# Si number density = 17.673858 Si / 1000 Ang^3
#
#
#
# Elastic Constant Matrix: (Units=GPa)
#
#
# Indices 1 2 3 4 5 6 
#
# 1 108.0033 40.7212 58.8106 0.0000 1.6277 -0.0003
# 2 40.7212 67.8185 36.5042 -0.0005 0.6156 -0.0044
# 3 58.8106 36.5042 97.0450 0.0000 1.5035 0.0005
# 4 0.0000 -0.0005 0.0000 21.7963 0.0002 -1.3675
# 5 1.6277 0.6156 1.5035 0.0002 28.8325 0.0005
# 6 -0.0003 -0.0044 0.0005 -1.3675 0.0005 24.0571
#
#
#
# Elastic Compliance Matrix: (Units=1/GPa)
#
#
# Indices 1 2 3 4 5 6 
#
# 1 0.015163 -0.005214 -0.007222 0.000000 -0.000368 -0.000001
# 2 -0.005214 0.020281 -0.004471 0.000001 0.000094 0.000004
# 3 -0.007222 -0.004471 0.016368 0.000000 -0.000350 -0.000001
# 4 0.000000 0.000001 0.000000 0.046043 0.000000 0.002617
# 5 -0.000368 0.000094 -0.000350 0.000000 0.034720 -0.000001
# 6 -0.000001 0.000004 -0.000001 0.002617 -0.000001 0.041717
#
#
# Mechanical properties :
#
#
# Convention : Reuss Voigt Hill
#
# Bulk Modulus (GPa) = 55.55756 60.54877 58.05316
# Shear Modulus (GPa) = 23.35291 24.05923 23.70607
#
# Velocity S-wave (km/s) = 3.63895 3.69357 3.66636
# Velocity P-wave (km/s) = 7.01135 7.24729 7.13030
#
# Compressibility (1/GPa) = 0.01799935
#
# Stress axis : x y z
#
# Youngs Moduli (GPa) = 65.95050 49.30607 61.09359
#
# Poissons Ratio (x) = 0.25707 0.44122
# Poissons Ratio (y) = 0.34385 0.27314
# Poissons Ratio (z) = 0.47630 0.22044
#
# Static dielectric constant tensor:
#      x y z
#    x 3.374550 0.000000 0.285350 
#    y 0.000000 3.268340 0.000000 
#    z 0.285350 0.000000 3.345100 
# 
# 
# High freq. dielectric constant tensor:
#      x y z
#    x 1.682810 0.000000 0.018260 
#    y 0.000000 1.671800 0.000000 
#    z 0.018260 0.000000 1.679050 
# 
# From -- ./inp_files/319756.got.cif
#   From: 2010.06.25/outbox.cif.g09.slc.cpg/sg12_160_cif.got.tgz:319756.got - 2010.06.28 00:19:55.
