data_PCOD8088461
_publ_section_title
;
Structure prediction by ZEFSAII (Michael W. Deem and Ramdas Pophale) SiO2 
 PCOD8088461
Probable space group: C 2/M
;
_chemical_formula_sum "Si O2"
_cell_formula_units_Z 64
_cell_length_a 17.672262
_cell_length_b 23.736858
_cell_length_c 12.043242
_cell_angle_alpha 90.000000
_cell_angle_beta 135.837258
_cell_angle_gamma 90.000000
_cell_volume 3519.685251
_symmetry_space_group_name_H-M "C 2/M"
_symmetry_group_IT_number 12
_symmetry_cell_setting 'monoclinic'
loop_
_space_group_symop_operation_xyz
x,y,z
-x,y,-z
-x,-y,-z
x,-y,z
1/2+x,1/2+y,z
1/2-x,1/2+y,-z
1/2-x,1/2-y,-z
1/2+x,1/2-y,z
loop_
_atom_site_type_symbol
_atom_site_label
_atom_site_fract_x
_atom_site_fract_y
_atom_site_fract_z
Si Si1 0.121993 0.343967 0.611531
Si Si2 0.108201 0.064973 0.851276
Si Si3 0.884086 0.852639 0.330914
Si Si4 0.864457 0.063189 0.652295
Si Si5 0.360497 0.239197 0.180465
Si Si6 0.594714 0.227244 0.365716
Si Si7 0.293194 0.436050 0.813033
Si Si8 0.725285 0.333895 0.559262
O O1 0.165378 0.312058 0.765619
O O2 0.132560 0.302266 0.519080
O O3 0.190135 0.400111 0.667502
O O4 0.000000 0.364252 0.500000
O O5 0.158153 0.102174 0.804330
O O6 0.979607 0.074397 0.716580
O O7 0.138412 0.000000 0.861706
O O8 0.154385 0.086356 0.017851
O O9 0.900251 0.792368 0.292253
O O10 0.793690 0.847899 0.331542
O O11 0.000000 0.872776 0.500000
O O12 0.878146 0.068696 0.800312
O O13 0.778986 0.107908 0.513941
O O14 0.823198 0.000000 0.579794
O O15 0.464065 0.224509 0.210061
O O16 0.250000 0.250000 0.000000
O O17 0.633546 0.292041 0.413045
O O18 0.655538 0.194597 0.329158
O O19 0.254159 0.500000 0.788437
#
# Coordination Sequence:
#
# PCOD8088461 Si02
#       8
#     8   8   8   8   8   8   8   8
#     4  10  19  34  56  79 104 139 182 227 278 329
#     4  10  21  34  52  80 114 150 185 230 284 334
#     4  12  20  35  55  81 111 148 187 229 274 330
#     4  10  19  32  53  81 111 147 185 231 281 332
#     4  11  21  36  56  81 111 142 183 227 281 335
#     4  10  20  36  55  78 109 147 182 224 277 332
#     4  10  20  35  52  77 112 144 184 233 284 331
#     4  11  20  34  58  78 113 147 187 228 273 333
#
# _framework density 18.183444000000001
#
# number of rings (size 3 to 8) (size 9 to 14) (size 15 to 20)
#    0.000    1.500    5.000    1.500    0.000    2.500 
#    0.000    0.625    0.000    0.000    0.000    0.000 
#    0.000    6.500    0.000    0.000    0.000    0.000 
#
# Total GULP energy -396784.041714 kJ/mol
# GULP energy per Si atom -12399.501304 kJ/mol
# Density = 1.814206 g / cm^3
# Si number density = 18.183444 Si / 1000 Ang^3
#
#
#
# Elastic Constant Matrix: (Units=GPa)
#
#
# Indices 1 2 3 4 5 6 
#
# 1 123.8557 39.9036 42.4079 0.0000 -10.0650 0.0000
# 2 39.9036 91.9133 30.8495 0.0000 -5.4902 0.0000
# 3 42.4079 30.8495 74.2803 0.0000 -0.0275 0.0000
# 4 0.0000 0.0000 0.0000 27.0454 0.0000 -4.7049
# 5 -10.0650 -5.4902 -0.0275 0.0000 26.9083 0.0000
# 6 0.0000 0.0000 0.0000 -4.7049 0.0000 28.1690
#
#
#
# Elastic Compliance Matrix: (Units=1/GPa)
#
#
# Indices 1 2 3 4 5 6 
#
# 1 0.011033 -0.002864 -0.005108 0.000000 0.003537 0.000000
# 2 -0.002864 0.013566 -0.003998 0.000000 0.001693 0.000000
# 3 -0.005108 -0.003998 0.018038 0.000000 -0.002708 0.000000
# 4 0.000000 0.000000 0.000000 0.038081 0.000000 0.006361
# 5 0.003537 0.001693 -0.002708 0.000000 0.038829 0.000000
# 6 0.000000 0.000000 0.000000 0.006361 0.000000 0.036562
#
#
# Mechanical properties :
#
#
# Convention : Reuss Voigt Hill
#
# Bulk Modulus (GPa) = 53.48622 57.37460 55.43041
# Shear Modulus (GPa) = 26.84065 28.21709 27.52887
#
# Velocity S-wave (km/s) = 3.84618 3.94356 3.89518
# Velocity P-wave (km/s) = 7.01447 7.23583 7.12601
#
# Compressibility (1/GPa) = 0.01869640
#
# Stress axis : x y z
#
# Youngs Moduli (GPa) = 90.63573 73.71139 55.43706
#
# Poissons Ratio (x) = 0.21112 0.28318
# Poissons Ratio (y) = 0.25960 0.22166
# Poissons Ratio (z) = 0.46298 0.29473
#
# Static dielectric constant tensor:
#      x y z
#    x 3.552190 0.000000 -0.161680 
#    y 0.000000 3.388040 0.000000 
#    z -0.161680 0.000000 3.065010 
# 
# 
# High freq. dielectric constant tensor:
#      x y z
#    x 1.708070 0.000000 -0.013530 
#    y 0.000000 1.711740 0.000000 
#    z -0.013530 0.000000 1.672030 
# 
# From -- ./inp_files/169693.got.cif
#   From: 2010.06.25/outbox.cif.g09.slc.cpg/sg12_85_cif.got.tgz:169693.got - 2010.06.28 00:19:55.
