data_PCOD8088115
_publ_section_title
;
Structure prediction by ZEFSAII (Michael W. Deem and Ramdas Pophale) SiO2 
 PCOD8088115
Probable space group: C 2/M
;
_chemical_formula_sum "Si O2"
_cell_formula_units_Z 56
_cell_length_a 27.788155
_cell_length_b 9.268400
_cell_length_c 19.270336
_cell_angle_alpha 90.000000
_cell_angle_beta 38.374253
_cell_angle_gamma 90.000000
_cell_volume 3081.075659
_symmetry_space_group_name_H-M "C 2/M"
_symmetry_group_IT_number 12
_symmetry_cell_setting 'monoclinic'
loop_
_space_group_symop_operation_xyz
x,y,z
-x,y,-z
-x,-y,-z
x,-y,z
1/2+x,1/2+y,z
1/2-x,1/2+y,-z
1/2-x,1/2-y,-z
1/2+x,1/2-y,z
loop_
_atom_site_type_symbol
_atom_site_label
_atom_site_fract_x
_atom_site_fract_y
_atom_site_fract_z
Si Si1 0.388072 0.832644 0.783999
Si Si2 0.543525 0.665658 0.759212
Si Si3 0.749030 0.332383 0.841975
Si Si4 0.787592 0.832688 0.394395
Si Si5 0.316194 0.831977 0.616537
Si Si6 0.392143 0.831640 0.939704
Si Si7 0.540921 0.668295 0.601540
O O1 0.311641 0.787605 0.828883
O O2 0.372493 0.797391 0.881979
O O3 0.458733 0.738505 0.674850
O O4 0.408980 0.000000 0.749043
O O5 0.517874 0.500000 0.797528
O O6 0.620987 0.702447 0.714671
O O7 0.475512 0.765972 0.865343
O O8 0.560946 0.699241 0.659014
O O9 0.727302 0.500000 0.872818
O O10 0.782176 0.293791 0.729556
O O11 0.672069 0.240162 0.939498
O O12 0.750000 0.750000 0.500000
O O13 0.748002 0.786122 0.367346
O O14 0.775081 0.000000 0.424552
O O15 0.393735 0.740404 0.519475
O O16 0.337661 0.000000 0.585797
O O17 0.394492 0.000000 0.952795
O O18 0.537136 0.500000 0.588649
#
# Coordination Sequence:
#
# PCOD8088115 Si02
#       7
#     8   8   8   8   8   8   8
#     4   9  19  35  55  77 103 136 177 218 259 309
#     4   9  18  33  53  78 105 134 169 212 260 308
#     4  10  21  37  54  74 104 143 177 212 260 311
#     4  10  19  33  55  81 106 134 172 214 257 308
#     4  10  21  35  53  77 107 141 175 210 257 316
#     4  10  20  34  55  80 102 132 175 221 262 302
#     4  10  19  32  52  79 108 137 172 216 263 306
#
# _framework density 18.175471999999999
#
# number of rings (size 3 to 8) (size 9 to 14) (size 15 to 20)
#    0.000    2.286    1.429    1.286    0.000    3.429 
#    0.000    3.571    0.000    4.286    0.000    0.000 
#    0.000    0.000    0.000    0.000    0.000    0.000 
#
# Total GULP energy -347315.093143 kJ/mol
# GULP energy per Si atom -12404.110469 kJ/mol
# Density = 1.813410 g / cm^3
# Si number density = 18.175472 Si / 1000 Ang^3
#
#
#
# Elastic Constant Matrix: (Units=GPa)
#
#
# Indices 1 2 3 4 5 6 
#
# 1 29.1425 22.9098 30.5785 -0.0139 -11.5013 0.0102
# 2 22.9098 79.8522 69.2646 -0.0014 -13.5050 0.0090
# 3 30.5785 69.2646 126.2503 -0.0045 -20.8518 0.0055
# 4 -0.0139 -0.0014 -0.0045 36.6540 0.0000 -4.6435
# 5 -11.5013 -13.5050 -20.8518 0.0000 22.4125 -0.0037
# 6 0.0102 0.0090 0.0055 -4.6435 -0.0037 21.2533
#
#
#
# Elastic Compliance Matrix: (Units=1/GPa)
#
#
# Indices 1 2 3 4 5 6 
#
# 1 0.053096 -0.006928 -0.006202 0.000017 0.017303 -0.000014
# 2 -0.006928 0.024927 -0.011939 -0.000004 0.000358 -0.000005
# 3 -0.006202 -0.011939 0.016848 0.000000 0.005298 0.000005
# 4 0.000017 -0.000004 0.000000 0.028059 0.000008 0.006130
# 5 0.017303 0.000358 0.005298 0.000008 0.058642 0.000002
# 6 -0.000014 -0.000005 0.000005 0.006130 0.000002 0.048391
#
#
# Mechanical properties :
#
#
# Convention : Reuss Voigt Hill
#
# Bulk Modulus (GPa) = 22.35382 53.41675 37.88528
# Shear Modulus (GPa) = 16.94856 23.56344 20.25600
#
# Velocity S-wave (km/s) = 3.05699 3.60452 3.34199
# Velocity P-wave (km/s) = 4.97854 6.83935 5.98175
#
# Compressibility (1/GPa) = 0.04473509
#
# Stress axis : x y z
#
# Youngs Moduli (GPa) = 18.83368 40.11745 59.35500
#
# Poissons Ratio (x) = 0.27792 0.36810
# Poissons Ratio (y) = 0.13047 0.70861
# Poissons Ratio (z) = 0.11680 0.47894
#
# Static dielectric constant tensor:
#      x y z
#    x 3.422640 -0.000010 -0.095480 
#    y -0.000010 3.335000 0.000010 
#    z -0.095480 0.000010 3.226760 
# 
# 
# High freq. dielectric constant tensor:
#      x y z
#    x 1.699850 0.000000 -0.014860 
#    y 0.000000 1.704610 0.000000 
#    z -0.014860 0.000000 1.698970 
# 
# From -- ./inp_files/280909.got.cif
#   From: 2010.06.25/outbox.cif.g09.slc.cpg/sg12_141_cif.got.tgz:280909.got - 2010.06.28 00:19:55.
