data_PCOD8088891
_publ_section_title
;
Structure prediction by ZEFSAII (Michael W. Deem and Ramdas Pophale) SiO2 
 PCOD8088891
Probable space group: C 2/M
;
_chemical_formula_sum "Si O2"
_cell_formula_units_Z 64
_cell_length_a 25.952401
_cell_length_b 20.075092
_cell_length_c 11.171860
_cell_angle_alpha 90.000000
_cell_angle_beta 147.283560
_cell_angle_gamma 90.000000
_cell_volume 3145.876070
_symmetry_space_group_name_H-M "C 2/M"
_symmetry_group_IT_number 12
_symmetry_cell_setting 'monoclinic'
loop_
_space_group_symop_operation_xyz
x,y,z
-x,y,-z
-x,-y,-z
x,-y,z
1/2+x,1/2+y,z
1/2-x,1/2+y,-z
1/2-x,1/2-y,-z
1/2+x,1/2-y,z
loop_
_atom_site_type_symbol
_atom_site_label
_atom_site_fract_x
_atom_site_fract_y
_atom_site_fract_z
Si Si1 0.554785 0.424983 0.930298
Si Si2 0.219648 0.149413 0.357818
Si Si3 0.280111 0.839555 0.027661
Si Si4 0.870506 0.837261 0.576114
Si Si5 0.601490 0.424243 0.749185
Si Si6 0.291910 0.227653 0.278256
Si Si7 0.205943 0.424845 0.148667
Si Si8 0.605745 0.076294 0.195865
O O1 0.516991 0.500000 0.882569
O O2 0.472957 0.370506 0.796035
O O3 0.597168 0.418666 0.882227
O O4 0.643676 0.409986 0.190476
O O5 0.179301 0.186979 0.397002
O O6 0.225900 0.196619 0.253933
O O7 0.323782 0.118861 0.584056
O O8 0.175996 0.871509 0.844248
O O9 0.275749 0.772754 0.938501
O O10 0.337901 0.892306 0.058437
O O11 0.330555 0.827051 0.256523
O O12 0.876670 0.770633 0.505276
O O13 0.804304 0.889939 0.378670
O O14 0.500000 0.402689 0.500000
O O15 0.627679 0.500000 0.761132
O O16 0.232958 0.500000 0.173895
O O17 0.129007 0.417803 0.101835
O O18 0.610244 0.000000 0.249099
O O19 0.500000 0.106065 0.000000
#
# Coordination Sequence:
#
# PCOD8088891 Si02
#       8
#     8   8   8   8   8   8   8   8
#     4  11  22  36  59  96 129 154 193 249 313 368
#     4  11  21  38  60  86 121 155 198 248 303 359
#     4  10  19  35  57  77 114 158 201 245 289 345
#     4  10  21  36  57  83 122 162 197 239 296 367
#     4  10  19  32  55  88 125 159 195 241 302 372
#     4  10  21  37  54  76 110 162 209 237 280 341
#     4   9  17  32  58  87 112 148 193 241 303 364
#     4   9  19  37  62  86 111 144 188 245 306 365
#
# _framework density 20.344093999999998
#
# number of rings (size 3 to 8) (size 9 to 14) (size 15 to 20)
#    0.000    2.000    1.250    3.375    0.000    3.000 
#    0.000    5.000    5.500    0.000    0.000    2.625 
#    0.000    0.000    0.000    0.000    0.000    0.000 
#
# Total GULP energy -396585.915910 kJ/mol
# GULP energy per Si atom -12393.309872 kJ/mol
# Density = 2.029779 g / cm^3
# Si number density = 20.344094 Si / 1000 Ang^3
#
#
#
# Elastic Constant Matrix: (Units=GPa)
#
#
# Indices 1 2 3 4 5 6 
#
# 1 111.4540 55.5568 45.1845 0.0000 -17.9401 0.0000
# 2 55.5568 90.0116 42.2335 0.0000 -6.4506 0.0000
# 3 45.1845 42.2335 101.2590 0.0000 1.0051 0.0000
# 4 0.0000 0.0000 0.0000 29.4172 0.0000 -0.8969
# 5 -17.9401 -6.4506 1.0051 0.0000 35.9169 0.0000
# 6 0.0000 0.0000 0.0000 -0.8969 0.0000 44.6217
#
#
#
# Elastic Compliance Matrix: (Units=1/GPa)
#
#
# Indices 1 2 3 4 5 6 
#
# 1 0.015066 -0.007035 -0.003852 0.000000 0.006370 0.000000
# 2 -0.007035 0.017353 -0.004096 0.000000 -0.000283 0.000000
# 3 -0.003852 -0.004096 0.013333 0.000000 -0.003033 0.000000
# 4 0.000000 0.000000 0.000000 0.034015 0.000000 0.000684
# 5 0.006370 -0.000283 -0.003033 0.000000 0.031058 0.000000
# 6 0.000000 0.000000 0.000000 0.000684 0.000000 0.022424
#
#
# Mechanical properties :
#
#
# Convention : Reuss Voigt Hill
#
# Bulk Modulus (GPa) = 63.34445 65.40823 64.37634
# Shear Modulus (GPa) = 29.67767 32.64113 31.15940
#
# Velocity S-wave (km/s) = 3.82355 4.00991 3.91784
# Velocity P-wave (km/s) = 7.12017 7.32529 7.22346
#
# Compressibility (1/GPa) = 0.01578670
#
# Stress axis : x y z
#
# Youngs Moduli (GPa) = 66.37435 57.62543 75.00308
#
# Poissons Ratio (x) = 0.40541 0.28890
# Poissons Ratio (y) = 0.46697 0.30719
# Poissons Ratio (z) = 0.25566 0.23602
#
# Static dielectric constant tensor:
#      x y z
#    x 4.480410 0.000000 -0.674910 
#    y 0.000000 3.865790 0.000000 
#    z -0.674910 0.000000 3.631600 
# 
# 
# High freq. dielectric constant tensor:
#      x y z
#    x 1.812540 0.000000 -0.026480 
#    y 0.000000 1.794010 0.000000 
#    z -0.026480 0.000000 1.758280 
# 
# From -- ./inp_files/184737.got.cif
#   From: 2010.06.25/outbox.cif.g09.slc.cpg/sg12_93_cif.got.tgz:184737.got - 2010.06.28 00:19:55.
