data_PCOD8088414
_publ_section_title
;
Structure prediction by ZEFSAII (Michael W. Deem and Ramdas Pophale) SiO2 
 PCOD8088414
Probable space group: C 2/M
;
_chemical_formula_sum "Si O2"
_cell_formula_units_Z 48
_cell_length_a 20.572598
_cell_length_b 9.101450
_cell_length_c 24.824669
_cell_angle_alpha 90.000000
_cell_angle_beta 34.306767
_cell_angle_gamma 90.000000
_cell_volume 2619.825549
_symmetry_space_group_name_H-M "C 2/M"
_symmetry_group_IT_number 12
_symmetry_cell_setting 'monoclinic'
loop_
_space_group_symop_operation_xyz
x,y,z
-x,y,-z
-x,-y,-z
x,-y,z
1/2+x,1/2+y,z
1/2-x,1/2+y,-z
1/2-x,1/2-y,-z
1/2+x,1/2-y,z
loop_
_atom_site_type_symbol
_atom_site_label
_atom_site_fract_x
_atom_site_fract_y
_atom_site_fract_z
Si Si1 0.731383 0.831885 0.090635
Si Si2 0.349038 0.326743 0.280204
Si Si3 0.425225 0.830075 0.703796
Si Si4 0.888376 0.673577 0.606946
Si Si5 0.143590 0.172905 0.600516
Si Si6 0.425438 0.171607 0.901850
O O1 0.685004 0.805502 0.182493
O O2 0.630866 0.788978 0.117313
O O3 0.768686 0.000000 0.055722
O O4 0.842801 0.730353 0.005912
O O5 0.360296 0.500000 0.263808
O O6 0.228158 0.264682 0.340162
O O7 0.357388 0.281755 0.336597
O O8 0.451633 0.249920 0.177315
O O9 0.389380 0.781377 0.668670
O O10 0.527631 0.726510 0.652152
O O11 0.466067 0.000000 0.677790
O O12 0.890000 0.500000 0.598696
O O13 0.000000 0.741000 0.500000
O O14 0.250000 0.250000 0.500000
O O15 0.155954 0.000000 0.584553
O O16 0.443782 0.000000 0.897223
#
# Coordination Sequence:
#
# PCOD8088414 Si02
#       6
#     8   8   8   8   8   8
#     4   9  18  32  52  79 108 139 175 218 268 321
#     4  10  20  35  55  80 107 141 181 220 265 320
#     4  10  19  35  57  80 107 138 178 225 269 313
#     4   9  18  34  56  79 106 142 181 219 264 318
#     4  11  22  34  53  79 108 139 177 224 269 316
#     4  10  19  32  53  80 109 140 174 221 271 317
#
# _framework density 18.321829999999999
#
# number of rings (size 3 to 8) (size 9 to 14) (size 15 to 20)
#    0.000    2.167    1.667    2.000    0.000    4.667 
#    0.000    1.667    0.000    7.000    0.000    0.000 
#    0.000    0.000    0.000    0.000    0.000    0.000 
#
# Total GULP energy -297670.463695 kJ/mol
# GULP energy per Si atom -12402.935987 kJ/mol
# Density = 1.828013 g / cm^3
# Si number density = 18.321830 Si / 1000 Ang^3
#
#
#
# Elastic Constant Matrix: (Units=GPa)
#
#
# Indices 1 2 3 4 5 6 
#
# 1 91.9106 28.8290 61.7835 0.0000 -6.0369 0.0000
# 2 28.8290 47.3750 46.4600 0.0002 -3.7805 -0.0003
# 3 61.7835 46.4600 150.5625 -0.0001 -7.2054 0.0000
# 4 0.0000 0.0002 -0.0001 33.9946 0.0000 -3.4698
# 5 -6.0369 -3.7805 -7.2054 0.0000 35.0164 0.0000
# 6 0.0000 -0.0003 0.0000 -3.4698 0.0000 20.8788
#
#
#
# Elastic Compliance Matrix: (Units=1/GPa)
#
#
# Indices 1 2 3 4 5 6 
#
# 1 0.015755 -0.004600 -0.004988 0.000000 0.001193 0.000000
# 2 -0.004600 0.031675 -0.007838 0.000000 0.001014 0.000000
# 3 -0.004988 -0.007838 0.011135 0.000000 0.000585 0.000000
# 4 0.000000 0.000000 0.000000 0.029924 0.000000 0.004973
# 5 0.001193 0.001014 0.000585 0.000000 0.028994 0.000000
# 6 0.000000 0.000000 0.000000 0.004973 0.000000 0.048722
#
#
# Mechanical properties :
#
#
# Convention : Reuss Voigt Hill
#
# Bulk Modulus (GPa) = 42.17222 62.66587 52.41905
# Shear Modulus (GPa) = 23.92791 28.16300 26.04545
#
# Velocity S-wave (km/s) = 3.61775 3.92488 3.77444
# Velocity P-wave (km/s) = 6.36540 7.40383 6.90416
#
# Compressibility (1/GPa) = 0.02371229
#
# Stress axis : x y z
#
# Youngs Moduli (GPa) = 63.47363 31.57077 89.80365
#
# Poissons Ratio (x) = 0.14522 0.44798
# Poissons Ratio (y) = 0.29197 0.70389
# Poissons Ratio (z) = 0.31663 0.24745
#
# Static dielectric constant tensor:
#      x y z
#    x 3.303700 0.000010 0.100640 
#    y 0.000010 2.984950 -0.000020 
#    z 0.100640 -0.000020 3.359910 
# 
# 
# High freq. dielectric constant tensor:
#      x y z
#    x 1.695620 0.000000 0.002600 
#    y 0.000000 1.692650 0.000000 
#    z 0.002600 0.000000 1.725320 
# 
# From -- ./inp_files/229296.got.cif
#   From: 2010.06.25/outbox.cif.g09.slc.cpg/sg12_115_cif.got.tgz:229296.got - 2010.06.28 00:19:55.
