data_PCOD8088299
_publ_section_title
;
Structure prediction by ZEFSAII (Michael W. Deem and Ramdas Pophale) SiO2 
 PCOD8088299
Probable space group: C 2/M
;
_chemical_formula_sum "Si O2"
_cell_formula_units_Z 40
_cell_length_a 19.368426
_cell_length_b 9.065448
_cell_length_c 12.334779
_cell_angle_alpha 90.000000
_cell_angle_beta 92.484109
_cell_angle_gamma 90.000000
_cell_volume 2163.747932
_symmetry_space_group_name_H-M "C 2/M"
_symmetry_group_IT_number 12
_symmetry_cell_setting 'monoclinic'
loop_
_space_group_symop_operation_xyz
x,y,z
-x,y,-z
-x,-y,-z
x,-y,z
1/2+x,1/2+y,z
1/2-x,1/2+y,-z
1/2-x,1/2-y,-z
1/2+x,1/2-y,z
loop_
_atom_site_type_symbol
_atom_site_label
_atom_site_fract_x
_atom_site_fract_y
_atom_site_fract_z
Si Si1 0.910213 0.172022 0.692026
Si Si2 0.204049 0.830611 0.140642
Si Si3 0.581700 0.837689 0.516541
Si Si4 0.052530 0.325384 0.748388
Si Si5 0.160143 0.828924 0.897797
O O1 0.846227 0.208843 0.764628
O O2 0.888394 0.223470 0.569346
O O3 0.976091 0.258527 0.741214
O O4 0.928020 0.000000 0.691149
O O5 0.271134 0.729023 0.156815
O O6 0.228577 0.000000 0.146491
O O7 0.164161 0.798430 0.026114
O O8 0.500000 0.848414 0.500000
O O9 0.595452 0.785621 0.641202
O O10 0.614244 0.000000 0.497918
O O11 0.045261 0.500000 0.761232
O O12 0.093129 0.257790 0.852146
O O13 0.151274 0.000000 0.869825
#
# Coordination Sequence:
#
# PCOD8088299 Si02
#       5
#     8   8   8   8   8
#     4  10  19  32  53  78 103 131 166 207 248 296
#     4   9  20  37  53  73 103 134 163 205 258 299
#     4   8  16  31  49  71 101 134 164 201 250 295
#     4  10  20  34  52  75 105 135 165 206 251 293
#     4  10  20  35  55  75  98 132 172 208 246 299
#
# _framework density 18.486442
#
# number of rings (size 3 to 8) (size 9 to 14) (size 15 to 20)
#    0.000    2.600    0.000    3.000    0.000    7.600 
#    0.000    5.000    0.000    0.000    0.000    0.000 
#    0.000    0.000    0.000    0.000    0.000    0.000 
#
# Total GULP energy -247984.869226 kJ/mol
# GULP energy per Si atom -12399.243461 kJ/mol
# Density = 1.844437 g / cm^3
# Si number density = 18.486442 Si / 1000 Ang^3
#
#
#
# Elastic Constant Matrix: (Units=GPa)
#
#
# Indices 1 2 3 4 5 6 
#
# 1 20.6054 18.0558 0.0408 0.0000 -11.1437 0.0000
# 2 18.0558 79.6748 16.3685 0.0000 -11.0496 0.0000
# 3 0.0408 16.3685 41.0769 0.0000 -17.5400 0.0000
# 4 0.0000 0.0000 0.0000 33.3587 0.0000 1.7057
# 5 -11.1437 -11.0496 -17.5400 0.0000 29.2021 0.0000
# 6 0.0000 0.0000 0.0000 1.7057 0.0000 29.6953
#
#
#
# Elastic Compliance Matrix: (Units=1/GPa)
#
#
# Indices 1 2 3 4 5 6 
#
# 1 0.087830 -0.019362 0.025301 0.000000 0.041387 0.000000
# 2 -0.019362 0.018082 -0.009979 0.000000 -0.006541 0.000000
# 3 0.025301 -0.009979 0.041433 0.000000 0.030766 0.000000
# 4 0.000000 0.000000 0.000000 0.030066 0.000000 -0.001727
# 5 0.041387 -0.006541 0.030766 0.000000 0.066042 0.000000
# 6 0.000000 0.000000 0.000000 -0.001727 0.000000 0.033775
#
#
# Mechanical properties :
#
#
# Convention : Reuss Voigt Hill
#
# Bulk Modulus (GPa) = 7.18057 23.36524 15.27291
# Shear Modulus (GPa) = 15.07252 25.57735 20.32493
#
# Velocity S-wave (km/s) = 2.85849 3.72368 3.31939
# Velocity P-wave (km/s) = 3.84543 5.58160 4.79278
#
# Compressibility (1/GPa) = 0.13926477
#
# Stress axis : x y z
#
# Youngs Moduli (GPa) = 11.38558 55.30401 24.13533
#
# Poissons Ratio (x) = 1.07080 -0.61065
# Poissons Ratio (y) = 0.22045 0.24085
# Poissons Ratio (z) = -0.28807 0.55188
#
# Static dielectric constant tensor:
#      x y z
#    x 3.064510 0.000000 0.030140 
#    y 0.000000 3.487140 0.000000 
#    z 0.030140 0.000000 3.738820 
# 
# 
# High freq. dielectric constant tensor:
#      x y z
#    x 1.688930 0.000000 -0.000370 
#    y 0.000000 1.726100 0.000000 
#    z -0.000370 0.000000 1.723100 
# 
# From -- ./inp_files/151847.got.cif
#   From: 2010.06.25/outbox.cif.g09.slc.cpg/sg12_76_cif.got.tgz:151847.got - 2010.06.28 00:19:55.
