data_PCOD8088004
_publ_section_title
;
Structure prediction by ZEFSAII (Michael W. Deem and Ramdas Pophale) SiO2 
 PCOD8088004
Probable space group: C 2/M
;
_chemical_formula_sum "Si O2"
_cell_formula_units_Z 64
_cell_length_a 15.310450
_cell_length_b 8.961211
_cell_length_c 22.631244
_cell_angle_alpha 90.000000
_cell_angle_beta 90.080381
_cell_angle_gamma 90.000000
_cell_volume 3105.007535
_symmetry_space_group_name_H-M "C 2/M"
_symmetry_group_IT_number 12
_symmetry_cell_setting 'monoclinic'
loop_
_space_group_symop_operation_xyz
x,y,z
-x,y,-z
-x,-y,-z
x,-y,z
1/2+x,1/2+y,z
1/2-x,1/2+y,-z
1/2-x,1/2-y,-z
1/2+x,1/2-y,z
loop_
_atom_site_type_symbol
_atom_site_label
_atom_site_fract_x
_atom_site_fract_y
_atom_site_fract_z
Si Si1 0.345135 0.325127 0.623534
Si Si2 0.764028 0.676667 0.062779
Si Si3 0.403044 0.162872 0.733657
Si Si4 0.340947 0.325010 0.369674
Si Si5 0.389083 0.326412 0.848170
Si Si6 0.908394 0.824579 0.139343
Si Si7 0.158931 0.171553 0.503789
Si Si8 0.898763 0.336835 0.254963
O O1 0.324941 0.500000 0.632351
O O2 0.406885 0.266480 0.675427
O O3 0.258448 0.227567 0.628422
O O4 0.391452 0.297995 0.558639
O O5 0.773764 0.500000 0.056818
O O6 0.678840 0.719762 0.101185
O O7 0.854270 0.741373 0.088633
O O8 0.750000 0.750000 0.000000
O O9 0.355802 0.243982 0.788435
O O10 0.500163 0.137156 0.755070
O O11 0.359346 0.000000 0.721289
O O12 0.346870 0.500000 0.355963
O O13 0.387262 0.284548 0.433717
O O14 0.388303 0.237275 0.318410
O O15 0.384465 0.500000 0.833413
O O16 0.488504 0.285113 0.867546
O O17 0.867192 0.768945 0.201754
O O18 0.892473 0.000000 0.134219
O O19 0.250000 0.250000 0.500000
O O20 0.182643 0.000000 0.508913
O O21 0.851562 0.500000 0.252376
#
# Coordination Sequence:
#
# PCOD8088004 Si02
#       8
#     8   8   8   8   8   8   8   8
#     4  10  19  32  52  76 105 141 181 229 286 342
#     4  11  24  42  64  93 126 159 198 241 286 345
#     4  10  21  36  55  80 110 143 186 234 281 338
#     4  10  19  32  52  77 104 138 184 233 280 337
#     4   9  21  41  63  86 119 161 199 239 293 351
#     4  10  21  40  64  89 119 158 200 244 293 346
#     4   8  16  30  47  70 100 136 179 227 279 336
#     4  10  21  37  55  79 111 146 184 231 285 341
#
# _framework density 20.611867
#
# number of rings (size 3 to 8) (size 9 to 14) (size 15 to 20)
#    0.000    2.250    0.000    2.250    1.750    4.500 
#    0.000    3.125    0.000    3.750    0.000    0.000 
#    0.000    0.000    0.000    0.000    0.000    0.000 
#
# Total GULP energy -396440.216210 kJ/mol
# GULP energy per Si atom -12388.756757 kJ/mol
# Density = 2.056495 g / cm^3
# Si number density = 20.611867 Si / 1000 Ang^3
#
#
#
# Elastic Constant Matrix: (Units=GPa)
#
#
# Indices 1 2 3 4 5 6 
#
# 1 39.6714 14.0334 16.1325 0.0000 8.8417 0.0000
# 2 14.0334 85.1392 45.4166 0.0000 4.4244 0.0000
# 3 16.1325 45.4166 142.0840 0.0000 16.9115 0.0000
# 4 0.0000 0.0000 0.0000 37.5185 0.0000 2.6533
# 5 8.8417 4.4244 16.9115 0.0000 18.2656 0.0000
# 6 0.0000 0.0000 0.0000 2.6533 0.0000 26.2899
#
#
#
# Elastic Compliance Matrix: (Units=1/GPa)
#
#
# Indices 1 2 3 4 5 6 
#
# 1 0.029702 -0.003912 -0.000588 0.000000 -0.012885 0.000000
# 2 -0.003912 0.014687 -0.004554 0.000000 0.002553 0.000000
# 3 -0.000588 -0.004554 0.009435 0.000000 -0.007348 0.000000
# 4 0.000000 0.000000 0.000000 0.026845 0.000000 -0.002709
# 5 -0.012885 0.002553 -0.007348 0.000000 0.067170 0.000000
# 6 0.000000 0.000000 0.000000 -0.002709 0.000000 0.038311
#
#
# Mechanical properties :
#
#
# Convention : Reuss Voigt Hill
#
# Bulk Modulus (GPa) = 27.99975 46.45106 37.22541
# Shear Modulus (GPa) = 23.13050 29.16893 26.14972
#
# Velocity S-wave (km/s) = 3.35355 3.76593 3.56571
# Velocity P-wave (km/s) = 5.34872 6.44163 5.92045
#
# Compressibility (1/GPa) = 0.03571460
#
# Stress axis : x y z
#
# Youngs Moduli (GPa) = 33.66778 68.08684 105.98599
#
# Poissons Ratio (x) = 0.26638 0.06234
# Poissons Ratio (y) = 0.13172 0.48269
# Poissons Ratio (z) = 0.01980 0.31009
#
# Static dielectric constant tensor:
#      x y z
#    x 3.445960 0.000000 0.016340 
#    y 0.000000 4.026650 0.000000 
#    z 0.016340 0.000000 4.162580 
# 
# 
# High freq. dielectric constant tensor:
#      x y z
#    x 1.775330 0.000000 0.002320 
#    y 0.000000 1.817460 0.000000 
#    z 0.002320 0.000000 1.821150 
# 
# From -- ./inp_files/314041.got.cif
#   From: 2010.06.25/outbox.cif.g09.slc.cpg/sg12_158_cif.got.tgz:314041.got - 2010.06.28 00:19:55.
