data_PCOD8088448
_publ_section_title
;
Structure prediction by ZEFSAII (Michael W. Deem and Ramdas Pophale) SiO2 
 PCOD8088448
Probable space group: C 2/M
;
_chemical_formula_sum "Si O2"
_cell_formula_units_Z 56
_cell_length_a 24.332172
_cell_length_b 8.989789
_cell_length_c 13.979761
_cell_angle_alpha 90.000000
_cell_angle_beta 81.967201
_cell_angle_gamma 90.000000
_cell_volume 3027.944326
_symmetry_space_group_name_H-M "C 2/M"
_symmetry_group_IT_number 12
_symmetry_cell_setting 'monoclinic'
loop_
_space_group_symop_operation_xyz
x,y,z
-x,y,-z
-x,-y,-z
x,-y,z
1/2+x,1/2+y,z
1/2-x,1/2+y,-z
1/2-x,1/2-y,-z
1/2+x,1/2-y,z
loop_
_atom_site_type_symbol
_atom_site_label
_atom_site_fract_x
_atom_site_fract_y
_atom_site_fract_z
Si Si1 0.305359 0.174624 0.025401
Si Si2 0.200909 0.673092 0.293103
Si Si3 0.030927 0.825867 0.298477
Si Si4 0.081944 0.674885 0.664207
Si Si5 0.189399 0.326500 0.753840
Si Si6 0.902941 0.672108 0.556395
Si Si7 0.634376 0.325235 0.146976
O O1 0.358214 0.242972 0.956209
O O2 0.301692 0.000000 0.007601
O O3 0.250000 0.250000 0.000000
O O4 0.314748 0.212179 0.133628
O O5 0.203199 0.500000 0.265220
O O6 0.261324 0.733058 0.307818
O O7 0.159249 0.702509 0.391099
O O8 0.182117 0.766153 0.205607
O O9 0.051758 0.761640 0.394217
O O10 0.074058 0.785870 0.203683
O O11 0.972625 0.755377 0.282871
O O12 0.024198 0.000000 0.312881
O O13 0.072021 0.500000 0.672620
O O14 0.132647 0.725467 0.718236
O O15 0.094570 0.726478 0.553068
O O16 0.200684 0.500000 0.732687
O O17 0.918931 0.500000 0.562569
O O18 0.643243 0.500000 0.131800
#
# Coordination Sequence:
#
# PCOD8088448 Si02
#       7
#     8   8   8   8   8   8   8
#     4  11  21  34  56  83 109 139 178 221 268 321
#     4  10  19  32  53  81 109 139 177 221 267 318
#     4  10  21  36  56  82 109 138 179 228 271 312
#     4  10  21  38  56  75 107 149 183 217 264 320
#     4  10  22  37  53  77 111 145 177 217 269 323
#     4   9  19  35  56  81 107 140 183 222 262 318
#     4  10  20  35  55  80 109 139 175 223 272 318
#
# _framework density 18.494395999999998
#
# number of rings (size 3 to 8) (size 9 to 14) (size 15 to 20)
#    0.000    2.000    1.429    2.143    0.000    6.286 
#    0.000    0.714    0.000    4.286    0.000    0.000 
#    0.000    0.000    0.000    0.000    0.000    0.000 
#
# Total GULP energy -347313.489434 kJ/mol
# GULP energy per Si atom -12404.053194 kJ/mol
# Density = 1.845230 g / cm^3
# Si number density = 18.494396 Si / 1000 Ang^3
#
#
#
# Elastic Constant Matrix: (Units=GPa)
#
#
# Indices 1 2 3 4 5 6 
#
# 1 147.8279 52.3502 53.6577 0.0000 0.7135 0.0000
# 2 52.3502 64.7941 31.5034 0.0000 -4.1773 0.0000
# 3 53.6577 31.5034 70.3260 0.0000 -6.4130 0.0000
# 4 0.0000 0.0000 0.0000 22.1134 0.0000 -4.2571
# 5 0.7135 -4.1773 -6.4130 0.0000 23.9508 0.0000
# 6 0.0000 0.0000 0.0000 -4.2571 0.0000 35.7705
#
#
#
# Elastic Compliance Matrix: (Units=1/GPa)
#
#
# Indices 1 2 3 4 5 6 
#
# 1 0.011192 -0.006331 -0.005981 0.000000 -0.003039 0.000000
# 2 -0.006331 0.023340 -0.005368 0.000000 0.002822 0.000000
# 3 -0.005981 -0.005368 0.021647 0.000000 0.005038 0.000000
# 4 0.000000 0.000000 0.000000 0.046282 0.000000 0.005508
# 5 -0.003039 0.002822 0.005038 0.000000 0.043684 0.000000
# 6 0.000000 0.000000 0.000000 0.005508 0.000000 0.028612
#
#
# Mechanical properties :
#
#
# Convention : Reuss Voigt Hill
#
# Bulk Modulus (GPa) = 48.02970 61.99673 55.01321
# Shear Modulus (GPa) = 23.03567 26.06270 24.54919
#
# Velocity S-wave (km/s) = 3.53306 3.75803 3.64728
# Velocity P-wave (km/s) = 6.53220 7.24052 6.89546
#
# Compressibility (1/GPa) = 0.02082045
#
# Stress axis : x y z
#
# Youngs Moduli (GPa) = 89.35020 42.84450 46.19656
#
# Poissons Ratio (x) = 0.27123 0.27628
# Poissons Ratio (y) = 0.56564 0.24798
# Poissons Ratio (z) = 0.53436 0.22999
#
# Static dielectric constant tensor:
#      x y z
#    x 3.453020 0.000000 -0.204970 
#    y 0.000000 3.405940 0.000000 
#    z -0.204970 0.000000 3.501920 
# 
# 
# High freq. dielectric constant tensor:
#      x y z
#    x 1.716020 0.000000 -0.018210 
#    y 0.000000 1.722110 0.000000 
#    z -0.018210 0.000000 1.711180 
# 
# From -- ./inp_files/230864.got.cif
#   From: 2010.06.25/outbox.cif.g09.slc.cpg/sg12_116_cif.got.tgz:230864.got - 2010.06.28 00:19:55.
