data_PCOD8088036
_publ_section_title
;
Structure prediction by ZEFSAII (Michael W. Deem and Ramdas Pophale) SiO2 
 PCOD8088036
Probable space group: C 2/M
;
_chemical_formula_sum "Si O2"
_cell_formula_units_Z 64
_cell_length_a 20.606431
_cell_length_b 9.397923
_cell_length_c 21.568586
_cell_angle_alpha 90.000000
_cell_angle_beta 118.181609
_cell_angle_gamma 90.000000
_cell_volume 3681.768899
_symmetry_space_group_name_H-M "C 2/M"
_symmetry_group_IT_number 12
_symmetry_cell_setting 'monoclinic'
loop_
_space_group_symop_operation_xyz
x,y,z
-x,y,-z
-x,-y,-z
x,-y,z
1/2+x,1/2+y,z
1/2-x,1/2+y,-z
1/2-x,1/2-y,-z
1/2+x,1/2-y,z
loop_
_atom_site_type_symbol
_atom_site_label
_atom_site_fract_x
_atom_site_fract_y
_atom_site_fract_z
Si Si1 0.823576 0.662664 0.033494
Si Si2 0.084220 0.836329 0.686503
Si Si3 0.706268 0.667404 0.532352
Si Si4 0.585155 0.167030 0.044054
Si Si5 0.305625 0.668598 0.823617
Si Si6 0.733485 0.335663 0.685010
Si Si7 0.459280 0.331350 0.541052
Si Si8 0.654377 0.838462 0.818394
O O1 0.800486 0.500000 0.013719
O O2 0.862872 0.685502 0.117264
O O3 0.750000 0.750000 0.000000
O O4 0.878668 0.712539 0.004814
O O5 0.149399 0.805032 0.667038
O O6 0.094760 0.752483 0.754809
O O7 0.006489 0.787887 0.622628
O O8 0.082760 0.000000 0.704132
O O9 0.709036 0.500000 0.519583
O O10 0.750000 0.750000 0.500000
O O11 0.740485 0.700251 0.615415
O O12 0.623153 0.727549 0.491073
O O13 0.621614 0.257734 0.115742
O O14 0.595797 0.000000 0.063093
O O15 0.500000 0.207965 0.000000
O O16 0.318565 0.500000 0.823136
O O17 0.288972 0.734783 0.748354
O O18 0.238003 0.706909 0.839130
O O19 0.753921 0.500000 0.707421
O O20 0.500000 0.263898 0.500000
O O21 0.456402 0.500000 0.531475
O O22 0.642972 0.000000 0.792714
#
# Coordination Sequence:
#
# PCOD8088036 Si02
#       8
#     8   8   8   8   8   8   8   8
#     4  10  19  33  53  75 101 132 168 210 254 302
#     4   9  16  28  51  78  98 124 170 217 255 297
#     4  10  20  34  53  77 107 140 173 214 260 309
#     4  10  21  36  54  77 105 139 177 212 252 308
#     4  10  19  32  52  77 104 134 169 214 263 307
#     4   9  17  31  52  76 100 132 174 214 255 308
#     4   9  15  29  53  77  99 128 171 218 256 294
#     4   9  18  31  47  73 106 133 161 205 264 308
#
# _framework density 17.382949
#
# number of rings (size 3 to 8) (size 9 to 14) (size 15 to 20)
#    0.000    2.500    2.500    0.375    0.000    1.750 
#    0.000    1.875    0.000    5.250    0.000    0.000 
#    0.000    0.000    0.000    0.000    0.000    0.000 
#
# Total GULP energy -396778.005449 kJ/mol
# GULP energy per Si atom -12399.312670 kJ/mol
# Density = 1.734339 g / cm^3
# Si number density = 17.382949 Si / 1000 Ang^3
#
#
#
# Elastic Constant Matrix: (Units=GPa)
#
#
# Indices 1 2 3 4 5 6 
#
# 1 106.0289 42.4587 69.8035 0.0000 3.9529 0.0000
# 2 42.4587 62.4812 64.7622 0.0000 4.3693 0.0000
# 3 69.8035 64.7622 137.7421 0.0000 8.4232 0.0000
# 4 0.0000 0.0000 0.0000 30.6972 0.0000 -3.0494
# 5 3.9529 4.3693 8.4232 0.0000 26.9165 0.0000
# 6 0.0000 0.0000 0.0000 -3.0494 0.0000 19.5589
#
#
#
# Elastic Compliance Matrix: (Units=1/GPa)
#
#
# Indices 1 2 3 4 5 6 
#
# 1 0.014761 -0.004445 -0.005405 0.000000 0.000245 0.000000
# 2 -0.004445 0.032564 -0.013024 0.000000 -0.000558 0.000000
# 3 -0.005405 -0.013024 0.016256 0.000000 -0.002179 0.000000
# 4 0.000000 0.000000 0.000000 0.033089 0.000000 0.005159
# 5 0.000245 -0.000558 -0.002179 0.000000 0.037888 0.000000
# 6 0.000000 0.000000 0.000000 0.005159 0.000000 0.051932
#
#
# Mechanical properties :
#
#
# Convention : Reuss Voigt Hill
#
# Bulk Modulus (GPa) = 56.07913 73.36678 64.72295
# Shear Modulus (GPa) = 20.99237 24.04971 22.52104
#
# Velocity S-wave (km/s) = 3.47888 3.72361 3.60332
# Velocity P-wave (km/s) = 6.96189 7.79646 7.39096
#
# Compressibility (1/GPa) = 0.01783195
#
# Stress axis : x y z
#
# Youngs Moduli (GPa) = 67.74666 30.70912 61.51622
#
# Poissons Ratio (x) = 0.13650 0.33252
# Poissons Ratio (y) = 0.30114 0.80117
# Poissons Ratio (z) = 0.36620 0.39995
#
# Static dielectric constant tensor:
#      x y z
#    x 2.992080 0.000000 0.189060 
#    y 0.000000 3.093710 0.000000 
#    z 0.189060 0.000000 3.057330 
# 
# 
# High freq. dielectric constant tensor:
#      x y z
#    x 1.645980 0.000000 -0.000170 
#    y 0.000000 1.656330 0.000000 
#    z -0.000170 0.000000 1.683240 
# 
# From -- ./inp_files/319996.got.cif
#   From: 2010.06.25/outbox.cif.g09.slc.cpg/sg12_160_cif.got.tgz:319996.got - 2010.06.28 00:19:55.
