data_PCOD8088246
_publ_section_title
;
Structure prediction by ZEFSAII (Michael W. Deem and Ramdas Pophale) SiO2 
 PCOD8088246
Probable space group: C 2/M
;
_chemical_formula_sum "Si O2"
_cell_formula_units_Z 56
_cell_length_a 26.852734
_cell_length_b 9.224140
_cell_length_c 13.269124
_cell_angle_alpha 90.000000
_cell_angle_beta 115.415237
_cell_angle_gamma 90.000000
_cell_volume 2968.593737
_symmetry_space_group_name_H-M "C 2/M"
_symmetry_group_IT_number 12
_symmetry_cell_setting 'monoclinic'
loop_
_space_group_symop_operation_xyz
x,y,z
-x,y,-z
-x,-y,-z
x,-y,z
1/2+x,1/2+y,z
1/2-x,1/2+y,-z
1/2-x,1/2-y,-z
1/2+x,1/2-y,z
loop_
_atom_site_type_symbol
_atom_site_label
_atom_site_fract_x
_atom_site_fract_y
_atom_site_fract_z
Si Si1 0.044515 0.833635 0.326513
Si Si2 0.056794 0.332781 0.675194
Si Si3 0.375389 0.666421 0.431568
Si Si4 0.718689 0.831874 0.738692
Si Si5 0.339407 0.835810 0.107501
Si Si6 0.337102 0.669176 0.902899
Si Si7 0.946726 0.172494 0.893516
O O1 0.103067 0.822468 0.434838
O O2 0.051521 0.772284 0.219767
O O3 0.001186 0.736698 0.348143
O O4 0.023530 0.000000 0.306388
O O5 0.048413 0.500000 0.637444
O O6 0.081845 0.249932 0.601994
O O7 0.096760 0.318502 0.806090
O O8 0.371864 0.500000 0.393237
O O9 0.314540 0.737725 0.372492
O O10 0.698892 0.785900 0.833066
O O11 0.783933 0.801042 0.785848
O O12 0.704196 0.000000 0.707538
O O13 0.325754 0.000000 0.064990
O O14 0.326408 0.736081 0.002165
O O15 0.344969 0.500000 0.927991
O O16 0.391353 0.735850 0.897068
O O17 0.944925 0.000000 0.894320
O O18 0.000000 0.231540 0.000000
#
# Coordination Sequence:
#
# PCOD8088246 Si02
#       7
#     8   8   8   8   8   8   8
#     4  10  20  34  52  75 102 132 171 213 249 294
#     4  10  20  33  51  77 107 136 166 203 251 305
#     4  10  20  33  51  75 102 133 168 208 254 300
#     4   9  19  34  50  73 104 134 168 209 253 303
#     4   9  18  31  47  72 105 133 160 204 257 304
#     4  10  19  32  53  76  98 133 176 212 249 295
#     4   9  18  33  53  76 101 130 166 208 251 296
#
# _framework density 18.864149999999999
#
# number of rings (size 3 to 8) (size 9 to 14) (size 15 to 20)
#    0.000    2.429    0.000    3.429    0.000    7.429 
#    0.000    1.429    0.000    2.571    0.000    0.000 
#    0.000    0.000    0.000    0.000    0.000    0.000 
#
# Total GULP energy -347207.898814 kJ/mol
# GULP energy per Si atom -12400.282101 kJ/mol
# Density = 1.882121 g / cm^3
# Si number density = 18.864150 Si / 1000 Ang^3
#
#
#
# Elastic Constant Matrix: (Units=GPa)
#
#
# Indices 1 2 3 4 5 6 
#
# 1 107.6796 33.1643 44.3700 0.0000 20.6165 0.0000
# 2 33.1643 71.1799 41.9876 0.0000 9.3471 0.0000
# 3 44.3700 41.9876 111.9448 0.0000 12.0202 0.0000
# 4 0.0000 0.0000 0.0000 20.0436 0.0000 8.9148
# 5 20.6165 9.3471 12.0202 0.0000 21.0559 0.0000
# 6 0.0000 0.0000 0.0000 8.9148 0.0000 20.4807
#
#
#
# Elastic Compliance Matrix: (Units=1/GPa)
#
#
# Indices 1 2 3 4 5 6 
#
# 1 0.013435 -0.003131 -0.003076 0.000000 -0.010009 0.000000
# 2 -0.003131 0.019164 -0.005713 0.000000 -0.002180 0.000000
# 3 -0.003076 -0.005713 0.012463 0.000000 -0.001567 0.000000
# 4 0.000000 0.000000 0.000000 0.061869 0.000000 -0.026930
# 5 -0.010009 -0.002180 -0.001567 0.000000 0.059155 0.000000
# 6 0.000000 0.000000 0.000000 -0.026930 0.000000 0.060549
#
#
# Mechanical properties :
#
#
# Convention : Reuss Voigt Hill
#
# Bulk Modulus (GPa) = 47.11972 58.87202 52.99587
# Shear Modulus (GPa) = 19.41389 23.73487 21.57438
#
# Velocity S-wave (km/s) = 3.21150 3.55096 3.38549
# Velocity P-wave (km/s) = 6.22771 6.93459 6.59063
#
# Compressibility (1/GPa) = 0.02122254
#
# Stress axis : x y z
#
# Youngs Moduli (GPa) = 74.43352 52.18160 80.23652
#
# Poissons Ratio (x) = 0.16337 0.24681
# Poissons Ratio (y) = 0.23304 0.45838
# Poissons Ratio (z) = 0.22896 0.29810
#
# Static dielectric constant tensor:
#      x y z
#    x 3.528050 0.000000 0.203660 
#    y 0.000000 3.308650 0.000000 
#    z 0.203660 0.000000 3.463920 
# 
# 
# High freq. dielectric constant tensor:
#      x y z
#    x 1.724740 0.000000 0.020290 
#    y 0.000000 1.716790 0.000000 
#    z 0.020290 0.000000 1.729430 
# 
# From -- ./inp_files/186870.got.cif
#   From: 2010.06.25/outbox.cif.g09.slc.cpg/sg12_94_cif.got.tgz:186870.got - 2010.06.28 00:19:55.
