data_PCOD8088138
_publ_section_title
;
Structure prediction by ZEFSAII (Michael W. Deem and Ramdas Pophale) SiO2 
 PCOD8088138
Probable space group: C 2/M
;
_chemical_formula_sum "Si O2"
_cell_formula_units_Z 64
_cell_length_a 15.516644
_cell_length_b 8.606154
_cell_length_c 28.614993
_cell_angle_alpha 90.000000
_cell_angle_beta 57.129306
_cell_angle_gamma 90.000000
_cell_volume 3209.422432
_symmetry_space_group_name_H-M "C 2/M"
_symmetry_group_IT_number 12
_symmetry_cell_setting 'monoclinic'
loop_
_space_group_symop_operation_xyz
x,y,z
-x,y,-z
-x,-y,-z
x,-y,z
1/2+x,1/2+y,z
1/2-x,1/2+y,-z
1/2-x,1/2-y,-z
1/2+x,1/2-y,z
loop_
_atom_site_type_symbol
_atom_site_label
_atom_site_fract_x
_atom_site_fract_y
_atom_site_fract_z
Si Si1 0.881663 0.815741 0.243434
Si Si2 0.164113 0.817918 0.058186
Si Si3 0.033770 0.182243 0.437438
Si Si4 0.469726 0.316319 0.058802
Si Si5 0.711105 0.315467 0.825253
Si Si6 0.612053 0.315554 0.174420
Si Si7 0.241296 0.816216 0.629294
Si Si8 0.840551 0.684250 0.441830
O O1 0.827236 0.748950 0.213043
O O2 0.818336 0.761664 0.307006
O O3 0.997014 0.748956 0.212291
O O4 0.885917 0.000000 0.238875
O O5 0.166951 0.756043 0.110505
O O6 0.054149 0.767344 0.071371
O O7 0.178130 0.000000 0.052778
O O8 0.250000 0.750000 0.000000
O O9 0.141216 0.267560 0.398144
O O10 0.000000 0.217944 0.500000
O O11 0.949684 0.246978 0.425928
O O12 0.047500 0.000000 0.424559
O O13 0.463317 0.500000 0.054656
O O14 0.362311 0.254048 0.111072
O O15 0.500000 0.239836 0.000000
O O16 0.712728 0.500000 0.823602
O O17 0.824601 0.250389 0.800578
O O18 0.609919 0.500000 0.176515
O O19 0.184295 0.730087 0.603817
O O20 0.235366 0.000000 0.622560
O O21 0.843855 0.500000 0.445979
O O22 0.750000 0.750000 0.500000
#
# Coordination Sequence:
#
# PCOD8088138 Si02
#       8
#     8   8   8   8   8   8   8   8
#     4   9  20  40  62  84 116 159 201 240 288 352
#     4  10  19  32  52  79 111 147 186 237 293 352
#     4  11  23  40  64  93 127 165 204 249 302 360
#     4   9  16  28  50  78 106 141 187 233 282 343
#     4  10  19  36  60  83 110 149 199 242 282 346
#     4  10  20  37  58  82 115 153 190 238 301 352
#     4  11  23  40  64  93 125 163 206 252 303 360
#     4  12  24  40  64  94 128 165 205 250 304 361
#
# _framework density 19.941284
#
# number of rings (size 3 to 8) (size 9 to 14) (size 15 to 20)
#    0.000    1.750    2.500    2.625    0.000    3.000 
#    0.000    6.250    0.000    2.250    0.000    0.000 
#    0.000    0.000    0.000    0.000    0.000    0.000 
#
# Total GULP energy -396773.392773 kJ/mol
# GULP energy per Si atom -12399.168524 kJ/mol
# Density = 1.989590 g / cm^3
# Si number density = 19.941284 Si / 1000 Ang^3
#
#
#
# Elastic Constant Matrix: (Units=GPa)
#
#
# Indices 1 2 3 4 5 6 
#
# 1 157.8827 19.8817 71.8193 0.0000 1.6478 0.0000
# 2 19.8817 39.1434 23.3933 0.0000 -0.9442 0.0000
# 3 71.8193 23.3933 137.6501 0.0000 1.4768 -0.0001
# 4 0.0000 0.0000 0.0000 19.0260 0.0000 1.3695
# 5 1.6478 -0.9442 1.4768 0.0000 33.1291 0.0000
# 6 0.0000 0.0000 -0.0001 1.3695 0.0000 32.3938
#
#
#
# Elastic Compliance Matrix: (Units=1/GPa)
#
#
# Indices 1 2 3 4 5 6 
#
# 1 0.008425 -0.001849 -0.004078 0.000000 -0.000290 0.000000
# 2 -0.001849 0.028876 -0.003954 0.000000 0.001091 0.000000
# 3 -0.004078 -0.003954 0.010069 0.000000 -0.000359 0.000000
# 4 0.000000 0.000000 0.000000 0.052720 0.000000 -0.002229
# 5 -0.000290 0.001091 -0.000359 0.000000 0.030246 0.000000
# 6 0.000000 0.000000 0.000000 -0.002229 0.000000 0.030964
#
#
# Mechanical properties :
#
#
# Convention : Reuss Voigt Hill
#
# Bulk Modulus (GPa) = 36.22406 62.76274 49.49340
# Shear Modulus (GPa) = 26.27909 31.54858 28.91383
#
# Velocity S-wave (km/s) = 3.63412 3.98184 3.81195
# Velocity P-wave (km/s) = 5.98447 7.25825 6.65192
#
# Compressibility (1/GPa) = 0.02760596
#
# Stress axis : x y z
#
# Youngs Moduli (GPa) = 118.69612 34.63113 99.31859
#
# Poissons Ratio (x) = 0.06403 0.40506
# Poissons Ratio (y) = 0.21944 0.39275
# Poissons Ratio (z) = 0.48409 0.13695
#
# Static dielectric constant tensor:
#      x y z
#    x 3.935380 0.000000 0.018460 
#    y 0.000000 3.354620 0.000000 
#    z 0.018460 0.000000 3.734200 
# 
# 
# High freq. dielectric constant tensor:
#      x y z
#    x 1.796460 0.000000 0.000970 
#    y 0.000000 1.749860 0.000000 
#    z 0.000970 0.000000 1.782080 
# 
# From -- ./inp_files/374979.got.cif
#   From: 2010.06.25/outbox.cif.g09.slc.cpg/sg12_188_cif.got.tgz:374979.got - 2010.06.28 00:19:55.
