data_PCOD8088387
_publ_section_title
;
Structure prediction by ZEFSAII (Michael W. Deem and Ramdas Pophale) SiO2 
 PCOD8088387
Probable space group: C 2/M
;
_chemical_formula_sum "Si O2"
_cell_formula_units_Z 48
_cell_length_a 14.649286
_cell_length_b 19.536077
_cell_length_c 12.701202
_cell_angle_alpha 90.000000
_cell_angle_beta 134.032850
_cell_angle_gamma 90.000000
_cell_volume 2613.317256
_symmetry_space_group_name_H-M "C 2/M"
_symmetry_group_IT_number 12
_symmetry_cell_setting 'monoclinic'
loop_
_space_group_symop_operation_xyz
x,y,z
-x,y,-z
-x,-y,-z
x,-y,z
1/2+x,1/2+y,z
1/2-x,1/2+y,-z
1/2-x,1/2-y,-z
1/2+x,1/2-y,z
loop_
_atom_site_type_symbol
_atom_site_label
_atom_site_fract_x
_atom_site_fract_y
_atom_site_fract_z
Si Si1 0.866431 0.424498 0.445036
Si Si2 0.277571 0.076793 0.597905
Si Si3 0.275998 0.787101 0.315321
Si Si4 0.560063 0.323662 0.439944
Si Si5 0.936423 0.681363 0.840506
Si Si6 0.124756 0.260675 0.830805
O O1 0.824019 0.500000 0.369513
O O2 0.874986 0.426595 0.578354
O O3 0.762367 0.366501 0.336113
O O4 0.000000 0.403560 0.500000
O O5 0.149149 0.117266 0.463653
O O6 0.341720 0.118688 0.743745
O O7 0.244283 0.000000 0.609578
O O8 0.363862 0.746540 0.470144
O O9 0.137951 0.752851 0.203591
O O10 0.336728 0.792428 0.249038
O O11 0.500000 0.352321 0.500000
O O12 0.455045 0.307821 0.265096
O O13 0.036036 0.688165 0.825577
O O14 0.000000 0.661307 0.000000
O O15 0.250000 0.250000 0.000000
#
# Coordination Sequence:
#
# PCOD8088387 Si02
#       6
#     8   8   8   8   8   8
#     4  10  19  32  53  80 106 134 171 217 269 318
#     4  10  21  36  55  78 106 141 182 225 266 317
#     4  10  19  35  55  80 106 137 177 229 266 309
#     4   9  19  34  57  80 103 135 182 224 267 312
#     4  11  21  34  53  79 107 141 181 220 272 319
#     4  11  20  33  54  82 110 138 170 225 269 316
#
# _framework density 18.367460000000001
#
# number of rings (size 3 to 8) (size 9 to 14) (size 15 to 20)
#    0.000    1.833    1.667    4.500    0.000    3.333 
#    0.000    0.000    0.000    1.500    0.000    0.000 
#    0.000    0.000    0.000    0.000    0.000    0.000 
#
# Total GULP energy -297442.178815 kJ/mol
# GULP energy per Si atom -12393.424117 kJ/mol
# Density = 1.832565 g / cm^3
# Si number density = 18.367460 Si / 1000 Ang^3
#
#
#
# Elastic Constant Matrix: (Units=GPa)
#
#
# Indices 1 2 3 4 5 6 
#
# 1 84.1919 28.9375 24.1803 0.0000 -3.5987 0.0000
# 2 28.9375 137.4584 53.8375 0.0000 1.6174 0.0000
# 3 24.1803 53.8375 115.0532 0.0000 6.0382 0.0000
# 4 0.0000 0.0000 0.0000 14.7070 0.0000 1.1596
# 5 -3.5987 1.6174 6.0382 0.0000 24.2066 0.0000
# 6 0.0000 0.0000 0.0000 1.1596 0.0000 22.7477
#
#
#
# Elastic Compliance Matrix: (Units=1/GPa)
#
#
# Indices 1 2 3 4 5 6 
#
# 1 0.013258 -0.002053 -0.001962 0.000000 0.002598 0.000000
# 2 -0.002053 0.009230 -0.003890 0.000000 0.000048 0.000000
# 3 -0.001962 -0.003890 0.011071 0.000000 -0.002793 0.000000
# 4 0.000000 0.000000 0.000000 0.068269 0.000000 -0.003480
# 5 0.002598 0.000048 -0.002793 0.000000 0.042391 0.000000
# 6 0.000000 0.000000 0.000000 -0.003480 0.000000 0.044138
#
#
# Mechanical properties :
#
#
# Convention : Reuss Voigt Hill
#
# Bulk Modulus (GPa) = 56.34305 61.17934 58.76119
# Shear Modulus (GPa) = 23.80002 27.64878 25.72440
#
# Velocity S-wave (km/s) = 3.60359 3.88405 3.74644
# Velocity P-wave (km/s) = 6.93228 7.31405 7.12572
#
# Compressibility (1/GPa) = 0.01774842
#
# Stress axis : x y z
#
# Youngs Moduli (GPa) = 75.42721 108.33958 90.32671
#
# Poissons Ratio (x) = 0.22244 0.17721
# Poissons Ratio (y) = 0.15486 0.35139
# Poissons Ratio (z) = 0.14798 0.42146
#
# Static dielectric constant tensor:
#      x y z
#    x 3.619860 0.000000 -0.017660 
#    y 0.000000 3.323730 0.000000 
#    z -0.017660 0.000000 3.371070 
# 
# 
# High freq. dielectric constant tensor:
#      x y z
#    x 1.732030 0.000000 -0.006470 
#    y 0.000000 1.694480 0.000000 
#    z -0.006470 0.000000 1.688970 
# 
# From -- ./inp_files/146924.got.cif
#   From: 2010.06.25/outbox.cif.g09.slc.cpg/sg12_74_cif.got.tgz:146924.got - 2010.06.28 00:19:55.
