data_PCOD8088605
_publ_section_title
;
Structure prediction by ZEFSAII (Michael W. Deem and Ramdas Pophale) SiO2 
 PCOD8088605
Probable space group: C 2/M
;
_chemical_formula_sum "Si O2"
_cell_formula_units_Z 56
_cell_length_a 19.140415
_cell_length_b 8.904387
_cell_length_c 20.196487
_cell_angle_alpha 90.000000
_cell_angle_beta 56.703463
_cell_angle_gamma 90.000000
_cell_volume 2877.097928
_symmetry_space_group_name_H-M "C 2/M"
_symmetry_group_IT_number 12
_symmetry_cell_setting 'monoclinic'
loop_
_space_group_symop_operation_xyz
x,y,z
-x,y,-z
-x,-y,-z
x,-y,z
1/2+x,1/2+y,z
1/2-x,1/2+y,-z
1/2-x,1/2-y,-z
1/2+x,1/2-y,z
loop_
_atom_site_type_symbol
_atom_site_label
_atom_site_fract_x
_atom_site_fract_y
_atom_site_fract_z
Si Si1 0.298154 0.177223 0.771832
Si Si2 0.423584 0.328192 0.494509
Si Si3 0.492550 0.170459 0.801985
Si Si4 0.756662 0.322530 0.568849
Si Si5 0.466028 0.329120 0.683671
Si Si6 0.190433 0.327344 0.082685
Si Si7 0.824593 0.326308 0.266258
O O1 0.388352 0.229894 0.697801
O O2 0.291804 0.229919 0.851771
O O3 0.224234 0.251789 0.768759
O O4 0.290839 0.000000 0.767454
O O5 0.500000 0.278798 0.500000
O O6 0.396180 0.500000 0.523798
O O7 0.348111 0.216157 0.549781
O O8 0.452410 0.308947 0.404004
O O9 0.497881 0.283977 0.738767
O O10 0.406783 0.203739 0.886923
O O11 0.576198 0.190606 0.802204
O O12 0.486898 0.000000 0.776783
O O13 0.742641 0.500000 0.570918
O O14 0.750000 0.250000 0.500000
O O15 0.691181 0.253666 0.654987
O O16 0.434619 0.500000 0.699600
O O17 0.212808 0.500000 0.067230
O O18 0.250000 0.250000 0.000000
O O19 0.798682 0.500000 0.285677
#
# Coordination Sequence:
#
# PCOD8088605 Si02
#       7
#     8   8   8   8   8   8   8
#     4  10  21  37  57  83 116 149 183 227 277 330
#     4  10  21  36  53  76 107 141 183 235 283 329
#     4   9  20  37  56  79 109 143 179 223 272 325
#     4  12  25  39  56  79 111 150 191 236 284 333
#     4  10  19  32  54  80 105 140 187 232 274 327
#     4   9  19  37  60  86 114 144 180 221 268 325
#     4  11  22  38  59  82 111 147 188 232 279 331
#
# _framework density 19.464057
#
# number of rings (size 3 to 8) (size 9 to 14) (size 15 to 20)
#    0.000    1.857    0.000    5.143    0.000    8.857 
#    0.000    0.714    0.000    4.286    0.000    0.000 
#    0.000    0.000    0.000    0.000    0.000    0.000 
#
# Total GULP energy -347171.520582 kJ/mol
# GULP energy per Si atom -12398.982878 kJ/mol
# Density = 1.941976 g / cm^3
# Si number density = 19.464057 Si / 1000 Ang^3
#
#
#
# Elastic Constant Matrix: (Units=GPa)
#
#
# Indices 1 2 3 4 5 6 
#
# 1 118.2101 42.0492 33.4323 -0.0001 -9.8213 -0.0004
# 2 42.0492 101.3583 38.4798 -0.0003 -5.6010 -0.0013
# 3 33.4323 38.4798 72.4774 0.0000 -12.2385 -0.0001
# 4 -0.0001 -0.0003 0.0000 31.9179 0.0000 0.5436
# 5 -9.8213 -5.6010 -12.2385 0.0000 25.5015 0.0000
# 6 -0.0004 -0.0013 -0.0001 0.5436 0.0000 35.0538
#
#
#
# Elastic Compliance Matrix: (Units=1/GPa)
#
#
# Indices 1 2 3 4 5 6 
#
# 1 0.010565 -0.003195 -0.002839 0.000000 0.002005 0.000000
# 2 -0.003195 0.013328 -0.005785 0.000000 -0.001079 0.000000
# 3 -0.002839 -0.005785 0.019347 0.000000 0.006921 0.000000
# 4 0.000000 0.000000 0.000000 0.031339 0.000000 -0.000486
# 5 0.002005 -0.001079 0.006921 0.000000 0.043070 0.000000
# 6 0.000000 0.000000 0.000000 -0.000486 0.000000 0.028535
#
#
# Mechanical properties :
#
#
# Convention : Reuss Voigt Hill
#
# Bulk Modulus (GPa) = 51.01108 57.77427 54.39268
# Shear Modulus (GPa) = 28.35203 30.36695 29.35949
#
# Velocity S-wave (km/s) = 3.82073 3.95416 3.88802
# Velocity P-wave (km/s) = 6.76230 7.11296 6.93985
#
# Compressibility (1/GPa) = 0.01960358
#
# Stress axis : x y z
#
# Youngs Moduli (GPa) = 94.64889 75.03165 51.68816
#
# Poissons Ratio (x) = 0.23969 0.14674
# Poissons Ratio (y) = 0.30236 0.29900
# Poissons Ratio (z) = 0.26871 0.43403
#
# Static dielectric constant tensor:
#      x y z
#    x 3.700890 0.000000 -0.112010 
#    y 0.000000 3.608900 0.000000 
#    z -0.112010 0.000000 3.470700 
# 
# 
# High freq. dielectric constant tensor:
#      x y z
#    x 1.769240 0.000000 -0.007830 
#    y 0.000000 1.762120 0.000000 
#    z -0.007830 0.000000 1.736080 
# 
# From -- ./inp_files/275280.got.cif
#   From: 2010.06.25/outbox.cif.g09.slc.cpg/sg12_138_cif.got.tgz:275280.got - 2010.06.28 00:19:55.
