data_PCOD8088627
_publ_section_title
;
Structure prediction by ZEFSAII (Michael W. Deem and Ramdas Pophale) SiO2 
 PCOD8088627
Probable space group: C 2/M
;
_chemical_formula_sum "Si O2"
_cell_formula_units_Z 64
_cell_length_a 24.388644
_cell_length_b 9.223040
_cell_length_c 20.643051
_cell_angle_alpha 90.000000
_cell_angle_beta 51.674521
_cell_angle_gamma 90.000000
_cell_volume 3642.746566
_symmetry_space_group_name_H-M "C 2/M"
_symmetry_group_IT_number 12
_symmetry_cell_setting 'monoclinic'
loop_
_space_group_symop_operation_xyz
x,y,z
-x,y,-z
-x,-y,-z
x,-y,z
1/2+x,1/2+y,z
1/2-x,1/2+y,-z
1/2-x,1/2-y,-z
1/2+x,1/2-y,z
loop_
_atom_site_type_symbol
_atom_site_label
_atom_site_fract_x
_atom_site_fract_y
_atom_site_fract_z
Si Si1 0.329796 0.333652 0.502198
Si Si2 0.530900 0.669495 0.044651
Si Si3 0.823894 0.668101 0.376366
Si Si4 0.680111 0.330840 0.130030
Si Si5 0.818179 0.166740 0.021365
Si Si6 0.049036 0.328378 0.276584
Si Si7 0.475820 0.668307 0.447052
Si Si8 0.037223 0.668128 0.787531
O O1 0.327076 0.500000 0.482999
O O2 0.254759 0.288690 0.588702
O O3 0.345289 0.246279 0.426309
O O4 0.392153 0.304691 0.506846
O O5 0.517186 0.500000 0.061820
O O6 0.490695 0.742831 0.132361
O O7 0.500000 0.729641 0.000000
O O8 0.613363 0.704259 0.986886
O O9 0.830038 0.500000 0.388471
O O10 0.880379 0.707196 0.279847
O O11 0.677140 0.500000 0.149678
O O12 0.756776 0.270403 0.091455
O O13 0.624537 0.245032 0.213778
O O14 0.663749 0.301527 0.066716
O O15 0.794843 0.000000 0.046999
O O16 0.058238 0.500000 0.276760
O O17 0.013971 0.266870 0.366706
O O18 0.001779 0.286110 0.249742
O O19 0.500000 0.717848 0.500000
O O20 0.493980 0.500000 0.420291
O O21 0.024770 0.500000 0.811411
#
# Coordination Sequence:
#
# PCOD8088627 Si02
#       8
#     8   8   8   8   8   8   8   8
#     4   9  17  30  51  75 102 137 171 211 261 308
#     4  10  21  37  56  78 108 144 178 216 264 318
#     4   9  17  31  50  76 104 130 169 219 263 304
#     4  10  19  32  54  81 106 137 175 221 268 313
#     4   9  18  33  52  77 108 140 174 218 266 314
#     4  11  21  34  54  80 108 140 177 222 268 314
#     4  10  21  36  53  76 108 144 179 217 263 319
#     4  10  20  33  52  78 107 137 175 223 267 313
#
# _framework density 17.569161000000001
#
# number of rings (size 3 to 8) (size 9 to 14) (size 15 to 20)
#    0.000    2.250    2.500    0.750    0.000    2.500 
#    0.000    1.250    0.000    1.500    0.000    0.000 
#    0.000    0.000    0.000    0.000    0.000    0.000 
#
# Total GULP energy -396788.345283 kJ/mol
# GULP energy per Si atom -12399.635790 kJ/mol
# Density = 1.752917 g / cm^3
# Si number density = 17.569161 Si / 1000 Ang^3
#
#
#
# Elastic Constant Matrix: (Units=GPa)
#
#
# Indices 1 2 3 4 5 6 
#
# 1 130.8493 51.0454 71.7994 -0.0009 -4.8364 0.0013
# 2 51.0454 68.4388 58.9652 -0.0033 -5.0002 0.0051
# 3 71.7994 58.9652 114.3938 -0.0006 -7.6600 0.0010
# 4 -0.0009 -0.0033 -0.0006 30.4797 0.0003 -5.6281
# 5 -4.8364 -5.0002 -7.6600 0.0003 25.9686 -0.0006
# 6 0.0013 0.0051 0.0010 -5.6281 -0.0006 19.4486
#
#
#
# Elastic Compliance Matrix: (Units=1/GPa)
#
#
# Indices 1 2 3 4 5 6 
#
# 1 0.012407 -0.004582 -0.005437 0.000000 -0.000175 0.000001
# 2 -0.004582 0.028007 -0.011483 0.000002 0.001152 -0.000006
# 3 -0.005437 -0.011483 0.018217 -0.000001 0.002150 0.000002
# 4 0.000000 0.000002 -0.000001 0.034661 0.000000 0.010030
# 5 -0.000175 0.001152 0.002150 0.000000 0.039331 0.000001
# 6 0.000001 -0.000006 0.000002 0.010030 0.000001 0.054320
#
#
# Mechanical properties :
#
#
# Convention : Reuss Voigt Hill
#
# Bulk Modulus (GPa) = 63.99435 75.25579 69.62507
# Shear Modulus (GPa) = 21.26233 23.97083 22.61658
#
# Velocity S-wave (km/s) = 3.48258 3.69774 3.59177
# Velocity P-wave (km/s) = 7.25772 7.82036 7.54429
#
# Compressibility (1/GPa) = 0.01562638
#
# Stress axis : x y z
#
# Youngs Moduli (GPa) = 80.60096 35.70515 54.89230
#
# Poissons Ratio (x) = 0.16360 0.29845
# Poissons Ratio (y) = 0.36932 0.63035
# Poissons Ratio (z) = 0.43823 0.41002
#
# Static dielectric constant tensor:
#      x y z
#    x 3.504340 0.000000 -0.266220 
#    y 0.000000 3.264910 0.000000 
#    z -0.266220 0.000000 3.173550 
# 
# 
# High freq. dielectric constant tensor:
#      x y z
#    x 1.675840 0.000000 -0.025510 
#    y 0.000000 1.680930 0.000000 
#    z -0.025510 0.000000 1.667450 
# 
# From -- ./inp_files/289075.got.cif
#   From: 2010.06.25/outbox.cif.g09.slc.cpg/sg12_145_cif.got.tgz:289075.got - 2010.06.28 00:19:55.
