data_PCOD8088085
_publ_section_title
;
Structure prediction by ZEFSAII (Michael W. Deem and Ramdas Pophale) SiO2 
 PCOD8088085
Probable space group: C 2/M
;
_chemical_formula_sum "Si O2"
_cell_formula_units_Z 64
_cell_length_a 23.473198
_cell_length_b 9.073638
_cell_length_c 22.254252
_cell_angle_alpha 90.000000
_cell_angle_beta 48.422544
_cell_angle_gamma 90.000000
_cell_volume 3545.705973
_symmetry_space_group_name_H-M "C 2/M"
_symmetry_group_IT_number 12
_symmetry_cell_setting 'monoclinic'
loop_
_space_group_symop_operation_xyz
x,y,z
-x,y,-z
-x,-y,-z
x,-y,z
1/2+x,1/2+y,z
1/2-x,1/2+y,-z
1/2-x,1/2-y,-z
1/2+x,1/2-y,z
loop_
_atom_site_type_symbol
_atom_site_label
_atom_site_fract_x
_atom_site_fract_y
_atom_site_fract_z
Si Si1 0.037825 0.325487 0.712486
Si Si2 0.534656 0.831601 0.361240
Si Si3 0.827901 0.166052 0.437519
Si Si4 0.680950 0.169721 0.327793
Si Si5 0.992077 0.173251 0.144997
Si Si6 0.575325 0.834242 0.986568
Si Si7 0.907312 0.163926 0.509430
Si Si8 0.344790 0.672562 0.170412
O O1 0.045820 0.500000 0.715235
O O2 0.121345 0.255160 0.645891
O O3 0.999733 0.254288 0.797340
O O4 0.984210 0.282334 0.693443
O O5 0.624273 0.807868 0.310749
O O6 0.489237 0.742091 0.444559
O O7 0.509592 0.000000 0.387520
O O8 0.750000 0.250000 0.500000
O O9 0.869864 0.161878 0.470900
O O10 0.814010 0.000000 0.422938
O O11 0.650556 0.254189 0.406656
O O12 0.764266 0.229711 0.252351
O O13 0.686504 0.000000 0.342517
O O14 0.909795 0.208563 0.173692
O O15 0.004533 0.000000 0.144560
O O16 0.059842 0.237211 0.056492
O O17 0.641666 0.758510 0.901276
O O18 0.599892 0.000000 0.987469
O O19 0.500000 0.837665 0.000000
O O20 0.921214 0.000000 0.524359
O O21 0.342995 0.500000 0.156422
#
# Coordination Sequence:
#
# PCOD8088085 Si02
#       8
#     8   8   8   8   8   8   8   8
#     4  10  20  34  52  74  99 132 171 212 250 294
#     4   9  19  36  54  71  96 134 176 212 251 297
#     4  10  21  35  49  69 100 136 169 207 254 302
#     4  10  20  34  53  75 100 133 171 210 252 302
#     4  10  19  32  52  78 105 134 166 203 246 304
#     4   9  17  31  51  75 103 135 164 198 245 300
#     4  10  21  34  49  73 100 130 170 214 257 297
#     4   9  19  33  50  76 105 132 161 201 252 302
#
# _framework density 18.050001000000002
#
# number of rings (size 3 to 8) (size 9 to 14) (size 15 to 20)
#    0.000    2.375    0.000    2.250    1.750    6.500 
#    0.000    0.000    0.000    0.750    0.000    0.000 
#    0.000    0.000    0.000    0.000    0.000    0.000 
#
# Total GULP energy -396834.577426 kJ/mol
# GULP energy per Si atom -12401.080545 kJ/mol
# Density = 1.800892 g / cm^3
# Si number density = 18.050001 Si / 1000 Ang^3
#
#
#
# Elastic Constant Matrix: (Units=GPa)
#
#
# Indices 1 2 3 4 5 6 
#
# 1 34.3775 25.8032 33.5120 -0.0009 -3.3929 0.0004
# 2 25.8032 106.4745 63.3793 -0.0044 6.0090 0.0041
# 3 33.5120 63.3793 140.7127 -0.0009 6.0868 0.0012
# 4 -0.0009 -0.0044 -0.0009 38.0752 0.0011 4.2152
# 5 -3.3929 6.0090 6.0868 0.0011 23.7836 -0.0012
# 6 0.0004 0.0041 0.0012 4.2152 -0.0012 17.5699
#
#
#
# Elastic Compliance Matrix: (Units=1/GPa)
#
#
# Indices 1 2 3 4 5 6 
#
# 1 0.042146 -0.006192 -0.007661 0.000000 0.009537 0.000002
# 2 -0.006192 0.013817 -0.004611 0.000002 -0.003194 -0.000003
# 3 -0.007661 -0.004611 0.011128 0.000000 -0.002776 0.000000
# 4 0.000000 0.000002 0.000000 0.026980 -0.000002 -0.006473
# 5 0.009537 -0.003194 -0.002776 -0.000002 0.044924 0.000004
# 6 0.000002 -0.000003 0.000000 -0.006473 0.000004 0.058468
#
#
# Mechanical properties :
#
#
# Convention : Reuss Voigt Hill
#
# Bulk Modulus (GPa) = 33.15207 58.55041 45.85124
# Shear Modulus (GPa) = 20.45447 26.47709 23.46578
#
# Velocity S-wave (km/s) = 3.36997 3.83413 3.60952
# Velocity P-wave (km/s) = 5.79215 7.21866 6.54439
#
# Compressibility (1/GPa) = 0.03016403
#
# Stress axis : x y z
#
# Youngs Moduli (GPa) = 23.72722 72.37327 89.86274
#
# Poissons Ratio (x) = 0.44811 0.68845
# Poissons Ratio (y) = 0.14691 0.41433
# Poissons Ratio (z) = 0.18178 0.33370
#
# Static dielectric constant tensor:
#      x y z
#    x 3.340530 0.000000 -0.034440 
#    y 0.000000 3.577590 0.000000 
#    z -0.034440 0.000000 3.378190 
# 
# 
# High freq. dielectric constant tensor:
#      x y z
#    x 1.676590 0.000000 0.005420 
#    y 0.000000 1.709640 0.000000 
#    z 0.005420 0.000000 1.697120 
# 
# From -- ./inp_files/324189.got.cif
#   From: 2010.06.25/outbox.cif.g09.slc.cpg/sg12_163_cif.got.tgz:324189.got - 2010.06.28 00:19:55.
