data_PCOD8088474
_publ_section_title
;
Structure prediction by ZEFSAII (Michael W. Deem and Ramdas Pophale) SiO2 
 PCOD8088474
Probable space group: C 2/M
;
_chemical_formula_sum "Si O2"
_cell_formula_units_Z 56
_cell_length_a 29.539792
_cell_length_b 8.944307
_cell_length_c 21.780715
_cell_angle_alpha 90.000000
_cell_angle_beta 149.445883
_cell_angle_gamma 90.000000
_cell_volume 2925.437115
_symmetry_space_group_name_H-M "C 2/M"
_symmetry_group_IT_number 12
_symmetry_cell_setting 'monoclinic'
loop_
_space_group_symop_operation_xyz
x,y,z
-x,y,-z
-x,-y,-z
x,-y,z
1/2+x,1/2+y,z
1/2-x,1/2+y,-z
1/2-x,1/2-y,-z
1/2+x,1/2-y,z
loop_
_atom_site_type_symbol
_atom_site_label
_atom_site_fract_x
_atom_site_fract_y
_atom_site_fract_z
Si Si1 0.013240 0.675542 0.288696
Si Si2 0.167463 0.323141 0.136135
Si Si3 0.537377 0.323985 0.894853
Si Si4 0.782742 0.326911 0.477558
Si Si5 0.374456 0.325286 0.791331
Si Si6 0.978083 0.675628 0.381130
Si Si7 0.143360 0.322948 0.652167
O O1 0.000380 0.500000 0.260055
O O2 0.971652 0.770095 0.185396
O O3 0.116436 0.716659 0.419047
O O4 0.965127 0.727993 0.295603
O O5 0.164610 0.500000 0.130009
O O6 0.111813 0.266260 0.130112
O O7 0.267869 0.266786 0.257817
O O8 0.122944 0.256653 0.023163
O O9 0.553395 0.500000 0.914231
O O10 0.449503 0.278204 0.830103
O O11 0.770467 0.500000 0.475848
O O12 0.750000 0.250000 0.500000
O O13 0.721490 0.280243 0.348487
O O14 0.381032 0.500000 0.815124
O O15 0.991640 0.500000 0.398434
O O16 0.069143 0.737509 0.517735
O O17 0.891415 0.718346 0.319835
O O18 0.161768 0.500000 0.666828
#
# Coordination Sequence:
#
# PCOD8088474 Si02
#       7
#     8   8   8   8   8   8   8
#     4  10  19  33  55  84 117 147 179 224 277 324
#     4  12  25  38  55  81 111 144 185 233 283 327
#     4  11  23  39  57  77 107 149 193 230 270 328
#     4  10  19  32  53  81 114 146 177 218 266 320
#     4  10  21  38  58  80 108 147 191 229 270 327
#     4   8  16  33  62  91 112 142 181 223 272 329
#     4   9  17  36  63  87 112 143 183 224 270 330
#
# _framework density 19.142439
#
# number of rings (size 3 to 8) (size 9 to 14) (size 15 to 20)
#    0.000    2.000    1.429    3.857    0.000    5.714 
#    0.000    5.000    0.000    0.000    0.000    0.000 
#    0.000    0.000    0.000    0.000    0.000    0.000 
#
# Total GULP energy -347214.779723 kJ/mol
# GULP energy per Si atom -12400.527847 kJ/mol
# Density = 1.909887 g / cm^3
# Si number density = 19.142439 Si / 1000 Ang^3
#
#
#
# Elastic Constant Matrix: (Units=GPa)
#
#
# Indices 1 2 3 4 5 6 
#
# 1 116.0412 38.8003 31.3831 0.0000 -21.2980 0.0000
# 2 38.8003 67.7043 32.0664 0.0000 -8.6266 0.0000
# 3 31.3831 32.0664 78.1119 0.0000 -17.8698 0.0000
# 4 0.0000 0.0000 0.0000 24.6318 0.0000 -3.9579
# 5 -21.2980 -8.6266 -17.8698 0.0000 26.8462 0.0000
# 6 0.0000 0.0000 0.0000 -3.9579 0.0000 26.7608
#
#
#
# Elastic Compliance Matrix: (Units=1/GPa)
#
#
# Indices 1 2 3 4 5 6 
#
# 1 0.012035 -0.005550 -0.000921 0.000000 0.007151 0.000000
# 2 -0.005550 0.020919 -0.006874 0.000000 -0.002256 0.000000
# 3 -0.000921 -0.006874 0.018074 0.000000 0.009091 0.000000
# 4 0.000000 0.000000 0.000000 0.041586 0.000000 0.006151
# 5 0.007151 -0.002256 0.009091 0.000000 0.048249 0.000000
# 6 0.000000 0.000000 0.000000 0.006151 0.000000 0.038278
#
#
# Mechanical properties :
#
#
# Convention : Reuss Voigt Hill
#
# Bulk Modulus (GPa) = 41.08783 51.81745 46.45264
# Shear Modulus (GPa) = 23.37079 26.28827 24.82953
#
# Velocity S-wave (km/s) = 3.49791 3.70982 3.60543
# Velocity P-wave (km/s) = 6.15018 6.74378 6.45381
#
# Compressibility (1/GPa) = 0.02433811
#
# Stress axis : x y z
#
# Youngs Moduli (GPa) = 83.09207 47.80413 55.32840
#
# Poissons Ratio (x) = 0.26529 0.05096
# Poissons Ratio (y) = 0.46113 0.38033
# Poissons Ratio (z) = 0.07653 0.32861
#
# Static dielectric constant tensor:
#      x y z
#    x 3.857400 0.000000 -0.174070 
#    y 0.000000 3.249330 0.000000 
#    z -0.174070 0.000000 3.590740 
# 
# 
# High freq. dielectric constant tensor:
#      x y z
#    x 1.750000 0.000000 -0.008440 
#    y 0.000000 1.719670 0.000000 
#    z -0.008440 0.000000 1.743940 
# 
# From -- ./inp_files/329494.got.cif
#   From: 2010.06.25/outbox.cif.g09.slc.cpg/sg12_165_cif.got.tgz:329494.got - 2010.06.28 00:19:55.
