data_PCOD8088961
_publ_section_title
;
Structure prediction by ZEFSAII (Michael W. Deem and Ramdas Pophale) SiO2 
 PCOD8088961
Probable space group: C 2/M
;
_chemical_formula_sum "Si O2"
_cell_formula_units_Z 40
_cell_length_a 21.103857
_cell_length_b 7.489748
_cell_length_c 22.337502
_cell_angle_alpha 90.000000
_cell_angle_beta 142.802063
_cell_angle_gamma 90.000000
_cell_volume 2134.570732
_symmetry_space_group_name_H-M "C 2/M"
_symmetry_group_IT_number 12
_symmetry_cell_setting 'monoclinic'
loop_
_space_group_symop_operation_xyz
x,y,z
-x,y,-z
-x,-y,-z
x,-y,z
1/2+x,1/2+y,z
1/2-x,1/2+y,-z
1/2-x,1/2-y,-z
1/2+x,1/2-y,z
loop_
_atom_site_type_symbol
_atom_site_label
_atom_site_fract_x
_atom_site_fract_y
_atom_site_fract_z
Si Si1 0.012024 0.711668 0.281702
Si Si2 0.141167 0.500000 0.049348
Si Si3 0.401586 0.000000 0.844632
Si Si4 0.329210 0.793132 0.507672
Si Si5 0.831662 0.796680 0.704171
Si Si6 0.725674 0.791664 0.913474
O O1 0.024373 0.500000 0.283930
O O2 0.892208 0.771868 0.189068
O O3 0.058619 0.776530 0.382123
O O4 0.074944 0.798246 0.274221
O O5 0.139093 0.500000 0.118854
O O6 0.197935 0.679676 0.071037
O O7 0.026595 0.500000 0.934212
O O8 0.358650 0.177698 0.781280
O O9 0.250000 0.750000 0.500000
O O10 0.277150 0.716359 0.407351
O O11 0.337657 0.000000 0.501723
O O12 0.816857 0.000000 0.715426
O O13 0.742017 0.000000 0.911579
O O14 0.750000 0.750000 0.000000
#
# Coordination Sequence:
#
# PCOD8088961 Si02
#       6
#     8   4   4   8   8   8
#     4   9  17  31  53  83 118 145 174 229 282 321
#     4  11  26  42  57  81 109 146 189 229 274 328
#     4  11  24  42  57  75 113 149 185 231 270 329
#     4   8  15  27  46  79 113 141 176 221 273 322
#     4  10  19  32  57  84 110 147 185 221 273 330
#     4  11  22  37  59  84 112 143 180 226 279 332
#
# _framework density 18.739131
#
# number of rings (size 3 to 8) (size 9 to 14) (size 15 to 20)
#    0.000    2.200    2.000    1.200    2.800    3.200 
#    0.000    2.000    0.000    2.400    0.000    5.600 
#    0.000    0.000    0.000    0.000    0.000    0.000 
#
# Total GULP energy -247770.923983 kJ/mol
# GULP energy per Si atom -12388.546199 kJ/mol
# Density = 1.869648 g / cm^3
# Si number density = 18.739131 Si / 1000 Ang^3
#
#
#
# Elastic Constant Matrix: (Units=GPa)
#
#
# Indices 1 2 3 4 5 6 
#
# 1 59.7671 31.6794 58.9646 0.0000 -0.2246 0.0000
# 2 31.6794 87.8824 50.8347 0.0000 -5.9000 -0.0005
# 3 58.9646 50.8347 197.8077 0.0000 -5.4913 0.0000
# 4 0.0000 0.0000 0.0000 21.6854 0.0000 4.2323
# 5 -0.2246 -5.9000 -5.4913 0.0000 23.6991 0.0000
# 6 0.0000 -0.0005 0.0000 4.2323 0.0000 12.3699
#
#
#
# Elastic Compliance Matrix: (Units=1/GPa)
#
#
# Indices 1 2 3 4 5 6 
#
# 1 0.026115 -0.005930 -0.006336 0.000000 -0.002697 0.000000
# 2 -0.005930 0.014867 -0.001964 0.000000 0.003190 0.000001
# 3 -0.006336 -0.001964 0.007482 0.000000 0.001184 0.000000
# 4 0.000000 0.000000 0.000000 0.049414 0.000000 -0.016907
# 5 -0.002697 0.003190 0.001184 0.000000 0.043239 0.000000
# 6 0.000000 0.000001 0.000000 -0.016907 0.000000 0.086626
#
#
# Mechanical properties :
#
#
# Convention : Reuss Voigt Hill
#
# Bulk Modulus (GPa) = 49.99095 69.82385 59.90740
# Shear Modulus (GPa) = 19.02079 25.14945 22.08512
#
# Velocity S-wave (km/s) = 3.18941 3.66742 3.43673
# Velocity P-wave (km/s) = 6.34810 7.43473 6.91280
#
# Compressibility (1/GPa) = 0.02000362
#
# Stress axis : x y z
#
# Youngs Moduli (GPa) = 38.29182 67.26336 133.65948
#
# Poissons Ratio (x) = 0.39888 0.84681
# Poissons Ratio (y) = 0.22708 0.26256
# Poissons Ratio (z) = 0.24260 0.13213
#
# Static dielectric constant tensor:
#      x y z
#    x 2.934990 0.000000 -0.005320 
#    y 0.000000 3.398460 0.000000 
#    z -0.005320 0.000000 4.299030 
# 
# 
# High freq. dielectric constant tensor:
#      x y z
#    x 1.664070 0.000000 -0.004560 
#    y 0.000000 1.734920 0.000000 
#    z -0.004560 0.000000 1.762350 
# 
# From -- ./inp_files/314548.got.cif
#   From: 2010.06.25/outbox.cif.g09.slc.cpg/sg12_158_cif.got.tgz:314548.got - 2010.06.28 00:19:55.
