data_PCOD8088342
_publ_section_title
;
Structure prediction by ZEFSAII (Michael W. Deem and Ramdas Pophale) SiO2 
 PCOD8088342
Probable space group: C 2/M
;
_chemical_formula_sum "Si O2"
_cell_formula_units_Z 48
_cell_length_a 18.756642
_cell_length_b 8.988501
_cell_length_c 17.769496
_cell_angle_alpha 90.000000
_cell_angle_beta 57.927905
_cell_angle_gamma 90.000000
_cell_volume 2538.610096
_symmetry_space_group_name_H-M "C 2/M"
_symmetry_group_IT_number 12
_symmetry_cell_setting 'monoclinic'
loop_
_space_group_symop_operation_xyz
x,y,z
-x,y,-z
-x,-y,-z
x,-y,z
1/2+x,1/2+y,z
1/2-x,1/2+y,-z
1/2-x,1/2-y,-z
1/2+x,1/2-y,z
loop_
_atom_site_type_symbol
_atom_site_label
_atom_site_fract_x
_atom_site_fract_y
_atom_site_fract_z
Si Si1 0.972540 0.327093 0.343284
Si Si2 0.437382 0.827566 0.193862
Si Si3 0.434829 0.336401 0.968949
Si Si4 0.902748 0.335967 0.533275
Si Si5 0.806644 0.823829 0.160158
Si Si6 0.640256 0.675231 0.299712
O O1 0.999440 0.500000 0.336801
O O2 0.054618 0.226801 0.308557
O O3 0.931678 0.295251 0.285647
O O4 0.901215 0.286756 0.446110
O O5 0.530122 0.777757 0.112828
O O6 0.363111 0.736051 0.197029
O O7 0.425356 0.000000 0.181432
O O8 0.424163 0.500000 0.937738
O O9 0.500000 0.348241 0.000000
O O10 0.347386 0.282389 0.055914
O O11 0.862369 0.500000 0.566519
O O12 0.854427 0.222316 0.615063
O O13 0.000000 0.340675 0.500000
O O14 0.715866 0.749166 0.211508
O O15 0.799271 0.000000 0.173874
O O16 0.648507 0.500000 0.290230
#
# Coordination Sequence:
#
# PCOD8088342 Si02
#       6
#     8   8   8   8   8   8
#     4   9  19  35  53  74 102 135 165 197 245 301
#     4  10  19  32  53  79 103 127 163 208 247 289
#     4   8  16  31  50  71  96 131 169 200 239 296
#     4   8  15  31  52  70  95 133 168 196 239 299
#     4  10  20  35  53  72 100 136 169 201 245 299
#     4  11  21  32  51  78 102 126 166 213 249 287
#
# _framework density 18.907983999999999
#
# number of rings (size 3 to 8) (size 9 to 14) (size 15 to 20)
#    0.000    2.667    0.000    4.500    0.000    8.000 
#    0.000    1.667    0.000    0.000    0.000    0.000 
#    0.000    0.000    0.000    0.000    0.000    0.000 
#
# Total GULP energy -297484.020235 kJ/mol
# GULP energy per Si atom -12395.167510 kJ/mol
# Density = 1.886495 g / cm^3
# Si number density = 18.907984 Si / 1000 Ang^3
#
#
#
# Elastic Constant Matrix: (Units=GPa)
#
#
# Indices 1 2 3 4 5 6 
#
# 1 19.1358 10.3509 -7.9041 0.0000 0.2638 0.0000
# 2 10.3509 88.1778 6.6245 0.0000 -3.1959 -0.0001
# 3 -7.9041 6.6245 27.4207 0.0000 -0.9887 0.0000
# 4 0.0000 0.0000 0.0000 30.3255 0.0000 -1.6331
# 5 0.2638 -3.1959 -0.9887 0.0000 30.2874 0.0000
# 6 0.0000 -0.0001 0.0000 -1.6331 0.0000 23.4176
#
#
#
# Elastic Compliance Matrix: (Units=1/GPa)
#
#
# Indices 1 2 3 4 5 6 
#
# 1 0.066155 -0.009398 0.021309 0.000000 -0.000872 0.000000
# 2 -0.009398 0.012924 -0.005786 0.000000 0.001257 0.000000
# 3 0.021309 -0.005786 0.044032 0.000000 0.000641 0.000000
# 4 0.000000 0.000000 0.000000 0.033100 0.000000 0.002308
# 5 -0.000872 0.001257 0.000641 0.000000 0.033178 0.000000
# 6 0.000000 0.000000 0.000000 0.002308 0.000000 0.042864
#
#
# Mechanical properties :
#
#
# Convention : Reuss Voigt Hill
#
# Bulk Modulus (GPa) = 7.38769 16.98629 12.18699
# Shear Modulus (GPa) = 18.85903 25.18364 22.02133
#
# Velocity S-wave (km/s) = 3.16161 3.65349 3.41641
# Velocity P-wave (km/s) = 4.15251 5.17691 4.69275
#
# Compressibility (1/GPa) = 0.13536033
#
# Stress axis : x y z
#
# Youngs Moduli (GPa) = 15.11593 77.37433 22.71071
#
# Poissons Ratio (x) = 0.72718 -0.48393
# Poissons Ratio (y) = 0.14206 0.13141
# Poissons Ratio (z) = -0.32210 0.44769
#
# Static dielectric constant tensor:
#      x y z
#    x 3.025050 0.000000 0.035680 
#    y 0.000000 3.473150 0.000000 
#    z 0.035680 0.000000 4.172500 
# 
# 
# High freq. dielectric constant tensor:
#      x y z
#    x 1.688580 0.000000 0.001870 
#    y 0.000000 1.735490 0.000000 
#    z 0.001870 0.000000 1.749070 
# 
# From -- ./inp_files/274002.got.cif
#   From: 2010.06.25/outbox.cif.g09.slc.cpg/sg12_138_cif.got.tgz:274002.got - 2010.06.28 00:19:55.
