data_PCOD8088709
_publ_section_title
;
Structure prediction by ZEFSAII (Michael W. Deem and Ramdas Pophale) SiO2 
 PCOD8088709
Probable space group: C 2/M
;
_chemical_formula_sum "Si O2"
_cell_formula_units_Z 64
_cell_length_a 18.651619
_cell_length_b 9.274226
_cell_length_c 31.863569
_cell_angle_alpha 90.000000
_cell_angle_beta 141.855098
_cell_angle_gamma 90.000000
_cell_volume 3404.338689
_symmetry_space_group_name_H-M "C 2/M"
_symmetry_group_IT_number 12
_symmetry_cell_setting 'monoclinic'
loop_
_space_group_symop_operation_xyz
x,y,z
-x,y,-z
-x,-y,-z
x,-y,z
1/2+x,1/2+y,z
1/2-x,1/2+y,-z
1/2-x,1/2-y,-z
1/2+x,1/2-y,z
loop_
_atom_site_type_symbol
_atom_site_label
_atom_site_fract_x
_atom_site_fract_y
_atom_site_fract_z
Si Si1 0.600921 0.335007 0.281034
Si Si2 0.460118 0.333911 0.527730
Si Si3 0.709974 0.665184 0.773112
Si Si4 0.309261 0.164070 0.600089
Si Si5 0.985014 0.669132 0.365898
Si Si6 0.412747 0.164376 0.805173
Si Si7 0.822015 0.330594 0.068233
Si Si8 0.829837 0.163597 0.152860
O O1 0.638064 0.500000 0.295242
O O2 0.666402 0.267576 0.350166
O O3 0.641315 0.259282 0.256859
O O4 0.464811 0.312691 0.224414
O O5 0.500000 0.278773 0.500000
O O6 0.497741 0.500000 0.550173
O O7 0.323975 0.313095 0.473372
O O8 0.525814 0.242647 0.593524
O O9 0.666401 0.500000 0.747657
O O10 0.614275 0.770222 0.710021
O O11 0.834626 0.690076 0.809761
O O12 0.733552 0.700309 0.832758
O O13 0.390039 0.203635 0.597563
O O14 0.333302 0.000000 0.625366
O O15 0.965564 0.500000 0.362782
O O16 0.543417 0.209638 0.877147
O O17 0.410802 0.000000 0.788687
O O18 0.797466 0.500000 0.054564
O O19 0.783125 0.271915 0.095907
O O20 0.750000 0.250000 0.000000
O O21 0.805330 0.000000 0.126684
#
# Coordination Sequence:
#
# PCOD8088709 Si02
#       8
#     8   8   8   8   8   8   8   8
#     4  10  19  32  54  83 110 141 180 227 275 323
#     4  10  23  41  58  76 103 144 191 233 278 338
#     4  10  20  37  59  82 112 148 185 227 275 331
#     4  10  21  37  56  78 107 144 185 226 277 336
#     4  11  23  37  56  82 111 143 182 233 285 332
#     4   9  20  36  56  81 112 148 185 224 269 322
#     4  10  20  36  59  85 113 149 187 224 267 319
#     4   9  18  34  56  83 111 143 184 224 264 318
#
# _framework density 18.79954
#
# number of rings (size 3 to 8) (size 9 to 14) (size 15 to 20)
#    0.000    2.125    1.250    1.500    1.750    3.250 
#    0.000    0.625    0.000    3.750    0.000    0.000 
#    0.000    0.000    0.000    0.000    0.000    0.000 
#
# Total GULP energy -396888.196473 kJ/mol
# GULP energy per Si atom -12402.756140 kJ/mol
# Density = 1.875675 g / cm^3
# Si number density = 18.799540 Si / 1000 Ang^3
#
#
#
# Elastic Constant Matrix: (Units=GPa)
#
#
# Indices 1 2 3 4 5 6 
#
# 1 119.4527 46.9906 38.4142 0.0000 -18.4872 0.0000
# 2 46.9906 96.5912 55.6064 0.0000 -16.6071 -0.0001
# 3 38.4142 55.6064 77.1913 0.0000 -21.6283 0.0001
# 4 0.0000 0.0000 0.0000 36.3009 0.0000 -6.9775
# 5 -18.4872 -16.6071 -21.6283 0.0000 26.1570 0.0000
# 6 0.0000 -0.0001 0.0001 -6.9775 0.0000 27.0557
#
#
#
# Elastic Compliance Matrix: (Units=1/GPa)
#
#
# Indices 1 2 3 4 5 6 
#
# 1 0.010986 -0.003681 -0.001685 0.000000 0.004034 0.000000
# 2 -0.003681 0.018938 -0.011936 0.000000 -0.000447 0.000000
# 3 -0.001685 -0.011936 0.025946 0.000000 0.012685 0.000000
# 4 0.000000 0.000000 0.000000 0.028984 0.000000 0.007475
# 5 0.004034 -0.000447 0.012685 0.000000 0.051286 0.000000
# 6 0.000000 0.000000 0.000000 0.007475 0.000000 0.038889
#
#
# Mechanical properties :
#
#
# Convention : Reuss Voigt Hill
#
# Bulk Modulus (GPa) = 47.02379 63.91752 55.47066
# Shear Modulus (GPa) = 23.07107 28.05099 25.56103
#
# Velocity S-wave (km/s) = 3.50696 3.86698 3.69136
# Velocity P-wave (km/s) = 6.43941 7.34924 6.90932
#
# Compressibility (1/GPa) = 0.02126583
#
# Stress axis : x y z
#
# Youngs Moduli (GPa) = 91.02735 52.80368 38.54162
#
# Poissons Ratio (x) = 0.19435 0.06495
# Poissons Ratio (y) = 0.33504 0.46003
# Poissons Ratio (z) = 0.15341 0.63027
#
# Static dielectric constant tensor:
#      x y z
#    x 3.619320 0.000000 -0.064490 
#    y 0.000000 3.520130 0.000000 
#    z -0.064490 0.000000 3.222260 
# 
# 
# High freq. dielectric constant tensor:
#      x y z
#    x 1.736740 0.000000 -0.009570 
#    y 0.000000 1.733020 0.000000 
#    z -0.009570 0.000000 1.714300 
# 
# From -- ./inp_files/378297.got.cif
#   From: 2010.06.25/outbox.cif.g09.slc.cpg/sg12_190_cif.got.tgz:378297.got - 2010.06.28 00:19:55.
