data_PCOD8088746
_publ_section_title
;
Structure prediction by ZEFSAII (Michael W. Deem and Ramdas Pophale) SiO2 
 PCOD8088746
Probable space group: C 2/M
;
_chemical_formula_sum "Si O2"
_cell_formula_units_Z 64
_cell_length_a 15.369557
_cell_length_b 16.767589
_cell_length_c 25.817875
_cell_angle_alpha 90.000000
_cell_angle_beta 152.374759
_cell_angle_gamma 90.000000
_cell_volume 3085.153800
_symmetry_space_group_name_H-M "C 2/M"
_symmetry_group_IT_number 12
_symmetry_cell_setting 'monoclinic'
loop_
_space_group_symop_operation_xyz
x,y,z
-x,y,-z
-x,-y,-z
x,-y,z
1/2+x,1/2+y,z
1/2-x,1/2+y,-z
1/2-x,1/2-y,-z
1/2+x,1/2-y,z
loop_
_atom_site_type_symbol
_atom_site_label
_atom_site_fract_x
_atom_site_fract_y
_atom_site_fract_z
Si Si1 0.739358 0.148792 0.323827
Si Si2 0.553679 0.087999 0.320787
Si Si3 0.394021 0.905794 0.088091
Si Si4 0.016640 0.091022 0.307729
Si Si5 0.291463 0.663921 0.910355
Si Si6 0.186728 0.299895 0.572278
Si Si7 0.312245 0.150035 0.931567
Si Si8 0.104257 0.168441 0.456090
O O1 0.670384 0.082837 0.328520
O O2 0.593601 0.140952 0.199195
O O3 0.711917 0.233830 0.338288
O O4 0.955786 0.137051 0.421421
O O5 0.362702 0.139250 0.214258
O O6 0.697672 0.121947 0.439434
O O7 0.492276 0.000000 0.305380
O O8 0.248702 0.882670 0.057246
O O9 0.428431 0.000000 0.107091
O O10 0.310760 0.879351 0.989589
O O11 0.193060 0.120179 0.367427
O O12 0.001445 0.153319 0.347592
O O13 0.837022 0.097029 0.177371
O O14 0.043174 0.000000 0.340735
O O15 0.264313 0.757089 0.905711
O O16 0.500000 0.642819 0.000000
O O17 0.147214 0.261070 0.493825
O O18 0.000000 0.330899 0.500000
O O19 0.500000 0.131228 0.000000
#
# Coordination Sequence:
#
# PCOD8088746 Si02
#       8
#     8   8   8   8   8   8   8   8
#     4   9  18  34  58  84 110 144 183 228 285 342
#     4  10  19  32  54  85 118 145 179 234 290 341
#     4  11  22  37  60  88 118 150 187 240 294 339
#     4  12  24  37  57  84 117 152 186 231 281 334
#     4  10  22  40  62  86 113 151 195 239 287 342
#     4   9  20  39  60  81 109 147 189 230 275 334
#     4  11  24  41  59  81 115 158 200 236 276 338
#     4  10  20  35  57  84 113 147 185 229 283 338
#
# _framework density 20.744508
#
# number of rings (size 3 to 8) (size 9 to 14) (size 15 to 20)
#    0.000    1.750    0.000    7.125    0.000    5.750 
#    0.000    3.750    0.000    3.000    0.000    0.000 
#    0.000    0.000    0.000    0.000    0.000    0.000 
#
# Total GULP energy -396657.919798 kJ/mol
# GULP energy per Si atom -12395.559994 kJ/mol
# Density = 2.069729 g / cm^3
# Si number density = 20.744508 Si / 1000 Ang^3
#
#
#
# Elastic Constant Matrix: (Units=GPa)
#
#
# Indices 1 2 3 4 5 6 
#
# 1 60.9274 28.5650 39.5865 -0.0043 5.0271 -0.0017
# 2 28.5650 85.7612 31.9866 -0.0021 10.4009 -0.0008
# 3 39.5865 31.9866 120.1071 0.0114 -0.7505 0.0038
# 4 -0.0043 -0.0021 0.0114 63.2515 0.0033 6.0240
# 5 5.0271 10.4009 -0.7505 0.0033 41.5709 0.0000
# 6 -0.0017 -0.0008 0.0038 6.0240 0.0000 18.6875
#
#
#
# Elastic Compliance Matrix: (Units=1/GPa)
#
#
# Indices 1 2 3 4 5 6 
#
# 1 0.022999 -0.005146 -0.006220 0.000002 -0.001606 0.000002
# 2 -0.005146 0.014567 -0.002203 0.000001 -0.003062 0.000000
# 3 -0.006220 -0.002203 0.010972 -0.000002 0.001501 -0.000002
# 4 0.000002 0.000001 -0.000002 0.016311 -0.000002 -0.005258
# 5 -0.001606 -0.003062 0.001501 -0.000002 0.025043 0.000000
# 6 0.000002 0.000000 -0.000002 -0.005258 0.000000 0.055207
#
#
# Mechanical properties :
#
#
# Convention : Reuss Voigt Hill
#
# Bulk Modulus (GPa) = 46.72565 51.89688 49.31127
# Shear Modulus (GPa) = 27.87543 35.81248 31.84395
#
# Velocity S-wave (km/s) = 3.66970 4.15946 3.92223
# Velocity P-wave (km/s) = 6.36622 6.93827 6.65839
#
# Compressibility (1/GPa) = 0.02140152
#
# Stress axis : x y z
#
# Youngs Moduli (GPa) = 43.47935 68.64782 91.14143
#
# Poissons Ratio (x) = 0.35325 0.56691
# Poissons Ratio (y) = 0.22374 0.20075
# Poissons Ratio (z) = 0.27044 0.15120
#
# Static dielectric constant tensor:
#      x y z
#    x 3.764000 -0.000010 0.073070 
#    y -0.000010 3.570200 -0.000010 
#    z 0.073070 -0.000010 3.927970 
# 
# 
# High freq. dielectric constant tensor:
#      x y z
#    x 1.803790 0.000000 0.003710 
#    y 0.000000 1.800210 0.000000 
#    z 0.003710 0.000000 1.821980 
# 
# From -- ./inp_files/340860.got.cif
#   From: 2010.06.25/outbox.cif.g09.slc.cpg/sg12_171_cif.got.tgz:340860.got - 2010.06.28 00:19:55.
