data_PCOD8088345
_publ_section_title
;
Structure prediction by ZEFSAII (Michael W. Deem and Ramdas Pophale) SiO2 
 PCOD8088345
Probable space group: C 2/M
;
_chemical_formula_sum "Si O2"
_cell_formula_units_Z 56
_cell_length_a 19.576072
_cell_length_b 8.955350
_cell_length_c 29.977082
_cell_angle_alpha 90.000000
_cell_angle_beta 143.602823
_cell_angle_gamma 90.000000
_cell_volume 3118.385576
_symmetry_space_group_name_H-M "C 2/M"
_symmetry_group_IT_number 12
_symmetry_cell_setting 'monoclinic'
loop_
_space_group_symop_operation_xyz
x,y,z
-x,y,-z
-x,-y,-z
x,-y,z
1/2+x,1/2+y,z
1/2-x,1/2+y,-z
1/2-x,1/2-y,-z
1/2+x,1/2-y,z
loop_
_atom_site_type_symbol
_atom_site_label
_atom_site_fract_x
_atom_site_fract_y
_atom_site_fract_z
Si Si1 0.869075 0.172581 0.052370
Si Si2 0.530291 0.324020 0.661610
Si Si3 0.922713 0.830249 0.774500
Si Si4 0.724969 0.324596 0.218231
Si Si5 0.885716 0.325627 0.663657
Si Si6 0.474280 0.172411 0.934973
Si Si7 0.819838 0.170936 0.499272
O O1 0.951557 0.191966 0.138318
O O2 0.923838 0.247514 0.037872
O O3 0.848569 0.000000 0.030599
O O4 0.750000 0.250000 0.000000
O O5 0.555538 0.500000 0.679635
O O6 0.646809 0.234866 0.717046
O O7 0.464380 0.268942 0.671231
O O8 0.454772 0.286544 0.576726
O O9 0.826199 0.787430 0.760039
O O10 0.912019 0.719368 0.727724
O O11 0.905796 0.000000 0.749219
O O12 0.721675 0.500000 0.207075
O O13 0.648948 0.245357 0.140435
O O14 0.914605 0.500000 0.672397
O O15 0.747350 0.294690 0.582477
O O16 0.470747 0.000000 0.919092
O O17 0.500000 0.194256 0.000000
O O18 0.750000 0.250000 0.500000
O O19 0.808810 0.000000 0.505534
#
# Coordination Sequence:
#
# PCOD8088345 Si02
#       7
#     8   8   8   8   8   8   8
#     4  10  21  37  57  79 105 137 174 215 256 304
#     4  10  19  33  54  77 104 137 172 213 259 305
#     4   9  20  37  53  73 104 138 170 209 258 306
#     4  10  21  37  55  76 105 138 173 213 255 304
#     4  10  19  32  53  79 104 133 173 216 256 304
#     4  10  21  37  57  80 106 136 170 210 258 310
#     4   8  16  30  48  73 102 132 168 211 257 301
#
# _framework density 17.958010000000002
#
# number of rings (size 3 to 8) (size 9 to 14) (size 15 to 20)
#    0.000    2.429    0.000    3.000    0.000    6.857 
#    0.000    2.143    0.000    4.286    0.000    0.000 
#    0.000    0.000    0.000    0.000    0.000    0.000 
#
# Total GULP energy -347021.015446 kJ/mol
# GULP energy per Si atom -12393.607694 kJ/mol
# Density = 1.791714 g / cm^3
# Si number density = 17.958010 Si / 1000 Ang^3
#
#
#
# Elastic Constant Matrix: (Units=GPa)
#
#
# Indices 1 2 3 4 5 6 
#
# 1 73.0856 45.7526 66.4839 0.0000 10.8498 -0.0001
# 2 45.7526 94.6003 60.3552 0.0000 3.7450 -0.0003
# 3 66.4839 60.3552 119.4211 0.0000 15.1518 0.0001
# 4 0.0000 0.0000 0.0000 28.7739 0.0000 2.4053
# 5 10.8498 3.7450 15.1518 0.0000 29.5036 0.0000
# 6 -0.0001 -0.0003 0.0001 2.4053 0.0000 33.2009
#
#
#
# Elastic Compliance Matrix: (Units=1/GPa)
#
#
# Indices 1 2 3 4 5 6 
#
# 1 0.029936 -0.005886 -0.013252 0.000000 -0.003456 0.000000
# 2 -0.005886 0.016895 -0.005631 0.000000 0.002912 0.000000
# 3 -0.013252 -0.005631 0.019135 0.000000 -0.004239 0.000000
# 4 0.000000 0.000000 0.000000 0.034965 0.000000 -0.002533
# 5 -0.003456 0.002912 -0.004239 0.000000 0.036972 0.000000
# 6 0.000000 0.000000 0.000000 -0.002533 0.000000 0.030303
#
#
# Mechanical properties :
#
#
# Convention : Reuss Voigt Hill
#
# Bulk Modulus (GPa) = 60.87747 70.25448 65.56598
# Shear Modulus (GPa) = 22.39914 25.93004 24.16459
#
# Velocity S-wave (km/s) = 3.53555 3.80402 3.67224
# Velocity P-wave (km/s) = 7.11620 7.64857 7.38718
#
# Compressibility (1/GPa) = 0.01642644
#
# Stress axis : x y z
#
# Youngs Moduli (GPa) = 33.40467 59.18881 52.25910
#
# Poissons Ratio (x) = 0.34841 0.69256
# Poissons Ratio (y) = 0.19663 0.29428
# Poissons Ratio (z) = 0.44269 0.33330
#
# Static dielectric constant tensor:
#      x y z
#    x 3.056120 0.000000 0.056540 
#    y 0.000000 3.461260 0.000000 
#    z 0.056540 0.000000 3.829850 
# 
# 
# High freq. dielectric constant tensor:
#      x y z
#    x 1.670040 0.000000 0.004700 
#    y 0.000000 1.712100 0.000000 
#    z 0.004700 0.000000 1.711250 
# 
# From -- ./inp_files/342513.got.cif
#   From: 2010.06.25/outbox.cif.g09.slc.cpg/sg12_172_cif.got.tgz:342513.got - 2010.06.28 00:19:55.
