data_PCOD8088734
_publ_section_title
;
Structure prediction by ZEFSAII (Michael W. Deem and Ramdas Pophale) SiO2 
 PCOD8088734
Probable space group: C 2/M
;
_chemical_formula_sum "Si O2"
_cell_formula_units_Z 56
_cell_length_a 30.289340
_cell_length_b 8.858373
_cell_length_c 11.797146
_cell_angle_alpha 90.000000
_cell_angle_beta 119.318380
_cell_angle_gamma 90.000000
_cell_volume 2759.900982
_symmetry_space_group_name_H-M "C 2/M"
_symmetry_group_IT_number 12
_symmetry_cell_setting 'monoclinic'
loop_
_space_group_symop_operation_xyz
x,y,z
-x,y,-z
-x,-y,-z
x,-y,z
1/2+x,1/2+y,z
1/2-x,1/2+y,-z
1/2-x,1/2-y,-z
1/2+x,1/2-y,z
loop_
_atom_site_type_symbol
_atom_site_label
_atom_site_fract_x
_atom_site_fract_y
_atom_site_fract_z
Si Si1 0.839302 0.174546 0.356690
Si Si2 0.253482 0.677615 0.879816
Si Si3 0.057599 0.678186 0.086629
Si Si4 0.352697 0.171888 0.957907
Si Si5 0.507437 0.167836 0.376460
Si Si6 0.408722 0.673278 0.644566
Si Si7 0.602034 0.168771 0.751286
O O1 0.792785 0.278006 0.260392
O O2 0.857042 0.208287 0.508772
O O3 0.886461 0.212650 0.333474
O O4 0.824596 0.000000 0.323731
O O5 0.253855 0.500000 0.897491
O O6 0.303185 0.728083 0.871091
O O7 0.250000 0.750000 0.000000
O O8 0.052787 0.500000 0.074989
O O9 0.096501 0.736429 0.038584
O O10 0.084579 0.723265 0.237612
O O11 0.000000 0.745899 0.000000
O O12 0.343177 0.000000 0.905597
O O13 0.356709 0.180452 0.098663
O O14 0.500000 0.178530 0.500000
O O15 0.544528 0.296116 0.379990
O O16 0.451808 0.199657 0.255388
O O17 0.526558 0.000000 0.363931
O O18 0.409807 0.500000 0.684085
O O19 0.601940 0.000000 0.697334
#
# Coordination Sequence:
#
# PCOD8088734 Si02
#       7
#     8   8   8   8   8   8   8
#     4  11  23  38  57  86 123 160 201 249 307 365
#     4  12  24  39  62  92 125 162 205 253 311 371
#     4  10  22  43  69  93 121 163 211 254 299 364
#     4  10  21  38  62  91 122 158 205 257 308 360
#     4  10  19  32  54  84 117 157 202 244 296 367
#     4  11  24  39  58  87 125 164 203 256 312 363
#     4  10  19  33  56  86 119 156 198 246 304 366
#
# _framework density 20.290583999999999
#
# number of rings (size 3 to 8) (size 9 to 14) (size 15 to 20)
#    0.000    1.429    2.857    3.000    0.000    5.714 
#    0.000    2.143    0.000    0.000    0.000    0.000 
#    0.000    0.000    0.000    0.000    0.000    0.000 
#
# Total GULP energy -347059.064426 kJ/mol
# GULP energy per Si atom -12394.966587 kJ/mol
# Density = 2.024440 g / cm^3
# Si number density = 20.290584 Si / 1000 Ang^3
#
#
#
# Elastic Constant Matrix: (Units=GPa)
#
#
# Indices 1 2 3 4 5 6 
#
# 1 100.8127 38.3019 36.9086 0.0000 10.7999 0.0000
# 2 38.3019 63.1604 29.1167 0.0000 7.7073 0.0000
# 3 36.9086 29.1167 100.8605 0.0000 10.6636 0.0000
# 4 0.0000 0.0000 0.0000 30.1291 0.0000 1.5002
# 5 10.7999 7.7073 10.6636 0.0000 28.3185 0.0000
# 6 0.0000 0.0000 0.0000 1.5002 0.0000 29.9220
#
#
#
# Elastic Compliance Matrix: (Units=1/GPa)
#
#
# Indices 1 2 3 4 5 6 
#
# 1 0.013780 -0.006759 -0.002843 0.000000 -0.002345 0.000000
# 2 -0.006759 0.021846 -0.003621 0.000000 -0.002004 0.000000
# 3 -0.002843 -0.003621 0.012270 0.000000 -0.002551 0.000000
# 4 0.000000 0.000000 0.000000 0.033274 0.000000 -0.001668
# 5 -0.002345 -0.002004 -0.002551 0.000000 0.037713 0.000000
# 6 0.000000 0.000000 0.000000 -0.001668 0.000000 0.033504
#
#
# Mechanical properties :
#
#
# Convention : Reuss Voigt Hill
#
# Bulk Modulus (GPa) = 46.62442 52.60976 49.61709
# Shear Modulus (GPa) = 26.88430 28.37437 27.62934
#
# Velocity S-wave (km/s) = 3.64395 3.74358 3.69410
# Velocity P-wave (km/s) = 6.38222 6.68358 6.53464
#
# Compressibility (1/GPa) = 0.02144799
#
# Stress axis : x y z
#
# Youngs Moduli (GPa) = 72.57093 45.77582 81.49882
#
# Poissons Ratio (x) = 0.30942 0.23172
# Poissons Ratio (y) = 0.49054 0.29511
# Poissons Ratio (z) = 0.20634 0.16576
#
# Static dielectric constant tensor:
#      x y z
#    x 3.931300 0.000000 0.348340 
#    y 0.000000 3.542760 0.000000 
#    z 0.348340 0.000000 3.887190 
# 
# 
# High freq. dielectric constant tensor:
#      x y z
#    x 1.782610 0.000000 0.018130 
#    y 0.000000 1.777480 0.000000 
#    z 0.018130 0.000000 1.796980 
# 
# From -- ./inp_files/187718.got.cif
#   From: 2010.06.25/outbox.cif.g09.slc.cpg/sg12_94_cif.got.tgz:187718.got - 2010.06.28 00:19:55.
