data_PCOD8088048
_publ_section_title
;
Structure prediction by ZEFSAII (Michael W. Deem and Ramdas Pophale) SiO2 
 PCOD8088048
Probable space group: C 2/M
;
_chemical_formula_sum "Si O2"
_cell_formula_units_Z 56
_cell_length_a 19.059192
_cell_length_b 8.941708
_cell_length_c 19.761823
_cell_angle_alpha 90.000000
_cell_angle_beta 122.243273
_cell_angle_gamma 90.000000
_cell_volume 2848.490395
_symmetry_space_group_name_H-M "C 2/M"
_symmetry_group_IT_number 12
_symmetry_cell_setting 'monoclinic'
loop_
_space_group_symop_operation_xyz
x,y,z
-x,y,-z
-x,-y,-z
x,-y,z
1/2+x,1/2+y,z
1/2-x,1/2+y,-z
1/2-x,1/2-y,-z
1/2+x,1/2-y,z
loop_
_atom_site_type_symbol
_atom_site_label
_atom_site_fract_x
_atom_site_fract_y
_atom_site_fract_z
Si Si1 0.480798 0.667804 0.675143
Si Si2 0.739889 0.322413 0.068274
Si Si3 0.165132 0.824645 0.764962
Si Si4 0.573954 0.172814 0.986617
Si Si5 0.529191 0.669001 0.170677
Si Si6 0.304953 0.174389 0.731721
Si Si7 0.315384 0.825440 0.582162
O O1 0.459833 0.500000 0.640150
O O2 0.571222 0.717718 0.694402
O O3 0.485173 0.676268 0.757639
O O4 0.408403 0.774339 0.610057
O O5 0.742336 0.500000 0.063015
O O6 0.811011 0.268567 0.156182
O O7 0.750000 0.250000 0.000000
O O8 0.652534 0.265748 0.053757
O O9 0.222719 0.782708 0.730825
O O10 0.171119 0.000000 0.786292
O O11 0.544960 0.234087 0.899153
O O12 0.599170 0.000000 0.992944
O O13 0.500000 0.199988 0.000000
O O14 0.524996 0.500000 0.140912
O O15 0.618254 0.737119 0.196384
O O16 0.292639 0.220995 0.647228
O O17 0.326325 0.000000 0.748896
O O18 0.250000 0.750000 0.500000
O O19 0.309745 0.000000 0.568137
#
# Coordination Sequence:
#
# PCOD8088048 Si02
#       7
#     8   8   8   8   8   8   8
#     4   9  19  35  56  80 105 136 173 214 263 320
#     4  12  25  39  56  79 110 149 192 237 284 333
#     4  10  20  37  58  80 109 143 182 228 276 328
#     4  11  23  37  53  75 106 144 186 234 285 333
#     4  10  19  32  52  77 104 137 180 227 273 325
#     4   9  19  35  56  81 109 144 182 222 273 329
#     4  10  20  36  59  85 112 142 177 216 261 318
#
# _framework density 19.659538000000001
#
# number of rings (size 3 to 8) (size 9 to 14) (size 15 to 20)
#    0.000    1.857    0.000    4.286    0.000    8.000 
#    0.000    0.714    0.000    4.286    0.000    0.000 
#    0.000    0.000    0.000    0.000    0.000    0.000 
#
# Total GULP energy -347278.583216 kJ/mol
# GULP energy per Si atom -12402.806543 kJ/mol
# Density = 1.961479 g / cm^3
# Si number density = 19.659538 Si / 1000 Ang^3
#
#
#
# Elastic Constant Matrix: (Units=GPa)
#
#
# Indices 1 2 3 4 5 6 
#
# 1 106.7035 32.9312 23.2028 0.0000 15.7130 0.0000
# 2 32.9312 88.2724 34.4232 0.0000 7.4665 0.0000
# 3 23.2028 34.4232 79.8559 0.0000 17.6058 0.0000
# 4 0.0000 0.0000 0.0000 35.5947 0.0000 7.4025
# 5 15.7130 7.4665 17.6058 0.0000 26.3495 0.0000
# 6 0.0000 0.0000 0.0000 7.4025 0.0000 28.6939
#
#
#
# Elastic Compliance Matrix: (Units=1/GPa)
#
#
# Indices 1 2 3 4 5 6 
#
# 1 0.011394 -0.003567 -0.000584 0.000000 -0.005394 0.000000
# 2 -0.003567 0.014734 -0.005704 0.000000 0.001763 0.000000
# 3 -0.000584 -0.005704 0.017261 0.000000 -0.009568 0.000000
# 4 0.000000 0.000000 0.000000 0.029687 0.000000 -0.007659
# 5 -0.005394 0.001763 -0.009568 0.000000 0.047061 0.000000
# 6 0.000000 0.000000 0.000000 -0.007659 0.000000 0.036826
#
#
# Mechanical properties :
#
#
# Convention : Reuss Voigt Hill
#
# Bulk Modulus (GPa) = 42.23019 50.66070 46.44544
# Shear Modulus (GPa) = 27.09066 30.41258 28.75162
#
# Velocity S-wave (km/s) = 3.71616 3.93741 3.82838
# Velocity P-wave (km/s) = 6.31985 6.81879 6.57406
#
# Compressibility (1/GPa) = 0.02367974
#
# Stress axis : x y z
#
# Youngs Moduli (GPa) = 87.76738 67.86862 57.93575
#
# Poissons Ratio (x) = 0.24206 0.03383
# Poissons Ratio (y) = 0.31304 0.33045
# Poissons Ratio (z) = 0.05125 0.38711
#
# Static dielectric constant tensor:
#      x y z
#    x 3.851220 0.000000 0.174770 
#    y 0.000000 3.690630 0.000000 
#    z 0.174770 0.000000 3.475950 
# 
# 
# High freq. dielectric constant tensor:
#      x y z
#    x 1.774550 0.000000 0.011490 
#    y 0.000000 1.767900 0.000000 
#    z 0.011490 0.000000 1.750550 
# 
# From -- ./inp_files/275495.got.cif
#   From: 2010.06.25/outbox.cif.g09.slc.cpg/sg12_138_cif.got.tgz:275495.got - 2010.06.28 00:19:55.
