data_PCOD8088283
_publ_section_title
;
Structure prediction by ZEFSAII (Michael W. Deem and Ramdas Pophale) SiO2 
 PCOD8088283
Probable space group: C 2/M
;
_chemical_formula_sum "Si O2"
_cell_formula_units_Z 56
_cell_length_a 18.566614
_cell_length_b 9.039240
_cell_length_c 22.601842
_cell_angle_alpha 90.000000
_cell_angle_beta 126.899578
_cell_angle_gamma 90.000000
_cell_volume 3033.399610
_symmetry_space_group_name_H-M "C 2/M"
_symmetry_group_IT_number 12
_symmetry_cell_setting 'monoclinic'
loop_
_space_group_symop_operation_xyz
x,y,z
-x,y,-z
-x,-y,-z
x,-y,z
1/2+x,1/2+y,z
1/2-x,1/2+y,-z
1/2-x,1/2-y,-z
1/2+x,1/2-y,z
loop_
_atom_site_type_symbol
_atom_site_label
_atom_site_fract_x
_atom_site_fract_y
_atom_site_fract_z
Si Si1 0.090240 0.172239 0.008084
Si Si2 0.843849 0.675933 0.560109
Si Si3 0.124043 0.333186 0.712563
Si Si4 0.499323 0.331384 0.429825
Si Si5 0.265923 0.324860 0.140186
Si Si6 0.926331 0.173206 0.133959
Si Si7 0.539793 0.836427 0.277454
O O1 0.167642 0.269058 0.075379
O O2 0.118211 0.000000 0.022629
O O3 0.076830 0.230904 0.934665
O O4 0.000000 0.200351 0.000000
O O5 0.839037 0.500000 0.549650
O O6 0.750000 0.750000 0.500000
O O7 0.914999 0.739775 0.549152
O O8 0.872619 0.716304 0.642119
O O9 0.152912 0.500000 0.709427
O O10 0.207543 0.249969 0.784478
O O11 0.093125 0.243352 0.639161
O O12 0.041530 0.335341 0.716701
O O13 0.500000 0.327065 0.500000
O O14 0.504471 0.500000 0.408746
O O15 0.265677 0.500000 0.148209
O O16 0.335781 0.275527 0.123160
O O17 0.016432 0.233888 0.210205
O O18 0.936577 0.000000 0.140320
O O19 0.555473 0.000000 0.259619
#
# Coordination Sequence:
#
# PCOD8088283 Si02
#       7
#     8   8   8   8   8   8   8
#     4  10  21  36  51  70 101 136 166 200 246 301
#     4  10  20  34  53  77 105 139 177 216 261 312
#     4   9  17  31  52  76 102 132 168 210 254 301
#     4  10  20  34  53  78 108 139 172 214 261 308
#     4  10  19  32  53  78 100 125 164 211 254 298
#     4   9  18  32  52  76  97 124 165 208 249 295
#     4   8  16  30  49  74 100 127 162 207 255 297
#
# _framework density 18.461134999999999
#
# number of rings (size 3 to 8) (size 9 to 14) (size 15 to 20)
#    0.000    2.571    0.000    3.000    0.000    6.571 
#    0.000    1.429    0.000    3.429    0.000    0.000 
#    0.000    0.000    0.000    0.000    0.000    0.000 
#
# Total GULP energy -347151.070235 kJ/mol
# GULP energy per Si atom -12398.252508 kJ/mol
# Density = 1.841912 g / cm^3
# Si number density = 18.461135 Si / 1000 Ang^3
#
#
#
# Elastic Constant Matrix: (Units=GPa)
#
#
# Indices 1 2 3 4 5 6 
#
# 1 48.6931 35.0005 45.0566 0.0000 3.8210 0.0000
# 2 35.0005 101.1582 72.9406 0.0000 4.4761 0.0000
# 3 45.0566 72.9406 167.1674 0.0000 9.4424 0.0000
# 4 0.0000 0.0000 0.0000 41.1783 0.0000 3.3806
# 5 3.8210 4.4761 9.4424 0.0000 22.7284 0.0000
# 6 0.0000 0.0000 0.0000 3.3806 0.0000 20.3239
#
#
#
# Elastic Compliance Matrix: (Units=1/GPa)
#
#
# Indices 1 2 3 4 5 6 
#
# 1 0.030221 -0.006678 -0.005139 0.000000 -0.001630 0.000000
# 2 -0.006678 0.015900 -0.005145 0.000000 0.000129 0.000000
# 3 -0.005139 -0.005145 0.009735 0.000000 -0.002167 0.000000
# 4 0.000000 0.000000 0.000000 0.024621 0.000000 -0.004095
# 5 -0.001630 0.000129 -0.002167 0.000000 0.045147 0.000000
# 6 0.000000 0.000000 0.000000 -0.004095 0.000000 0.049884
#
#
# Mechanical properties :
#
#
# Convention : Reuss Voigt Hill
#
# Bulk Modulus (GPa) = 45.59960 69.22379 57.41169
# Shear Modulus (GPa) = 23.06876 27.78084 25.42480
#
# Velocity S-wave (km/s) = 3.53878 3.88342 3.71510
# Velocity P-wave (km/s) = 6.43826 7.59516 7.04051
#
# Compressibility (1/GPa) = 0.02193002
#
# Stress axis : x y z
#
# Youngs Moduli (GPa) = 33.08996 62.89128 102.72640
#
# Poissons Ratio (x) = 0.42002 0.52794
# Poissons Ratio (y) = 0.22099 0.52854
# Poissons Ratio (z) = 0.17006 0.32358
#
# Static dielectric constant tensor:
#      x y z
#    x 3.058700 0.000000 -0.036950 
#    y 0.000000 3.550690 0.000000 
#    z -0.036950 0.000000 3.923570 
# 
# 
# High freq. dielectric constant tensor:
#      x y z
#    x 1.672600 0.000000 -0.000400 
#    y 0.000000 1.723950 0.000000 
#    z -0.000400 0.000000 1.735250 
# 
# From -- ./inp_files/342497.got.cif
#   From: 2010.06.25/outbox.cif.g09.slc.cpg/sg12_172_cif.got.tgz:342497.got - 2010.06.28 00:19:55.
