data_PCOD8088291
_publ_section_title
;
Structure prediction by ZEFSAII (Michael W. Deem and Ramdas Pophale) SiO2 
 PCOD8088291
Probable space group: C 2/M
;
_chemical_formula_sum "Si O2"
_cell_formula_units_Z 48
_cell_length_a 32.939184
_cell_length_b 8.937207
_cell_length_c 19.346821
_cell_angle_alpha 90.000000
_cell_angle_beta 151.889837
_cell_angle_gamma 90.000000
_cell_volume 2683.492405
_symmetry_space_group_name_H-M "C 2/M"
_symmetry_group_IT_number 12
_symmetry_cell_setting 'monoclinic'
loop_
_space_group_symop_operation_xyz
x,y,z
-x,y,-z
-x,-y,-z
x,-y,z
1/2+x,1/2+y,z
1/2-x,1/2+y,-z
1/2-x,1/2-y,-z
1/2+x,1/2-y,z
loop_
_atom_site_type_symbol
_atom_site_label
_atom_site_fract_x
_atom_site_fract_y
_atom_site_fract_z
Si Si1 0.679148 0.823391 0.845282
Si Si2 0.320935 0.324241 0.302133
Si Si3 0.681407 0.322983 0.347549
Si Si4 0.007032 0.835253 0.928728
Si Si5 0.008169 0.165134 0.594143
Si Si6 0.325197 0.174731 0.809176
O O1 0.694160 0.768826 0.789958
O O2 0.583827 0.778056 0.730035
O O3 0.688023 0.000000 0.862278
O O4 0.750000 0.750000 0.000000
O O5 0.319114 0.500000 0.280320
O O6 0.412964 0.283235 0.476697
O O7 0.246834 0.279743 0.244005
O O8 0.693316 0.500000 0.362960
O O9 0.750000 0.250000 0.500000
O O10 0.587304 0.280574 0.237932
O O11 0.694656 0.262253 0.290502
O O12 0.028864 0.000000 0.931275
O O13 0.081976 0.720683 0.019232
O O14 0.000000 0.846234 0.000000
O O15 0.000000 0.158137 0.500000
O O16 0.031009 0.000000 0.657684
O O17 0.325246 0.000000 0.793012
#
# Coordination Sequence:
#
# PCOD8088291 Si02
#       6
#     8   8   8   8   8   8
#     4  11  21  33  52  76 101 130 167 207 246 291
#     4   9  19  35  53  75 103 132 163 201 247 297
#     4  10  20  34  52  74 101 132 168 207 248 295
#     4   8  16  31  49  70  98 132 166 201 243 294
#     4   8  15  31  52  71  97 132 164 197 242 295
#     4  10  19  32  53  78 102 130 165 204 245 293
#
# _framework density 17.887138
#
# number of rings (size 3 to 8) (size 9 to 14) (size 15 to 20)
#    0.000    2.667    0.000    4.500    0.000    8.000 
#    0.000    1.667    0.000    2.000    0.000    0.000 
#    0.000    0.000    0.000    0.000    0.000    0.000 
#
# Total GULP energy -297467.073323 kJ/mol
# GULP energy per Si atom -12394.461388 kJ/mol
# Density = 1.784643 g / cm^3
# Si number density = 17.887138 Si / 1000 Ang^3
#
#
#
# Elastic Constant Matrix: (Units=GPa)
#
#
# Indices 1 2 3 4 5 6 
#
# 1 86.1739 54.2645 63.9450 0.0000 27.9536 0.0000
# 2 54.2645 115.6350 76.8881 0.0000 10.9239 0.0000
# 3 63.9450 76.8881 160.6874 0.0000 22.8897 0.0000
# 4 0.0000 0.0000 0.0000 34.2126 0.0000 2.5891
# 5 27.9536 10.9239 22.8897 0.0000 28.9000 0.0000
# 6 0.0000 0.0000 0.0000 2.5891 0.0000 24.0707
#
#
#
# Elastic Compliance Matrix: (Units=1/GPa)
#
#
# Indices 1 2 3 4 5 6 
#
# 1 0.025151 -0.007556 -0.003759 0.000000 -0.018494 0.000000
# 2 -0.007556 0.014953 -0.004942 0.000000 0.005571 0.000000
# 3 -0.003759 -0.004942 0.010482 0.000000 -0.002799 0.000000
# 4 0.000000 0.000000 0.000000 0.029469 0.000000 -0.003170
# 5 -0.018494 0.005571 -0.002799 0.000000 0.052602 0.000000
# 6 0.000000 0.000000 0.000000 -0.003170 0.000000 0.041885
#
#
# Mechanical properties :
#
#
# Convention : Reuss Voigt Hill
#
# Bulk Modulus (GPa) = 55.32967 83.63238 69.48103
# Shear Modulus (GPa) = 23.46526 28.59656 26.03091
#
# Velocity S-wave (km/s) = 3.62588 4.00274 3.81896
# Velocity P-wave (km/s) = 6.96629 8.25952 7.64031
#
# Compressibility (1/GPa) = 0.01807348
#
# Stress axis : x y z
#
# Youngs Moduli (GPa) = 39.75951 66.87401 95.39957
#
# Poissons Ratio (x) = 0.50533 0.35857
# Poissons Ratio (y) = 0.30044 0.47143
# Poissons Ratio (z) = 0.14944 0.33047
#
# Static dielectric constant tensor:
#      x y z
#    x 3.217200 0.000000 0.525740 
#    y 0.000000 3.352650 0.000000 
#    z 0.525740 0.000000 3.879630 
# 
# 
# High freq. dielectric constant tensor:
#      x y z
#    x 1.661360 0.000000 0.027440 
#    y 0.000000 1.694920 0.000000 
#    z 0.027440 0.000000 1.700880 
# 
# From -- ./inp_files/295891.got.cif
#   From: 2010.06.25/outbox.cif.g09.slc.cpg/sg12_148_cif.got.tgz:295891.got - 2010.06.28 00:19:55.
