data_PCOD8088229
_publ_section_title
;
Structure prediction by ZEFSAII (Michael W. Deem and Ramdas Pophale) SiO2 
 PCOD8088229
Probable space group: C 2/M
;
_chemical_formula_sum "Si O2"
_cell_formula_units_Z 64
_cell_length_a 28.037000
_cell_length_b 13.059492
_cell_length_c 10.157541
_cell_angle_alpha 90.000000
_cell_angle_beta 107.408132
_cell_angle_gamma 90.000000
_cell_volume 3548.827214
_symmetry_space_group_name_H-M "C 2/M"
_symmetry_group_IT_number 12
_symmetry_cell_setting 'monoclinic'
loop_
_space_group_symop_operation_xyz
x,y,z
-x,y,-z
-x,-y,-z
x,-y,z
1/2+x,1/2+y,z
1/2-x,1/2+y,-z
1/2-x,1/2-y,-z
1/2+x,1/2-y,z
loop_
_atom_site_type_symbol
_atom_site_label
_atom_site_fract_x
_atom_site_fract_y
_atom_site_fract_z
Si Si1 0.308521 0.765873 0.674285
Si Si2 0.386319 0.112841 0.429108
Si Si3 0.430606 0.804546 0.212577
Si Si4 0.276400 0.118073 0.398760
Si Si5 0.446397 0.615138 0.399578
Si Si6 0.599377 0.697256 0.395025
Si Si7 0.384072 0.120259 0.916809
Si Si8 0.527754 0.779820 0.149948
O O1 0.284601 0.850156 0.557756
O O2 0.266181 0.691110 0.699296
O O3 0.346139 0.690139 0.625173
O O4 0.335514 0.827494 0.812682
O O5 0.415195 0.118652 0.315237
O O6 0.327356 0.136603 0.358859
O O7 0.409826 0.188693 0.554733
O O8 0.392587 0.000000 0.494179
O O9 0.428427 0.687811 0.265897
O O10 0.486531 0.831900 0.210704
O O11 0.392159 0.820366 0.061021
O O12 0.259325 0.000000 0.378479
O O13 0.500000 0.651640 0.500000
O O14 0.448611 0.500000 0.346078
O O15 0.407427 0.617812 0.490728
O O16 0.556246 0.686478 0.248001
O O17 0.432193 0.134610 0.862103
O O18 0.374954 0.000000 0.932566
O O19 0.500000 0.731222 0.000000
#
# Coordination Sequence:
#
# PCOD8088229 Si02
#       8
#     8   8   8   8   8   8   8   8
#     4   9  18  32  52  75 101 133 163 211 257 300
#     4   9  18  30  48  72  98 129 161 202 255 304
#     4  10  19  33  51  71 104 133 169 208 242 294
#     4   9  17  32  52  74  99 128 166 210 262 305
#     4  10  19  32  53  71  93 133 174 211 251 287
#     4   9  17  31  48  71 100 127 165 211 246 294
#     4  10  20  33  51  75 105 139 168 200 250 306
#     4   9  18  30  47  68 102 133 162 199 237 288
#
# _framework density 18.034125
#
# number of rings (size 3 to 8) (size 9 to 14) (size 15 to 20)
#    0.000    2.625    1.250    0.750    0.000    6.250 
#    0.000    1.875    0.000    9.000    0.000    0.000 
#    0.000    0.000    0.000    0.000    0.000    0.000 
#
# Total GULP energy -396630.616301 kJ/mol
# GULP energy per Si atom -12394.706759 kJ/mol
# Density = 1.799308 g / cm^3
# Si number density = 18.034125 Si / 1000 Ang^3
#
#
#
# Elastic Constant Matrix: (Units=GPa)
#
#
# Indices 1 2 3 4 5 6 
#
# 1 65.1802 28.4867 27.8297 0.0000 1.9620 0.0000
# 2 28.4867 92.5785 39.5289 0.0000 8.8803 0.0000
# 3 27.8297 39.5289 85.3579 0.0000 10.5757 0.0000
# 4 0.0000 0.0000 0.0000 17.6226 0.0000 3.0080
# 5 1.9620 8.8803 10.5757 0.0000 27.6724 0.0000
# 6 0.0000 0.0000 0.0000 3.0080 0.0000 20.9817
#
#
#
# Elastic Compliance Matrix: (Units=1/GPa)
#
#
# Indices 1 2 3 4 5 6 
#
# 1 0.019003 -0.004081 -0.004515 0.000000 0.001688 0.000000
# 2 -0.004081 0.014450 -0.005062 0.000000 -0.002413 0.000000
# 3 -0.004515 -0.005062 0.016051 0.000000 -0.004190 0.000000
# 4 0.000000 0.000000 0.000000 0.058169 0.000000 -0.008339
# 5 0.001688 -0.002413 -0.004190 0.000000 0.038393 0.000000
# 6 0.000000 0.000000 0.000000 -0.008339 0.000000 0.048856
#
#
# Mechanical properties :
#
#
# Convention : Reuss Voigt Hill
#
# Bulk Modulus (GPa) = 45.07095 48.31190 46.69142
# Shear Modulus (GPa) = 21.77379 23.07342 22.42361
#
# Velocity S-wave (km/s) = 3.47849 3.58079 3.53001
# Velocity P-wave (km/s) = 6.41712 6.62898 6.52391
#
# Compressibility (1/GPa) = 0.02218724
#
# Stress axis : x y z
#
# Youngs Moduli (GPa) = 52.62440 69.20188 62.30270
#
# Poissons Ratio (x) = 0.28244 0.28127
# Poissons Ratio (y) = 0.21478 0.31539
# Poissons Ratio (z) = 0.23757 0.35032
#
# Static dielectric constant tensor:
#      x y z
#    x 3.441880 0.000000 -0.027410 
#    y 0.000000 3.060890 0.000000 
#    z -0.027410 0.000000 3.343080 
# 
# 
# High freq. dielectric constant tensor:
#      x y z
#    x 1.698330 0.000000 -0.000940 
#    y 0.000000 1.673760 0.000000 
#    z -0.000940 0.000000 1.686630 
# 
# From -- ./inp_files/188391.got.cif
#   From: 2010.06.25/outbox.cif.g09.slc.cpg/sg12_95_cif.got.tgz:188391.got - 2010.06.28 00:19:55.
