data_PCOD8088005
_publ_section_title
;
Structure prediction by ZEFSAII (Michael W. Deem and Ramdas Pophale) SiO2 
 PCOD8088005
Probable space group: C 2/M
;
_chemical_formula_sum "Si O2"
_cell_formula_units_Z 56
_cell_length_a 17.930647
_cell_length_b 8.689675
_cell_length_c 24.547332
_cell_angle_alpha 90.000000
_cell_angle_beta 47.208617
_cell_angle_gamma 90.000000
_cell_volume 2806.728865
_symmetry_space_group_name_H-M "C 2/M"
_symmetry_group_IT_number 12
_symmetry_cell_setting 'monoclinic'
loop_
_space_group_symop_operation_xyz
x,y,z
-x,y,-z
-x,-y,-z
x,-y,z
1/2+x,1/2+y,z
1/2-x,1/2+y,-z
1/2-x,1/2-y,-z
1/2+x,1/2-y,z
loop_
_atom_site_type_symbol
_atom_site_label
_atom_site_fract_x
_atom_site_fract_y
_atom_site_fract_z
Si Si1 0.972215 0.682621 0.617561
Si Si2 0.575753 0.820078 0.784246
Si Si3 0.270358 0.178261 0.916242
Si Si4 0.434127 0.821322 0.755840
Si Si5 0.315657 0.318876 0.515689
Si Si6 0.774506 0.680376 0.648920
Si Si7 0.413396 0.325056 0.930292
O O1 0.985738 0.500000 0.612009
O O2 0.956009 0.754380 0.686240
O O3 0.876772 0.731097 0.628547
O O4 0.070355 0.756087 0.541531
O O5 0.511134 0.760265 0.764054
O O6 0.680563 0.726984 0.733951
O O7 0.511562 0.782136 0.871184
O O8 0.598374 0.000000 0.770788
O O9 0.316560 0.209313 0.832838
O O10 0.327828 0.295205 0.927408
O O11 0.295579 0.000000 0.919938
O O12 0.147646 0.206002 0.981938
O O13 0.454249 0.000000 0.738407
O O14 0.315581 0.500000 0.509718
O O15 0.250000 0.250000 0.500000
O O16 0.263512 0.271980 0.598102
O O17 0.773397 0.500000 0.637422
O O18 0.451432 0.500000 0.908321
#
# Coordination Sequence:
#
# PCOD8088005 Si02
#       7
#     8   8   8   8   8   8   8
#     4  10  21  38  59  82 111 144 178 221 271 323
#     4  10  19  32  52  76 105 142 183 225 270 324
#     4   8  14  25  43  69 101 136 174 218 269 324
#     4   8  15  30  52  76 101 134 176 219 266 317
#     4  12  25  41  62  85 111 142 178 220 265 316
#     4  11  23  38  57  82 111 142 179 222 270 324
#     4   9  15  24  42  70 103 135 172 222 274 320
#
# _framework density 19.952051000000001
#
# number of rings (size 3 to 8) (size 9 to 14) (size 15 to 20)
#    0.000    2.286    0.000    4.714    0.000    4.571 
#    0.000    2.857    0.000    0.857    0.000    6.000 
#    0.000    0.000    0.000    0.000    0.000    0.000 
#
# Total GULP energy -347023.686880 kJ/mol
# GULP energy per Si atom -12393.703103 kJ/mol
# Density = 1.990664 g / cm^3
# Si number density = 19.952051 Si / 1000 Ang^3
#
#
#
# Elastic Constant Matrix: (Units=GPa)
#
#
# Indices 1 2 3 4 5 6 
#
# 1 55.6894 30.8364 23.2853 0.0000 -21.5486 0.0000
# 2 30.8364 49.9741 21.3990 0.0000 -9.8433 0.0002
# 3 23.2853 21.3990 123.6578 0.0000 -26.0673 0.0001
# 4 0.0000 0.0000 0.0000 32.1217 0.0000 -3.5695
# 5 -21.5486 -9.8433 -26.0673 0.0000 24.1230 0.0000
# 6 0.0000 0.0002 0.0001 -3.5695 0.0000 17.6683
#
#
#
# Elastic Compliance Matrix: (Units=1/GPa)
#
#
# Indices 1 2 3 4 5 6 
#
# 1 0.039092 -0.019259 0.002171 0.000000 0.029407 0.000000
# 2 -0.019259 0.031837 -0.003588 0.000000 -0.008090 0.000000
# 3 0.002171 -0.003588 0.010877 0.000000 0.012228 0.000000
# 4 0.000000 0.000000 0.000000 0.031847 0.000000 0.006434
# 5 0.029407 -0.008090 0.012228 0.000000 0.077636 0.000000
# 6 0.000000 0.000000 0.000000 0.006434 0.000000 0.057898
#
#
# Mechanical properties :
#
#
# Convention : Reuss Voigt Hill
#
# Bulk Modulus (GPa) = 24.72007 42.26253 33.49130
# Shear Modulus (GPa) = 16.44610 25.03599 20.74104
#
# Velocity S-wave (km/s) = 2.87414 3.54617 3.22769
# Velocity P-wave (km/s) = 4.84055 6.16402 5.54193
#
# Compressibility (1/GPa) = 0.04045296
#
# Stress axis : x y z
#
# Youngs Moduli (GPa) = 25.58068 31.41004 91.93890
#
# Poissons Ratio (x) = 0.60492 -0.19957
# Poissons Ratio (y) = 0.49265 0.32990
# Poissons Ratio (z) = -0.05553 0.11271
#
# Static dielectric constant tensor:
#      x y z
#    x 3.303810 0.000000 0.037070 
#    y 0.000000 3.439830 0.000000 
#    z 0.037070 0.000000 4.195140 
# 
# 
# High freq. dielectric constant tensor:
#      x y z
#    x 1.728340 0.000000 -0.007250 
#    y 0.000000 1.764840 0.000000 
#    z -0.007250 0.000000 1.810200 
# 
# From -- ./inp_files/362991.got.cif
#   From: 2010.06.25/outbox.cif.g09.slc.cpg/sg12_182_cif.got.tgz:362991.got - 2010.06.28 00:19:55.
