data_PCOD8088931
_publ_section_title
;
Structure prediction by ZEFSAII (Michael W. Deem and Ramdas Pophale) SiO2 
 PCOD8088931
Probable space group: C 2/M
;
_chemical_formula_sum "Si O2"
_cell_formula_units_Z 56
_cell_length_a 20.314245
_cell_length_b 8.985975
_cell_length_c 30.801889
_cell_angle_alpha 90.000000
_cell_angle_beta 147.588479
_cell_angle_gamma 90.000000
_cell_volume 3013.736283
_symmetry_space_group_name_H-M "C 2/M"
_symmetry_group_IT_number 12
_symmetry_cell_setting 'monoclinic'
loop_
_space_group_symop_operation_xyz
x,y,z
-x,y,-z
-x,-y,-z
x,-y,z
1/2+x,1/2+y,z
1/2-x,1/2+y,-z
1/2-x,1/2-y,-z
1/2+x,1/2-y,z
loop_
_atom_site_type_symbol
_atom_site_label
_atom_site_fract_x
_atom_site_fract_y
_atom_site_fract_z
Si Si1 0.074182 0.174459 0.267306
Si Si2 0.720683 0.171667 0.415630
Si Si3 0.590709 0.326544 0.176228
Si Si4 0.704061 0.327463 0.763692
Si Si5 0.572304 0.329813 0.405691
Si Si6 0.668775 0.175899 0.833467
Si Si7 0.821450 0.826834 0.001218
O O1 0.198793 0.232593 0.359781
O O2 0.076635 0.218451 0.218533
O O3 0.961658 0.252701 0.228696
O O4 0.059877 0.000000 0.266101
O O5 0.622613 0.218968 0.397446
O O6 0.858548 0.200836 0.510109
O O7 0.698936 0.000000 0.392336
O O8 0.623334 0.500000 0.189239
O O9 0.697734 0.227806 0.216216
O O10 0.464856 0.284721 0.081660
O O11 0.725460 0.500000 0.785907
O O12 0.571480 0.299542 0.668055
O O13 0.720488 0.236639 0.817111
O O14 0.597278 0.500000 0.404528
O O15 0.766826 0.223070 0.924702
O O16 0.653152 0.000000 0.821835
O O17 0.803750 0.000000 0.999528
O O18 0.750000 0.750000 0.000000
#
# Coordination Sequence:
#
# PCOD8088931 Si02
#       7
#     8   8   8   8   8   8   8
#     4  11  21  36  58  85 116 150 190 237 286 338
#     4  10  19  32  56  86 113 146 190 237 285 338
#     4  10  23  41  59  81 116 156 190 233 289 343
#     4  11  23  39  59  84 117 154 191 235 287 341
#     4   9  19  35  54  81 116 150 187 235 287 336
#     4  11  22  36  60  88 114 148 192 237 284 341
#     4  10  21  38  60  86 115 149 190 238 285 335
#
# _framework density 18.581585
#
# number of rings (size 3 to 8) (size 9 to 14) (size 15 to 20)
#    0.000    1.714    2.857    1.714    0.000    4.000 
#    0.000    3.571    0.000    4.286    0.000    0.000 
#    0.000    0.000    0.000    0.000    0.000    0.000 
#
# Total GULP energy -347284.336277 kJ/mol
# GULP energy per Si atom -12403.012010 kJ/mol
# Density = 1.853929 g / cm^3
# Si number density = 18.581585 Si / 1000 Ang^3
#
#
#
# Elastic Constant Matrix: (Units=GPa)
#
#
# Indices 1 2 3 4 5 6 
#
# 1 56.7816 25.6835 27.1218 0.0000 -1.6936 0.0003
# 2 25.6835 65.2353 35.3184 0.0000 -5.4967 0.0007
# 3 27.1218 35.3184 124.5948 0.0001 -10.8502 0.0001
# 4 0.0000 0.0000 0.0001 29.7402 0.0000 -0.1917
# 5 -1.6936 -5.4967 -10.8502 0.0000 30.5123 0.0000
# 6 0.0003 0.0007 0.0001 -0.1917 0.0000 33.9601
#
#
#
# Elastic Compliance Matrix: (Units=1/GPa)
#
#
# Indices 1 2 3 4 5 6 
#
# 1 0.022251 -0.007299 -0.002870 0.000000 -0.001101 0.000000
# 2 -0.007299 0.020568 -0.004080 0.000000 0.001849 0.000000
# 3 -0.002870 -0.004080 0.010041 0.000000 0.002676 0.000000
# 4 0.000000 0.000000 0.000000 0.033626 0.000000 0.000190
# 5 -0.001101 0.001849 0.002676 0.000000 0.033997 0.000000
# 6 0.000000 0.000000 0.000000 0.000190 0.000000 0.029447
#
#
# Mechanical properties :
#
#
# Convention : Reuss Voigt Hill
#
# Bulk Modulus (GPa) = 41.05152 46.98435 44.01794
# Shear Modulus (GPa) = 26.80255 29.40839 28.10547
#
# Velocity S-wave (km/s) = 3.80205 3.98259 3.89336
# Velocity P-wave (km/s) = 6.43542 6.81823 6.62959
#
# Compressibility (1/GPa) = 0.02435963
#
# Stress axis : x y z
#
# Youngs Moduli (GPa) = 44.94154 48.61980 99.59625
#
# Poissons Ratio (x) = 0.35488 0.28588
# Poissons Ratio (y) = 0.32803 0.40639
# Poissons Ratio (z) = 0.12900 0.19839
#
# Static dielectric constant tensor:
#      x y z
#    x 3.190340 0.000000 -0.117200 
#    y 0.000000 3.484160 0.000000 
#    z -0.117200 0.000000 3.845740 
# 
# 
# High freq. dielectric constant tensor:
#      x y z
#    x 1.696390 0.000000 -0.010440 
#    y 0.000000 1.729070 0.000000 
#    z -0.010440 0.000000 1.741110 
# 
# From -- ./inp_files/377723.got.cif
#   From: 2010.06.25/outbox.cif.g09.slc.cpg/sg12_189_cif.got.tgz:377723.got - 2010.06.28 00:19:55.
