data_PCOD8088562
_publ_section_title
;
Structure prediction by ZEFSAII (Michael W. Deem and Ramdas Pophale) SiO2 
 PCOD8088562
Probable space group: C 2/M
;
_chemical_formula_sum "Si O2"
_cell_formula_units_Z 64
_cell_length_a 21.345041
_cell_length_b 23.857877
_cell_length_c 12.394085
_cell_angle_alpha 90.000000
_cell_angle_beta 33.010567
_cell_angle_gamma 90.000000
_cell_volume 3438.549940
_symmetry_space_group_name_H-M "C 2/M"
_symmetry_group_IT_number 12
_symmetry_cell_setting 'monoclinic'
loop_
_space_group_symop_operation_xyz
x,y,z
-x,y,-z
-x,-y,-z
x,-y,z
1/2+x,1/2+y,z
1/2-x,1/2+y,-z
1/2-x,1/2-y,-z
1/2+x,1/2-y,z
loop_
_atom_site_type_symbol
_atom_site_label
_atom_site_fract_x
_atom_site_fract_y
_atom_site_fract_z
Si Si1 0.406715 0.061932 0.402954
Si Si2 0.289849 0.227567 0.676451
Si Si3 0.955017 0.281697 0.250958
Si Si4 0.692379 0.156219 0.871271
Si Si5 0.200025 0.369563 0.621266
Si Si6 0.366555 0.874636 0.670224
Si Si7 0.174735 0.436314 0.058910
Si Si8 0.602269 0.676788 0.788909
O O1 0.369836 0.081503 0.337261
O O2 0.346717 0.100421 0.579302
O O3 0.543024 0.063368 0.213551
O O4 0.359497 0.000000 0.490237
O O5 0.410849 0.223247 0.437476
O O6 0.277070 0.290579 0.740179
O O7 0.301125 0.185269 0.762510
O O8 0.185541 0.210197 0.749771
O O9 0.857142 0.309637 0.318449
O O10 0.971233 0.220558 0.177524
O O11 0.068085 0.320115 0.085611
O O12 0.693468 0.121048 0.758399
O O13 0.737247 0.110346 0.893652
O O14 0.330241 0.366275 0.386338
O O15 0.500000 0.866334 0.500000
O O16 0.311357 0.916459 0.837479
O O17 0.225005 0.500000 0.974788
O O18 0.500000 0.643933 0.000000
#
# Coordination Sequence:
#
# PCOD8088562 Si02
#       8
#     8   8   8   8   8   8   8   8
#     4  10  19  32  54  78 104 143 184 222 262 313
#     4  11  20  31  53  79 106 142 178 218 270 314
#     4  11  17  31  47  80 109 145 168 204 260 326
#     4  12  21  32  55  79 117 142 174 213 265 330
#     4  11  19  31  49  79 111 140 173 210 267 322
#     4  10  19  37  54  73 107 142 182 228 263 309
#     4  10  22  36  51  73 104 146 183 217 265 318
#     4  11  18  30  51  80 108 144 176 205 258 329
#
# _framework density 18.612497999999999
#
# number of rings (size 3 to 8) (size 9 to 14) (size 15 to 20)
#    0.000    1.250    7.500    2.250    0.000    2.500 
#    0.000    1.250    0.000    0.375    0.000    0.000 
#    0.000    5.000    0.000    0.000    0.000    0.000 
#
# Total GULP energy -396630.899767 kJ/mol
# GULP energy per Si atom -12394.715618 kJ/mol
# Density = 1.857013 g / cm^3
# Si number density = 18.612498 Si / 1000 Ang^3
#
#
#
# Elastic Constant Matrix: (Units=GPa)
#
#
# Indices 1 2 3 4 5 6 
#
# 1 44.6418 45.7510 15.2332 -0.0003 17.2888 0.0000
# 2 45.7510 103.9089 28.4221 -0.0002 19.5077 0.0000
# 3 15.2332 28.4221 94.6706 -0.0001 10.5057 0.0002
# 4 -0.0003 -0.0002 -0.0001 18.6284 0.0002 3.5206
# 5 17.2888 19.5077 10.5057 0.0002 18.2070 0.0000
# 6 0.0000 0.0000 0.0002 3.5206 0.0000 23.4401
#
#
#
# Elastic Compliance Matrix: (Units=1/GPa)
#
#
# Indices 1 2 3 4 5 6 
#
# 1 0.051834 -0.017049 0.000227 0.000001 -0.031084 0.000000
# 2 -0.017049 0.018157 -0.002506 0.000000 -0.001820 0.000000
# 3 0.000227 -0.002506 0.011758 0.000000 -0.004315 0.000000
# 4 0.000001 0.000000 0.000000 0.055250 -0.000001 -0.008298
# 5 -0.031084 -0.001820 -0.004315 -0.000001 0.088880 0.000000
# 6 0.000000 0.000000 0.000000 -0.008298 0.000000 0.043908
#
#
# Mechanical properties :
#
#
# Convention : Reuss Voigt Hill
#
# Bulk Modulus (GPa) = 23.20521 46.89266 35.04893
# Shear Modulus (GPa) = 15.48916 22.30942 18.89929
#
# Velocity S-wave (km/s) = 2.88790 3.46587 3.19000
# Velocity P-wave (km/s) = 4.85948 6.42380 5.69560
#
# Compressibility (1/GPa) = 0.04309378
#
# Stress axis : x y z
#
# Youngs Moduli (GPa) = 19.29253 55.07375 85.05155
#
# Poissons Ratio (x) = 0.93894 -0.01934
# Poissons Ratio (y) = 0.32891 0.21314
# Poissons Ratio (z) = -0.00439 0.13802
#
# Static dielectric constant tensor:
#      x y z
#    x 3.126030 0.000000 0.241840 
#    y 0.000000 3.478060 0.000000 
#    z 0.241840 0.000000 3.490510 
# 
# 
# High freq. dielectric constant tensor:
#      x y z
#    x 1.690740 0.000000 0.026130 
#    y 0.000000 1.709560 0.000000 
#    z 0.026130 0.000000 1.710240 
# 
# From -- ./inp_files/170148.got.cif
#   From: 2010.06.25/outbox.cif.g09.slc.cpg/sg12_86_cif.got.tgz:170148.got - 2010.06.28 00:19:55.
