data_PCOD8088335
_publ_section_title
;
Structure prediction by ZEFSAII (Michael W. Deem and Ramdas Pophale) SiO2 
 PCOD8088335
Probable space group: C 2/M
;
_chemical_formula_sum "Si O2"
_cell_formula_units_Z 48
_cell_length_a 22.671063
_cell_length_b 20.230514
_cell_length_c 11.784033
_cell_angle_alpha 90.000000
_cell_angle_beta 149.221806
_cell_angle_gamma 90.000000
_cell_volume 2765.678406
_symmetry_space_group_name_H-M "C 2/M"
_symmetry_group_IT_number 12
_symmetry_cell_setting 'monoclinic'
loop_
_space_group_symop_operation_xyz
x,y,z
-x,y,-z
-x,-y,-z
x,-y,z
1/2+x,1/2+y,z
1/2-x,1/2+y,-z
1/2-x,1/2-y,-z
1/2+x,1/2-y,z
loop_
_atom_site_type_symbol
_atom_site_label
_atom_site_fract_x
_atom_site_fract_y
_atom_site_fract_z
Si Si1 0.545960 0.173231 0.949348
Si Si2 0.149909 0.000000 0.854444
Si Si3 0.144069 0.424111 0.423546
Si Si4 0.010293 0.816533 0.150822
Si Si5 0.729357 0.382466 0.593668
Si Si6 0.167387 0.073780 0.086776
Si Si7 0.877281 0.000000 0.443315
O O1 0.470596 0.119992 0.756013
O O2 0.533182 0.245948 0.872686
O O3 0.500000 0.177818 0.000000
O O4 0.679013 0.151490 0.170334
O O5 0.187662 0.000000 0.786540
O O6 0.012112 0.000000 0.643718
O O7 0.199159 0.935437 0.004756
O O8 0.106012 0.500000 0.374542
O O9 0.207560 0.416110 0.408400
O O10 0.225887 0.400773 0.661903
O O11 0.143105 0.825946 0.406374
O O12 0.000000 0.819950 0.000000
O O13 0.936574 0.875489 0.080651
O O14 0.658797 0.435872 0.547309
O O15 0.129183 0.000000 0.069768
#
# Coordination Sequence:
#
# PCOD8088335 Si02
#       7
#     8   4   8   8   8   8   4
#     4   9  23  32  46  77 114 148 163 196 258 313
#     4   9  20  35  50  84 101 127 177 214 282 285
#     4  10  19  32  53  78 109 137 170 208 250 309
#     4  11  20  31  50  76 113 138 170 206 248 319
#     4  11  20  32  53  79 105 137 172 209 261 300
#     4   9  18  32  52  76  99 136 168 213 255 302
#     4  11  20  33  55  80 104 129 168 234 256 305
#
# _framework density 17.355595999999998
#
# number of rings (size 3 to 8) (size 9 to 14) (size 15 to 20)
#    0.500    1.500    4.167    0.000    3.500    3.333 
#    0.000    0.000    0.000    3.000    4.333    0.000 
#    0.000    0.000    0.000    0.000    0.000    0.000 
#
# Total GULP energy -297435.646374 kJ/mol
# GULP energy per Si atom -12393.151932 kJ/mol
# Density = 1.731609 g / cm^3
# Si number density = 17.355596 Si / 1000 Ang^3
#
#
#
# Elastic Constant Matrix: (Units=GPa)
#
#
# Indices 1 2 3 4 5 6 
#
# 1 44.8594 10.2758 24.6375 0.0000 -17.7101 0.0000
# 2 10.2758 95.0067 46.6389 0.0000 5.6991 0.0000
# 3 24.6375 46.6389 125.9667 0.0000 -1.7278 0.0000
# 4 0.0000 0.0000 0.0000 9.6169 0.0000 -10.2205
# 5 -17.7101 5.6991 -1.7278 0.0000 21.2377 0.0000
# 6 0.0000 0.0000 0.0000 -10.2205 0.0000 0.6546
#
#
#
# Elastic Compliance Matrix: (Units=1/GPa)
#
#
# Indices 1 2 3 4 5 6 
#
# 1 0.039551 -0.003309 -0.006053 0.000000 0.033377 0.000000
# 2 -0.003309 0.013462 -0.004429 0.000000 -0.006732 0.000000
# 3 -0.006053 -0.004429 0.010721 0.000000 -0.002987 0.000000
# 4 0.000000 0.000000 0.000000 -0.006669 0.000000 -0.104118
# 5 0.033377 -0.006732 -0.002987 0.000000 0.076483 0.000000
# 6 0.000000 0.000000 0.000000 -0.104118 0.000000 -0.097969
#
#
# Mechanical properties :
#
#
# Convention : Reuss Voigt Hill
#
# Bulk Modulus (GPa) = 27.66059 47.65969 37.66014
# Shear Modulus (GPa) = 66.47873 18.58721 42.53297
#
# Velocity S-wave (km/s) = 6.19573 3.27611 4.95580
# Velocity P-wave (km/s) = 8.19481 6.46768 7.38193
#
# Compressibility (1/GPa) = 0.03615252
#
# Stress axis : x y z
#
# Youngs Moduli (GPa) = 25.28372 74.28528 93.27084
#
# Poissons Ratio (x) = 0.24578 0.56456
# Poissons Ratio (y) = 0.08365 0.41313
# Poissons Ratio (z) = 0.15304 0.32904
#
# Static dielectric constant tensor:
#      x y z
#    x 2.877050 0.000000 -0.215960 
#    y 0.000000 3.391420 0.000000 
#    z -0.215960 0.000000 3.513360 
# 
# 
# High freq. dielectric constant tensor:
#      x y z
#    x 1.613060 0.000000 -0.012440 
#    y 0.000000 1.671950 0.000000 
#    z -0.012440 0.000000 1.688160 
# 
# From -- ./inp_files/133451.got.cif
#   From: 2010.06.25/outbox.cif.g09.slc.cpg/sg12_67_cif.got.tgz:133451.got - 2010.06.28 00:19:55.
