data_PCOD8088657
_publ_section_title
;
Structure prediction by ZEFSAII (Michael W. Deem and Ramdas Pophale) SiO2 
 PCOD8088657
Probable space group: C 2/M
;
_chemical_formula_sum "Si O2"
_cell_formula_units_Z 56
_cell_length_a 13.100130
_cell_length_b 13.917811
_cell_length_c 27.267805
_cell_angle_alpha 90.000000
_cell_angle_beta 141.930129
_cell_angle_gamma 90.000000
_cell_volume 3065.601649
_symmetry_space_group_name_H-M "C 2/M"
_symmetry_group_IT_number 12
_symmetry_cell_setting 'monoclinic'
loop_
_space_group_symop_operation_xyz
x,y,z
-x,y,-z
-x,-y,-z
x,-y,z
1/2+x,1/2+y,z
1/2-x,1/2+y,-z
1/2-x,1/2-y,-z
1/2+x,1/2-y,z
loop_
_atom_site_type_symbol
_atom_site_label
_atom_site_fract_x
_atom_site_fract_y
_atom_site_fract_z
Si Si1 0.282296 0.887911 0.701678
Si Si2 0.124498 0.390141 0.441328
Si Si3 0.207911 0.822787 0.026903
Si Si4 0.955651 0.605446 0.868158
Si Si5 0.147906 0.787062 0.113415
Si Si6 0.945921 0.610478 0.272303
Si Si7 0.036743 0.797472 0.457973
O O1 0.351565 0.864875 0.781291
O O2 0.411399 0.850859 0.709703
O O3 0.114649 0.828364 0.633387
O O4 0.245203 0.000000 0.679626
O O5 0.115197 0.500000 0.457188
O O6 0.069974 0.316013 0.462907
O O7 0.310978 0.365732 0.497503
O O8 0.003294 0.375891 0.349521
O O9 0.349937 0.902887 0.074182
O O10 0.224593 0.778485 0.088024
O O11 0.250000 0.750000 0.000000
O O12 0.016228 0.856352 0.947816
O O13 0.903398 0.500000 0.867357
O O14 0.912981 0.680644 0.894621
O O15 0.279849 0.828449 0.201453
O O16 0.905983 0.500000 0.244754
O O17 0.000000 0.817469 0.500000
#
# Coordination Sequence:
#
# PCOD8088657 Si02
#       7
#     8   8   8   8   8   8   8
#     4  10  19  32  54  82 106 134 176 221 261 306
#     4  10  22  37  54  80 109 136 176 219 260 313
#     4   9  19  34  51  76 105 139 173 212 261 309
#     4  10  20  35  55  79 106 139 177 217 262 312
#     4  10  19  34  55  77 106 138 174 218 262 309
#     4  10  19  33  55  80 103 135 176 219 263 306
#     4  11  21  35  57  80 105 143 176 213 266 310
#
# _framework density 18.267213999999999
#
# number of rings (size 3 to 8) (size 9 to 14) (size 15 to 20)
#    0.000    2.000    2.857    1.286    0.000    1.429 
#    0.000    7.143    0.000    1.714    0.000    0.000 
#    0.000    0.000    0.000    0.000    0.000    0.000 
#
# Total GULP energy -347062.684447 kJ/mol
# GULP energy per Si atom -12395.095873 kJ/mol
# Density = 1.822564 g / cm^3
# Si number density = 18.267214 Si / 1000 Ang^3
#
#
#
# Elastic Constant Matrix: (Units=GPa)
#
#
# Indices 1 2 3 4 5 6 
#
# 1 50.7217 12.7207 13.1603 0.0000 10.0209 0.0000
# 2 12.7207 66.3980 27.9008 0.0000 11.2328 0.0000
# 3 13.1603 27.9008 105.4354 0.0002 20.6683 -0.0002
# 4 0.0000 0.0000 0.0002 -66.4784 0.0000 120.1719
# 5 10.0209 11.2328 20.6683 0.0000 26.5114 0.0000
# 6 0.0000 0.0000 -0.0002 120.1719 0.0000 -145.1324
#
#
#
# Elastic Compliance Matrix: (Units=1/GPa)
#
#
# Indices 1 2 3 4 5 6 
#
# 1 0.021891 -0.002788 -0.000713 0.000000 -0.006537 0.000000
# 2 -0.002788 0.017736 -0.003634 0.000000 -0.003627 0.000000
# 3 -0.000713 -0.003634 0.012017 0.000000 -0.007559 0.000000
# 4 0.000000 0.000000 0.000000 0.030279 0.000000 0.025072
# 5 -0.006537 -0.003627 -0.007559 0.000000 0.047621 0.000000
# 6 0.000000 0.000000 0.000000 0.025072 0.000000 0.013870
#
#
# Mechanical properties :
#
#
# Convention : Reuss Voigt Hill
#
# Bulk Modulus (GPa) = 26.75760 36.67987 31.71873
# Shear Modulus (GPa) = 29.38715 -25.76834 1.80941
#
# Velocity S-wave (km/s) = 4.01526 -3.75991 0.99633
# Velocity P-wave (km/s) = 6.01466 1.12869 4.32724
#
# Compressibility (1/GPa) = 0.03737257
#
# Stress axis : x y z
#
# Youngs Moduli (GPa) = 45.68026 56.38362 83.21554
#
# Poissons Ratio (x) = 0.15722 0.05934
# Poissons Ratio (y) = 0.12738 0.30242
# Poissons Ratio (z) = 0.03257 0.20491
#
# Static dielectric constant tensor:
#      x y z
#    x 3.286610 0.000000 0.157250 
#    y 0.000000 3.200940 0.000000 
#    z 0.157250 0.000000 3.589840 
# 
# 
# High freq. dielectric constant tensor:
#      x y z
#    x 1.701660 0.000000 0.005050 
#    y 0.000000 1.689350 0.000000 
#    z 0.005050 0.000000 1.726140 
# 
# From -- ./inp_files/262976.got.cif
#   From: 2010.06.25/outbox.cif.g09.slc.cpg/sg12_132_cif.got.tgz:262976.got - 2010.06.28 00:19:55.
