data_PCOD8088117
_publ_section_title
;
Structure prediction by ZEFSAII (Michael W. Deem and Ramdas Pophale) SiO2 
 PCOD8088117
Probable space group: C 2/M
;
_chemical_formula_sum "Si O2"
_cell_formula_units_Z 64
_cell_length_a 22.275471
_cell_length_b 14.375045
_cell_length_c 11.924232
_cell_angle_alpha 90.000000
_cell_angle_beta 69.494854
_cell_angle_gamma 90.000000
_cell_volume 3576.346305
_symmetry_space_group_name_H-M "C 2/M"
_symmetry_group_IT_number 12
_symmetry_cell_setting 'monoclinic'
loop_
_space_group_symop_operation_xyz
x,y,z
-x,y,-z
-x,-y,-z
x,-y,z
1/2+x,1/2+y,z
1/2-x,1/2+y,-z
1/2-x,1/2-y,-z
1/2+x,1/2-y,z
loop_
_atom_site_type_symbol
_atom_site_label
_atom_site_fract_x
_atom_site_fract_y
_atom_site_fract_z
Si Si1 0.242636 0.108079 0.286497
Si Si2 0.686140 0.398489 0.847128
Si Si3 0.819011 0.233678 0.503979
Si Si4 0.633951 0.234331 0.755357
Si Si5 0.486703 0.895332 0.138032
Si Si6 0.675628 0.107151 0.339737
Si Si7 0.383093 0.106026 0.849218
Si Si8 0.249145 0.643693 0.971628
O O1 0.185418 0.150049 0.401943
O O2 0.308379 0.161739 0.267389
O O3 0.222887 0.120925 0.169207
O O4 0.251244 0.000000 0.310690
O O5 0.656324 0.500000 0.837231
O O6 0.637085 0.314961 0.849364
O O7 0.748730 0.380563 0.730279
O O8 0.706247 0.404911 0.964634
O O9 0.750000 0.250000 0.500000
O O10 0.864840 0.214253 0.367369
O O11 0.844874 0.328903 0.543421
O O12 0.568975 0.177651 0.804375
O O13 0.550759 0.849141 0.151024
O O14 0.470382 0.000000 0.194760
O O15 0.500000 0.905491 0.000000
O O16 0.638946 0.148237 0.255119
O O17 0.658149 0.000000 0.376908
O O18 0.399767 0.000000 0.818196
O O19 0.325120 0.111703 0.976817
O O20 0.250000 0.750000 0.000000
#
# Coordination Sequence:
#
# PCOD8088117 Si02
#       8
#     8   8   8   8   8   8   8   8
#     4  11  20  31  49  78 113 145 177 223 277 332
#     4  10  19  32  52  79 108 141 178 219 273 327
#     4  10  20  33  46  75 110 143 184 221 269 324
#     4  11  21  36  51  77 110 149 184 224 266 329
#     4  10  21  36  55  81 112 145 182 224 275 331
#     4   9  16  31  52  74 107 142 176 221 271 323
#     4   9  18  32  51  78 108 144 182 215 269 332
#     4  11  18  31  54  83 116 141 172 221 279 334
#
# _framework density 17.895358999999999
#
# number of rings (size 3 to 8) (size 9 to 14) (size 15 to 20)
#    0.000    1.875    3.750    3.750    0.000    4.000 
#    0.000    0.625    0.000    2.625    0.000    0.875 
#    0.000    3.250    0.000    0.000    0.000    0.000 
#
# Total GULP energy -396554.174258 kJ/mol
# GULP energy per Si atom -12392.317946 kJ/mol
# Density = 1.785463 g / cm^3
# Si number density = 17.895359 Si / 1000 Ang^3
#
#
#
# Elastic Constant Matrix: (Units=GPa)
#
#
# Indices 1 2 3 4 5 6 
#
# 1 80.6433 42.1225 34.3486 0.0000 3.3269 0.0000
# 2 42.1225 113.9192 36.8832 0.0000 5.1473 0.0000
# 3 34.3486 36.8832 94.8323 0.0000 8.8554 0.0000
# 4 0.0000 0.0000 0.0000 23.8856 0.0000 0.3823
# 5 3.3269 5.1473 8.8554 0.0000 17.6594 0.0000
# 6 0.0000 0.0000 0.0000 0.3823 0.0000 26.4345
#
#
#
# Elastic Compliance Matrix: (Units=1/GPa)
#
#
# Indices 1 2 3 4 5 6 
#
# 1 0.016699 -0.004830 -0.004204 0.000000 0.000370 0.000000
# 2 -0.004830 0.011457 -0.002602 0.000000 -0.001125 0.000000
# 3 -0.004204 -0.002602 0.013570 0.000000 -0.005254 0.000000
# 4 0.000000 0.000000 0.000000 0.041876 0.000000 -0.000606
# 5 0.000370 -0.001125 -0.005254 0.000000 0.059520 0.000000
# 6 0.000000 0.000000 0.000000 -0.000606 0.000000 0.037838
#
#
# Mechanical properties :
#
#
# Convention : Reuss Voigt Hill
#
# Bulk Modulus (GPa) = 54.18788 57.34482 55.76635
# Shear Modulus (GPa) = 23.76615 25.33194 24.54904
#
# Velocity S-wave (km/s) = 3.64821 3.76647 3.70781
# Velocity P-wave (km/s) = 6.93485 7.14347 7.03993
#
# Compressibility (1/GPa) = 0.01845431
#
# Stress axis : x y z
#
# Youngs Moduli (GPa) = 59.88521 87.28135 73.69062
#
# Poissons Ratio (x) = 0.42156 0.30982
# Poissons Ratio (y) = 0.28924 0.19171
# Poissons Ratio (z) = 0.25178 0.22707
#
# Static dielectric constant tensor:
#      x y z
#    x 3.150730 0.000000 0.294660 
#    y 0.000000 3.445840 0.000000 
#    z 0.294660 0.000000 3.839450 
# 
# 
# High freq. dielectric constant tensor:
#      x y z
#    x 1.653760 0.000000 0.031860 
#    y 0.000000 1.691940 0.000000 
#    z 0.031860 0.000000 1.686980 
# 
# From -- ./inp_files/167241.got.cif
#   From: 2010.06.25/outbox.cif.g09.slc.cpg/sg12_84_cif.got.tgz:167241.got - 2010.06.28 00:19:55.
