data_PCOD8088243
_publ_section_title
;
Structure prediction by ZEFSAII (Michael W. Deem and Ramdas Pophale) SiO2 
 PCOD8088243
Probable space group: C 2/M
;
_chemical_formula_sum "Si O2"
_cell_formula_units_Z 64
_cell_length_a 20.777686
_cell_length_b 9.141438
_cell_length_c 28.332499
_cell_angle_alpha 90.000000
_cell_angle_beta 140.090537
_cell_angle_gamma 90.000000
_cell_volume 3452.589224
_symmetry_space_group_name_H-M "C 2/M"
_symmetry_group_IT_number 12
_symmetry_cell_setting 'monoclinic'
loop_
_space_group_symop_operation_xyz
x,y,z
-x,y,-z
-x,-y,-z
x,-y,z
1/2+x,1/2+y,z
1/2-x,1/2+y,-z
1/2-x,1/2-y,-z
1/2+x,1/2-y,z
loop_
_atom_site_type_symbol
_atom_site_label
_atom_site_fract_x
_atom_site_fract_y
_atom_site_fract_z
Si Si1 0.971222 0.328719 0.591707
Si Si2 0.592585 0.173257 0.081708
Si Si3 0.788310 0.670038 0.420566
Si Si4 0.906059 0.834518 0.412576
Si Si5 0.066618 0.829453 0.829665
Si Si6 0.427548 0.329897 0.663294
Si Si7 0.476012 0.172908 0.101976
Si Si8 0.786012 0.326175 0.933502
O O1 0.993607 0.500000 0.606838
O O2 0.868963 0.294859 0.506336
O O3 0.960284 0.265484 0.637519
O O4 0.065646 0.252179 0.619111
O O5 0.573756 0.222284 0.125421
O O6 0.691050 0.227155 0.108107
O O7 0.589563 0.000000 0.079156
O O8 0.500000 0.235517 0.000000
O O9 0.788212 0.500000 0.406936
O O10 0.812599 0.758386 0.386343
O O11 0.681151 0.721614 0.379736
O O12 0.000000 0.830493 0.500000
O O13 0.876122 0.000000 0.382340
O O14 0.010009 0.750054 0.840303
O O15 0.178632 0.761746 0.888182
O O16 0.007950 0.797856 0.748844
O O17 0.069342 0.000000 0.842890
O O18 0.425150 0.500000 0.647364
O O19 0.474041 0.000000 0.108442
O O20 0.372755 0.225315 0.018451
O O21 0.780224 0.500000 0.930327
#
# Coordination Sequence:
#
# PCOD8088243 Si02
#       8
#     8   8   8   8   8   8   8   8
#     4  10  19  32  53  76  96 123 162 205 245 290
#     4   7  11  22  43  69  90 110 145 192 232 264
#     4   9  18  33  52  73  97 127 163 202 245 290
#     4   9  17  30  51  78 103 124 152 196 246 294
#     4  10  20  32  46  66  96 130 157 188 235 288
#     4  10  21  35  48  66  98 135 166 201 246 291
#     4   9  16  28  49  72  92 118 156 201 238 273
#     4   8  14  27  48  71  92 119 157 195 233 279
#
# _framework density 18.536812999999999
#
# number of rings (size 3 to 8) (size 9 to 14) (size 15 to 20)
#    0.000    3.000    0.000    3.000    0.000    3.000 
#    0.000    1.250    0.000    5.625    0.000    0.000 
#    0.000    0.000    0.000    0.000    0.000    0.000 
#
# Total GULP energy -396549.947708 kJ/mol
# GULP energy per Si atom -12392.185866 kJ/mol
# Density = 1.849462 g / cm^3
# Si number density = 18.536813 Si / 1000 Ang^3
#
#
#
# Elastic Constant Matrix: (Units=GPa)
#
#
# Indices 1 2 3 4 5 6 
#
# 1 136.5911 54.0199 34.4878 0.0000 -35.0411 0.0001
# 2 54.0199 66.2106 31.9131 -0.0002 -18.5424 0.0005
# 3 34.4878 31.9131 39.6877 0.0000 -9.2882 0.0000
# 4 0.0000 -0.0002 0.0000 14.9085 0.0000 -5.8554
# 5 -35.0411 -18.5424 -9.2882 0.0000 12.9078 0.0000
# 6 0.0001 0.0005 0.0000 -5.8554 0.0000 29.5358
#
#
#
# Elastic Compliance Matrix: (Units=1/GPa)
#
#
# Indices 1 2 3 4 5 6 
#
# 1 0.025788 0.001359 -0.008010 0.000000 0.066196 0.000000
# 2 0.001359 0.034406 -0.019741 0.000000 0.038910 -0.000001
# 3 -0.008010 -0.019741 0.043658 0.000000 -0.018689 0.000000
# 4 0.000000 0.000000 0.000000 0.072739 0.000001 0.014420
# 5 0.066196 0.038910 -0.018689 0.000001 0.299624 -0.000001
# 6 0.000000 -0.000001 0.000000 0.014420 -0.000001 0.036716
#
#
# Mechanical properties :
#
#
# Convention : Reuss Voigt Hill
#
# Bulk Modulus (GPa) = 19.58188 53.70345 36.64266
# Shear Modulus (GPa) = 8.58019 19.60832 14.09425
#
# Velocity S-wave (km/s) = 2.15378 3.25592 2.76042
# Velocity P-wave (km/s) = 4.09533 6.57030 5.47451
#
# Compressibility (1/GPa) = 0.05106763
#
# Stress axis : x y z
#
# Youngs Moduli (GPa) = 38.77784 29.06437 22.90549
#
# Poissons Ratio (x) = -0.03951 0.18348
# Poissons Ratio (y) = -0.05271 0.45218
# Poissons Ratio (z) = 0.31062 0.57377
#
# Static dielectric constant tensor:
#      x y z
#    x 3.894090 0.000000 0.005250 
#    y 0.000000 3.128710 0.000000 
#    z 0.005250 0.000000 3.104080 
# 
# 
# High freq. dielectric constant tensor:
#      x y z
#    x 1.742510 0.000000 -0.011020 
#    y 0.000000 1.689380 0.000000 
#    z -0.011020 0.000000 1.683380 
# 
# From -- ./inp_files/365243.got.cif
#   From: 2010.06.25/outbox.cif.g09.slc.cpg/sg12_183_cif.got.tgz:365243.got - 2010.06.28 00:19:55.
