data_PCOD8088519
_publ_section_title
;
Structure prediction by ZEFSAII (Michael W. Deem and Ramdas Pophale) SiO2 
 PCOD8088519
Probable space group: C 2/M
;
_chemical_formula_sum "Si O2"
_cell_formula_units_Z 56
_cell_length_a 18.277731
_cell_length_b 13.840644
_cell_length_c 15.482990
_cell_angle_alpha 90.000000
_cell_angle_beta 132.277093
_cell_angle_gamma 90.000000
_cell_volume 2898.054200
_symmetry_space_group_name_H-M "C 2/M"
_symmetry_group_IT_number 12
_symmetry_cell_setting 'monoclinic'
loop_
_space_group_symop_operation_xyz
x,y,z
-x,y,-z
-x,-y,-z
x,-y,z
1/2+x,1/2+y,z
1/2-x,1/2+y,-z
1/2-x,1/2-y,-z
1/2+x,1/2-y,z
loop_
_atom_site_type_symbol
_atom_site_label
_atom_site_fract_x
_atom_site_fract_y
_atom_site_fract_z
Si Si1 0.922724 0.276808 0.871936
Si Si2 0.592429 0.887583 0.317310
Si Si3 0.292690 0.258339 0.294358
Si Si4 0.409541 0.395707 0.490043
Si Si5 0.241279 0.390144 0.584022
Si Si6 0.531909 0.611343 0.206789
Si Si7 0.034343 0.764949 0.702601
O O1 0.898595 0.342734 0.770368
O O2 0.816754 0.261365 0.833794
O O3 0.969545 0.172975 0.882639
O O4 0.000000 0.325941 0.000000
O O5 0.691457 0.864963 0.451770
O O6 0.498119 0.839622 0.288932
O O7 0.570393 0.000000 0.291831
O O8 0.315288 0.359585 0.360624
O O9 0.302414 0.172099 0.371620
O O10 0.368047 0.245958 0.275097
O O11 0.500000 0.417327 0.500000
O O12 0.382809 0.500000 0.514094
O O13 0.442014 0.309831 0.578023
O O14 0.216505 0.500000 0.589835
O O15 0.358616 0.374762 0.664869
O O16 0.505512 0.500000 0.166981
O O17 0.450213 0.658012 0.206645
#
# Coordination Sequence:
#
# PCOD8088519 Si02
#       7
#     8   8   8   8   8   8   8
#     4  10  23  40  58  77 103 145 193 232 265 312
#     4  10  21  36  55  78 111 149 183 219 268 323
#     4  10  20  34  55  82 112 141 179 223 270 322
#     4   9  17  28  45  76 114 141 162 199 261 327
#     4   9  18  33  54  82 111 145 181 218 267 325
#     4   9  19  35  58  83 111 140 177 227 277 326
#     4  10  19  32  53  84 116 141 170 216 277 331
#
# _framework density 19.323308999999998
#
# number of rings (size 3 to 8) (size 9 to 14) (size 15 to 20)
#    0.000    2.429    1.429    0.429    2.000    4.000 
#    0.000    4.286    0.000    1.714    0.000    0.000 
#    0.000    0.000    0.000    0.000    0.000    0.000 
#
# Total GULP energy -346969.946920 kJ/mol
# GULP energy per Si atom -12391.783819 kJ/mol
# Density = 1.927933 g / cm^3
# Si number density = 19.323309 Si / 1000 Ang^3
#
#
#
# Elastic Constant Matrix: (Units=GPa)
#
#
# Indices 1 2 3 4 5 6 
#
# 1 103.3088 33.3940 37.9175 0.0000 -5.5292 0.0000
# 2 33.3940 106.7431 21.7109 0.0000 -2.3992 0.0000
# 3 37.9175 21.7109 85.9285 0.0000 8.0667 0.0000
# 4 0.0000 0.0000 0.0000 14.9062 0.0000 1.0662
# 5 -5.5292 -2.3992 8.0667 0.0000 12.8372 0.0000
# 6 0.0000 0.0000 0.0000 1.0662 0.0000 30.0774
#
#
#
# Elastic Compliance Matrix: (Units=1/GPa)
#
#
# Indices 1 2 3 4 5 6 
#
# 1 0.013240 -0.002721 -0.005996 0.000000 0.008962 0.000000
# 2 -0.002721 0.010597 -0.001650 0.000000 0.001845 0.000000
# 3 -0.005996 -0.001650 0.015910 0.000000 -0.012889 0.000000
# 4 0.000000 0.000000 0.000000 0.067257 0.000000 -0.002384
# 5 0.008962 0.001845 -0.012889 0.000000 0.090202 0.000000
# 6 0.000000 0.000000 0.000000 -0.002384 0.000000 0.033332
#
#
# Mechanical properties :
#
#
# Convention : Reuss Voigt Hill
#
# Bulk Modulus (GPa) = 52.59658 53.55836 53.07747
# Shear Modulus (GPa) = 19.40927 25.09471 22.25199
#
# Velocity S-wave (km/s) = 3.17274 3.60762 3.39715
# Velocity P-wave (km/s) = 6.37966 6.71792 6.55097
#
# Compressibility (1/GPa) = 0.01901264
#
# Stress axis : x y z
#
# Youngs Moduli (GPa) = 75.53082 94.37006 62.85249
#
# Poissons Ratio (x) = 0.25678 0.37687
# Poissons Ratio (y) = 0.20552 0.10370
# Poissons Ratio (z) = 0.45289 0.15570
#
# Static dielectric constant tensor:
#      x y z
#    x 3.444720 0.000000 -0.077970 
#    y 0.000000 3.719170 0.000000 
#    z -0.077970 0.000000 3.264230 
# 
# 
# High freq. dielectric constant tensor:
#      x y z
#    x 1.749650 0.000000 -0.008850 
#    y 0.000000 1.761050 0.000000 
#    z -0.008850 0.000000 1.714230 
# 
# From -- ./inp_files/225361.got.cif
#   From: 2010.06.25/outbox.cif.g09.slc.cpg/sg12_113_cif.got.tgz:225361.got - 2010.06.28 00:19:55.
