data_PCOD8088975
_publ_section_title
;
Structure prediction by ZEFSAII (Michael W. Deem and Ramdas Pophale) SiO2 
 PCOD8088975
Probable space group: C 2/M
;
_chemical_formula_sum "Si O2"
_cell_formula_units_Z 56
_cell_length_a 29.407564
_cell_length_b 17.005864
_cell_length_c 5.223716
_cell_angle_alpha 90.000000
_cell_angle_beta 109.249000
_cell_angle_gamma 90.000000
_cell_volume 2466.339757
_symmetry_space_group_name_H-M "C 2/M"
_symmetry_group_IT_number 12
_symmetry_cell_setting 'monoclinic'
loop_
_space_group_symop_operation_xyz
x,y,z
-x,y,-z
-x,-y,-z
x,-y,z
1/2+x,1/2+y,z
1/2-x,1/2+y,-z
1/2-x,1/2-y,-z
1/2+x,1/2-y,z
loop_
_atom_site_type_symbol
_atom_site_label
_atom_site_fract_x
_atom_site_fract_y
_atom_site_fract_z
Si Si1 0.843371 0.697401 0.816091
Si Si2 0.613566 0.087773 0.734435
Si Si3 0.528189 0.846078 0.301999
Si Si4 0.287896 0.088169 0.365696
Si Si5 0.865248 0.151962 0.588373
Si Si6 0.187552 0.150851 0.016758
Si Si7 0.972216 0.840518 0.701157
O O1 0.802252 0.638963 0.639273
O O2 0.865204 0.752525 0.629596
O O3 0.817189 0.754128 0.974851
O O4 0.888202 0.649453 0.030155
O O5 0.581335 0.116041 0.433037
O O6 0.668877 0.087755 0.754631
O O7 0.598237 0.000000 0.794100
O O8 0.500000 0.875653 0.500000
O O9 0.531281 0.752878 0.301747
O O10 0.500000 0.878471 0.000000
O O11 0.242319 0.125252 0.140912
O O12 0.276276 0.000000 0.438084
O O13 0.844881 0.112655 0.812855
O O14 0.918742 0.123412 0.615968
O O15 0.831293 0.124018 0.294208
O O16 0.000000 0.870404 0.500000
O O17 0.000000 0.872344 0.000000
#
# Coordination Sequence:
#
# PCOD8088975 Si02
#       7
#     8   8   8   8   8   8   8
#     4  10  22  37  65  84 123 158 208 253 306 357
#     4  11  25  40  59  85 119 161 215 264 304 357
#     4  10  23  38  58  79 111 158 207 255 304 351
#     4  11  24  41  60  89 125 161 204 254 307 364
#     4  10  22  38  61  90 123 159 202 246 302 361
#     4  10  23  39  64  88 122 160 207 243 305 366
#     4  10  19  32  57  89 118 151 193 249 303 345
#
# _framework density 22.705711000000001
#
# number of rings (size 3 to 8) (size 9 to 14) (size 15 to 20)
#    0.857    0.857    0.000    4.286   10.000    1.714 
#    0.000    0.000    0.000    0.000    0.000    0.000 
#    0.000   11.429    0.000    0.000    0.000    0.000 
#
# Total GULP energy -347105.196123 kJ/mol
# GULP energy per Si atom -12396.614147 kJ/mol
# Density = 2.265403 g / cm^3
# Si number density = 22.705711 Si / 1000 Ang^3
#
#
#
# Elastic Constant Matrix: (Units=GPa)
#
#
# Indices 1 2 3 4 5 6 
#
# 1 87.3313 -0.6549 64.2306 0.0000 10.3841 0.0000
# 2 -0.6549 16.0408 6.0733 0.0000 3.9918 0.0000
# 3 64.2306 6.0733 185.3806 0.0000 14.2138 0.0000
# 4 0.0000 0.0000 0.0000 11.1058 0.0000 0.0685
# 5 10.3841 3.9918 14.2138 0.0000 46.1640 0.0000
# 6 0.0000 0.0000 0.0000 0.0685 0.0000 6.6869
#
#
#
# Elastic Compliance Matrix: (Units=1/GPa)
#
#
# Indices 1 2 3 4 5 6 
#
# 1 0.015683 0.003210 -0.005374 0.000000 -0.002151 0.000000
# 2 0.003210 0.064900 -0.002819 0.000000 -0.005466 0.000000
# 3 -0.005374 -0.002819 0.007412 0.000000 -0.000830 0.000000
# 4 0.000000 0.000000 0.000000 0.090049 0.000000 -0.000922
# 5 -0.002151 -0.005466 -0.000830 0.000000 0.022874 0.000000
# 6 0.000000 0.000000 0.000000 -0.000922 0.000000 0.149556
#
#
# Mechanical properties :
#
#
# Convention : Reuss Voigt Hill
#
# Bulk Modulus (GPa) = 12.81584 47.56119 30.18852
# Shear Modulus (GPa) = 12.93831 27.39825 20.16828
#
# Velocity S-wave (km/s) = 2.38969 3.47748 2.98358
# Velocity P-wave (km/s) = 3.64291 6.09230 5.01931
#
# Compressibility (1/GPa) = 0.07802841
#
# Stress axis : x y z
#
# Youngs Moduli (GPa) = 63.76323 15.40841 134.91078
#
# Poissons Ratio (x) = -0.04946 0.72503
# Poissons Ratio (y) = -0.20470 0.38037
# Poissons Ratio (z) = 0.34267 0.04344
#
# Static dielectric constant tensor:
#      x y z
#    x 3.937560 0.000000 0.039690 
#    y 0.000000 3.668880 0.000000 
#    z 0.039690 0.000000 4.127220 
# 
# 
# High freq. dielectric constant tensor:
#      x y z
#    x 1.893520 0.000000 0.003820 
#    y 0.000000 1.850640 0.000000 
#    z 0.003820 0.000000 1.906410 
# 
# From -- ./inp_files/29246.got.cif
#   From: 2010.06.25/outbox.cif.g09.slc.cpg/sg12_15_cif.got.tgz:29246.got - 2010.06.28 00:19:55.
