data_PCOD8088028
_publ_section_title
;
Structure prediction by ZEFSAII (Michael W. Deem and Ramdas Pophale) SiO2 
 PCOD8088028
Probable space group: C 2/M
;
_chemical_formula_sum "Si O2"
_cell_formula_units_Z 48
_cell_length_a 28.257948
_cell_length_b 9.155327
_cell_length_c 17.505008
_cell_angle_alpha 90.000000
_cell_angle_beta 35.652647
_cell_angle_gamma 90.000000
_cell_volume 2639.662418
_symmetry_space_group_name_H-M "C 2/M"
_symmetry_group_IT_number 12
_symmetry_cell_setting 'monoclinic'
loop_
_space_group_symop_operation_xyz
x,y,z
-x,y,-z
-x,-y,-z
x,-y,z
1/2+x,1/2+y,z
1/2-x,1/2+y,-z
1/2-x,1/2-y,-z
1/2+x,1/2-y,z
loop_
_atom_site_type_symbol
_atom_site_label
_atom_site_fract_x
_atom_site_fract_y
_atom_site_fract_z
Si Si1 0.409342 0.673812 0.621154
Si Si2 0.367355 0.328753 0.513168
Si Si3 0.467044 0.172712 0.125342
Si Si4 0.834880 0.172706 0.875546
Si Si5 0.985354 0.172923 0.785282
Si Si6 0.216333 0.669791 0.616108
O O1 0.500000 0.734261 0.500000
O O2 0.408422 0.500000 0.625790
O O3 0.369283 0.735743 0.596159
O O4 0.364772 0.733765 0.754567
O O5 0.384606 0.500000 0.494309
O O6 0.437879 0.265689 0.364811
O O7 0.276775 0.290616 0.605518
O O8 0.514913 0.251131 0.131342
O O9 0.373603 0.223631 0.247053
O O10 0.477378 0.000000 0.122849
O O11 0.500000 0.223666 0.000000
O O12 0.901637 0.214409 0.852168
O O13 0.821368 0.000000 0.892015
O O14 0.750000 0.250000 0.000000
O O15 0.992563 0.000000 0.787823
O O16 0.217368 0.500000 0.596351
O O17 0.250000 0.750000 0.500000
#
# Coordination Sequence:
#
# PCOD8088028 Si02
#       6
#     8   8   8   8   8   8
#     4   9  15  28  52  80 103 131 177 222 254 298
#     4   9  16  28  51  79 104 131 175 225 259 299
#     4  10  22  37  53  78 112 144 177 219 270 327
#     4  10  21  35  55  82 111 142 177 219 268 322
#     4  10  19  34  56  80 105 139 181 223 269 317
#     4  10  19  32  52  77 103 135 175 217 260 309
#
# _framework density 18.184142999999999
#
# number of rings (size 3 to 8) (size 9 to 14) (size 15 to 20)
#    0.000    2.333    3.333    0.000    0.000    2.333 
#    0.000    3.333    0.000    2.500    0.000    0.000 
#    0.000    0.000    0.000    0.000    0.000    0.000 
#
# Total GULP energy -297494.395170 kJ/mol
# GULP energy per Si atom -12395.599799 kJ/mol
# Density = 1.814275 g / cm^3
# Si number density = 18.184143 Si / 1000 Ang^3
#
#
#
# Elastic Constant Matrix: (Units=GPa)
#
#
# Indices 1 2 3 4 5 6 
#
# 1 175.3394 40.7953 92.2664 -0.0066 14.4537 0.0036
# 2 40.7953 21.7691 33.4207 -0.0152 -0.0826 0.0091
# 3 92.2664 33.4207 160.1997 -0.0209 6.8729 0.0131
# 4 -0.0066 -0.0152 -0.0209 21.4324 0.0101 -1.4775
# 5 14.4537 -0.0826 6.8729 0.0101 37.9043 -0.0052
# 6 0.0036 0.0091 0.0131 -1.4775 -0.0052 25.5854
#
#
#
# Elastic Compliance Matrix: (Units=1/GPa)
#
#
# Indices 1 2 3 4 5 6 
#
# 1 0.011559 -0.017233 -0.002894 -0.000009 -0.003920 0.000005
# 2 -0.017233 0.093555 -0.009960 0.000046 0.008581 -0.000022
# 3 -0.002894 -0.009960 0.010018 0.000002 -0.000735 -0.000001
# 4 -0.000009 0.000046 0.000002 0.046845 -0.000009 0.002705
# 5 -0.003920 0.008581 -0.000735 -0.000009 0.028029 0.000003
# 6 0.000005 -0.000022 -0.000001 0.002705 0.000003 0.039241
#
#
# Mechanical properties :
#
#
# Convention : Reuss Voigt Hill
#
# Bulk Modulus (GPa) = 18.19571 76.69701 47.44636
# Shear Modulus (GPa) = 16.24742 29.70615 22.97679
#
# Velocity S-wave (km/s) = 2.99238 4.04620 3.55852
# Velocity P-wave (km/s) = 4.68692 8.00616 6.55994
#
# Compressibility (1/GPa) = 0.05495802
#
# Stress axis : x y z
#
# Youngs Moduli (GPa) = 86.51454 10.68885 99.81714
#
# Poissons Ratio (x) = 0.18420 0.28886
# Poissons Ratio (y) = 1.49092 0.99420
# Poissons Ratio (z) = 0.25036 0.10646
#
# Static dielectric constant tensor:
#      x y z
#    x 3.553960 -0.000010 0.043230 
#    y -0.000010 2.940160 0.000020 
#    z 0.043230 0.000020 3.450680 
# 
# 
# High freq. dielectric constant tensor:
#      x y z
#    x 1.724270 0.000000 0.000180 
#    y 0.000000 1.658630 0.000000 
#    z 0.000180 0.000000 1.707630 
# 
# From -- ./inp_files/232059.got.cif
#   From: 2010.06.25/outbox.cif.g09.slc.cpg/sg12_117_cif.got.tgz:232059.got - 2010.06.28 00:19:55.
