data_PCOD8088757
_publ_section_title
;
Structure prediction by ZEFSAII (Michael W. Deem and Ramdas Pophale) SiO2 
 PCOD8088757
Probable space group: C 2/M
;
_chemical_formula_sum "Si O2"
_cell_formula_units_Z 60
_cell_length_a 25.889776
_cell_length_b 13.619942
_cell_length_c 10.829360
_cell_angle_alpha 90.000000
_cell_angle_beta 57.653269
_cell_angle_gamma 90.000000
_cell_volume 3226.067678
_symmetry_space_group_name_H-M "C 2/M"
_symmetry_group_IT_number 12
_symmetry_cell_setting 'monoclinic'
loop_
_space_group_symop_operation_xyz
x,y,z
-x,y,-z
-x,-y,-z
x,-y,z
1/2+x,1/2+y,z
1/2-x,1/2+y,-z
1/2-x,1/2-y,-z
1/2+x,1/2-y,z
loop_
_atom_site_type_symbol
_atom_site_label
_atom_site_fract_x
_atom_site_fract_y
_atom_site_fract_z
Si Si1 0.299172 0.752458 0.046738
Si Si2 0.714804 0.759284 0.372911
Si Si3 0.097364 0.391588 0.177011
Si Si4 0.000000 0.237400 0.000000
Si Si5 0.968713 0.611316 0.230149
Si Si6 0.387836 0.613219 0.064243
Si Si7 0.107730 0.613580 0.434207
Si Si8 0.695109 0.387173 0.597005
O O1 0.265247 0.785280 0.215724
O O2 0.338180 0.653011 0.027204
O O3 0.250000 0.750000 0.000000
O O4 0.348520 0.831165 0.948889
O O5 0.667365 0.819544 0.352006
O O6 0.680556 0.671131 0.488929
O O7 0.743158 0.838480 0.430509
O O8 0.124601 0.500000 0.147524
O O9 0.075305 0.363886 0.344426
O O10 0.040698 0.384623 0.159074
O O11 0.043240 0.307946 0.860182
O O12 0.047068 0.170707 0.019922
O O13 0.949415 0.500000 0.214739
O O14 0.934783 0.644771 0.397755
O O15 0.400440 0.500000 0.013782
O O16 0.360909 0.622634 0.236712
O O17 0.126128 0.500000 0.424174
O O18 0.708680 0.500000 0.547998
#
# Coordination Sequence:
#
# PCOD8088757 Si02
#       8
#     8   8   8   4   8   8   8   8
#     4  11  21  37  57  83 114 147 186 235 286 333
#     4  10  19  32  55  77 107 142 183 225 279 332
#     4  10  20  36  55  80 111 144 183 228 276 336
#     4  12  20  36  60  82 116 146 184 234 284 328
#     4  10  21  35  55  84 116 145 178 226 285 337
#     4  10  22  38  58  81 109 149 194 234 277 333
#     4  10  19  33  55  80 106 143 183 220 271 338
#     4   9  19  35  51  74 106 140 182 231 273 325
#
# _framework density 18.598493999999999
#
# number of rings (size 3 to 8) (size 9 to 14) (size 15 to 20)
#    0.000    1.867    2.667    2.000    0.000    3.200 
#    0.000    0.000    0.000    0.000    0.000    0.933 
#    0.000    0.000    0.000    0.000    0.000    0.000 
#
# Total GULP energy -371828.983870 kJ/mol
# GULP energy per Si atom -12394.299462 kJ/mol
# Density = 1.855616 g / cm^3
# Si number density = 18.598494 Si / 1000 Ang^3
#
#
#
# Elastic Constant Matrix: (Units=GPa)
#
#
# Indices 1 2 3 4 5 6 
#
# 1 61.2203 29.4242 11.5076 0.0000 3.6302 0.0000
# 2 29.4242 96.0778 45.3622 0.0000 2.6928 0.0000
# 3 11.5076 45.3622 86.9991 0.0000 -0.8135 0.0000
# 4 0.0000 0.0000 0.0000 30.5751 0.0000 -1.3575
# 5 3.6302 2.6928 -0.8135 0.0000 26.8704 0.0000
# 6 0.0000 0.0000 0.0000 -1.3575 0.0000 25.7810
#
#
#
# Elastic Compliance Matrix: (Units=1/GPa)
#
#
# Indices 1 2 3 4 5 6 
#
# 1 0.019289 -0.006154 0.000639 0.000000 -0.001970 0.000000
# 2 -0.006154 0.015840 -0.007454 0.000000 -0.000982 0.000000
# 3 0.000639 -0.007454 0.015307 0.000000 0.001124 0.000000
# 4 0.000000 0.000000 0.000000 0.032783 0.000000 0.001726
# 5 -0.001970 -0.000982 0.001124 0.000000 0.037614 0.000000
# 6 0.000000 0.000000 0.000000 0.001726 0.000000 0.038879
#
#
# Mechanical properties :
#
#
# Convention : Reuss Voigt Hill
#
# Bulk Modulus (GPa) = 40.82055 46.32056 43.57055
# Shear Modulus (GPa) = 25.79766 27.17885 26.48825
#
# Velocity S-wave (km/s) = 3.72840 3.82690 3.77797
# Velocity P-wave (km/s) = 6.36636 6.66982 6.51986
#
# Compressibility (1/GPa) = 0.02449747
#
# Stress axis : x y z
#
# Youngs Moduli (GPa) = 51.84352 63.13234 65.32921
#
# Poissons Ratio (x) = 0.38849 -0.04173
# Poissons Ratio (y) = 0.31903 0.48698
# Poissons Ratio (z) = -0.03312 0.47060
#
# Static dielectric constant tensor:
#      x y z
#    x 3.695890 0.000000 0.043470 
#    y 0.000000 3.499630 0.000000 
#    z 0.043470 0.000000 3.462740 
# 
# 
# High freq. dielectric constant tensor:
#      x y z
#    x 1.712840 0.000000 0.000050 
#    y 0.000000 1.715420 0.000000 
#    z 0.000050 0.000000 1.724470 
# 
# From -- ./inp_files/182534.got.cif
#   From: 2010.06.25/outbox.cif.g09.slc.cpg/sg12_92_cif.got.tgz:182534.got - 2010.06.28 00:19:55.
