data_PCOD8088877
_publ_section_title
;
Structure prediction by ZEFSAII (Michael W. Deem and Ramdas Pophale) SiO2 
 PCOD8088877
Probable space group: C 2/M
;
_chemical_formula_sum "Si O2"
_cell_formula_units_Z 40
_cell_length_a 20.825698
_cell_length_b 12.709764
_cell_length_c 8.005861
_cell_angle_alpha 90.000000
_cell_angle_beta 95.788212
_cell_angle_gamma 90.000000
_cell_volume 2108.264882
_symmetry_space_group_name_H-M "C 2/M"
_symmetry_group_IT_number 12
_symmetry_cell_setting 'monoclinic'
loop_
_space_group_symop_operation_xyz
x,y,z
-x,y,-z
-x,-y,-z
x,-y,z
1/2+x,1/2+y,z
1/2-x,1/2+y,-z
1/2-x,1/2-y,-z
1/2+x,1/2-y,z
loop_
_atom_site_type_symbol
_atom_site_label
_atom_site_fract_x
_atom_site_fract_y
_atom_site_fract_z
Si Si1 0.787332 0.380351 0.673115
Si Si2 0.176017 0.282188 0.993450
Si Si3 0.832999 0.275709 0.369170
Si Si4 0.570725 0.622888 0.076732
Si Si5 0.572703 0.384231 0.463696
O O1 0.762861 0.500000 0.668772
O O2 0.828498 0.361587 0.515014
O O3 0.728629 0.300147 0.653903
O O4 0.831627 0.360239 0.850118
O O5 0.158805 0.334372 0.808265
O O6 0.250000 0.250000 0.000000
O O7 0.128638 0.182305 0.998506
O O8 0.894073 0.201914 0.413442
O O9 0.578228 0.500000 0.035851
O O10 0.579165 0.647647 0.273184
O O11 0.500000 0.662721 0.000000
O O12 0.500000 0.388801 0.500000
O O13 0.604065 0.500000 0.498868
#
# Coordination Sequence:
#
# PCOD8088877 Si02
#       5
#     8   8   8   8   8
#     4  10  21  37  56  80 112 149 192 235 279 336
#     4  10  21  36  55  84 118 155 191 232 290 345
#     4  10  20  36  56  83 112 148 187 233 286 334
#     4  10  20  35  57  88 122 153 189 237 295 355
#     4  10  19  32  55  87 118 149 185 231 292 351
#
# _framework density 18.972947999999999
#
# number of rings (size 3 to 8) (size 9 to 14) (size 15 to 20)
#    0.000    2.000    2.000    1.800    0.000    6.400 
#    0.000    0.000    0.000    1.200    0.000    0.000 
#    0.000    0.000    0.000    0.000    0.000    0.000 
#
# Total GULP energy -247857.756055 kJ/mol
# GULP energy per Si atom -12392.887803 kJ/mol
# Density = 1.892976 g / cm^3
# Si number density = 18.972948 Si / 1000 Ang^3
#
#
#
# Elastic Constant Matrix: (Units=GPa)
#
#
# Indices 1 2 3 4 5 6 
#
# 1 79.5436 16.7123 24.9072 0.0000 -0.7605 0.0000
# 2 16.7123 55.6904 36.2141 0.0000 -0.5360 0.0000
# 3 24.9072 36.2141 163.0465 0.0000 -9.7143 0.0000
# 4 0.0000 0.0000 0.0000 4.8385 0.0000 -11.2763
# 5 -0.7605 -0.5360 -9.7143 0.0000 29.9501 0.0000
# 6 0.0000 0.0000 0.0000 -11.2763 0.0000 15.6830
#
#
#
# Elastic Compliance Matrix: (Units=1/GPa)
#
#
# Indices 1 2 3 4 5 6 
#
# 1 0.013678 -0.003204 -0.001387 0.000000 -0.000160 0.000000
# 2 -0.003204 0.021778 -0.004415 0.000000 -0.001123 0.000000
# 3 -0.001387 -0.004415 0.007463 0.000000 0.002306 0.000000
# 4 0.000000 0.000000 0.000000 -0.305872 0.000000 -0.219927
# 5 -0.000160 -0.001123 0.002306 0.000000 0.034113 0.000000
# 6 0.000000 0.000000 0.000000 -0.219927 0.000000 -0.094367
#
#
# Mechanical properties :
#
#
# Convention : Reuss Voigt Hill
#
# Bulk Modulus (GPa) = 40.14955 50.43865 45.29410
# Shear Modulus (GPa) = -16.84103 24.79075 3.97486
#
# Velocity S-wave (km/s) = -2.98255 3.61866 1.44899
# Velocity P-wave (km/s) = 3.05722 6.64092 5.16955
#
# Compressibility (1/GPa) = 0.02490688
#
# Stress axis : x y z
#
# Youngs Moduli (GPa) = 73.11130 45.91841 133.99301
#
# Poissons Ratio (x) = 0.14712 0.18589
# Poissons Ratio (y) = 0.23425 0.59152
# Poissons Ratio (z) = 0.10143 0.20271
#
# Static dielectric constant tensor:
#      x y z
#    x 3.334190 0.000000 -0.106190 
#    y 0.000000 3.224990 0.000000 
#    z -0.106190 0.000000 4.636190 
# 
# 
# High freq. dielectric constant tensor:
#      x y z
#    x 1.723070 0.000000 -0.004830 
#    y 0.000000 1.696850 0.000000 
#    z -0.004830 0.000000 1.770490 
# 
# From -- ./inp_files/71411.got.cif
#   From: 2010.06.25/outbox.cif.g09.slc.cpg/sg12_36_cif.got.tgz:71411.got - 2010.06.28 00:19:55.
