data_PCOD8088982
_publ_section_title
;
Structure prediction by ZEFSAII (Michael W. Deem and Ramdas Pophale) SiO2 
 PCOD8088982
Probable space group: C 2/M
;
_chemical_formula_sum "Si O2"
_cell_formula_units_Z 48
_cell_length_a 18.913343
_cell_length_b 13.524452
_cell_length_c 9.136093
_cell_angle_alpha 90.000000
_cell_angle_beta 92.492334
_cell_angle_gamma 90.000000
_cell_volume 2334.734342
_symmetry_space_group_name_H-M "C 2/M"
_symmetry_group_IT_number 12
_symmetry_cell_setting 'monoclinic'
loop_
_space_group_symop_operation_xyz
x,y,z
-x,y,-z
-x,-y,-z
x,-y,z
1/2+x,1/2+y,z
1/2-x,1/2+y,-z
1/2-x,1/2-y,-z
1/2+x,1/2-y,z
loop_
_atom_site_type_symbol
_atom_site_label
_atom_site_fract_x
_atom_site_fract_y
_atom_site_fract_z
Si Si1 0.638562 0.385725 0.308708
Si Si2 0.769089 0.717673 0.162595
Si Si3 0.406727 0.109919 0.236819
Si Si4 0.476111 0.752235 0.665234
Si Si5 0.291167 0.613398 0.387331
Si Si6 0.364224 0.893284 0.562510
O O1 0.644313 0.500000 0.265744
O O2 0.699038 0.328395 0.226160
O O3 0.557421 0.348849 0.270020
O O4 0.649115 0.368844 0.484742
O O5 0.832543 0.638446 0.156085
O O6 0.800749 0.811842 0.253709
O O7 0.750000 0.750000 0.000000
O O8 0.465967 0.196571 0.222217
O O9 0.399407 0.101697 0.408795
O O10 0.429497 0.000000 0.180135
O O11 0.500000 0.736211 0.500000
O O12 0.406228 0.820013 0.669581
O O13 0.294239 0.500000 0.330041
O O14 0.217212 0.638257 0.461447
O O15 0.368953 0.000000 0.639825
#
# Coordination Sequence:
#
# PCOD8088982 Si02
#       6
#     8   8   8   8   8   8
#     4  11  22  39  64  89 119 160 203 251 307 365
#     4  12  24  39  61  88 123 161 206 250 303 361
#     4  10  20  36  59  88 120 155 193 242 301 360
#     4  10  19  32  57  92 124 154 192 251 306 360
#     4  10  19  34  60  90 117 151 201 255 300 349
#     4   9  15  28  55  88 118 146 188 243 298 347
#
# _framework density 20.559085
#
# number of rings (size 3 to 8) (size 9 to 14) (size 15 to 20)
#    0.000    1.667    3.333    3.500    0.000    3.667 
#    0.000    1.667    0.000    2.000    0.000    0.000 
#    0.000    0.000    0.000    0.000    0.000    0.000 
#
# Total GULP energy -297407.112757 kJ/mol
# GULP energy per Si atom -12391.963032 kJ/mol
# Density = 2.051229 g / cm^3
# Si number density = 20.559085 Si / 1000 Ang^3
#
#
#
# Elastic Constant Matrix: (Units=GPa)
#
#
# Indices 1 2 3 4 5 6 
#
# 1 111.7021 52.7686 15.5686 0.0000 5.4417 0.0000
# 2 52.7686 117.1335 42.8318 0.0000 -1.9247 0.0000
# 3 15.5686 42.8318 59.4418 0.0000 5.8782 0.0000
# 4 0.0000 0.0000 0.0000 14.3413 0.0000 2.1481
# 5 5.4417 -1.9247 5.8782 0.0000 9.2981 0.0000
# 6 0.0000 0.0000 0.0000 2.1481 0.0000 41.2378
#
#
#
# Elastic Compliance Matrix: (Units=1/GPa)
#
#
# Indices 1 2 3 4 5 6 
#
# 1 0.012208 -0.006603 0.002563 0.000000 -0.010132 0.000000
# 2 -0.006603 0.015779 -0.011036 0.000000 0.014107 0.000000
# 3 0.002563 -0.011036 0.026110 0.000000 -0.020291 0.000000
# 4 0.000000 0.000000 0.000000 0.070277 0.000000 -0.003661
# 5 -0.010132 0.014107 -0.020291 0.000000 0.129226 0.000000
# 6 0.000000 0.000000 0.000000 -0.003661 0.000000 0.024440
#
#
# Mechanical properties :
#
#
# Convention : Reuss Voigt Hill
#
# Bulk Modulus (GPa) = 41.76198 56.73507 49.24852
# Shear Modulus (GPa) = 15.81400 24.78268 20.29834
#
# Velocity S-wave (km/s) = 2.77645 3.47571 3.14557
# Velocity P-wave (km/s) = 5.53493 6.61539 6.09913
#
# Compressibility (1/GPa) = 0.02394523
#
# Stress axis : x y z
#
# Youngs Moduli (GPa) = 81.91184 63.37450 38.29889
#
# Poissons Ratio (x) = 0.41848 -0.09814
# Poissons Ratio (y) = 0.54089 0.42265
# Poissons Ratio (z) = -0.20991 0.69937
#
# Static dielectric constant tensor:
#      x y z
#    x 3.806920 0.000000 0.075910 
#    y 0.000000 4.170850 0.000000 
#    z 0.075910 0.000000 3.112160 
# 
# 
# High freq. dielectric constant tensor:
#      x y z
#    x 1.807610 0.000000 0.003190 
#    y 0.000000 1.823430 0.000000 
#    z 0.003190 0.000000 1.735820 
# 
# From -- ./inp_files/73633.got.cif
#   From: 2010.06.25/outbox.cif.g09.slc.cpg/sg12_37_cif.got.tgz:73633.got - 2010.06.28 00:19:55.
