data_PCOD8088543
_publ_section_title
;
Structure prediction by ZEFSAII (Michael W. Deem and Ramdas Pophale) SiO2 
 PCOD8088543
Probable space group: C 2/M
;
_chemical_formula_sum "Si O2"
_cell_formula_units_Z 56
_cell_length_a 21.327407
_cell_length_b 21.318063
_cell_length_c 19.025997
_cell_angle_alpha 90.000000
_cell_angle_beta 22.525729
_cell_angle_gamma 90.000000
_cell_volume 3313.930604
_symmetry_space_group_name_H-M "C 2/M"
_symmetry_group_IT_number 12
_symmetry_cell_setting 'monoclinic'
loop_
_space_group_symop_operation_xyz
x,y,z
-x,y,-z
-x,-y,-z
x,-y,z
1/2+x,1/2+y,z
1/2-x,1/2+y,-z
1/2-x,1/2-y,-z
1/2+x,1/2-y,z
loop_
_atom_site_type_symbol
_atom_site_label
_atom_site_fract_x
_atom_site_fract_y
_atom_site_fract_z
Si Si1 0.590274 0.311844 0.333654
Si Si2 0.045837 0.259970 0.654772
Si Si3 0.048940 0.711240 0.026516
Si Si4 0.397248 0.306890 0.272614
Si Si5 0.487105 0.875507 0.803834
Si Si6 0.362990 0.429055 0.806987
Si Si7 0.831067 0.929621 0.404841
O O1 0.500000 0.314015 0.500000
O O2 0.516202 0.263649 0.355155
O O3 0.602970 0.382718 0.292612
O O4 0.760460 0.280516 0.173143
O O5 0.238237 0.264273 0.445281
O O6 0.999001 0.209057 0.763759
O O7 0.971501 0.326949 0.755070
O O8 0.983695 0.781451 0.112753
O O9 0.993302 0.660441 0.142174
O O10 0.000000 0.688099 0.000000
O O11 0.359571 0.381378 0.310174
O O12 0.654869 0.915973 0.623942
O O13 0.319333 0.915633 0.972686
O O14 0.361009 0.500000 0.780136
O O15 0.513658 0.421372 0.704774
O O16 0.826472 0.000000 0.379166
#
# Coordination Sequence:
#
# PCOD8088543 Si02
#       7
#     8   8   8   8   8   8   8
#     4  11  22  32  51  71 104 134 169 209 245 304
#     4   9  17  31  51  76  94 131 160 206 262 285
#     4  10  21  32  51  76  99 134 162 207 263 293
#     4   9  17  31  52  71 103 123 164 210 244 306
#     4   9  20  34  55  73 104 130 166 213 244 305
#     4  10  21  34  50  73 102 135 174 208 240 292
#     4  10  19  32  54  76 100 135 166 205 249 292
#
# _framework density 16.898361000000001
#
# number of rings (size 3 to 8) (size 9 to 14) (size 15 to 20)
#    0.000    2.286    1.429    2.143    4.000    2.000 
#    0.000    0.000    0.000    2.571    0.000    0.000 
#    0.000    6.571    0.000    0.000    0.000    0.000 
#
# Total GULP energy -346872.740422 kJ/mol
# GULP energy per Si atom -12388.312158 kJ/mol
# Density = 1.685990 g / cm^3
# Si number density = 16.898361 Si / 1000 Ang^3
#
#
#
# Elastic Constant Matrix: (Units=GPa)
#
#
# Indices 1 2 3 4 5 6 
#
# 1 68.8869 42.0611 30.3673 0.0197 -3.9771 0.0156
# 2 42.0611 109.2106 46.4266 -0.0589 2.7431 0.0393
# 3 30.3673 46.4266 92.5136 -0.0371 -7.6887 0.0568
# 4 0.0197 -0.0589 -0.0371 25.1752 0.0311 -4.5780
# 5 -3.9771 2.7431 -7.6887 0.0311 24.7678 -0.0116
# 6 0.0156 0.0393 0.0568 -4.5780 -0.0116 14.7178
#
#
#
# Elastic Compliance Matrix: (Units=1/GPa)
#
#
# Indices 1 2 3 4 5 6 
#
# 1 0.019991 -0.006470 -0.003068 -0.000039 0.002974 -0.000002
# 2 -0.006470 0.013984 -0.005244 0.000035 -0.004216 -0.000003
# 3 -0.003068 -0.005244 0.014838 0.000000 0.004694 -0.000036
# 4 -0.000039 0.000035 0.000000 0.042103 -0.000057 0.013096
# 5 0.002974 -0.004216 0.004694 -0.000057 0.042777 0.000006
# 6 -0.000002 -0.000003 -0.000036 0.013096 0.000006 0.072019
#
#
# Mechanical properties :
#
#
# Convention : Reuss Voigt Hill
#
# Bulk Modulus (GPa) = 51.95101 56.48013 54.21557
# Shear Modulus (GPa) = 20.68748 23.04924 21.86836
#
# Velocity S-wave (km/s) = 3.50270 3.69723 3.60128
# Velocity P-wave (km/s) = 6.86793 7.19180 7.03173
#
# Compressibility (1/GPa) = 0.01924891
#
# Stress axis : x y z
#
# Youngs Moduli (GPa) = 50.02230 71.51235 67.39379
#
# Poissons Ratio (x) = 0.46267 0.20677
# Poissons Ratio (y) = 0.32363 0.35342
# Poissons Ratio (z) = 0.15347 0.37502
#
# Static dielectric constant tensor:
#      x y z
#    x 2.892220 -0.000150 -0.171810 
#    y -0.000150 3.270480 0.000330 
#    z -0.171810 0.000330 3.360550 
# 
# 
# High freq. dielectric constant tensor:
#      x y z
#    x 1.627100 -0.000010 -0.019800 
#    y -0.000010 1.646720 0.000020 
#    z -0.019800 0.000020 1.662990 
# 
# From -- ./inp_files/77636.got.cif
#   From: 2010.06.25/outbox.cif.g09.slc.cpg/sg12_39_cif.got.tgz:77636.got - 2010.06.28 00:19:55.
