data_PCOD8088507
_publ_section_title
;
Structure prediction by ZEFSAII (Michael W. Deem and Ramdas Pophale) SiO2 
 PCOD8088507
Probable space group: C 2/M
;
_chemical_formula_sum "Si O2"
_cell_formula_units_Z 56
_cell_length_a 33.394019
_cell_length_b 8.560849
_cell_length_c 12.485980
_cell_angle_alpha 90.000000
_cell_angle_beta 59.351848
_cell_angle_gamma 90.000000
_cell_volume 3070.896017
_symmetry_space_group_name_H-M "C 2/M"
_symmetry_group_IT_number 12
_symmetry_cell_setting 'monoclinic'
loop_
_space_group_symop_operation_xyz
x,y,z
-x,y,-z
-x,-y,-z
x,-y,z
1/2+x,1/2+y,z
1/2-x,1/2+y,-z
1/2-x,1/2-y,-z
1/2+x,1/2-y,z
loop_
_atom_site_type_symbol
_atom_site_label
_atom_site_fract_x
_atom_site_fract_y
_atom_site_fract_z
Si Si1 0.899984 0.179700 0.111068
Si Si2 0.045000 0.180545 0.171698
Si Si3 0.948683 0.319715 0.244531
Si Si4 0.110707 0.180124 0.487823
Si Si5 0.949259 0.681508 0.608721
Si Si6 0.302322 0.679957 0.330219
Si Si7 0.699787 0.179761 0.439384
O O1 0.925923 0.287699 0.160997
O O2 0.844459 0.209157 0.190360
O O3 0.912001 0.000000 0.121885
O O4 0.916870 0.223971 0.969662
O O5 0.056256 0.286183 0.258485
O O6 0.994145 0.214326 0.194718
O O7 0.047822 0.000000 0.201249
O O8 0.963197 0.500000 0.232581
O O9 0.912638 0.282940 0.387863
O O10 0.089453 0.220810 0.401690
O O11 0.165827 0.217607 0.411113
O O12 0.102326 0.000000 0.525761
O O13 0.941702 0.500000 0.595075
O O14 0.000000 0.736617 0.500000
O O15 0.300833 0.500000 0.371263
O O16 0.310387 0.787392 0.422150
O O17 0.253509 0.723094 0.339124
O O18 0.689257 0.000000 0.429676
#
# Coordination Sequence:
#
# PCOD8088507 Si02
#       7
#     8   8   8   8   8   8   8
#     4  10  21  37  56  81 113 150 186 221 268 327
#     4  11  23  38  57  80 110 149 188 224 268 326
#     4  12  23  35  53  81 113 148 186 225 271 322
#     4  12  23  36  57  81 111 146 181 226 279 328
#     4  11  23  39  59  81 107 141 183 232 275 319
#     4   9  18  33  54  79 112 148 180 220 270 325
#     4  10  19  32  53  83 112 142 181 225 273 323
#
# _framework density 18.235720000000001
#
# number of rings (size 3 to 8) (size 9 to 14) (size 15 to 20)
#    0.000    1.286    2.857    4.286    0.000    4.000 
#    0.000    0.000    0.000    0.857    0.000    0.000 
#    0.000    0.000    0.000    0.000    0.000    0.000 
#
# Total GULP energy -347335.253675 kJ/mol
# GULP energy per Si atom -12404.830488 kJ/mol
# Density = 1.819421 g / cm^3
# Si number density = 18.235720 Si / 1000 Ang^3
#
#
#
# Elastic Constant Matrix: (Units=GPa)
#
#
# Indices 1 2 3 4 5 6 
#
# 1 123.4479 27.0096 52.9540 0.0000 -10.6066 0.0000
# 2 27.0096 55.6056 18.5064 0.0000 2.4726 0.0000
# 3 52.9540 18.5064 97.5593 0.0000 0.6616 0.0000
# 4 0.0000 0.0000 0.0000 20.0584 0.0000 2.6366
# 5 -10.6066 2.4726 0.6616 0.0000 20.3835 0.0000
# 6 0.0000 0.0000 0.0000 2.6366 0.0000 29.9255
#
#
#
# Elastic Compliance Matrix: (Units=1/GPa)
#
#
# Indices 1 2 3 4 5 6 
#
# 1 0.012137 -0.004269 -0.005826 0.000000 0.007022 0.000000
# 2 -0.004269 0.020797 -0.001596 0.000000 -0.004692 0.000000
# 3 -0.005826 -0.001596 0.013737 0.000000 -0.003284 0.000000
# 4 0.000000 0.000000 0.000000 0.050439 0.000000 -0.004444
# 5 0.007022 -0.004692 -0.003284 0.000000 0.053389 0.000000
# 6 0.000000 0.000000 0.000000 -0.004444 0.000000 0.033808
#
#
# Mechanical properties :
#
#
# Convention : Reuss Voigt Hill
#
# Bulk Modulus (GPa) = 42.93658 52.61696 47.77677
# Shear Modulus (GPa) = 23.20708 25.94967 24.57837
#
# Velocity S-wave (km/s) = 3.57125 3.77638 3.67524
# Velocity P-wave (km/s) = 6.37193 6.92323 6.65329
#
# Compressibility (1/GPa) = 0.02329016
#
# Stress axis : x y z
#
# Youngs Moduli (GPa) = 82.39366 48.08350 72.79443
#
# Poissons Ratio (x) = 0.20525 0.42407
# Poissons Ratio (y) = 0.35171 0.11620
# Poissons Ratio (z) = 0.47999 0.07675
#
# Static dielectric constant tensor:
#      x y z
#    x 3.490120 0.000000 -0.201170 
#    y 0.000000 3.381630 0.000000 
#    z -0.201170 0.000000 3.249760 
# 
# 
# High freq. dielectric constant tensor:
#      x y z
#    x 1.706980 0.000000 -0.012070 
#    y 0.000000 1.715300 0.000000 
#    z -0.012070 0.000000 1.682810 
# 
# From -- ./inp_files/186470.got.cif
#   From: 2010.06.25/outbox.cif.g09.slc.cpg/sg12_94_cif.got.tgz:186470.got - 2010.06.28 00:19:55.
