data_PCOD8088978
_publ_section_title
;
Structure prediction by ZEFSAII (Michael W. Deem and Ramdas Pophale) SiO2 
 PCOD8088978
Probable space group: C 2/M
;
_chemical_formula_sum "Si O2"
_cell_formula_units_Z 52
_cell_length_a 15.440353
_cell_length_b 13.989470
_cell_length_c 22.926431
_cell_angle_alpha 90.000000
_cell_angle_beta 147.622009
_cell_angle_gamma 90.000000
_cell_volume 2651.895339
_symmetry_space_group_name_H-M "C 2/M"
_symmetry_group_IT_number 12
_symmetry_cell_setting 'monoclinic'
loop_
_space_group_symop_operation_xyz
x,y,z
-x,y,-z
-x,-y,-z
x,-y,z
1/2+x,1/2+y,z
1/2-x,1/2+y,-z
1/2-x,1/2-y,-z
1/2+x,1/2-y,z
loop_
_atom_site_type_symbol
_atom_site_label
_atom_site_fract_x
_atom_site_fract_y
_atom_site_fract_z
Si Si1 0.614876 0.107039 0.267754
Si Si2 0.944789 0.108421 0.392282
Si Si3 0.440959 0.257907 0.095263
Si Si4 0.244134 0.235283 0.565908
Si Si5 0.401671 0.393157 0.724734
Si Si6 0.500000 0.774612 0.000000
Si Si7 0.805101 0.105114 0.195250
O O1 0.803640 0.103135 0.359080
O O2 0.513323 0.156173 0.157930
O O3 0.607789 0.168442 0.324390
O O4 0.546047 0.000000 0.238385
O O5 0.877301 0.153180 0.294070
O O6 0.079158 0.182783 0.489728
O O7 0.016123 0.000000 0.423849
O O8 0.538597 0.341998 0.182694
O O9 0.250000 0.250000 0.000000
O O10 0.484304 0.282414 0.052134
O O11 0.250000 0.250000 0.500000
O O12 0.259827 0.335886 0.609523
O O13 0.336576 0.500000 0.701869
O O14 0.558293 0.399829 0.774629
O O15 0.658516 0.837377 0.086450
O O16 0.741936 0.000000 0.176605
#
# Coordination Sequence:
#
# PCOD8088978 Si02
#       7
#     8   8   8   8   8   4   8
#     4  10  22  38  59  90 120 145 184 244 307 358
#     4  10  19  35  58  90 120 145 182 240 311 361
#     4  11  23  38  60  92 120 156 197 241 299 353
#     4  11  21  33  56  86 118 154 190 231 290 354
#     4  10  22  40  57  81 121 162 202 241 284 346
#     4  12  21  36  61  90 122 150 192 250 298 356
#     4  10  19  32  57  90 120 148 185 242 309 361
#
# _framework density 19.608618
#
# number of rings (size 3 to 8) (size 9 to 14) (size 15 to 20)
#    0.000    1.538    4.615    1.154    0.000    3.077 
#    0.000    0.385    0.000    7.385    0.000    0.000 
#    0.000    0.000    0.000    0.000    0.000    0.000 
#
# Total GULP energy -322148.020482 kJ/mol
# GULP energy per Si atom -12390.308480 kJ/mol
# Density = 1.956399 g / cm^3
# Si number density = 19.608618 Si / 1000 Ang^3
#
#
#
# Elastic Constant Matrix: (Units=GPa)
#
#
# Indices 1 2 3 4 5 6 
#
# 1 74.0609 25.4701 33.6364 0.0003 -26.1812 0.0001
# 2 25.4701 136.4025 60.6658 -0.0008 -8.8096 0.0000
# 3 33.6364 60.6658 108.1258 -0.0010 -22.9595 0.0004
# 4 0.0003 -0.0008 -0.0010 -148.1314 -0.0001 -46.0654
# 5 -26.1812 -8.8096 -22.9595 -0.0001 47.6817 0.0001
# 6 0.0001 0.0000 0.0004 -46.0654 0.0001 7.0106
#
#
#
# Elastic Compliance Matrix: (Units=1/GPa)
#
#
# Indices 1 2 3 4 5 6 
#
# 1 0.018370 -0.001515 -0.003099 0.000000 0.008315 0.000000
# 2 -0.001515 0.009931 -0.005444 0.000000 -0.001618 0.000000
# 3 -0.003099 -0.005444 0.014138 0.000000 0.004100 0.000000
# 4 0.000000 0.000000 0.000000 -0.002218 0.000000 -0.014575
# 5 0.008315 -0.001618 0.004100 0.000000 0.027213 0.000000
# 6 0.000000 0.000000 0.000000 -0.014575 0.000000 0.046869
#
#
# Mechanical properties :
#
#
# Convention : Reuss Voigt Hill
#
# Bulk Modulus (GPa) = 44.79858 62.01484 53.40671
# Shear Modulus (GPa) = 35.24578 -5.43335 14.90621
#
# Velocity S-wave (km/s) = 4.24425 -1.66641 2.76014
# Velocity P-wave (km/s) = 6.84939 5.29079 6.11991
#
# Compressibility (1/GPa) = 0.02232214
#
# Stress axis : x y z
#
# Youngs Moduli (GPa) = 54.43593 100.69489 70.73193
#
# Poissons Ratio (x) = 0.15253 0.21922
# Poissons Ratio (y) = 0.08246 0.38509
# Poissons Ratio (z) = 0.16871 0.54822
#
# Static dielectric constant tensor:
#      x y z
#    x 3.468890 0.000000 -0.236610 
#    y 0.000000 3.877750 0.000000 
#    z -0.236610 0.000000 3.796460 
# 
# 
# High freq. dielectric constant tensor:
#      x y z
#    x 1.743630 0.000000 -0.024060 
#    y 0.000000 1.749880 0.000000 
#    z -0.024060 0.000000 1.784730 
# 
# From -- ./inp_files/343711.got.cif
#   From: 2010.06.25/outbox.cif.g09.slc.cpg/sg12_172_cif.got.tgz:343711.got - 2010.06.28 00:19:55.
