data_PCOD8088654
_publ_section_title
;
Structure prediction by ZEFSAII (Michael W. Deem and Ramdas Pophale) SiO2 
 PCOD8088654
Probable space group: C 2/M
;
_chemical_formula_sum "Si O2"
_cell_formula_units_Z 48
_cell_length_a 24.472355
_cell_length_b 9.078389
_cell_length_c 11.056618
_cell_angle_alpha 90.000000
_cell_angle_beta 71.300018
_cell_angle_gamma 90.000000
_cell_volume 2326.769193
_symmetry_space_group_name_H-M "C 2/M"
_symmetry_group_IT_number 12
_symmetry_cell_setting 'monoclinic'
loop_
_space_group_symop_operation_xyz
x,y,z
-x,y,-z
-x,-y,-z
x,-y,z
1/2+x,1/2+y,z
1/2-x,1/2+y,-z
1/2-x,1/2-y,-z
1/2+x,1/2-y,z
loop_
_atom_site_type_symbol
_atom_site_label
_atom_site_fract_x
_atom_site_fract_y
_atom_site_fract_z
Si Si1 0.668786 0.670360 0.984189
Si Si2 0.227035 0.170659 0.197866
Si Si3 0.534553 0.664095 0.351999
Si Si4 0.134492 0.673358 0.400040
Si Si5 0.565558 0.167891 0.682109
Si Si6 0.566055 0.168741 0.952017
O O1 0.671188 0.500000 0.947042
O O2 0.710269 0.758748 0.863938
O O3 0.603818 0.730998 0.015005
O O4 0.688025 0.697301 0.107475
O O5 0.195988 0.249364 0.333252
O O6 0.235374 0.000000 0.221931
O O7 0.500000 0.654280 0.500000
O O8 0.553834 0.500000 0.296180
O O9 0.590289 0.765268 0.330994
O O10 0.492626 0.735597 0.282477
O O11 0.140924 0.500000 0.377713
O O12 0.113598 0.716674 0.550020
O O13 0.591322 0.185229 0.797909
O O14 0.547163 0.000000 0.667837
O O15 0.569684 0.000000 0.994008
O O16 0.500000 0.222903 0.000000
#
# Coordination Sequence:
#
# PCOD8088654 Si02
#       6
#     8   8   8   8   8   8
#     4  10  22  40  60  85 114 146 187 234 282 334
#     4  10  21  38  61  87 114 144 185 235 285 335
#     4   9  17  29  47  74 109 146 183 226 275 325
#     4  10  19  32  54  81 112 147 187 232 280 333
#     4   9  19  35  52  78 113 150 189 230 278 333
#     4  10  22  39  59  83 114 153 192 230 278 335
#
# _framework density 20.629465
#
# number of rings (size 3 to 8) (size 9 to 14) (size 15 to 20)
#    0.000    2.333    0.000    2.000    2.333    5.667 
#    0.000    0.833    0.000    0.000    0.000    0.000 
#    0.000    0.000    0.000    0.000    0.000    0.000 
#
# Total GULP energy -297642.800824 kJ/mol
# GULP energy per Si atom -12401.783368 kJ/mol
# Density = 2.058251 g / cm^3
# Si number density = 20.629465 Si / 1000 Ang^3
#
#
#
# Elastic Constant Matrix: (Units=GPa)
#
#
# Indices 1 2 3 4 5 6 
#
# 1 84.8347 41.1274 17.2085 0.0000 -12.1546 0.0000
# 2 41.1274 109.8248 27.9090 0.0000 -11.7341 0.0000
# 3 17.2085 27.9090 59.3847 0.0000 -18.7037 0.0000
# 4 0.0000 0.0000 0.0000 26.4405 0.0000 -6.6309
# 5 -12.1546 -11.7341 -18.7037 0.0000 31.7105 0.0000
# 6 0.0000 0.0000 0.0000 -6.6309 0.0000 36.2673
#
#
#
# Elastic Compliance Matrix: (Units=1/GPa)
#
#
# Indices 1 2 3 4 5 6 
#
# 1 0.014862 -0.004977 -0.000926 0.000000 0.003309 0.000000
# 2 -0.004977 0.012043 -0.004194 0.000000 0.000075 0.000000
# 3 -0.000926 -0.004194 0.022694 0.000000 0.011479 0.000000
# 4 0.000000 0.000000 0.000000 0.039638 0.000000 0.007247
# 5 0.003309 0.000075 0.011479 0.000000 0.039602 0.000000
# 6 0.000000 0.000000 0.000000 0.007247 0.000000 0.028898
#
#
# Mechanical properties :
#
#
# Convention : Reuss Voigt Hill
#
# Bulk Modulus (GPa) = 34.00637 47.39267 40.69952
# Shear Modulus (GPa) = 26.63365 30.07028 28.35196
#
# Velocity S-wave (km/s) = 3.59702 3.82204 3.71124
# Velocity P-wave (km/s) = 5.81133 6.51924 6.17544
#
# Compressibility (1/GPa) = 0.02940625
#
# Stress axis : x y z
#
# Youngs Moduli (GPa) = 67.28456 83.03595 44.06458
#
# Poissons Ratio (x) = 0.41326 0.04078
# Poissons Ratio (y) = 0.33487 0.18481
# Poissons Ratio (z) = 0.06228 0.34825
#
# Static dielectric constant tensor:
#      x y z
#    x 3.509420 0.000000 -0.162890 
#    y 0.000000 3.790070 0.000000 
#    z -0.162890 0.000000 3.729700 
# 
# 
# High freq. dielectric constant tensor:
#      x y z
#    x 1.784630 0.000000 -0.016750 
#    y 0.000000 1.810000 0.000000 
#    z -0.016750 0.000000 1.805380 
# 
# From -- ./inp_files/172918.got.cif
#   From: 2010.06.25/outbox.cif.g09.slc.cpg/sg12_87_cif.got.tgz:172918.got - 2010.06.28 00:19:55.
