data_PCOD8088428
_publ_section_title
;
Structure prediction by ZEFSAII (Michael W. Deem and Ramdas Pophale) SiO2 
 PCOD8088428
Probable space group: C 2/M
;
_chemical_formula_sum "Si O2"
_cell_formula_units_Z 56
_cell_length_a 14.425879
_cell_length_b 17.169900
_cell_length_c 9.940279
_cell_angle_alpha 90.000000
_cell_angle_beta 73.911010
_cell_angle_gamma 90.000000
_cell_volume 2365.681513
_symmetry_space_group_name_H-M "C 2/M"
_symmetry_group_IT_number 12
_symmetry_cell_setting 'monoclinic'
loop_
_space_group_symop_operation_xyz
x,y,z
-x,y,-z
-x,-y,-z
x,-y,z
1/2+x,1/2+y,z
1/2-x,1/2+y,-z
1/2-x,1/2-y,-z
1/2+x,1/2-y,z
loop_
_atom_site_type_symbol
_atom_site_label
_atom_site_fract_x
_atom_site_fract_y
_atom_site_fract_z
Si Si1 0.924601 0.407954 0.235603
Si Si2 0.288695 0.090494 0.522798
Si Si3 0.086172 0.089913 0.681795
Si Si4 0.396084 0.671093 0.053347
Si Si5 0.123209 0.088950 0.202912
Si Si6 0.306270 0.829955 0.068828
Si Si7 0.857984 0.408308 0.782976
O O1 0.913787 0.500000 0.216850
O O2 0.851292 0.373193 0.377519
O O3 0.900258 0.365106 0.105583
O O4 0.030882 0.384937 0.241171
O O5 0.173079 0.103249 0.538902
O O6 0.321913 0.125008 0.653890
O O7 0.314591 0.000000 0.516304
O O8 0.124057 0.139565 0.791303
O O9 0.977024 0.112295 0.677143
O O10 0.082625 0.000000 0.727132
O O11 0.316423 0.736751 0.048037
O O12 0.500000 0.712989 0.000000
O O13 0.398724 0.599473 0.946835
O O14 0.212877 0.146365 0.198734
O O15 0.152831 0.000000 0.224088
O O16 0.294233 0.869412 0.926495
O O17 0.841969 0.500000 0.799343
#
# Coordination Sequence:
#
# PCOD8088428 Si02
#       7
#     8   8   8   8   8   8   8
#     4  10  20  34  52  78 114 152 187 227 279 337
#     4   9  18  34  56  79 104 142 195 243 275 314
#     4   9  18  35  58  81 106 143 194 241 273 314
#     4  10  20  34  54  81 114 149 186 232 283 330
#     4  10  20  34  54  81 112 148 190 232 273 324
#     4  12  22  34  53  84 120 148 176 223 288 346
#     4  10  19  32  53  80 111 150 193 232 272 328
#
# _framework density 23.671825999999999
#
# number of rings (size 3 to 8) (size 9 to 14) (size 15 to 20)
#    0.000    2.000    0.000    4.714    0.000    5.714 
#    0.000    1.429    0.000    3.429    0.000    0.000 
#    0.000    0.000    0.000    0.000    0.000    1.714 
#
# Total GULP energy -347031.592642 kJ/mol
# GULP energy per Si atom -12393.985451 kJ/mol
# Density = 2.361795 g / cm^3
# Si number density = 23.671826 Si / 1000 Ang^3
#
#
#
# Elastic Constant Matrix: (Units=GPa)
#
#
# Indices 1 2 3 4 5 6 
#
# 1 89.2308 8.4187 3.4558 0.0000 -25.4427 0.0000
# 2 8.4187 41.9277 6.6707 0.0000 -10.3569 0.0000
# 3 3.4558 6.6707 54.0513 0.0000 -17.6972 0.0000
# 4 0.0000 0.0000 0.0000 7.5078 0.0000 -2.4819
# 5 -25.4427 -10.3569 -17.6972 0.0000 39.7063 0.0000
# 6 0.0000 0.0000 0.0000 -2.4819 0.0000 34.3887
#
#
#
# Elastic Compliance Matrix: (Units=1/GPa)
#
#
# Indices 1 2 3 4 5 6 
#
# 1 0.013993 -0.000763 0.002424 0.000000 0.009848 0.000000
# 2 -0.000763 0.025594 -0.001269 0.000000 0.005621 0.000000
# 3 0.002424 -0.001269 0.022133 0.000000 0.011086 0.000000
# 4 0.000000 0.000000 0.000000 0.136450 0.000000 0.009848
# 5 0.009848 0.005621 0.011086 0.000000 0.037902 0.000000
# 6 0.000000 0.000000 0.000000 0.009848 0.000000 0.029790
#
#
# Mechanical properties :
#
#
# Convention : Reuss Voigt Hill
#
# Bulk Modulus (GPa) = 15.99930 24.70005 20.34967
# Shear Modulus (GPa) = 17.48784 27.43153 22.45968
#
# Velocity S-wave (km/s) = 2.72097 3.40785 3.08359
# Velocity P-wave (km/s) = 4.07983 5.09329 4.61447
#
# Compressibility (1/GPa) = 0.06250272
#
# Stress axis : x y z
#
# Youngs Moduli (GPa) = 71.46503 39.07127 45.18241
#
# Poissons Ratio (x) = 0.02980 -0.10951
# Poissons Ratio (y) = 0.05451 0.05736
# Poissons Ratio (z) = -0.17321 0.04960
#
# Static dielectric constant tensor:
#      x y z
#    x 4.704020 0.000000 -0.285940 
#    y 0.000000 3.760670 0.000000 
#    z -0.285940 0.000000 4.163110 
# 
# 
# High freq. dielectric constant tensor:
#      x y z
#    x 1.971990 0.000000 -0.020850 
#    y 0.000000 1.897290 0.000000 
#    z -0.020850 0.000000 1.918270 
# 
# From -- ./inp_files/145467.got.cif
#   From: 2010.06.25/outbox.cif.g09.slc.cpg/sg12_73_cif.got.tgz:145467.got - 2010.06.28 00:19:55.
