data_PCOD8088528
_publ_section_title
;
Structure prediction by ZEFSAII (Michael W. Deem and Ramdas Pophale) SiO2 
 PCOD8088528
Probable space group: C 2/M
;
_chemical_formula_sum "Si O2"
_cell_formula_units_Z 64
_cell_length_a 22.418780
_cell_length_b 14.104324
_cell_length_c 12.498611
_cell_angle_alpha 90.000000
_cell_angle_beta 113.509523
_cell_angle_gamma 90.000000
_cell_volume 3624.035102
_symmetry_space_group_name_H-M "C 2/M"
_symmetry_group_IT_number 12
_symmetry_cell_setting 'monoclinic'
loop_
_space_group_symop_operation_xyz
x,y,z
-x,y,-z
-x,-y,-z
x,-y,z
1/2+x,1/2+y,z
1/2-x,1/2+y,-z
1/2-x,1/2-y,-z
1/2+x,1/2-y,z
loop_
_atom_site_type_symbol
_atom_site_label
_atom_site_fract_x
_atom_site_fract_y
_atom_site_fract_z
Si Si1 0.430503 0.110891 0.992900
Si Si2 0.403259 0.395455 0.501717
Si Si3 0.781521 0.233763 0.409500
Si Si4 0.932038 0.301720 0.218941
Si Si5 0.332948 0.889922 0.734393
Si Si6 0.642218 0.109669 0.639196
Si Si7 0.433624 0.107866 0.626432
Si Si8 0.961211 0.105018 0.308839
O O1 0.411588 0.164021 0.087655
O O2 0.434102 0.000000 0.020408
O O3 0.500000 0.147204 0.000000
O O4 0.376322 0.136190 0.867425
O O5 0.372855 0.500000 0.497348
O O6 0.349758 0.316376 0.481428
O O7 0.461128 0.379190 0.628098
O O8 0.431193 0.386402 0.403913
O O9 0.750000 0.250000 0.500000
O O10 0.733480 0.169363 0.304109
O O11 0.794617 0.332079 0.355917
O O12 0.882094 0.347473 0.266843
O O13 0.928287 0.187035 0.214005
O O14 0.005226 0.328224 0.302614
O O15 0.371774 0.862530 0.654168
O O16 0.313915 0.000000 0.719955
O O17 0.584393 0.118873 0.510874
O O18 0.662619 0.000000 0.668446
O O19 0.453241 0.000000 0.668600
O O20 0.946466 0.000000 0.249950
#
# Coordination Sequence:
#
# PCOD8088528 Si02
#       8
#     8   8   8   8   8   8   8   8
#     4  10  20  36  58  85 112 142 183 229 273 325
#     4   9  18  34  53  77 108 144 182 224 273 321
#     4  12  22  34  54  79 111 152 187 221 272 333
#     4  12  20  33  60  82 114 147 179 224 291 335
#     4  10  21  37  56  82 112 142 190 234 265 319
#     4  11  23  35  50  83 120 148 179 223 280 342
#     4  10  19  32  53  85 117 143 174 225 284 340
#     4   9  19  33  54  82 108 135 183 236 270 321
#
# _framework density 17.659873000000001
#
# number of rings (size 3 to 8) (size 9 to 14) (size 15 to 20)
#    0.000    1.625    3.750    3.375    1.750    1.500 
#    0.000    0.625    0.000    1.125    0.000    0.000 
#    0.000    0.000    0.000    0.000    0.000    0.000 
#
# Total GULP energy -396824.427894 kJ/mol
# GULP energy per Si atom -12400.763372 kJ/mol
# Density = 1.761968 g / cm^3
# Si number density = 17.659873 Si / 1000 Ang^3
#
#
#
# Elastic Constant Matrix: (Units=GPa)
#
#
# Indices 1 2 3 4 5 6 
#
# 1 91.5442 54.8287 31.8745 0.0000 -4.2336 0.0000
# 2 54.8287 126.7771 41.5354 0.0000 -4.3328 0.0000
# 3 31.8745 41.5354 82.9666 0.0000 -13.4311 0.0000
# 4 0.0000 0.0000 0.0000 23.3699 0.0000 1.6213
# 5 -4.2336 -4.3328 -13.4311 0.0000 23.6791 0.0000
# 6 0.0000 0.0000 0.0000 1.6213 0.0000 30.1652
#
#
#
# Elastic Compliance Matrix: (Units=1/GPa)
#
#
# Indices 1 2 3 4 5 6 
#
# 1 0.015375 -0.005638 -0.003090 0.000000 -0.000035 0.000000
# 2 -0.005638 0.011527 -0.003773 0.000000 -0.001039 0.000000
# 3 -0.003090 -0.003773 0.016437 0.000000 0.008080 0.000000
# 4 0.000000 0.000000 0.000000 0.042950 0.000000 -0.002308
# 5 -0.000035 -0.001039 0.008080 0.000000 0.046618 0.000000
# 6 0.000000 0.000000 0.000000 -0.002308 0.000000 0.033275
#
#
# Mechanical properties :
#
#
# Convention : Reuss Voigt Hill
#
# Bulk Modulus (GPa) = 54.53442 61.97390 58.25416
# Shear Modulus (GPa) = 25.34265 26.97944 26.16105
#
# Velocity S-wave (km/s) = 3.79230 3.91285 3.85305
# Velocity P-wave (km/s) = 7.07975 7.45541 7.27001
#
# Compressibility (1/GPa) = 0.01833704
#
# Stress axis : x y z
#
# Youngs Moduli (GPa) = 65.04148 86.75425 60.83860
#
# Poissons Ratio (x) = 0.48914 0.18798
# Poissons Ratio (y) = 0.36672 0.22953
# Poissons Ratio (z) = 0.20097 0.32730
#
# Static dielectric constant tensor:
#      x y z
#    x 3.109640 0.000000 -0.105470 
#    y 0.000000 3.730140 0.000000 
#    z -0.105470 0.000000 3.009040 
# 
# 
# High freq. dielectric constant tensor:
#      x y z
#    x 1.676350 0.000000 -0.007420 
#    y 0.000000 1.693640 0.000000 
#    z -0.007420 0.000000 1.651330 
# 
# From -- ./inp_files/167306.got.cif
#   From: 2010.06.25/outbox.cif.g09.slc.cpg/sg12_84_cif.got.tgz:167306.got - 2010.06.28 00:19:55.
