data_PCOD8088363
_publ_section_title
;
Structure prediction by ZEFSAII (Michael W. Deem and Ramdas Pophale) SiO2 
 PCOD8088363
Probable space group: C 2/M
;
_chemical_formula_sum "Si O2"
_cell_formula_units_Z 48
_cell_length_a 18.362443
_cell_length_b 8.860351
_cell_length_c 18.849098
_cell_angle_alpha 90.000000
_cell_angle_beta 117.343539
_cell_angle_gamma 90.000000
_cell_volume 2724.057033
_symmetry_space_group_name_H-M "C 2/M"
_symmetry_group_IT_number 12
_symmetry_cell_setting 'monoclinic'
loop_
_space_group_symop_operation_xyz
x,y,z
-x,y,-z
-x,-y,-z
x,-y,z
1/2+x,1/2+y,z
1/2-x,1/2+y,-z
1/2-x,1/2-y,-z
1/2+x,1/2-y,z
loop_
_atom_site_type_symbol
_atom_site_label
_atom_site_fract_x
_atom_site_fract_y
_atom_site_fract_z
Si Si1 0.062124 0.828572 0.585003
Si Si2 0.848886 0.322178 0.847805
Si Si3 0.679758 0.675661 0.014916
Si Si4 0.700503 0.176849 0.719119
Si Si5 0.007546 0.174006 0.862675
Si Si6 0.929082 0.170835 0.256757
O O1 0.147934 0.735778 0.627324
O O2 0.021009 0.824612 0.645816
O O3 0.000000 0.754864 0.500000
O O4 0.082385 0.000000 0.571106
O O5 0.840421 0.500000 0.847646
O O6 0.789015 0.256606 0.759940
O O7 0.941622 0.278934 0.870862
O O8 0.822353 0.252089 0.909970
O O9 0.698722 0.500000 0.033308
O O10 0.593732 0.702974 0.938162
O O11 0.750000 0.750000 0.000000
O O12 0.651439 0.223490 0.769607
O O13 0.712830 0.000000 0.719547
O O14 0.014702 0.224585 0.783221
O O15 0.979875 0.000000 0.857437
O O16 0.898125 0.000000 0.226916
#
# Coordination Sequence:
#
# PCOD8088363 Si02
#       6
#     8   8   8   8   8   8
#     4   8  15  30  54  82 110 139 172 213 264 320
#     4  12  24  37  53  75 107 144 182 223 267 318
#     4  11  23  38  58  81 107 140 180 224 267 311
#     4  10  19  32  53  79 107 137 177 222 264 312
#     4  10  21  37  55  76 106 141 178 221 267 315
#     4   8  16  32  53  78 107 138 173 213 265 318
#
# _framework density 17.620777
#
# number of rings (size 3 to 8) (size 9 to 14) (size 15 to 20)
#    1.000    1.167    0.000    4.500    0.000    5.667 
#    0.000    0.000    0.000    1.000    0.000    0.000 
#    0.000    0.000    0.000    0.000    0.000    0.000 
#
# Total GULP energy -297429.626378 kJ/mol
# GULP energy per Si atom -12392.901099 kJ/mol
# Density = 1.758067 g / cm^3
# Si number density = 17.620777 Si / 1000 Ang^3
#
#
#
# Elastic Constant Matrix: (Units=GPa)
#
#
# Indices 1 2 3 4 5 6 
#
# 1 84.7471 49.3615 35.2637 0.0000 15.6481 0.0000
# 2 49.3615 124.2421 49.4036 0.0000 16.8908 0.0000
# 3 35.2637 49.4036 102.4275 0.0000 15.8557 0.0000
# 4 0.0000 0.0000 0.0000 25.0231 0.0000 3.1364
# 5 15.6481 16.8908 15.8557 0.0000 16.4071 0.0000
# 6 0.0000 0.0000 0.0000 3.1364 0.0000 29.4823
#
#
#
# Elastic Compliance Matrix: (Units=1/GPa)
#
#
# Indices 1 2 3 4 5 6 
#
# 1 0.017178 -0.004664 -0.002201 0.000000 -0.009455 0.000000
# 2 -0.004664 0.011872 -0.003430 0.000000 -0.004459 0.000000
# 3 -0.002201 -0.003430 0.013292 0.000000 -0.007215 0.000000
# 4 0.000000 0.000000 0.000000 0.040503 0.000000 -0.004309
# 5 -0.009455 -0.004459 -0.007215 0.000000 0.081529 0.000000
# 6 0.000000 0.000000 0.000000 -0.004309 0.000000 0.034377
#
#
# Mechanical properties :
#
#
# Convention : Reuss Voigt Hill
#
# Bulk Modulus (GPa) = 45.97357 64.38602 55.17980
# Shear Modulus (GPa) = 22.06600 26.00835 24.03718
#
# Velocity S-wave (km/s) = 3.54258 3.84605 3.69743
# Velocity P-wave (km/s) = 6.54831 7.50613 7.04352
#
# Compressibility (1/GPa) = 0.02175163
#
# Stress axis : x y z
#
# Youngs Moduli (GPa) = 58.21360 84.23109 75.23298
#
# Poissons Ratio (x) = 0.39289 0.16557
# Poissons Ratio (y) = 0.27153 0.25806
# Poissons Ratio (z) = 0.12811 0.28893
#
# Static dielectric constant tensor:
#      x y z
#    x 3.088990 0.000000 0.020840 
#    y 0.000000 3.230140 0.000000 
#    z 0.020840 0.000000 3.373280 
# 
# 
# High freq. dielectric constant tensor:
#      x y z
#    x 1.658050 0.000000 0.006170 
#    y 0.000000 1.683260 0.000000 
#    z 0.006170 0.000000 1.678290 
# 
# From -- ./inp_files/313366.got.cif
#   From: 2010.06.25/outbox.cif.g09.slc.cpg/sg12_157_cif.got.tgz:313366.got - 2010.06.28 00:19:55.
