data_PCOD8088376
_publ_section_title
;
Structure prediction by ZEFSAII (Michael W. Deem and Ramdas Pophale) SiO2 
 PCOD8088376
Probable space group: C 2/M
;
_chemical_formula_sum "Si O2"
_cell_formula_units_Z 56
_cell_length_a 30.702426
_cell_length_b 9.130479
_cell_length_c 11.564519
_cell_angle_alpha 90.000000
_cell_angle_beta 63.809156
_cell_angle_gamma 90.000000
_cell_volume 2909.011848
_symmetry_space_group_name_H-M "C 2/M"
_symmetry_group_IT_number 12
_symmetry_cell_setting 'monoclinic'
loop_
_space_group_symop_operation_xyz
x,y,z
-x,y,-z
-x,-y,-z
x,-y,z
1/2+x,1/2+y,z
1/2-x,1/2+y,-z
1/2-x,1/2-y,-z
1/2+x,1/2-y,z
loop_
_atom_site_type_symbol
_atom_site_label
_atom_site_fract_x
_atom_site_fract_y
_atom_site_fract_z
Si Si1 0.374581 0.169466 0.570054
Si Si2 0.547320 0.331563 0.381244
Si Si3 0.313023 0.829529 0.029814
Si Si4 0.487452 0.334394 0.830654
Si Si5 0.913180 0.326887 0.278234
Si Si6 0.892900 0.169829 0.076771
Si Si7 0.719259 0.832177 0.188544
O O1 0.405213 0.249806 0.631822
O O2 0.387653 0.225608 0.426644
O O3 0.317898 0.198386 0.662865
O O4 0.387559 0.000000 0.566219
O O5 0.500000 0.265265 0.500000
O O6 0.553249 0.500000 0.409361
O O7 0.542929 0.308436 0.250076
O O8 0.360256 0.744647 0.017575
O O9 0.265466 0.771545 0.152991
O O10 0.319293 0.000000 0.049510
O O11 0.307724 0.796526 0.900237
O O12 0.508851 0.500000 0.808597
O O13 0.530677 0.219313 0.787632
O O14 0.449842 0.310658 0.979373
O O15 0.909780 0.500000 0.264617
O O16 0.883997 0.247594 0.209926
O O17 0.878709 0.000000 0.101854
O O18 0.737179 0.000000 0.167450
#
# Coordination Sequence:
#
# PCOD8088376 Si02
#       7
#     8   8   8   8   8   8   8
#     4  10  21  36  55  81 112 147 182 221 271 324
#     4  10  19  32  53  79 110 143 177 221 268 319
#     4  10  20  36  60  88 113 137 175 225 272 322
#     4  10  21  37  55  79 109 145 186 225 271 324
#     4  11  23  37  54  78 110 146 187 230 268 315
#     4  11  23  38  57  78 107 147 187 226 271 323
#     4   9  19  37  60  85 114 143 173 216 274 331
#
# _framework density 19.250523000000001
#
# number of rings (size 3 to 8) (size 9 to 14) (size 15 to 20)
#    0.000    1.857    1.429    2.571    0.000    5.429 
#    0.000    0.714    0.000    0.000    0.000    0.000 
#    0.000    0.000    0.000    0.000    0.000    0.000 
#
# Total GULP energy -347318.671268 kJ/mol
# GULP energy per Si atom -12404.238260 kJ/mol
# Density = 1.920671 g / cm^3
# Si number density = 19.250523 Si / 1000 Ang^3
#
#
#
# Elastic Constant Matrix: (Units=GPa)
#
#
# Indices 1 2 3 4 5 6 
#
# 1 56.7299 35.9072 21.6712 0.0000 -7.4142 0.0000
# 2 35.9072 82.3639 31.6608 0.0000 -1.9582 0.0000
# 3 21.6712 31.6608 87.5967 0.0000 -1.3457 0.0000
# 4 0.0000 0.0000 0.0000 26.9565 0.0000 -0.9188
# 5 -7.4142 -1.9582 -1.3457 0.0000 22.2318 0.0000
# 6 0.0000 0.0000 0.0000 -0.9188 0.0000 39.6580
#
#
#
# Elastic Compliance Matrix: (Units=1/GPa)
#
#
# Indices 1 2 3 4 5 6 
#
# 1 0.026075 -0.010163 -0.002660 0.000000 0.007640 0.000000
# 2 -0.010163 0.018081 -0.004052 0.000000 -0.002042 0.000000
# 3 -0.002660 -0.004052 0.013532 0.000000 -0.000425 0.000000
# 4 0.000000 0.000000 0.000000 0.037126 0.000000 0.000860
# 5 0.007640 -0.002042 -0.000425 0.000000 0.047323 0.000000
# 6 0.000000 0.000000 0.000000 0.000860 0.000000 0.025236
#
#
# Mechanical properties :
#
#
# Convention : Reuss Voigt Hill
#
# Bulk Modulus (GPa) = 41.77651 45.01877 43.39764
# Shear Modulus (GPa) = 23.91165 26.93268 25.42216
#
# Velocity S-wave (km/s) = 3.52821 3.74446 3.63794
# Velocity P-wave (km/s) = 6.19244 6.49085 6.34340
#
# Compressibility (1/GPa) = 0.02393690
#
# Stress axis : x y z
#
# Youngs Moduli (GPa) = 38.35101 55.30606 73.89819
#
# Poissons Ratio (x) = 0.56210 0.19657
# Poissons Ratio (y) = 0.38978 0.29945
# Poissons Ratio (z) = 0.10202 0.22411
#
# Static dielectric constant tensor:
#      x y z
#    x 3.298820 0.000000 0.021990 
#    y 0.000000 3.489290 0.000000 
#    z 0.021990 0.000000 3.640790 
# 
# 
# High freq. dielectric constant tensor:
#      x y z
#    x 1.737020 0.000000 0.001040 
#    y 0.000000 1.749710 0.000000 
#    z 0.001040 0.000000 1.753720 
# 
# From -- ./inp_files/180624.got.cif
#   From: 2010.06.25/outbox.cif.g09.slc.cpg/sg12_91_cif.got.tgz:180624.got - 2010.06.28 00:19:55.
