data_PCOD8088979
_publ_section_title
;
Structure prediction by ZEFSAII (Michael W. Deem and Ramdas Pophale) SiO2 
 PCOD8088979
Probable space group: C 2/M
;
_chemical_formula_sum "Si O2"
_cell_formula_units_Z 56
_cell_length_a 27.300663
_cell_length_b 9.085092
_cell_length_c 12.545131
_cell_angle_alpha 90.000000
_cell_angle_beta 67.201220
_cell_angle_gamma 90.000000
_cell_volume 2868.455173
_symmetry_space_group_name_H-M "C 2/M"
_symmetry_group_IT_number 12
_symmetry_cell_setting 'monoclinic'
loop_
_space_group_symop_operation_xyz
x,y,z
-x,y,-z
-x,-y,-z
x,-y,z
1/2+x,1/2+y,z
1/2-x,1/2+y,-z
1/2-x,1/2-y,-z
1/2+x,1/2-y,z
loop_
_atom_site_type_symbol
_atom_site_label
_atom_site_fract_x
_atom_site_fract_y
_atom_site_fract_z
Si Si1 0.992964 0.326848 0.814683
Si Si2 0.388659 0.172892 0.249400
Si Si3 0.851349 0.833442 0.663345
Si Si4 0.195924 0.830052 0.070758
Si Si5 0.886668 0.329437 0.008752
Si Si6 0.194606 0.828017 0.526907
Si Si7 0.542967 0.825708 0.381744
O O1 0.000065 0.500000 0.799238
O O2 0.971138 0.260305 0.722174
O O3 0.051335 0.262958 0.790775
O O4 0.949255 0.288322 0.941930
O O5 0.369646 0.201360 0.144430
O O6 0.350983 0.260474 0.360582
O O7 0.385684 0.000000 0.279618
O O8 0.813783 0.805944 0.796010
O O9 0.818299 0.799541 0.585464
O O10 0.900058 0.723382 0.626339
O O11 0.873136 0.000000 0.644852
O O12 0.201767 0.000000 0.036223
O O13 0.250000 0.750000 0.000000
O O14 0.147984 0.766178 0.041923
O O15 0.877901 0.500000 0.985994
O O16 0.250000 0.750000 0.500000
O O17 0.199663 0.000000 0.548870
O O18 0.500000 0.763049 0.500000
O O19 0.542649 0.000000 0.378980
#
# Coordination Sequence:
#
# PCOD8088979 Si02
#       7
#     8   8   8   8   8   8   8
#     4   9  17  33  57  89 123 156 195 237 289 349
#     4  10  21  38  62  90 122 159 200 244 292 349
#     4  10  23  42  61  84 118 155 194 242 295 354
#     4  11  24  41  62  89 119 155 201 248 299 354
#     4  10  20  37  62  91 123 160 198 240 293 353
#     4  11  25  44  63  86 116 155 201 248 301 355
#     4  10  19  32  57  90 121 153 196 243 284 340
#
# _framework density 19.522703
#
# number of rings (size 3 to 8) (size 9 to 14) (size 15 to 20)
#    0.000    1.857    1.429    2.143    2.000    5.429 
#    0.000    1.429    0.000    1.714    0.000    0.000 
#    0.000    0.000    0.000    0.000    0.000    0.000 
#
# Total GULP energy -347228.806704 kJ/mol
# GULP energy per Si atom -12401.028811 kJ/mol
# Density = 1.947827 g / cm^3
# Si number density = 19.522703 Si / 1000 Ang^3
#
#
#
# Elastic Constant Matrix: (Units=GPa)
#
#
# Indices 1 2 3 4 5 6 
#
# 1 124.8537 53.1591 65.1040 0.0000 -7.0539 0.0000
# 2 53.1591 74.2266 59.6906 0.0000 -3.2011 0.0000
# 3 65.1040 59.6906 137.3157 0.0000 -1.9098 0.0000
# 4 0.0000 0.0000 0.0000 24.8939 0.0000 -3.2880
# 5 -7.0539 -3.2011 -1.9098 0.0000 35.3130 0.0000
# 6 0.0000 0.0000 0.0000 -3.2880 0.0000 29.4760
#
#
#
# Elastic Compliance Matrix: (Units=1/GPa)
#
#
# Indices 1 2 3 4 5 6 
#
# 1 0.012423 -0.006311 -0.003122 0.000000 0.001741 0.000000
# 2 -0.006311 0.023987 -0.007428 0.000000 0.000512 0.000000
# 3 -0.003122 -0.007428 0.011983 0.000000 -0.000649 0.000000
# 4 0.000000 0.000000 0.000000 0.040771 0.000000 0.004548
# 5 0.001741 0.000512 -0.000649 0.000000 0.028677 0.000000
# 6 0.000000 0.000000 0.000000 0.004548 0.000000 0.034433
#
#
# Mechanical properties :
#
#
# Convention : Reuss Voigt Hill
#
# Bulk Modulus (GPa) = 68.16424 76.92259 72.54342
# Shear Modulus (GPa) = 26.19345 28.49939 27.34642
#
# Velocity S-wave (km/s) = 3.66688 3.82489 3.74672
# Velocity P-wave (km/s) = 7.27456 7.68072 7.48040
#
# Compressibility (1/GPa) = 0.01467045
#
# Stress axis : x y z
#
# Youngs Moduli (GPa) = 80.49672 41.68852 83.45329
#
# Poissons Ratio (x) = 0.26309 0.26057
# Poissons Ratio (y) = 0.50801 0.61989
# Poissons Ratio (z) = 0.25134 0.30966
#
# Static dielectric constant tensor:
#      x y z
#    x 3.811010 0.000000 0.154960 
#    y 0.000000 3.415500 0.000000 
#    z 0.154960 0.000000 3.919560 
# 
# 
# High freq. dielectric constant tensor:
#      x y z
#    x 1.768610 0.000000 0.000160 
#    y 0.000000 1.738450 0.000000 
#    z 0.000160 0.000000 1.778570 
# 
# From -- ./inp_files/180821.got.cif
#   From: 2010.06.25/outbox.cif.g09.slc.cpg/sg12_91_cif.got.tgz:180821.got - 2010.06.28 00:19:55.
