data_PCOD8088410
_publ_section_title
;
Structure prediction by ZEFSAII (Michael W. Deem and Ramdas Pophale) SiO2 
 PCOD8088410
Probable space group: C 2/M
;
_chemical_formula_sum "Si O2"
_cell_formula_units_Z 64
_cell_length_a 24.380777
_cell_length_b 8.933273
_cell_length_c 28.791527
_cell_angle_alpha 90.000000
_cell_angle_beta 145.648105
_cell_angle_gamma 90.000000
_cell_volume 3538.448859
_symmetry_space_group_name_H-M "C 2/M"
_symmetry_group_IT_number 12
_symmetry_cell_setting 'monoclinic'
loop_
_space_group_symop_operation_xyz
x,y,z
-x,y,-z
-x,-y,-z
x,-y,z
1/2+x,1/2+y,z
1/2-x,1/2+y,-z
1/2-x,1/2-y,-z
1/2+x,1/2-y,z
loop_
_atom_site_type_symbol
_atom_site_label
_atom_site_fract_x
_atom_site_fract_y
_atom_site_fract_z
Si Si1 0.227007 0.174955 0.799480
Si Si2 0.749217 0.326999 0.378862
Si Si3 0.477341 0.326371 0.770972
Si Si4 0.170618 0.177918 0.477696
Si Si5 0.498604 0.825157 0.118783
Si Si6 0.778654 0.672172 0.732660
Si Si7 0.913619 0.177056 0.972784
Si Si8 0.471623 0.322705 0.294479
O O1 0.222962 0.203698 0.741541
O O2 0.311894 0.268881 0.881869
O O3 0.126197 0.236568 0.749830
O O4 0.244124 0.000000 0.822109
O O5 0.777242 0.500000 0.403024
O O6 0.637411 0.297697 0.313490
O O7 0.815357 0.231277 0.459791
O O8 0.770712 0.272939 0.341502
O O9 0.498938 0.500000 0.795707
O O10 0.524190 0.231120 0.845233
O O11 0.525666 0.268500 0.757083
O O12 0.250000 0.250000 0.500000
O O13 0.065067 0.236735 0.387761
O O14 0.179679 0.000000 0.480639
O O15 0.608758 0.783175 0.181980
O O16 0.478069 0.000000 0.101486
O O17 0.426743 0.743043 0.033270
O O18 0.770761 0.500000 0.711628
O O19 0.914148 0.000000 0.976302
O O20 0.000000 0.236187 0.000000
O O21 0.474228 0.500000 0.297297
#
# Coordination Sequence:
#
# PCOD8088410 Si02
#       8
#     8   8   8   8   8   8   8   8
#     4  10  20  37  59  80 107 142 180 222 268 318
#     4  10  19  32  53  80 108 142 179 223 271 314
#     4   9  17  33  53  77 109 141 176 218 270 321
#     4  11  20  34  55  82 111 141 182 226 268 317
#     4  10  19  32  53  82 108 135 178 226 267 309
#     4   9  18  32  52  80 108 137 175 222 270 316
#     4  11  22  35  54  81 111 142 177 218 268 320
#     4   9  19  36  57  80 108 143 179 219 270 322
#
# _framework density 18.087022000000001
#
# number of rings (size 3 to 8) (size 9 to 14) (size 15 to 20)
#    0.000    2.125    2.500    1.500    0.000    2.000 
#    0.000    3.125    0.000    3.750    0.000    0.000 
#    0.000    0.000    0.000    0.000    0.000    0.000 
#
# Total GULP energy -396890.095512 kJ/mol
# GULP energy per Si atom -12402.815485 kJ/mol
# Density = 1.804586 g / cm^3
# Si number density = 18.087022 Si / 1000 Ang^3
#
#
#
# Elastic Constant Matrix: (Units=GPa)
#
#
# Indices 1 2 3 4 5 6 
#
# 1 130.7955 37.8691 64.6746 0.0000 -6.3676 0.0000
# 2 37.8691 65.9062 46.4506 -0.0002 -6.8565 0.0007
# 3 64.6746 46.4506 110.4002 0.0001 -8.2397 0.0000
# 4 0.0000 -0.0002 0.0001 28.0957 -0.0001 -8.4879
# 5 -6.3676 -6.8565 -8.2397 -0.0001 28.4643 0.0000
# 6 0.0000 0.0007 0.0000 -8.4879 0.0000 25.4010
#
#
#
# Elastic Compliance Matrix: (Units=1/GPa)
#
#
# Indices 1 2 3 4 5 6 
#
# 1 0.011057 -0.002520 -0.005395 0.000000 0.000305 0.000000
# 2 -0.002520 0.022337 -0.007730 0.000000 0.002579 -0.000001
# 3 -0.005395 -0.007730 0.015578 0.000000 0.001441 0.000000
# 4 0.000000 0.000000 0.000000 0.039589 0.000000 0.013229
# 5 0.000305 0.002579 0.001441 0.000000 0.036238 0.000000
# 6 0.000000 -0.000001 0.000000 0.013229 0.000000 0.043789
#
#
# Mechanical properties :
#
#
# Convention : Reuss Voigt Hill
#
# Bulk Modulus (GPa) = 56.54687 67.23227 61.88957
# Shear Modulus (GPa) = 24.29872 26.93270 25.61571
#
# Velocity S-wave (km/s) = 3.66926 3.86302 3.76739
# Velocity P-wave (km/s) = 7.02018 7.55973 7.29495
#
# Compressibility (1/GPa) = 0.01768444
#
# Stress axis : x y z
#
# Youngs Moduli (GPa) = 90.43691 44.76870 64.19249
#
# Poissons Ratio (x) = 0.11280 0.34631
# Poissons Ratio (y) = 0.22786 0.49619
# Poissons Ratio (z) = 0.48789 0.34605
#
# Static dielectric constant tensor:
#      x y z
#    x 3.481010 0.000000 -0.117000 
#    y 0.000000 3.245720 0.000000 
#    z -0.117000 0.000000 3.298570 
# 
# 
# High freq. dielectric constant tensor:
#      x y z
#    x 1.698160 0.000000 -0.022070 
#    y 0.000000 1.693490 0.000000 
#    z -0.022070 0.000000 1.690120 
# 
# From -- ./inp_files/382498.got.cif
#   From: 2010.06.25/outbox.cif.g09.slc.cpg/sg12_192_cif.got.tgz:382498.got - 2010.06.28 00:19:55.
