data_PCOD8088050
_publ_section_title
;
Structure prediction by ZEFSAII (Michael W. Deem and Ramdas Pophale) SiO2 
 PCOD8088050
Probable space group: C 2/M
;
_chemical_formula_sum "Si O2"
_cell_formula_units_Z 48
_cell_length_a 30.723580
_cell_length_b 9.206134
_cell_length_c 18.156654
_cell_angle_alpha 90.000000
_cell_angle_beta 29.399537
_cell_angle_gamma 90.000000
_cell_volume 2521.012817
_symmetry_space_group_name_H-M "C 2/M"
_symmetry_group_IT_number 12
_symmetry_cell_setting 'monoclinic'
loop_
_space_group_symop_operation_xyz
x,y,z
-x,y,-z
-x,-y,-z
x,-y,z
1/2+x,1/2+y,z
1/2-x,1/2+y,-z
1/2-x,1/2-y,-z
1/2+x,1/2-y,z
loop_
_atom_site_type_symbol
_atom_site_label
_atom_site_fract_x
_atom_site_fract_y
_atom_site_fract_z
Si Si1 0.597012 0.835934 0.822378
Si Si2 0.834999 0.832531 0.146331
Si Si3 0.334977 0.331643 0.844959
Si Si4 0.983826 0.827555 0.354184
Si Si5 0.676761 0.331568 0.308716
Si Si6 0.472389 0.667032 0.205316
O O1 0.663929 0.748978 0.776637
O O2 0.594481 0.760247 0.746283
O O3 0.631996 0.000000 0.761971
O O4 0.500000 0.832353 0.000000
O O5 0.762533 0.762379 0.200459
O O6 0.812532 0.000000 0.194085
O O7 0.927270 0.813925 0.968596
O O8 0.322471 0.500000 0.882736
O O9 0.422144 0.265848 0.756056
O O10 0.348034 0.307606 0.739210
O O11 0.250000 0.250000 0.000000
O O12 0.905087 0.771950 0.522455
O O13 0.965035 0.773081 0.299139
O O14 0.989184 0.000000 0.349173
O O15 0.696903 0.500000 0.296287
O O16 0.442595 0.500000 0.243523
#
# Coordination Sequence:
#
# PCOD8088050 Si02
#       6
#     8   8   8   8   8   8
#     4   9  17  30  50  76 104 132 168 214 257 298
#     4  10  19  32  52  77 105 135 169 210 257 307
#     4  10  20  35  56  80 104 133 171 212 253 299
#     4   9  18  34  54  75 102 137 173 208 251 304
#     4  10  20  34  53  76 103 136 173 211 251 299
#     4   9  17  31  52  75 100 133 172 212 255 303
#
# _framework density 19.039966
#
# number of rings (size 3 to 8) (size 9 to 14) (size 15 to 20)
#    0.000    2.500    0.000    2.500    0.000    6.667 
#    0.000    3.333    0.000    2.000    0.000    0.000 
#    0.000    0.000    0.000    0.000    0.000    0.000 
#
# Total GULP energy -297644.728641 kJ/mol
# GULP energy per Si atom -12401.863693 kJ/mol
# Density = 1.899663 g / cm^3
# Si number density = 19.039966 Si / 1000 Ang^3
#
#
#
# Elastic Constant Matrix: (Units=GPa)
#
#
# Indices 1 2 3 4 5 6 
#
# 1 96.6937 41.6583 21.7664 0.0028 27.1557 -0.0029
# 2 41.6583 83.0199 25.9967 -0.0025 9.4169 -0.0007
# 3 21.7664 25.9967 54.1844 0.0005 22.0805 -0.0012
# 4 0.0028 -0.0025 0.0005 19.8610 -0.0008 -2.3508
# 5 27.1557 9.4169 22.0805 -0.0008 25.8944 0.0007
# 6 -0.0029 -0.0007 -0.0012 -2.3508 0.0007 33.0060
#
#
#
# Elastic Compliance Matrix: (Units=1/GPa)
#
#
# Indices 1 2 3 4 5 6 
#
# 1 0.018804 -0.008670 0.005145 -0.000005 -0.020954 0.000002
# 2 -0.008670 0.018189 -0.009584 0.000004 0.010649 -0.000001
# 3 0.005145 -0.009584 0.033356 -0.000004 -0.030353 0.000002
# 4 -0.000005 0.000004 -0.000004 0.050778 0.000008 0.003617
# 5 -0.020954 0.010649 -0.030353 0.000008 0.082602 -0.000004
# 6 0.000002 -0.000001 0.000002 0.003617 -0.000004 0.030555
#
#
# Mechanical properties :
#
#
# Convention : Reuss Voigt Hill
#
# Bulk Modulus (GPa) = 22.65981 45.86011 34.25996
# Shear Modulus (GPa) = 18.16787 25.38404 21.77596
#
# Velocity S-wave (km/s) = 3.09236 3.65526 3.38553
# Velocity P-wave (km/s) = 4.96762 6.47712 5.77193
#
# Compressibility (1/GPa) = 0.04413099
#
# Stress axis : x y z
#
# Youngs Moduli (GPa) = 53.18133 54.97938 29.97970
#
# Poissons Ratio (x) = 0.47665 -0.15423
# Poissons Ratio (y) = 0.46106 0.28731
# Poissons Ratio (z) = -0.27360 0.52690
#
# Static dielectric constant tensor:
#      x y z
#    x 3.705310 0.000000 0.091760 
#    y 0.000000 3.380560 0.000000 
#    z 0.091760 0.000000 3.324470 
# 
# 
# High freq. dielectric constant tensor:
#      x y z
#    x 1.758210 0.000000 0.004740 
#    y 0.000000 1.720700 0.000000 
#    z 0.004740 0.000000 1.721590 
# 
# From -- ./inp_files/244629.got.cif
#   From: 2010.06.25/outbox.cif.g09.slc.cpg/sg12_123_cif.got.tgz:244629.got - 2010.06.28 00:19:55.
