data_PCOD8088108
_publ_section_title
;
Structure prediction by ZEFSAII (Michael W. Deem and Ramdas Pophale) SiO2 
 PCOD8088108
Probable space group: C 2/M
;
_chemical_formula_sum "Si O2"
_cell_formula_units_Z 56
_cell_length_a 20.683314
_cell_length_b 9.053580
_cell_length_c 17.543617
_cell_angle_alpha 90.000000
_cell_angle_beta 108.422986
_cell_angle_gamma 90.000000
_cell_volume 3116.815364
_symmetry_space_group_name_H-M "C 2/M"
_symmetry_group_IT_number 12
_symmetry_cell_setting 'monoclinic'
loop_
_space_group_symop_operation_xyz
x,y,z
-x,y,-z
-x,-y,-z
x,-y,z
1/2+x,1/2+y,z
1/2-x,1/2+y,-z
1/2-x,1/2-y,-z
1/2+x,1/2-y,z
loop_
_atom_site_type_symbol
_atom_site_label
_atom_site_fract_x
_atom_site_fract_y
_atom_site_fract_z
Si Si1 0.177461 0.672084 0.665789
Si Si2 0.680166 0.171263 0.492672
Si Si3 0.809220 0.829045 0.922189
Si Si4 0.432697 0.824684 0.255608
Si Si5 0.314412 0.825060 0.768662
Si Si6 0.583959 0.825015 0.325039
Si Si7 0.843002 0.670945 0.083304
O O1 0.193043 0.500000 0.688471
O O2 0.157191 0.699124 0.570655
O O3 0.114441 0.731011 0.692532
O O4 0.243590 0.764499 0.711066
O O5 0.750000 0.250000 0.500000
O O6 0.620956 0.233598 0.415368
O O7 0.692458 0.000000 0.480255
O O8 0.834195 0.742415 0.857320
O O9 0.728914 0.801770 0.902168
O O10 0.826866 0.000000 0.919084
O O11 0.850140 0.767348 0.009996
O O12 0.508129 0.755598 0.292343
O O13 0.401129 0.774365 0.163069
O O14 0.435614 0.000000 0.259094
O O15 0.373494 0.775089 0.732784
O O16 0.308932 0.000000 0.773881
O O17 0.577991 0.000000 0.325709
O O18 0.851152 0.500000 0.063859
#
# Coordination Sequence:
#
# PCOD8088108 Si02
#       7
#     8   8   8   8   8   8   8
#     4  10  19  32  54  79 103 136 175 218 262 302
#     4  10  19  32  52  79 107 136 174 215 260 305
#     4  10  19  32  52  79 106 132 172 218 259 304
#     4   9  17  33  53  76 107 136 172 218 261 305
#     4  11  20  32  52  78 106 137 175 213 256 311
#     4   9  19  33  51  77 107 139 173 215 261 306
#     4   9  17  31  52  77 103 134 170 214 263 305
#
# _framework density 17.967057
#
# number of rings (size 3 to 8) (size 9 to 14) (size 15 to 20)
#    0.000    2.286    2.857    0.857    0.000    1.143 
#    0.000    3.571    0.000    9.429    0.000    2.000 
#    0.000    0.000    0.000    0.000    0.000    0.000 
#
# Total GULP energy -347216.876173 kJ/mol
# GULP energy per Si atom -12400.602720 kJ/mol
# Density = 1.792616 g / cm^3
# Si number density = 17.967057 Si / 1000 Ang^3
#
#
#
# Elastic Constant Matrix: (Units=GPa)
#
#
# Indices 1 2 3 4 5 6 
#
# 1 136.0444 38.8744 84.5553 0.0000 5.4390 0.0000
# 2 38.8744 52.7046 44.9597 0.0000 -7.7014 0.0000
# 3 84.5553 44.9597 156.3517 0.0000 2.2934 0.0000
# 4 0.0000 0.0000 0.0000 25.9524 0.0000 -1.9488
# 5 5.4390 -7.7014 2.2934 0.0000 32.4141 0.0000
# 6 0.0000 0.0000 0.0000 -1.9488 0.0000 19.4710
#
#
#
# Elastic Compliance Matrix: (Units=1/GPa)
#
#
# Indices 1 2 3 4 5 6 
#
# 1 0.012010 -0.004995 -0.005017 0.000000 -0.002847 0.000000
# 2 -0.004995 0.028661 -0.005658 0.000000 0.008048 0.000000
# 3 -0.005017 -0.005658 0.010755 0.000000 -0.001264 0.000000
# 4 0.000000 0.000000 0.000000 0.038824 0.000000 0.003886
# 5 -0.002847 0.008048 -0.001264 0.000000 0.033330 0.000000
# 6 0.000000 0.000000 0.000000 0.003886 0.000000 0.051747
#
#
# Mechanical properties :
#
#
# Convention : Reuss Voigt Hill
#
# Bulk Modulus (GPa) = 49.78829 75.76438 62.77633
# Shear Modulus (GPa) = 23.43448 27.34827 25.39138
#
# Velocity S-wave (km/s) = 3.61543 3.90569 3.76336
# Velocity P-wave (km/s) = 6.72306 7.91197 7.34162
#
# Compressibility (1/GPa) = 0.02008504
#
# Stress axis : x y z
#
# Youngs Moduli (GPa) = 83.26627 34.89116 92.98328
#
# Poissons Ratio (x) = 0.17427 0.46649
# Poissons Ratio (y) = 0.41588 0.52614
# Poissons Ratio (z) = 0.41774 0.19743
#
# Static dielectric constant tensor:
#      x y z
#    x 3.428150 0.000000 -0.026710 
#    y 0.000000 3.096480 0.000000 
#    z -0.026710 0.000000 3.622110 
# 
# 
# High freq. dielectric constant tensor:
#      x y z
#    x 1.682400 0.000000 -0.008830 
#    y 0.000000 1.667440 0.000000 
#    z -0.008830 0.000000 1.712750 
# 
# From -- ./inp_files/281744.got.cif
#   From: 2010.06.25/outbox.cif.g09.slc.cpg/sg12_141_cif.got.tgz:281744.got - 2010.06.28 00:19:55.
