data_PCOD8088310
_publ_section_title
;
Structure prediction by ZEFSAII (Michael W. Deem and Ramdas Pophale) SiO2 
 PCOD8088310
Probable space group: C 2/M
;
_chemical_formula_sum "Si O2"
_cell_formula_units_Z 48
_cell_length_a 17.855208
_cell_length_b 9.200666
_cell_length_c 15.185944
_cell_angle_alpha 90.000000
_cell_angle_beta 92.390345
_cell_angle_gamma 90.000000
_cell_volume 2492.573176
_symmetry_space_group_name_H-M "C 2/M"
_symmetry_group_IT_number 12
_symmetry_cell_setting 'monoclinic'
loop_
_space_group_symop_operation_xyz
x,y,z
-x,y,-z
-x,-y,-z
x,-y,z
1/2+x,1/2+y,z
1/2-x,1/2+y,-z
1/2-x,1/2-y,-z
1/2+x,1/2-y,z
loop_
_atom_site_type_symbol
_atom_site_label
_atom_site_fract_x
_atom_site_fract_y
_atom_site_fract_z
Si Si1 0.584499 0.830573 0.511856
Si Si2 0.840002 0.169449 0.640844
Si Si3 0.173317 0.331945 0.689405
Si Si4 0.588638 0.835805 0.015305
Si Si5 0.069804 0.830814 0.184299
Si Si6 0.103604 0.170074 0.844456
O O1 0.500000 0.770429 0.500000
O O2 0.638258 0.751709 0.446240
O O3 0.612779 0.797428 0.611265
O O4 0.587927 0.000000 0.489725
O O5 0.754891 0.209469 0.658184
O O6 0.893121 0.221017 0.723113
O O7 0.850248 0.000000 0.623396
O O8 0.169363 0.500000 0.718299
O O9 0.157088 0.231751 0.771913
O O10 0.609580 0.757923 0.107813
O O11 0.619870 0.000000 0.017666
O O12 0.500000 0.833516 0.000000
O O13 0.625781 0.748140 0.936749
O O14 0.981920 0.795867 0.185985
O O15 0.084644 0.000000 0.166499
O O16 0.117923 0.000000 0.856791
#
# Coordination Sequence:
#
# PCOD8088310 Si02
#       6
#     8   8   8   8   8   8
#     4  10  21  36  55  79 105 134 170 213 257 302
#     4  10  21  36  54  76 104 138 172 210 256 304
#     4  10  21  36  52  74 106 139 171 210 256 305
#     4   9  17  30  51  78 105 134 169 211 258 304
#     4   9  18  33  52  76 104 133 171 216 257 300
#     4  10  19  32  53  78 103 134 172 214 257 302
#
# _framework density 19.257209
#
# number of rings (size 3 to 8) (size 9 to 14) (size 15 to 20)
#    0.000    2.333    0.000    2.500    0.000    5.000 
#    0.000    0.833    0.000    0.000    0.000    0.000 
#    0.000    0.000    0.000    0.000    0.000    0.000 
#
# Total GULP energy -297698.556473 kJ/mol
# GULP energy per Si atom -12404.106520 kJ/mol
# Density = 1.921338 g / cm^3
# Si number density = 19.257209 Si / 1000 Ang^3
#
#
#
# Elastic Constant Matrix: (Units=GPa)
#
#
# Indices 1 2 3 4 5 6 
#
# 1 53.6747 25.2412 19.9537 0.0000 -15.9065 0.0000
# 2 25.2412 82.9197 50.0800 0.0000 -21.8508 0.0000
# 3 19.9537 50.0800 88.1120 0.0000 -33.2014 0.0000
# 4 0.0000 0.0000 0.0000 38.7201 0.0000 -10.0507
# 5 -15.9065 -21.8508 -33.2014 0.0000 25.3608 0.0000
# 6 0.0000 0.0000 0.0000 -10.0507 0.0000 21.7301
#
#
#
# Elastic Compliance Matrix: (Units=1/GPa)
#
#
# Indices 1 2 3 4 5 6 
#
# 1 0.024377 -0.005420 0.003082 0.000000 0.014655 0.000000
# 2 -0.005420 0.019805 -0.009631 0.000000 0.001055 0.000000
# 3 0.003082 -0.009631 0.027091 0.000000 0.029102 0.000000
# 4 0.000000 0.000000 0.000000 0.029350 0.000000 0.013575
# 5 0.014655 0.001055 0.029102 0.000000 0.087630 0.000000
# 6 0.000000 0.000000 0.000000 0.013575 0.000000 0.052298
#
#
# Mechanical properties :
#
#
# Convention : Reuss Voigt Hill
#
# Bulk Modulus (GPa) = 21.12645 46.13959 33.63302
# Shear Modulus (GPa) = 17.84008 25.79095 21.81552
#
# Velocity S-wave (km/s) = 3.04700 3.66360 3.36943
# Velocity P-wave (km/s) = 4.83461 6.47361 5.71319
#
# Compressibility (1/GPa) = 0.04733403
#
# Stress axis : x y z
#
# Youngs Moduli (GPa) = 41.02277 50.49282 36.91245
#
# Poissons Ratio (x) = 0.27369 -0.11378
# Poissons Ratio (y) = 0.22236 0.35552
# Poissons Ratio (z) = -0.12645 0.48632
#
# Static dielectric constant tensor:
#      x y z
#    x 3.373260 0.000000 0.075440 
#    y 0.000000 3.492090 0.000000 
#    z 0.075440 0.000000 3.551000 
# 
# 
# High freq. dielectric constant tensor:
#      x y z
#    x 1.732900 0.000000 -0.001770 
#    y 0.000000 1.747370 0.000000 
#    z -0.001770 0.000000 1.760100 
# 
# From -- ./inp_files/221601.got.cif
#   From: 2010.06.25/outbox.cif.g09.slc.cpg/sg12_111_cif.got.tgz:221601.got - 2010.06.28 00:19:55.
