data_PCOD8088878
_publ_section_title
;
Structure prediction by ZEFSAII (Michael W. Deem and Ramdas Pophale) SiO2 
 PCOD8088878
Probable space group: C 2/M
;
_chemical_formula_sum "Si O2"
_cell_formula_units_Z 56
_cell_length_a 20.493014
_cell_length_b 8.801499
_cell_length_c 30.848944
_cell_angle_alpha 90.000000
_cell_angle_beta 147.713100
_cell_angle_gamma 90.000000
_cell_volume 2972.168281
_symmetry_space_group_name_H-M "C 2/M"
_symmetry_group_IT_number 12
_symmetry_cell_setting 'monoclinic'
loop_
_space_group_symop_operation_xyz
x,y,z
-x,y,-z
-x,-y,-z
x,-y,z
1/2+x,1/2+y,z
1/2-x,1/2+y,-z
1/2-x,1/2-y,-z
1/2+x,1/2-y,z
loop_
_atom_site_type_symbol
_atom_site_label
_atom_site_fract_x
_atom_site_fract_y
_atom_site_fract_z
Si Si1 0.329104 0.821182 0.658229
Si Si2 0.718867 0.824673 0.913863
Si Si3 0.304565 0.675000 0.736043
Si Si4 0.090301 0.675290 0.679303
Si Si5 0.076895 0.822488 0.763157
Si Si6 0.318774 0.175886 0.498598
Si Si7 0.425505 0.326406 0.092838
O O1 0.302564 0.778379 0.692625
O O2 0.459740 0.761954 0.716305
O O3 0.221932 0.751739 0.568917
O O4 0.328004 0.000000 0.651794
O O5 0.695377 0.725918 0.857665
O O6 0.619438 0.784127 0.894572
O O7 0.703023 0.000000 0.892638
O O8 0.854845 0.788941 0.008324
O O9 0.288327 0.500000 0.712696
O O10 0.195901 0.728291 0.706057
O O11 0.430590 0.698143 0.833315
O O12 0.106412 0.500000 0.702267
O O13 0.099752 0.779969 0.726524
O O14 0.962788 0.701503 0.583583
O O15 0.053907 0.000000 0.754460
O O16 0.250000 0.250000 0.500000
O O17 0.283156 0.000000 0.477734
O O18 0.396354 0.500000 0.090502
#
# Coordination Sequence:
#
# PCOD8088878 Si02
#       7
#     8   8   8   8   8   8   8
#     4  12  24  38  60  88 118 153 195 243 291 345
#     4  10  19  32  55  87 118 149 192 242 288 339
#     4  10  21  40  62  87 119 155 194 238 290 348
#     4  10  23  41  62  86 117 154 194 240 293 348
#     4  12  23  37  59  86 116 154 198 243 291 347
#     4  11  22  38  61  88 117 153 194 243 292 340
#     4   9  18  33  56  85 117 153 191 235 288 341
#
# _framework density 18.841464999999999
#
# number of rings (size 3 to 8) (size 9 to 14) (size 15 to 20)
#    0.000    1.429    2.857    3.429    0.000    2.286 
#    0.000    3.571    0.000    4.286    0.000    0.000 
#    0.000    0.000    0.000    0.000    0.000    0.000 
#
# Total GULP energy -347318.028641 kJ/mol
# GULP energy per Si atom -12404.215309 kJ/mol
# Density = 1.879858 g / cm^3
# Si number density = 18.841465 Si / 1000 Ang^3
#
#
#
# Elastic Constant Matrix: (Units=GPa)
#
#
# Indices 1 2 3 4 5 6 
#
# 1 112.7693 51.0284 63.5272 0.0001 5.5735 -0.0001
# 2 51.0284 113.4116 64.9507 -0.0001 -4.4653 0.0003
# 3 63.5272 64.9507 142.6294 0.0001 -5.8885 0.0000
# 4 0.0001 -0.0001 0.0001 31.4054 0.0000 -7.5123
# 5 5.5735 -4.4653 -5.8885 0.0000 30.5656 0.0000
# 6 -0.0001 0.0003 0.0000 -7.5123 0.0000 28.6992
#
#
#
# Elastic Compliance Matrix: (Units=1/GPa)
#
#
# Indices 1 2 3 4 5 6 
#
# 1 0.013129 -0.003541 -0.004390 0.000000 -0.003757 0.000000
# 2 -0.003541 0.012898 -0.004226 0.000000 0.001716 0.000000
# 3 -0.004390 -0.004226 0.010986 0.000000 0.002300 0.000000
# 4 0.000000 0.000000 0.000000 0.033969 0.000000 0.008892
# 5 -0.003757 0.001716 0.002300 0.000000 0.034095 0.000000
# 6 0.000000 0.000000 0.000000 0.008892 0.000000 0.037172
#
#
# Mechanical properties :
#
#
# Convention : Reuss Voigt Hill
#
# Bulk Modulus (GPa) = 78.74428 80.86921 79.80675
# Shear Modulus (GPa) = 29.27488 30.75430 30.01459
#
# Velocity S-wave (km/s) = 3.94604 4.04452 3.99558
# Velocity P-wave (km/s) = 7.91489 8.05139 7.98343
#
# Compressibility (1/GPa) = 0.01269933
#
# Stress axis : x y z
#
# Youngs Moduli (GPa) = 76.16870 77.53033 91.02626
#
# Poissons Ratio (x) = 0.27452 0.39963
# Poissons Ratio (y) = 0.26970 0.38465
# Poissons Ratio (z) = 0.33440 0.32762
#
# Static dielectric constant tensor:
#      x y z
#    x 3.351560 0.000000 -0.109120 
#    y 0.000000 3.533000 0.000000 
#    z -0.109120 0.000000 3.924960 
# 
# 
# High freq. dielectric constant tensor:
#      x y z
#    x 1.706960 0.000000 -0.004340 
#    y 0.000000 1.738130 0.000000 
#    z -0.004340 0.000000 1.751440 
# 
# From -- ./inp_files/275679.got.cif
#   From: 2010.06.25/outbox.cif.g09.slc.cpg/sg12_138_cif.got.tgz:275679.got - 2010.06.28 00:19:55.
