data_PCOD8088705
_publ_section_title
;
Structure prediction by ZEFSAII (Michael W. Deem and Ramdas Pophale) SiO2 
 PCOD8088705
Probable space group: C 2/M
;
_chemical_formula_sum "Si O2"
_cell_formula_units_Z 64
_cell_length_a 29.433065
_cell_length_b 8.885681
_cell_length_c 12.462015
_cell_angle_alpha 90.000000
_cell_angle_beta 90.878092
_cell_angle_gamma 90.000000
_cell_volume 3258.843260
_symmetry_space_group_name_H-M "C 2/M"
_symmetry_group_IT_number 12
_symmetry_cell_setting 'monoclinic'
loop_
_space_group_symop_operation_xyz
x,y,z
-x,y,-z
-x,-y,-z
x,-y,z
1/2+x,1/2+y,z
1/2-x,1/2+y,-z
1/2-x,1/2-y,-z
1/2+x,1/2-y,z
loop_
_atom_site_type_symbol
_atom_site_label
_atom_site_fract_x
_atom_site_fract_y
_atom_site_fract_z
Si Si1 0.003546 0.175203 0.180911
Si Si2 0.402007 0.178601 0.882884
Si Si3 0.826015 0.671363 0.711195
Si Si4 0.110789 0.671709 0.475174
Si Si5 0.595875 0.322665 0.896196
Si Si6 0.144919 0.678236 0.697512
Si Si7 0.520944 0.830191 0.385027
Si Si8 0.243806 0.676273 0.616582
O O1 0.047450 0.264391 0.141808
O O2 0.993582 0.223062 0.303321
O O3 0.957722 0.217461 0.115476
O O4 0.014161 0.000000 0.170684
O O5 0.364510 0.232604 0.794363
O O6 0.403727 0.000000 0.887319
O O7 0.385832 0.244601 0.995722
O O8 0.813605 0.500000 0.740924
O O9 0.842770 0.681960 0.588666
O O10 0.780867 0.771775 0.706929
O O11 0.095313 0.500000 0.491442
O O12 0.116321 0.740352 0.594014
O O13 0.070992 0.744105 0.401537
O O14 0.602774 0.500000 0.903839
O O15 0.626593 0.262879 0.800555
O O16 0.138836 0.500000 0.713285
O O17 0.196770 0.719623 0.672750
O O18 0.500000 0.828599 0.500000
O O19 0.522347 0.000000 0.336983
O O20 0.247704 0.500000 0.597508
O O21 0.250000 0.750000 0.500000
#
# Coordination Sequence:
#
# PCOD8088705 Si02
#       8
#     8   8   8   8   8   8   8   8
#     4  11  23  38  57  85 122 158 196 248 302 352
#     4  11  23  41  66  89 115 157 208 250 290 351
#     4  10  20  38  61  88 120 151 192 245 297 348
#     4   9  16  32  55  82 117 150 188 241 290 338
#     4  11  25  42  59  85 122 158 198 250 304 351
#     4  10  21  39  62  87 118 156 199 243 290 354
#     4  10  19  32  54  82 114 157 202 242 290 349
#     4  11  22  37  62  94 124 157 197 242 295 358
#
# _framework density 19.638871000000002
#
# number of rings (size 3 to 8) (size 9 to 14) (size 15 to 20)
#    0.000    1.625    2.500    2.625    0.000    6.750 
#    0.000    1.250    0.000    0.000    0.000    0.000 
#    0.000    0.000    0.000    0.000    0.000    0.000 
#
# Total GULP energy -396643.381587 kJ/mol
# GULP energy per Si atom -12395.105675 kJ/mol
# Density = 1.959417 g / cm^3
# Si number density = 19.638871 Si / 1000 Ang^3
#
#
#
# Elastic Constant Matrix: (Units=GPa)
#
#
# Indices 1 2 3 4 5 6 
#
# 1 91.6117 49.9235 42.3390 0.0000 12.4292 0.0000
# 2 49.9235 69.2143 44.9329 0.0000 2.7581 0.0000
# 3 42.3390 44.9329 129.3590 0.0000 6.3073 0.0000
# 4 0.0000 0.0000 0.0000 27.3128 0.0000 0.9001
# 5 12.4292 2.7581 6.3073 0.0000 22.4692 0.0000
# 6 0.0000 0.0000 0.0000 0.9001 0.0000 31.7810
#
#
#
# Elastic Compliance Matrix: (Units=1/GPa)
#
#
# Indices 1 2 3 4 5 6 
#
# 1 0.019955 -0.013014 -0.001572 0.000000 -0.009000 0.000000
# 2 -0.013014 0.027147 -0.005433 0.000000 0.005392 0.000000
# 3 -0.001572 -0.005433 0.010197 0.000000 -0.001326 0.000000
# 4 0.000000 0.000000 0.000000 0.036647 0.000000 -0.001038
# 5 -0.009000 0.005392 -0.001326 0.000000 0.049194 0.000000
# 6 0.000000 0.000000 0.000000 -0.001038 0.000000 0.031495
#
#
# Mechanical properties :
#
#
# Convention : Reuss Voigt Hill
#
# Bulk Modulus (GPa) = 57.93538 62.73065 60.33302
# Shear Modulus (GPa) = 22.68322 26.51189 24.59756
#
# Velocity S-wave (km/s) = 3.40224 3.67818 3.54290
# Velocity P-wave (km/s) = 6.70806 7.07461 6.89377
#
# Compressibility (1/GPa) = 0.01726061
#
# Stress axis : x y z
#
# Youngs Moduli (GPa) = 50.11187 36.83627 98.07110
#
# Poissons Ratio (x) = 0.47940 0.15416
# Poissons Ratio (y) = 0.65218 0.53281
# Poissons Ratio (z) = 0.07877 0.20013
#
# Static dielectric constant tensor:
#      x y z
#    x 3.898740 0.000000 0.193320 
#    y 0.000000 3.482300 0.000000 
#    z 0.193320 0.000000 3.687560 
# 
# 
# High freq. dielectric constant tensor:
#      x y z
#    x 1.769590 0.000000 0.007510 
#    y 0.000000 1.746550 0.000000 
#    z 0.007510 0.000000 1.769370 
# 
# From -- ./inp_files/187532.got.cif
#   From: 2010.06.25/outbox.cif.g09.slc.cpg/sg12_94_cif.got.tgz:187532.got - 2010.06.28 00:19:55.
