data_PCOD8088668
_publ_section_title
;
Structure prediction by ZEFSAII (Michael W. Deem and Ramdas Pophale) SiO2 
 PCOD8088668
Probable space group: C 2/M
;
_chemical_formula_sum "Si O2"
_cell_formula_units_Z 56
_cell_length_a 13.743887
_cell_length_b 18.843332
_cell_length_c 20.872132
_cell_angle_alpha 90.000000
_cell_angle_beta 33.147838
_cell_angle_gamma 90.000000
_cell_volume 2955.721792
_symmetry_space_group_name_H-M "C 2/M"
_symmetry_group_IT_number 12
_symmetry_cell_setting 'monoclinic'
loop_
_space_group_symop_operation_xyz
x,y,z
-x,y,-z
-x,-y,-z
x,-y,z
1/2+x,1/2+y,z
1/2-x,1/2+y,-z
1/2-x,1/2-y,-z
1/2+x,1/2-y,z
loop_
_atom_site_type_symbol
_atom_site_label
_atom_site_fract_x
_atom_site_fract_y
_atom_site_fract_z
Si Si1 0.640113 0.339109 0.866714
Si Si2 0.395599 0.078541 0.926243
Si Si3 0.853575 0.082420 0.531043
Si Si4 0.973842 0.919169 0.697989
Si Si5 0.997099 0.080276 0.826061
Si Si6 0.954742 0.580376 0.751147
Si Si7 0.866919 0.672195 0.129354
O O1 0.582875 0.366495 0.828846
O O2 0.835808 0.370673 0.770961
O O3 0.656296 0.255446 0.850645
O O4 0.500000 0.360187 0.000000
O O5 0.353367 0.080298 0.874449
O O6 0.546583 0.137225 0.855359
O O7 0.466104 0.000000 0.907149
O O8 0.213548 0.096118 0.063514
O O9 0.653824 0.113042 0.650171
O O10 0.000000 0.116666 0.500000
O O11 0.898114 0.096617 0.432259
O O12 0.844988 0.000000 0.552984
O O13 0.074760 0.909125 0.710955
O O14 0.821415 0.861586 0.779549
O O15 0.899766 0.000000 0.734349
O O16 0.030142 0.000000 0.832170
O O17 0.964305 0.500000 0.717788
O O18 0.000000 0.650736 0.000000
#
# Coordination Sequence:
#
# PCOD8088668 Si02
#       7
#     8   8   8   8   8   8   8
#     4  11  23  36  52  79 117 155 188 221 267 331
#     4  10  19  32  54  82 108 140 183 231 280 324
#     4   9  18  35  60  87 111 138 181 235 282 324
#     4  10  20  36  57  81 111 142 179 232 284 328
#     4  10  20  34  54  80 110 145 183 228 276 323
#     4  10  20  36  60  84 107 143 190 232 271 322
#     4  11  22  33  51  81 115 147 181 222 283 337
#
# _framework density 18.946301999999999
#
# number of rings (size 3 to 8) (size 9 to 14) (size 15 to 20)
#    0.000    1.857    2.857    1.714    0.000    5.143 
#    0.000    1.429    0.000    5.143    0.000    0.000 
#    0.000    0.000    0.000    0.000    0.000    0.143 
#
# Total GULP energy -347083.880438 kJ/mol
# GULP energy per Si atom -12395.852873 kJ/mol
# Density = 1.890318 g / cm^3
# Si number density = 18.946302 Si / 1000 Ang^3
#
#
#
# Elastic Constant Matrix: (Units=GPa)
#
#
# Indices 1 2 3 4 5 6 
#
# 1 114.3608 48.0597 42.2970 -0.0030 0.5643 0.0037
# 2 48.0597 68.3201 27.1258 0.0021 -8.1797 -0.0074
# 3 42.2970 27.1258 80.2601 -0.0072 4.0779 0.0008
# 4 -0.0030 0.0021 -0.0072 15.0535 -0.0017 -1.4877
# 5 0.5643 -8.1797 4.0779 -0.0017 34.1604 0.0011
# 6 0.0037 -0.0074 0.0008 -1.4877 0.0011 13.1306
#
#
#
# Elastic Compliance Matrix: (Units=1/GPa)
#
#
# Indices 1 2 3 4 5 6 
#
# 1 0.013825 -0.008158 -0.004444 0.000001 -0.001651 -0.000008
# 2 -0.008158 0.022525 -0.003616 -0.000004 0.005960 0.000014
# 3 -0.004444 -0.003616 0.016162 0.000007 -0.002722 -0.000001
# 4 0.000001 -0.000004 0.000007 0.067182 0.000001 0.007612
# 5 -0.001651 0.005960 -0.002722 0.000001 0.031053 0.000002
# 6 -0.000008 0.000014 -0.000001 0.007612 0.000002 0.077021
#
#
# Mechanical properties :
#
#
# Convention : Reuss Voigt Hill
#
# Bulk Modulus (GPa) = 49.81521 55.32289 52.56905
# Shear Modulus (GPa) = 18.73384 22.16613 20.44998
#
# Velocity S-wave (km/s) = 3.14791 3.42416 3.28893
# Velocity P-wave (km/s) = 6.28986 6.70047 6.49841
#
# Compressibility (1/GPa) = 0.02007419
#
# Stress axis : x y z
#
# Youngs Moduli (GPa) = 72.33503 44.39486 61.87237
#
# Poissons Ratio (x) = 0.36217 0.27499
# Poissons Ratio (y) = 0.59010 0.22376
# Poissons Ratio (z) = 0.32149 0.16055
#
# Static dielectric constant tensor:
#      x y z
#    x 3.456690 -0.000010 0.107560 
#    y -0.000010 3.251340 0.000030 
#    z 0.107560 0.000030 3.483200 
# 
# 
# High freq. dielectric constant tensor:
#      x y z
#    x 1.737730 0.000000 0.009420 
#    y 0.000000 1.712150 0.000000 
#    z 0.009420 0.000000 1.723370 
# 
# From -- ./inp_files/311680.got.cif
#   From: 2010.06.25/outbox.cif.g09.slc.cpg/sg12_156_cif.got.tgz:311680.got - 2010.06.28 00:19:55.
