data_PCOD8088262
_publ_section_title
;
Structure prediction by ZEFSAII (Michael W. Deem and Ramdas Pophale) SiO2 
 PCOD8088262
Probable space group: C 2/M
;
_chemical_formula_sum "Si O2"
_cell_formula_units_Z 64
_cell_length_a 33.153611
_cell_length_b 9.127800
_cell_length_c 15.700714
_cell_angle_alpha 90.000000
_cell_angle_beta 132.921141
_cell_angle_gamma 90.000000
_cell_volume 3479.368711
_symmetry_space_group_name_H-M "C 2/M"
_symmetry_group_IT_number 12
_symmetry_cell_setting 'monoclinic'
loop_
_space_group_symop_operation_xyz
x,y,z
-x,y,-z
-x,-y,-z
x,-y,z
1/2+x,1/2+y,z
1/2-x,1/2+y,-z
1/2-x,1/2-y,-z
1/2+x,1/2-y,z
loop_
_atom_site_type_symbol
_atom_site_label
_atom_site_fract_x
_atom_site_fract_y
_atom_site_fract_z
Si Si1 0.596856 0.339973 0.254667
Si Si2 0.823088 0.171319 0.035128
Si Si3 0.711467 0.342067 0.503384
Si Si4 0.648883 0.325869 0.573517
Si Si5 0.068407 0.329482 0.870533
Si Si6 0.554985 0.665747 0.024492
Si Si7 0.216911 0.170247 0.834339
Si Si8 0.052528 0.329940 0.345392
O O1 0.566006 0.500000 0.215319
O O2 0.657758 0.363443 0.371616
O O3 0.600851 0.291182 0.161323
O O4 0.564951 0.225267 0.267896
O O5 0.774138 0.241304 0.907981
O O6 0.825031 0.000000 0.017544
O O7 0.881777 0.240917 0.099161
O O8 0.811784 0.204415 0.117555
O O9 0.739558 0.500000 0.560803
O O10 0.750000 0.250000 0.500000
O O11 0.693899 0.270117 0.568523
O O12 0.640482 0.500000 0.552490
O O13 0.672818 0.279586 0.699497
O O14 0.589145 0.253109 0.469606
O O15 0.083854 0.500000 0.894519
O O16 0.012929 0.303689 0.734303
O O17 0.058317 0.277904 0.952175
O O18 0.562815 0.500000 0.001037
O O19 0.500000 0.685800 0.000000
O O20 0.231542 0.000000 0.844739
O O21 0.067694 0.500000 0.372589
#
# Coordination Sequence:
#
# PCOD8088262 Si02
#       8
#     8   8   8   8   8   8   8   8
#     4   9  18  33  50  70  99 137 177 220 270 317
#     4  10  21  37  60  86 110 141 178 223 278 333
#     4   9  18  31  47  69 100 134 168 208 255 306
#     4   9  19  36  58  79 103 140 181 221 272 327
#     4  11  23  36  52  78 115 150 184 227 275 327
#     4  10  19  32  53  77 102 137 182 227 270 317
#     4   9  19  39  63  85 109 137 178 228 280 334
#     4  10  20  33  51  77 107 142 183 222 264 317
#
# _framework density 18.394141000000001
#
# number of rings (size 3 to 8) (size 9 to 14) (size 15 to 20)
#    0.000    2.375    1.250    1.875    0.000    6.250 
#    0.000    3.125    0.000    3.750    0.000    0.000 
#    0.000    0.000    0.000    0.000    0.000    0.000 
#
# Total GULP energy -396563.662927 kJ/mol
# GULP energy per Si atom -12392.614466 kJ/mol
# Density = 1.835227 g / cm^3
# Si number density = 18.394141 Si / 1000 Ang^3
#
#
#
# Elastic Constant Matrix: (Units=GPa)
#
#
# Indices 1 2 3 4 5 6 
#
# 1 92.5931 51.6163 45.6645 0.0000 12.6214 0.0000
# 2 51.6163 90.6505 51.3140 0.0000 10.7013 0.0000
# 3 45.6645 51.3140 128.3888 0.0000 -2.0442 0.0000
# 4 0.0000 0.0000 0.0000 24.2705 0.0000 -1.0474
# 5 12.6214 10.7013 -2.0442 0.0000 18.0863 0.0000
# 6 0.0000 0.0000 0.0000 -1.0474 0.0000 24.6673
#
#
#
# Elastic Compliance Matrix: (Units=1/GPa)
#
#
# Indices 1 2 3 4 5 6 
#
# 1 0.017653 -0.006986 -0.003623 0.000000 -0.008595 0.000000
# 2 -0.006986 0.018690 -0.005093 0.000000 -0.006759 0.000000
# 3 -0.003623 -0.005093 0.011222 0.000000 0.006810 0.000000
# 4 0.000000 0.000000 0.000000 0.041278 0.000000 0.001753
# 5 -0.008595 -0.006759 0.006810 0.000000 0.066057 0.000000
# 6 0.000000 0.000000 0.000000 0.001753 0.000000 0.040614
#
#
# Mechanical properties :
#
#
# Convention : Reuss Voigt Hill
#
# Bulk Modulus (GPa) = 61.88092 67.64688 64.76390
# Shear Modulus (GPa) = 21.52351 24.27399 22.89875
#
# Velocity S-wave (km/s) = 3.42443 3.63665 3.53213
# Velocity P-wave (km/s) = 7.02497 7.38172 7.20556
#
# Compressibility (1/GPa) = 0.01616007
#
# Stress axis : x y z
#
# Youngs Moduli (GPa) = 56.64849 53.50505 89.11431
#
# Poissons Ratio (x) = 0.37377 0.32290
# Poissons Ratio (y) = 0.39573 0.45385
# Poissons Ratio (z) = 0.20526 0.27249
#
# Static dielectric constant tensor:
#      x y z
#    x 3.109310 0.000000 -0.064510 
#    y 0.000000 3.268240 0.000000 
#    z -0.064510 0.000000 3.888070 
# 
# 
# High freq. dielectric constant tensor:
#      x y z
#    x 1.693030 0.000000 0.008130 
#    y 0.000000 1.712700 0.000000 
#    z 0.008130 0.000000 1.723100 
# 
# From -- ./inp_files/249196.got.cif
#   From: 2010.06.25/outbox.cif.g09.slc.cpg/sg12_125_cif.got.tgz:249196.got - 2010.06.28 00:19:55.
