data_PCOD8088326
_publ_section_title
;
Structure prediction by ZEFSAII (Michael W. Deem and Ramdas Pophale) SiO2 
 PCOD8088326
Probable space group: C 2/M
;
_chemical_formula_sum "Si O2"
_cell_formula_units_Z 64
_cell_length_a 32.346418
_cell_length_b 9.110475
_cell_length_c 12.497823
_cell_angle_alpha 90.000000
_cell_angle_beta 76.509209
_cell_angle_gamma 90.000000
_cell_volume 3581.375456
_symmetry_space_group_name_H-M "C 2/M"
_symmetry_group_IT_number 12
_symmetry_cell_setting 'monoclinic'
loop_
_space_group_symop_operation_xyz
x,y,z
-x,y,-z
-x,-y,-z
x,-y,z
1/2+x,1/2+y,z
1/2-x,1/2+y,-z
1/2-x,1/2-y,-z
1/2+x,1/2-y,z
loop_
_atom_site_type_symbol
_atom_site_label
_atom_site_fract_x
_atom_site_fract_y
_atom_site_fract_z
Si Si1 0.588131 0.171183 0.348325
Si Si2 0.742174 0.670722 0.192646
Si Si3 0.335129 0.830414 0.849087
Si Si4 0.139796 0.167273 0.725631
Si Si5 0.838467 0.332776 0.085366
Si Si6 0.761951 0.832715 0.386808
Si Si7 0.494795 0.664967 0.629386
Si Si8 0.078794 0.672913 0.599999
O O1 0.630927 0.216926 0.261140
O O2 0.549711 0.258299 0.315306
O O3 0.592964 0.212791 0.470404
O O4 0.578081 0.000000 0.340866
O O5 0.734645 0.500000 0.218147
O O6 0.706623 0.730815 0.133843
O O7 0.788260 0.702867 0.115274
O O8 0.736305 0.756069 0.307244
O O9 0.321748 0.000000 0.843559
O O10 0.355224 0.805019 0.954898
O O11 0.135604 0.229694 0.848711
O O12 0.188094 0.179676 0.660349
O O13 0.113200 0.263369 0.659611
O O14 0.123510 0.000000 0.734341
O O15 0.846166 0.500000 0.117303
O O16 0.750000 0.750000 0.500000
O O17 0.746542 0.000000 0.403468
O O18 0.500000 0.663842 0.500000
O O19 0.495144 0.500000 0.675783
O O20 0.533416 0.756359 0.657053
O O21 0.075216 0.500000 0.618371
#
# Coordination Sequence:
#
# PCOD8088326 Si02
#       8
#     8   8   8   8   8   8   8   8
#     4   9  19  33  50  77 107 135 166 203 254 309
#     4  10  20  33  50  74 100 135 178 217 257 304
#     4  10  20  34  53  77 104 136 173 217 260 303
#     4  10  21  35  52  75 101 132 173 216 256 302
#     4   9  19  36  54  72 100 137 178 217 258 305
#     4  10  21  35  50  70 101 138 171 212 260 307
#     4   9  17  31  51  75 104 136 166 203 250 300
#     4  10  19  32  53  78 105 137 170 204 247 308
#
# _framework density 17.870228999999998
#
# number of rings (size 3 to 8) (size 9 to 14) (size 15 to 20)
#    0.000    2.375    0.000    2.250    1.750    5.000 
#    0.000    0.000    0.000    0.750    0.000    5.250 
#    0.000    0.000    0.000    0.000    0.000    0.000 
#
# Total GULP energy -396855.929140 kJ/mol
# GULP energy per Si atom -12401.747786 kJ/mol
# Density = 1.782956 g / cm^3
# Si number density = 17.870229 Si / 1000 Ang^3
#
#
#
# Elastic Constant Matrix: (Units=GPa)
#
#
# Indices 1 2 3 4 5 6 
#
# 1 58.3590 43.8758 36.5049 0.0000 5.0262 0.0000
# 2 43.8758 106.6209 44.6313 0.0000 7.8824 0.0000
# 3 36.5049 44.6313 85.4118 0.0000 11.5383 0.0000
# 4 0.0000 0.0000 0.0000 25.6976 0.0000 6.8374
# 5 5.0262 7.8824 11.5383 0.0000 15.0112 0.0000
# 6 0.0000 0.0000 0.0000 6.8374 0.0000 34.5610
#
#
#
# Elastic Compliance Matrix: (Units=1/GPa)
#
#
# Indices 1 2 3 4 5 6 
#
# 1 0.028283 -0.008442 -0.007807 0.000000 0.000964 0.000000
# 2 -0.008442 0.014562 -0.003738 0.000000 -0.001946 0.000000
# 3 -0.007807 -0.003738 0.018278 0.000000 -0.009472 0.000000
# 4 0.000000 0.000000 0.000000 0.041076 0.000000 -0.008126
# 5 0.000964 -0.001946 -0.009472 0.000000 0.074597 0.000000
# 6 0.000000 0.000000 0.000000 -0.008126 0.000000 0.030542
#
#
# Mechanical properties :
#
#
# Convention : Reuss Voigt Hill
#
# Bulk Modulus (GPa) = 47.28569 55.60172 51.44371
# Shear Modulus (GPa) = 19.65717 23.41261 21.53489
#
# Velocity S-wave (km/s) = 3.32022 3.62352 3.47518
# Velocity P-wave (km/s) = 6.42001 6.97770 6.70465
#
# Compressibility (1/GPa) = 0.02114805
#
# Stress axis : x y z
#
# Youngs Moduli (GPa) = 35.35752 68.67370 54.71207
#
# Poissons Ratio (x) = 0.57974 0.42713
# Poissons Ratio (y) = 0.29849 0.20452
# Poissons Ratio (z) = 0.27603 0.25671
#
# Static dielectric constant tensor:
#      x y z
#    x 3.214000 0.000000 0.026740 
#    y 0.000000 3.473520 0.000000 
#    z 0.026740 0.000000 3.491020 
# 
# 
# High freq. dielectric constant tensor:
#      x y z
#    x 1.676710 0.000000 0.007560 
#    y 0.000000 1.702900 0.000000 
#    z 0.007560 0.000000 1.677680 
# 
# From -- ./inp_files/187508.got.cif
#   From: 2010.06.25/outbox.cif.g09.slc.cpg/sg12_94_cif.got.tgz:187508.got - 2010.06.28 00:19:55.
