data_PCOD8088106
_publ_section_title
;
Structure prediction by ZEFSAII (Michael W. Deem and Ramdas Pophale) SiO2 
 PCOD8088106
Probable space group: C 2/M
;
_chemical_formula_sum "Si O2"
_cell_formula_units_Z 64
_cell_length_a 16.899077
_cell_length_b 17.663465
_cell_length_c 16.528926
_cell_angle_alpha 90.000000
_cell_angle_beta 138.913024
_cell_angle_gamma 90.000000
_cell_volume 3242.527570
_symmetry_space_group_name_H-M "C 2/M"
_symmetry_group_IT_number 12
_symmetry_cell_setting 'monoclinic'
loop_
_space_group_symop_operation_xyz
x,y,z
-x,y,-z
-x,-y,-z
x,-y,z
1/2+x,1/2+y,z
1/2-x,1/2+y,-z
1/2-x,1/2-y,-z
1/2+x,1/2-y,z
loop_
_atom_site_type_symbol
_atom_site_label
_atom_site_fract_x
_atom_site_fract_y
_atom_site_fract_z
Si Si1 0.028172 0.913230 0.857600
Si Si2 0.773469 0.412658 0.129951
Si Si3 0.377908 0.652653 0.864239
Si Si4 0.647463 0.087754 0.220773
Si Si5 0.903591 0.084360 0.495538
Si Si6 0.959478 0.821536 0.277255
Si Si7 0.051559 0.680940 0.841400
Si Si8 0.810335 0.692845 0.885936
O O1 0.051677 0.899633 0.781282
O O2 0.909410 0.865205 0.794883
O O3 0.003239 0.000000 0.857349
O O4 0.151967 0.884732 0.993186
O O5 0.803522 0.500000 0.141734
O O6 0.743911 0.391400 0.200933
O O7 0.883303 0.366458 0.178472
O O8 0.363156 0.741431 0.869440
O O9 0.500000 0.619613 0.000000
O O10 0.776542 0.103563 0.358320
O O11 0.556935 0.131927 0.208750
O O12 0.646438 0.116737 0.126481
O O13 0.611800 0.000000 0.190817
O O14 0.000000 0.080407 0.500000
O O15 0.937158 0.155957 0.578882
O O16 0.898862 0.000000 0.533694
O O17 0.996246 0.756013 0.241288
O O18 0.833977 0.801302 0.223630
O O19 0.140567 0.699871 0.984803
#
# Coordination Sequence:
#
# PCOD8088106 Si02
#       8
#     8   8   8   8   8   8   8   8
#     4  10  20  33  53  82 112 149 200 244 285 345
#     4  10  19  32  52  78 117 159 190 232 289 355
#     4  10  19  34  51  77 115 156 195 232 286 348
#     4  11  25  42  63  89 120 164 210 254 304 359
#     4  10  22  43  65  87 117 156 210 265 302 346
#     4  12  22  37  63  88 119 162 202 245 306 359
#     4  12  23  38  56  90 130 158 195 242 304 382
#     4  12  22  37  60  88 126 163 194 241 307 374
#
# _framework density 19.737689
#
# number of rings (size 3 to 8) (size 9 to 14) (size 15 to 20)
#    0.000    1.125    3.750    4.875    0.000    4.000 
#    0.000    0.000    0.000    0.000    0.000    0.000 
#    0.000    6.000    0.000    0.000    0.000    0.000 
#
# Total GULP energy -396553.098673 kJ/mol
# GULP energy per Si atom -12392.284334 kJ/mol
# Density = 1.969277 g / cm^3
# Si number density = 19.737689 Si / 1000 Ang^3
#
#
#
# Elastic Constant Matrix: (Units=GPa)
#
#
# Indices 1 2 3 4 5 6 
#
# 1 101.5009 43.4304 10.4294 0.0000 4.4704 0.0000
# 2 43.4304 98.5200 33.4155 0.0000 -5.2217 0.0000
# 3 10.4294 33.4155 51.1068 0.0000 -4.1040 0.0000
# 4 0.0000 0.0000 0.0000 30.2111 0.0000 -6.0367
# 5 4.4704 -5.2217 -4.1040 0.0000 19.3774 0.0000
# 6 0.0000 0.0000 0.0000 -6.0367 0.0000 44.0280
#
#
#
# Elastic Compliance Matrix: (Units=1/GPa)
#
#
# Indices 1 2 3 4 5 6 
#
# 1 0.012555 -0.006138 0.001105 0.000000 -0.004317 0.000000
# 2 -0.006138 0.016101 -0.008965 0.000000 0.003856 0.000000
# 3 0.001105 -0.008965 0.025421 0.000000 0.002713 0.000000
# 4 0.000000 0.000000 0.000000 0.034033 0.000000 0.004666
# 5 -0.004317 0.003856 0.002713 0.000000 0.054216 0.000000
# 6 0.000000 0.000000 0.000000 0.004666 0.000000 0.023353
#
#
# Mechanical properties :
#
#
# Convention : Reuss Voigt Hill
#
# Bulk Modulus (GPa) = 38.34378 47.29756 42.82067
# Shear Modulus (GPa) = 24.70722 29.64681 27.17701
#
# Velocity S-wave (km/s) = 3.54189 3.87982 3.71470
# Velocity P-wave (km/s) = 6.01627 6.63971 6.33566
#
# Compressibility (1/GPa) = 0.02607985
#
# Stress axis : x y z
#
# Youngs Moduli (GPa) = 79.64876 62.10699 39.33726
#
# Poissons Ratio (x) = 0.38122 -0.04345
# Poissons Ratio (y) = 0.48889 0.35267
# Poissons Ratio (z) = -0.08797 0.55681
#
# Static dielectric constant tensor:
#      x y z
#    x 3.989630 0.000000 -0.004800 
#    y 0.000000 3.686650 0.000000 
#    z -0.004800 0.000000 3.468900 
# 
# 
# High freq. dielectric constant tensor:
#      x y z
#    x 1.793240 0.000000 -0.004150 
#    y 0.000000 1.780280 0.000000 
#    z -0.004150 0.000000 1.713740 
# 
# From -- ./inp_files/216854.got.cif
#   From: 2010.06.25/outbox.cif.g09.slc.cpg/sg12_109_cif.got.tgz:216854.got - 2010.06.28 00:19:55.
