data_PCOD8088811
_publ_section_title
;
Structure prediction by ZEFSAII (Michael W. Deem and Ramdas Pophale) SiO2 
 PCOD8088811
Probable space group: C 2/M
;
_chemical_formula_sum "Si O2"
_cell_formula_units_Z 56
_cell_length_a 25.327000
_cell_length_b 14.045294
_cell_length_c 10.168465
_cell_angle_alpha 90.000000
_cell_angle_beta 51.795635
_cell_angle_gamma 90.000000
_cell_volume 2842.414511
_symmetry_space_group_name_H-M "C 2/M"
_symmetry_group_IT_number 12
_symmetry_cell_setting 'monoclinic'
loop_
_space_group_symop_operation_xyz
x,y,z
-x,y,-z
-x,-y,-z
x,-y,z
1/2+x,1/2+y,z
1/2-x,1/2+y,-z
1/2-x,1/2-y,-z
1/2+x,1/2-y,z
loop_
_atom_site_type_symbol
_atom_site_label
_atom_site_fract_x
_atom_site_fract_y
_atom_site_fract_z
Si Si1 0.344522 0.186888 0.111381
Si Si2 0.698630 0.103394 0.087740
Si Si3 0.528780 0.606417 0.311302
Si Si4 0.383485 0.887731 0.327234
Si Si5 0.506753 0.748801 0.134128
Si Si6 0.701137 0.227907 0.331040
Si Si7 0.341728 0.393514 0.758226
O O1 0.353251 0.122997 0.228369
O O2 0.281880 0.260939 0.227815
O O3 0.333213 0.119149 0.005418
O O4 0.414406 0.235928 0.969797
O O5 0.679983 0.179298 0.226293
O O6 0.674908 0.000000 0.174910
O O7 0.777693 0.107401 0.949102
O O8 0.500000 0.610140 0.500000
O O9 0.527230 0.500000 0.254465
O O10 0.486563 0.673318 0.277506
O O11 0.604058 0.644623 0.220056
O O12 0.458517 0.841940 0.221604
O O13 0.331638 0.831533 0.500911
O O14 0.387965 0.000000 0.356783
O O15 0.500000 0.703110 0.000000
O O16 0.667786 0.332203 0.361628
O O17 0.360844 0.500000 0.679469
#
# Coordination Sequence:
#
# PCOD8088811 Si02
#       7
#     8   8   8   8   8   8   8
#     4  10  21  38  59  81 111 154 198 236 278 339
#     4  10  19  32  55  83 111 145 187 234 284 339
#     4  10  19  33  55  81 110 145 185 233 290 346
#     4  11  24  40  58  83 119 156 191 236 289 342
#     4  10  22  38  57  81 113 156 198 237 281 335
#     4  11  20  36  59  86 116 144 187 244 293 336
#     4   9  18  32  53  81 109 142 185 234 288 343
#
# _framework density 19.701561000000002
#
# number of rings (size 3 to 8) (size 9 to 14) (size 15 to 20)
#    0.000    1.857    0.000    5.571    0.000    4.000 
#    0.000    0.714    0.000    9.000    0.000    0.000 
#    0.000    0.000    0.000    0.000    0.000    0.000 
#
# Total GULP energy -346908.016699 kJ/mol
# GULP energy per Si atom -12389.572025 kJ/mol
# Density = 1.965672 g / cm^3
# Si number density = 19.701561 Si / 1000 Ang^3
#
#
#
# Elastic Constant Matrix: (Units=GPa)
#
#
# Indices 1 2 3 4 5 6 
#
# 1 108.6554 58.5311 47.5867 0.0000 0.6564 0.0000
# 2 58.5311 97.7545 33.8566 0.0000 5.0149 0.0000
# 3 47.5867 33.8566 72.6260 0.0000 1.5843 0.0000
# 4 0.0000 0.0000 0.0000 26.0804 0.0000 6.8153
# 5 0.6564 5.0149 1.5843 0.0000 24.9452 0.0000
# 6 0.0000 0.0000 0.0000 6.8153 0.0000 23.6490
#
#
#
# Elastic Compliance Matrix: (Units=1/GPa)
#
#
# Indices 1 2 3 4 5 6 
#
# 1 0.016354 -0.007330 -0.007331 0.000000 0.001509 0.000000
# 2 -0.007330 0.015595 -0.002406 0.000000 -0.002789 0.000000
# 3 -0.007331 -0.002406 0.019707 0.000000 -0.000575 0.000000
# 4 0.000000 0.000000 0.000000 0.041466 0.000000 -0.011950
# 5 0.001509 -0.002789 -0.000575 0.000000 0.040645 0.000000
# 6 0.000000 0.000000 0.000000 -0.011950 0.000000 0.045729
#
#
# Mechanical properties :
#
#
# Convention : Reuss Voigt Hill
#
# Bulk Modulus (GPa) = 57.07558 62.10941 59.59250
# Shear Modulus (GPa) = 22.78197 24.20569 23.49383
#
# Velocity S-wave (km/s) = 3.40421 3.50897 3.45698
# Velocity P-wave (km/s) = 6.66967 6.92897 6.80056
#
# Compressibility (1/GPa) = 0.01752063
#
# Stress axis : x y z
#
# Youngs Moduli (GPa) = 61.14817 64.12218 50.74308
#
# Poissons Ratio (x) = 0.47003 0.37201
# Poissons Ratio (y) = 0.44823 0.12211
# Poissons Ratio (z) = 0.44829 0.15430
#
# Static dielectric constant tensor:
#      x y z
#    x 3.341590 0.000000 0.167260 
#    y 0.000000 3.753360 0.000000 
#    z 0.167260 0.000000 3.478960 
# 
# 
# High freq. dielectric constant tensor:
#      x y z
#    x 1.778890 0.000000 -0.002700 
#    y 0.000000 1.762200 0.000000 
#    z -0.002700 0.000000 1.762150 
# 
# From -- ./inp_files/104435.got.cif
#   From: 2010.06.25/outbox.cif.g09.slc.cpg/sg12_53_cif.got.tgz:104435.got - 2010.06.28 00:19:55.
