data_PCOD8088505
_publ_section_title
;
Structure prediction by ZEFSAII (Michael W. Deem and Ramdas Pophale) SiO2 
 PCOD8088505
Probable space group: C 2/M
;
_chemical_formula_sum "Si O2"
_cell_formula_units_Z 52
_cell_length_a 32.115037
_cell_length_b 7.893491
_cell_length_c 10.883326
_cell_angle_alpha 90.000000
_cell_angle_beta 84.487942
_cell_angle_gamma 90.000000
_cell_volume 2746.163247
_symmetry_space_group_name_H-M "C 2/M"
_symmetry_group_IT_number 12
_symmetry_cell_setting 'monoclinic'
loop_
_space_group_symop_operation_xyz
x,y,z
-x,y,-z
-x,-y,-z
x,-y,z
1/2+x,1/2+y,z
1/2-x,1/2+y,-z
1/2-x,1/2-y,-z
1/2+x,1/2-y,z
loop_
_atom_site_type_symbol
_atom_site_label
_atom_site_fract_x
_atom_site_fract_y
_atom_site_fract_z
Si Si1 0.949448 0.000000 0.512304
Si Si2 0.095216 0.311304 0.074178
Si Si3 0.548173 0.500000 0.997250
Si Si4 0.403956 0.500000 0.265755
Si Si5 0.355966 0.189069 0.179906
Si Si6 0.885313 0.812940 0.673084
Si Si7 0.194104 0.696661 0.442437
Si Si8 0.777967 0.809763 0.309288
O O1 0.930138 0.834139 0.588399
O O2 0.000000 0.000000 0.500000
O O3 0.932130 0.000000 0.378931
O O4 0.076453 0.500000 0.058477
O O5 0.060208 0.168290 0.068931
O O6 0.112148 0.303083 0.207584
O O7 0.132103 0.275385 0.965379
O O8 0.500000 0.500000 0.000000
O O9 0.564982 0.500000 0.856186
O O10 0.376041 0.329253 0.265433
O O11 0.305488 0.198501 0.206546
O O12 0.370996 0.000000 0.214709
O O13 0.852213 0.726129 0.593234
O O14 0.868902 0.000000 0.715714
O O15 0.200688 0.500000 0.473412
O O16 0.200391 0.804385 0.563043
O O17 0.229755 0.753182 0.333006
O O18 0.779325 0.000000 0.258744
#
# Coordination Sequence:
#
# PCOD8088505 Si02
#       8
#     4   8   4   4   8   8   8   8
#     4  10  23  38  61  86 112 157 198 241 302 363
#     4  10  21  39  60  87 116 155 200 244 294 357
#     4  10  21  36  63  92 112 149 194 245 310 349
#     4  10  20  36  62  82 122 150 188 246 293 360
#     4  10  20  35  59  87 116 156 196 238 299 345
#     4  10  21  36  60  79 114 154 199 233 298 357
#     4  10  20  33  53  84 116 159 200 243 297 348
#     4  10  19  32  53  82 122 154 197 252 292 342
#
# _framework density 18.935510000000001
#
# number of rings (size 3 to 8) (size 9 to 14) (size 15 to 20)
#    0.462    1.538    1.538    2.308    2.154    2.154 
#    0.000    1.538    0.000    2.308    0.000    0.000 
#    0.000    0.000    0.000    0.000    0.000    0.000 
#
# Total GULP energy -322206.311615 kJ/mol
# GULP energy per Si atom -12392.550447 kJ/mol
# Density = 1.889241 g / cm^3
# Si number density = 18.935510 Si / 1000 Ang^3
#
#
#
# Elastic Constant Matrix: (Units=GPa)
#
#
# Indices 1 2 3 4 5 6 
#
# 1 123.1716 27.3052 36.0990 0.0000 -12.6646 0.0000
# 2 27.3052 99.7999 19.1418 0.0000 -3.2604 0.0000
# 3 36.0990 19.1418 70.3144 0.0000 3.6652 0.0000
# 4 0.0000 0.0000 0.0000 23.1876 0.0000 -2.0141
# 5 -12.6646 -3.2604 3.6652 0.0000 18.7073 0.0000
# 6 0.0000 0.0000 0.0000 -2.0141 0.0000 19.2921
#
#
#
# Elastic Compliance Matrix: (Units=1/GPa)
#
#
# Indices 1 2 3 4 5 6 
#
# 1 0.010980 -0.001658 -0.005615 0.000000 0.008244 0.000000
# 2 -0.001658 0.010933 -0.002188 0.000000 0.001212 0.000000
# 3 -0.005615 -0.002188 0.018103 0.000000 -0.007730 0.000000
# 4 0.000000 0.000000 0.000000 0.043521 0.000000 0.004544
# 5 0.008244 0.001212 -0.007730 0.000000 0.060762 0.000000
# 6 0.000000 0.000000 0.000000 0.004544 0.000000 0.052309
#
#
# Mechanical properties :
#
#
# Convention : Reuss Voigt Hill
#
# Bulk Modulus (GPa) = 47.40888 50.93087 49.16987
# Shear Modulus (GPa) = 22.46563 26.28673 24.37618
#
# Velocity S-wave (km/s) = 3.44819 3.72993 3.59183
# Velocity P-wave (km/s) = 6.39881 6.74576 6.57457
#
# Compressibility (1/GPa) = 0.02109310
#
# Stress axis : x y z
#
# Youngs Moduli (GPa) = 91.07744 91.46680 55.23817
#
# Poissons Ratio (x) = 0.15162 0.31018
# Poissons Ratio (y) = 0.15098 0.12088
# Poissons Ratio (z) = 0.51143 0.20017
#
# Static dielectric constant tensor:
#      x y z
#    x 3.620920 0.000000 -0.522490 
#    y 0.000000 3.532430 0.000000 
#    z -0.522490 0.000000 3.657420 
# 
# 
# High freq. dielectric constant tensor:
#      x y z
#    x 1.717950 0.000000 -0.021190 
#    y 0.000000 1.741460 0.000000 
#    z -0.021190 0.000000 1.726060 
# 
# From -- ./inp_files/185876.got.cif
#   From: 2010.06.25/outbox.cif.g09.slc.cpg/sg12_93_cif.got.tgz:185876.got - 2010.06.28 00:19:55.
