data_PCOD8088065
_publ_section_title
;
Structure prediction by ZEFSAII (Michael W. Deem and Ramdas Pophale) SiO2 
 PCOD8088065
Probable space group: C 2/M
;
_chemical_formula_sum "Si O2"
_cell_formula_units_Z 56
_cell_length_a 17.983277
_cell_length_b 9.057800
_cell_length_c 22.602208
_cell_angle_alpha 90.000000
_cell_angle_beta 126.992045
_cell_angle_gamma 90.000000
_cell_volume 2940.603541
_symmetry_space_group_name_H-M "C 2/M"
_symmetry_group_IT_number 12
_symmetry_cell_setting 'monoclinic'
loop_
_space_group_symop_operation_xyz
x,y,z
-x,y,-z
-x,-y,-z
x,-y,z
1/2+x,1/2+y,z
1/2-x,1/2+y,-z
1/2-x,1/2-y,-z
1/2+x,1/2-y,z
loop_
_atom_site_type_symbol
_atom_site_label
_atom_site_fract_x
_atom_site_fract_y
_atom_site_fract_z
Si Si1 0.471514 0.171731 0.854000
Si Si2 0.587852 0.666334 0.999288
Si Si3 0.596059 0.175201 0.571874
Si Si4 0.236539 0.174754 0.431009
Si Si5 0.699763 0.173462 0.146134
Si Si6 0.439548 0.169427 0.704237
Si Si7 0.875820 0.329334 0.282019
O O1 0.558747 0.258855 0.923566
O O2 0.374640 0.216453 0.838862
O O3 0.466122 0.216374 0.783158
O O4 0.492076 0.000000 0.872992
O O5 0.621093 0.500000 0.002806
O O6 0.500000 0.671515 0.000000
O O7 0.671980 0.754702 0.070072
O O8 0.500000 0.241716 0.500000
O O9 0.680407 0.229593 0.571458
O O10 0.612498 0.233401 0.646096
O O11 0.589326 0.000000 0.569902
O O12 0.250000 0.250000 0.500000
O O13 0.140248 0.222590 0.356004
O O14 0.238266 0.000000 0.440166
O O15 0.799351 0.233975 0.212214
O O16 0.705904 0.000000 0.139725
O O17 0.527142 0.192147 0.704276
O O18 0.404538 0.000000 0.685523
O O19 0.844391 0.500000 0.267001
#
# Coordination Sequence:
#
# PCOD8088065 Si02
#       7
#     8   8   8   8   8   8   8
#     4   9  18  33  53  78 107 138 172 214 268 319
#     4   9  17  30  51  78 105 135 176 221 261 309
#     4   9  18  34  56  80 105 136 174 213 255 305
#     4  11  22  36  57  82 108 139 175 216 260 308
#     4  10  19  32  52  77 107 139 172 216 267 316
#     4  10  21  37  56  78 107 141 175 215 262 312
#     4  10  20  35  55  77 104 139 178 217 257 308
#
# _framework density 19.043710999999998
#
# number of rings (size 3 to 8) (size 9 to 14) (size 15 to 20)
#    0.000    2.286    0.000    3.000    0.000    5.714 
#    0.000    1.429    0.000    3.000    0.000    0.000 
#    0.000    0.000    0.000    0.000    0.000    0.000 
#
# Total GULP energy -347286.684782 kJ/mol
# GULP energy per Si atom -12403.095885 kJ/mol
# Density = 1.900037 g / cm^3
# Si number density = 19.043711 Si / 1000 Ang^3
#
#
#
# Elastic Constant Matrix: (Units=GPa)
#
#
# Indices 1 2 3 4 5 6 
#
# 1 91.6781 39.8246 63.6175 0.0000 -9.4289 0.0000
# 2 39.8246 80.0247 63.1902 0.0000 0.7211 0.0000
# 3 63.6175 63.1902 166.5827 0.0000 -3.8580 0.0000
# 4 0.0000 0.0000 0.0000 38.3753 0.0000 1.5936
# 5 -9.4289 0.7211 -3.8580 0.0000 31.9617 0.0000
# 6 0.0000 0.0000 0.0000 1.5936 0.0000 20.5383
#
#
#
# Elastic Compliance Matrix: (Units=1/GPa)
#
#
# Indices 1 2 3 4 5 6 
#
# 1 0.016480 -0.004787 -0.004375 0.000000 0.004442 0.000000
# 2 -0.004787 0.019278 -0.005543 0.000000 -0.002516 0.000000
# 3 -0.004375 -0.005543 0.009777 0.000000 0.000015 0.000000
# 4 0.000000 0.000000 0.000000 0.026143 0.000000 -0.002028
# 5 0.004442 -0.002516 0.000015 0.000000 0.032656 0.000000
# 6 0.000000 0.000000 0.000000 -0.002028 0.000000 0.048847
#
#
# Mechanical properties :
#
#
# Convention : Reuss Voigt Hill
#
# Bulk Modulus (GPa) = 62.01468 74.61665 68.31566
# Shear Modulus (GPa) = 26.60082 29.61861 28.10972
#
# Velocity S-wave (km/s) = 3.74147 3.94800 3.84612
# Velocity P-wave (km/s) = 7.16240 7.74914 7.46154
#
# Compressibility (1/GPa) = 0.01612521
#
# Stress axis : x y z
#
# Youngs Moduli (GPa) = 60.68069 51.87316 102.28307
#
# Poissons Ratio (x) = 0.24829 0.44749
# Poissons Ratio (y) = 0.29045 0.56695
# Poissons Ratio (z) = 0.26548 0.28753
#
# Static dielectric constant tensor:
#      x y z
#    x 3.404930 0.000000 -0.098010 
#    y 0.000000 3.469550 0.000000 
#    z -0.098010 0.000000 3.844940 
# 
# 
# High freq. dielectric constant tensor:
#      x y z
#    x 1.728460 0.000000 -0.004150 
#    y 0.000000 1.727460 0.000000 
#    z -0.004150 0.000000 1.758110 
# 
# From -- ./inp_files/342567.got.cif
#   From: 2010.06.25/outbox.cif.g09.slc.cpg/sg12_172_cif.got.tgz:342567.got - 2010.06.28 00:19:55.
