data_PCOD8088129
_publ_section_title
;
Structure prediction by ZEFSAII (Michael W. Deem and Ramdas Pophale) SiO2 
 PCOD8088129
Probable space group: C 2/M
;
_chemical_formula_sum "Si O2"
_cell_formula_units_Z 64
_cell_length_a 25.414441
_cell_length_b 9.079354
_cell_length_c 14.358822
_cell_angle_alpha 90.000000
_cell_angle_beta 94.992527
_cell_angle_gamma 90.000000
_cell_volume 3300.680602
_symmetry_space_group_name_H-M "C 2/M"
_symmetry_group_IT_number 12
_symmetry_cell_setting 'monoclinic'
loop_
_space_group_symop_operation_xyz
x,y,z
-x,y,-z
-x,-y,-z
x,-y,z
1/2+x,1/2+y,z
1/2-x,1/2+y,-z
1/2-x,1/2-y,-z
1/2+x,1/2-y,z
loop_
_atom_site_type_symbol
_atom_site_label
_atom_site_fract_x
_atom_site_fract_y
_atom_site_fract_z
Si Si1 0.861551 0.668165 0.872981
Si Si2 0.984404 0.675020 0.599310
Si Si3 0.125446 0.668960 0.334416
Si Si4 0.732640 0.323524 0.402720
Si Si5 0.184529 0.667340 0.732970
Si Si6 0.554068 0.175463 0.965311
Si Si7 0.239159 0.166909 0.091989
Si Si8 0.570571 0.823577 0.758288
O O1 0.846105 0.500000 0.892963
O O2 0.889882 0.680164 0.777087
O O3 0.808655 0.762640 0.858453
O O4 0.898935 0.731181 0.960266
O O5 0.987786 0.500000 0.600275
O O6 0.024884 0.736703 0.683227
O O7 0.000000 0.737598 0.500000
O O8 0.925137 0.725564 0.615220
O O9 0.139385 0.500000 0.362661
O O10 0.174258 0.772233 0.366679
O O11 0.732610 0.500000 0.408739
O O12 0.750000 0.250000 0.500000
O O13 0.774983 0.260468 0.334207
O O14 0.177659 0.500000 0.699860
O O15 0.207859 0.677969 0.839916
O O16 0.126286 0.740027 0.727173
O O17 0.561441 0.236619 0.861696
O O18 0.552667 0.000000 0.965155
O O19 0.500000 0.238636 0.000000
O O20 0.224251 0.000000 0.067115
O O21 0.250000 0.250000 0.000000
O O22 0.571980 0.000000 0.761382
#
# Coordination Sequence:
#
# PCOD8088129 Si02
#       8
#     8   8   8   8   8   8   8   8
#     4  10  19  32  52  79 110 143 183 230 279 330
#     4   9  18  30  49  79 111 142 181 232 285 331
#     4  10  20  35  56  84 114 143 182 231 282 339
#     4  11  23  39  59  84 111 147 190 233 283 336
#     4   9  19  34  53  78 111 145 183 226 277 336
#     4   9  16  27  47  75 108 143 180 226 277 324
#     4  11  21  35  53  79 111 147 189 228 276 336
#     4   9  16  28  46  72 106 142 180 225 274 324
#
# _framework density 19.389939999999999
#
# number of rings (size 3 to 8) (size 9 to 14) (size 15 to 20)
#    0.000    2.250    1.250    2.250    1.750    5.000 
#    0.000    0.000    0.000    0.750    0.000    2.625 
#    0.000    0.000    0.000    0.000    0.000    0.000 
#
# Total GULP energy -396740.784725 kJ/mol
# GULP energy per Si atom -12398.149523 kJ/mol
# Density = 1.934581 g / cm^3
# Si number density = 19.389940 Si / 1000 Ang^3
#
#
#
# Elastic Constant Matrix: (Units=GPa)
#
#
# Indices 1 2 3 4 5 6 
#
# 1 156.3003 27.5485 69.3414 0.0000 -11.3638 0.0000
# 2 27.5485 45.5511 26.4366 0.0000 -1.0981 0.0000
# 3 69.3414 26.4366 144.4067 0.0000 -6.7738 0.0000
# 4 0.0000 0.0000 0.0000 18.1775 0.0000 1.5594
# 5 -11.3638 -1.0981 -6.7738 0.0000 39.0656 0.0000
# 6 0.0000 0.0000 0.0000 1.5594 0.0000 21.2337
#
#
#
# Elastic Compliance Matrix: (Units=1/GPa)
#
#
# Indices 1 2 3 4 5 6 
#
# 1 0.008631 -0.003155 -0.003481 0.000000 0.001818 0.000000
# 2 -0.003155 0.025717 -0.003228 0.000000 -0.000755 0.000000
# 3 -0.003481 -0.003228 0.009211 0.000000 0.000494 0.000000
# 4 0.000000 0.000000 0.000000 0.055362 0.000000 -0.004066
# 5 0.001818 -0.000755 0.000494 0.000000 0.026191 0.000000
# 6 0.000000 0.000000 0.000000 -0.004066 0.000000 0.047393
#
#
# Mechanical properties :
#
#
# Convention : Reuss Voigt Hill
#
# Bulk Modulus (GPa) = 41.96661 65.87901 53.92281
# Shear Modulus (GPa) = 24.97777 30.55748 27.76763
#
# Velocity S-wave (km/s) = 3.59302 3.97412 3.78837
# Velocity P-wave (km/s) = 6.23727 7.42347 6.85607
#
# Compressibility (1/GPa) = 0.02382847
#
# Stress axis : x y z
#
# Youngs Moduli (GPa) = 115.86441 38.88465 108.56891
#
# Poissons Ratio (x) = 0.12270 0.37797
# Poissons Ratio (y) = 0.36560 0.35049
# Poissons Ratio (z) = 0.40337 0.12553
#
# Static dielectric constant tensor:
#      x y z
#    x 3.501340 0.000000 0.027340 
#    y 0.000000 3.111560 0.000000 
#    z 0.027340 0.000000 3.606640 
# 
# 
# High freq. dielectric constant tensor:
#      x y z
#    x 1.768760 0.000000 -0.003900 
#    y 0.000000 1.691130 0.000000 
#    z -0.003900 0.000000 1.770320 
# 
# From -- ./inp_files/238630.got.cif
#   From: 2010.06.25/outbox.cif.g09.slc.cpg/sg12_120_cif.got.tgz:238630.got - 2010.06.28 00:19:55.
