data_PCOD8088683
_publ_section_title
;
Structure prediction by ZEFSAII (Michael W. Deem and Ramdas Pophale) SiO2 
 PCOD8088683
Probable space group: C 2/M
;
_chemical_formula_sum "Si O2"
_cell_formula_units_Z 56
_cell_length_a 24.791466
_cell_length_b 8.780875
_cell_length_c 14.989226
_cell_angle_alpha 90.000000
_cell_angle_beta 74.186102
_cell_angle_gamma 90.000000
_cell_volume 3139.517165
_symmetry_space_group_name_H-M "C 2/M"
_symmetry_group_IT_number 12
_symmetry_cell_setting 'monoclinic'
loop_
_space_group_symop_operation_xyz
x,y,z
-x,y,-z
-x,-y,-z
x,-y,z
1/2+x,1/2+y,z
1/2-x,1/2+y,-z
1/2-x,1/2-y,-z
1/2+x,1/2-y,z
loop_
_atom_site_type_symbol
_atom_site_label
_atom_site_fract_x
_atom_site_fract_y
_atom_site_fract_z
Si Si1 0.369426 0.321992 0.419216
Si Si2 0.297138 0.821161 0.094456
Si Si3 0.095981 0.179152 0.288610
Si Si4 0.179402 0.320770 0.390176
Si Si5 0.302747 0.676592 0.275361
Si Si6 0.674856 0.678532 0.093650
Si Si7 0.513364 0.177702 0.596353
O O1 0.362251 0.500000 0.444467
O O2 0.330982 0.224068 0.502931
O O3 0.348645 0.284449 0.329133
O O4 0.433813 0.275110 0.396814
O O5 0.320559 0.764122 0.178108
O O6 0.233190 0.762647 0.110530
O O7 0.300904 0.000000 0.090784
O O8 0.335558 0.757097 0.997049
O O9 0.135835 0.226952 0.351172
O O10 0.124503 0.223506 0.182029
O O11 0.038290 0.271343 0.318986
O O12 0.084315 0.000000 0.301251
O O13 0.168929 0.500000 0.381801
O O14 0.241812 0.270068 0.336518
O O15 0.301423 0.500000 0.252750
O O16 0.678002 0.500000 0.076580
O O17 0.500000 0.215553 0.500000
O O18 0.525842 0.000000 0.604432
#
# Coordination Sequence:
#
# PCOD8088683 Si02
#       7
#     8   8   8   8   8   8   8
#     4  11  23  38  56  78 107 148 190 224 267 323
#     4  10  19  32  54  82 110 144 181 219 268 324
#     4  11  21  35  57  82 110 144 182 224 270 321
#     4  11  21  34  53  80 113 147 179 221 272 319
#     4  10  22  37  54  79 113 149 182 221 271 325
#     4   9  19  34  52  80 112 142 178 221 270 322
#     4  11  23  38  56  80 108 142 184 229 277 318
#
# _framework density 17.837137999999999
#
# number of rings (size 3 to 8) (size 9 to 14) (size 15 to 20)
#    0.000    1.571    2.857    2.571    0.000    4.000 
#    0.000    0.000    0.000    0.857    0.000    6.000 
#    0.000    0.000    0.000    0.000    0.000    0.000 
#
# Total GULP energy -347333.470162 kJ/mol
# GULP energy per Si atom -12404.766791 kJ/mol
# Density = 1.779654 g / cm^3
# Si number density = 17.837138 Si / 1000 Ang^3
#
#
#
# Elastic Constant Matrix: (Units=GPa)
#
#
# Indices 1 2 3 4 5 6 
#
# 1 68.4178 15.5675 41.8206 0.0000 4.6347 0.0000
# 2 15.5675 33.7271 40.3976 0.0000 0.2656 0.0000
# 3 41.8206 40.3976 135.2850 0.0000 4.1331 0.0000
# 4 0.0000 0.0000 0.0000 31.6251 0.0000 0.6920
# 5 4.6347 0.2656 4.1331 0.0000 22.1691 0.0000
# 6 0.0000 0.0000 0.0000 0.6920 0.0000 24.9048
#
#
#
# Elastic Compliance Matrix: (Units=1/GPa)
#
#
# Indices 1 2 3 4 5 6 
#
# 1 0.018350 -0.002739 -0.004766 0.000000 -0.002915 0.000000
# 2 -0.002739 0.046659 -0.013162 0.000000 0.002467 0.000000
# 3 -0.004766 -0.013162 0.012833 0.000000 -0.001239 0.000000
# 4 0.000000 0.000000 0.000000 0.031640 0.000000 -0.000879
# 5 -0.002915 0.002467 -0.001239 0.000000 0.045918 0.000000
# 6 0.000000 0.000000 0.000000 -0.000879 0.000000 0.040177
#
#
# Mechanical properties :
#
#
# Convention : Reuss Voigt Hill
#
# Bulk Modulus (GPa) = 27.38976 48.11127 37.75051
# Shear Modulus (GPa) = 20.07393 25.04942 22.56168
#
# Velocity S-wave (km/s) = 3.35834 3.75152 3.56036
# Velocity P-wave (km/s) = 5.51604 6.76729 6.17345
#
# Compressibility (1/GPa) = 0.03650999
#
# Stress axis : x y z
#
# Youngs Moduli (GPa) = 54.49689 21.43201 77.92380
#
# Poissons Ratio (x) = 0.05869 0.37135
# Poissons Ratio (y) = 0.14925 1.02561
# Poissons Ratio (z) = 0.25971 0.28208
#
# Static dielectric constant tensor:
#      x y z
#    x 3.184180 0.000000 -0.069060 
#    y 0.000000 3.311850 0.000000 
#    z -0.069060 0.000000 3.410710 
# 
# 
# High freq. dielectric constant tensor:
#      x y z
#    x 1.667990 0.000000 -0.002180 
#    y 0.000000 1.700270 0.000000 
#    z -0.002180 0.000000 1.694290 
# 
# From -- ./inp_files/237358.got.cif
#   From: 2010.06.25/outbox.cif.g09.slc.cpg/sg12_119_cif.got.tgz:237358.got - 2010.06.28 00:19:55.
