data_PCOD8088825
_publ_section_title
;
Structure prediction by ZEFSAII (Michael W. Deem and Ramdas Pophale) SiO2 
 PCOD8088825
Probable space group: C 2/M
;
_chemical_formula_sum "Si O2"
_cell_formula_units_Z 64
_cell_length_a 15.489832
_cell_length_b 9.069617
_cell_length_c 28.089129
_cell_angle_alpha 90.000000
_cell_angle_beta 122.207447
_cell_angle_gamma 90.000000
_cell_volume 3338.934423
_symmetry_space_group_name_H-M "C 2/M"
_symmetry_group_IT_number 12
_symmetry_cell_setting 'monoclinic'
loop_
_space_group_symop_operation_xyz
x,y,z
-x,y,-z
-x,-y,-z
x,-y,z
1/2+x,1/2+y,z
1/2-x,1/2+y,-z
1/2-x,1/2-y,-z
1/2+x,1/2-y,z
loop_
_atom_site_type_symbol
_atom_site_label
_atom_site_fract_x
_atom_site_fract_y
_atom_site_fract_z
Si Si1 0.923171 0.325551 0.833348
Si Si2 0.657454 0.174678 0.568958
Si Si3 0.769701 0.167172 0.938270
Si Si4 0.407673 0.669677 0.063704
Si Si5 0.629698 0.824355 0.366433
Si Si6 0.256391 0.170013 0.176769
Si Si7 0.986368 0.325116 0.239321
Si Si8 0.546226 0.825618 0.441948
O O1 0.920911 0.500000 0.834835
O O2 0.808817 0.264226 0.805058
O O3 0.992038 0.264952 0.896765
O O4 0.967098 0.265232 0.796312
O O5 0.760208 0.258098 0.612685
O O6 0.569952 0.223957 0.580909
O O7 0.622133 0.226974 0.506040
O O8 0.675689 0.000000 0.575988
O O9 0.683259 0.280967 0.928365
O O10 0.793624 0.190490 0.889993
O O11 0.728847 0.000000 0.935033
O O12 0.873066 0.194024 0.998738
O O13 0.433339 0.500000 0.081582
O O14 0.553866 0.768338 0.303075
O O15 0.585443 0.761164 0.403294
O O16 0.638475 0.000000 0.369938
O O17 0.371269 0.233510 0.211325
O O18 0.254561 0.000000 0.192149
O O19 0.984699 0.500000 0.236875
O O20 0.547406 0.000000 0.440691
#
# Coordination Sequence:
#
# PCOD8088825 Si02
#       8
#     8   8   8   8   8   8   8   8
#     4  11  22  38  56  77 106 141 176 222 274 316
#     4   9  17  32  52  78 109 140 168 212 264 309
#     4   9  18  34  56  80 110 140 169 213 270 318
#     4  10  19  32  55  84 108 137 175 214 260 324
#     4  10  19  33  54  78 101 138 182 217 254 312
#     4  10  20  38  59  78 102 140 180 216 264 325
#     4   9  20  38  56  72 103 143 178 216 267 314
#     4   8  16  31  52  76 108 142 173 205 258 320
#
# _framework density 19.16779
#
# number of rings (size 3 to 8) (size 9 to 14) (size 15 to 20)
#    0.000    2.500    1.250    1.875    0.000    2.500 
#    0.000    7.500    0.000    0.000    0.000    0.000 
#    0.000    0.000    0.000    0.000    0.000    0.000 
#
# Total GULP energy -396782.837182 kJ/mol
# GULP energy per Si atom -12399.463662 kJ/mol
# Density = 1.912416 g / cm^3
# Si number density = 19.167790 Si / 1000 Ang^3
#
#
#
# Elastic Constant Matrix: (Units=GPa)
#
#
# Indices 1 2 3 4 5 6 
#
# 1 135.3155 37.4541 63.3299 0.0000 18.7271 0.0000
# 2 37.4541 49.7469 29.7649 0.0000 5.1330 0.0000
# 3 63.3299 29.7649 113.9812 0.0000 16.1218 0.0000
# 4 0.0000 0.0000 0.0000 20.7830 0.0000 6.9068
# 5 18.7271 5.1330 16.1218 0.0000 19.1753 0.0000
# 6 0.0000 0.0000 0.0000 6.9068 0.0000 33.0751
#
#
#
# Elastic Compliance Matrix: (Units=1/GPa)
#
#
# Indices 1 2 3 4 5 6 
#
# 1 0.011825 -0.005749 -0.004146 0.000000 -0.006523 0.000000
# 2 -0.005749 0.026648 -0.004029 0.000000 0.001869 0.000000
# 3 -0.004146 -0.004029 0.012943 0.000000 -0.005754 0.000000
# 4 0.000000 0.000000 0.000000 0.051704 0.000000 -0.010797
# 5 -0.006523 0.001869 -0.005754 0.000000 0.062859 0.000000
# 6 0.000000 0.000000 0.000000 -0.010797 0.000000 0.032489
#
#
# Mechanical properties :
#
#
# Convention : Reuss Voigt Hill
#
# Bulk Modulus (GPa) = 42.43066 62.23793 52.33430
# Shear Modulus (GPa) = 21.35188 25.83967 23.59578
#
# Velocity S-wave (km/s) = 3.34120 3.67560 3.51238
# Velocity P-wave (km/s) = 6.08846 7.11013 6.61904
#
# Compressibility (1/GPa) = 0.02356786
#
# Stress axis : x y z
#
# Youngs Moduli (GPa) = 84.56951 37.52647 77.26196
#
# Poissons Ratio (x) = 0.21574 0.32033
# Poissons Ratio (y) = 0.48618 0.31128
# Poissons Ratio (z) = 0.35062 0.15119
#
# Static dielectric constant tensor:
#      x y z
#    x 3.571440 0.000000 -0.080740 
#    y 0.000000 3.182050 0.000000 
#    z -0.080740 0.000000 3.684620 
# 
# 
# High freq. dielectric constant tensor:
#      x y z
#    x 1.747950 0.000000 0.003480 
#    y 0.000000 1.714510 0.000000 
#    z 0.003480 0.000000 1.745400 
# 
# From -- ./inp_files/375090.got.cif
#   From: 2010.06.25/outbox.cif.g09.slc.cpg/sg12_188_cif.got.tgz:375090.got - 2010.06.28 00:19:55.
