data_PCOD8088836
_publ_section_title
;
Structure prediction by ZEFSAII (Michael W. Deem and Ramdas Pophale) SiO2 
 PCOD8088836
Probable space group: C 2/M
;
_chemical_formula_sum "Si O2"
_cell_formula_units_Z 40
_cell_length_a 20.746445
_cell_length_b 9.395139
_cell_length_c 14.581161
_cell_angle_alpha 90.000000
_cell_angle_beta 43.040231
_cell_angle_gamma 90.000000
_cell_volume 1939.764999
_symmetry_space_group_name_H-M "C 2/M"
_symmetry_group_IT_number 12
_symmetry_cell_setting 'monoclinic'
loop_
_space_group_symop_operation_xyz
x,y,z
-x,y,-z
-x,-y,-z
x,-y,z
1/2+x,1/2+y,z
1/2-x,1/2+y,-z
1/2-x,1/2-y,-z
1/2+x,1/2-y,z
loop_
_atom_site_type_symbol
_atom_site_label
_atom_site_fract_x
_atom_site_fract_y
_atom_site_fract_z
Si Si1 0.889706 0.165462 0.126292
Si Si2 0.645247 0.846648 0.187760
Si Si3 0.244298 0.331666 0.602162
Si Si4 0.144306 0.846615 0.037623
Si Si5 0.888828 0.838230 0.608781
O O1 0.844655 0.265915 0.250567
O O2 0.849609 0.217481 0.070338
O O3 0.865000 0.000000 0.173247
O O4 0.000000 0.190801 0.000000
O O5 0.749283 0.872502 0.038719
O O6 0.657107 0.768419 0.271696
O O7 0.594276 0.000000 0.253555
O O8 0.589940 0.753872 0.167864
O O9 0.227356 0.500000 0.603595
O O10 0.250000 0.250000 0.500000
O O11 0.342001 0.306864 0.557932
O O12 0.090392 0.000000 0.091577
O O13 0.000000 0.808616 0.500000
O O14 0.866661 0.000000 0.661015
#
# Coordination Sequence:
#
# PCOD8088836 Si02
#       5
#     8   8   8   8   8
#     4  10  21  39  63  89 120 159 203 250 301 362
#     4  10  19  32  55  84 112 144 184 235 289 343
#     4  11  24  42  65  89 122 165 207 256 308 366
#     4   9  18  33  54  81 113 147 182 227 286 350
#     4  10  22  40  61  85 115 156 203 247 297 358
#
# _framework density 20.621054000000001
#
# number of rings (size 3 to 8) (size 9 to 14) (size 15 to 20)
#    0.000    2.000    2.000    1.200    0.000    4.800 
#    0.000    8.000    0.000    0.000    0.000    0.000 
#    0.000    0.000    0.000    0.000    0.000    0.000 
#
# Total GULP energy -247788.572303 kJ/mol
# GULP energy per Si atom -12389.428615 kJ/mol
# Density = 2.057412 g / cm^3
# Si number density = 20.621054 Si / 1000 Ang^3
#
#
#
# Elastic Constant Matrix: (Units=GPa)
#
#
# Indices 1 2 3 4 5 6 
#
# 1 93.0246 69.3277 69.1135 0.0000 20.8617 0.0000
# 2 69.3277 148.7919 68.7455 0.0000 31.2161 0.0000
# 3 69.1135 68.7455 83.4588 0.0000 26.1121 0.0000
# 4 0.0000 0.0000 0.0000 30.0079 0.0000 7.3224
# 5 20.8617 31.2161 26.1121 0.0000 44.6470 0.0000
# 6 0.0000 0.0000 0.0000 7.3224 0.0000 23.0404
#
#
#
# Elastic Compliance Matrix: (Units=1/GPa)
#
#
# Indices 1 2 3 4 5 6 
#
# 1 0.029410 -0.004137 -0.021484 0.000000 0.001715 0.000000
# 2 -0.004137 0.011745 -0.005243 0.000000 -0.003212 0.000000
# 3 -0.021484 -0.005243 0.036480 0.000000 -0.007631 0.000000
# 4 0.000000 0.000000 0.000000 0.036126 0.000000 -0.011481
# 5 0.001715 -0.003212 -0.007631 0.000000 0.028305 0.000000
# 6 0.000000 0.000000 0.000000 -0.011481 0.000000 0.047051
#
#
# Mechanical properties :
#
#
# Convention : Reuss Voigt Hill
#
# Bulk Modulus (GPa) = 62.87024 82.18320 72.52672
# Shear Modulus (GPa) = 19.52003 27.41161 23.46582
#
# Velocity S-wave (km/s) = 3.08004 3.64992 3.37702
# Velocity P-wave (km/s) = 6.57293 7.59625 7.10304
#
# Compressibility (1/GPa) = 0.01590578
#
# Stress axis : x y z
#
# Youngs Moduli (GPa) = 34.00211 85.14369 27.41256
#
# Poissons Ratio (x) = 0.35224 0.58893
# Poissons Ratio (y) = 0.14067 0.14374
# Poissons Ratio (z) = 0.73050 0.44645
#
# Static dielectric constant tensor:
#      x y z
#    x 6.938930 0.000000 -1.194410 
#    y 0.000000 4.233130 0.000000 
#    z -1.194410 0.000000 3.981280 
# 
# 
# High freq. dielectric constant tensor:
#      x y z
#    x 1.801880 0.000000 0.018250 
#    y 0.000000 1.815970 0.000000 
#    z 0.018250 0.000000 1.784250 
# 
# From -- ./inp_files/220607.got.cif
#   From: 2010.06.25/outbox.cif.g09.slc.cpg/sg12_111_cif.got.tgz:220607.got - 2010.06.28 00:19:55.
