data_PCOD8088256
_publ_section_title
;
Structure prediction by ZEFSAII (Michael W. Deem and Ramdas Pophale) SiO2 
 PCOD8088256
Probable space group: C 2/M
;
_chemical_formula_sum "Si O2"
_cell_formula_units_Z 56
_cell_length_a 19.848212
_cell_length_b 18.689520
_cell_length_c 9.728446
_cell_angle_alpha 90.000000
_cell_angle_beta 57.172980
_cell_angle_gamma 90.000000
_cell_volume 3032.515876
_symmetry_space_group_name_H-M "C 2/M"
_symmetry_group_IT_number 12
_symmetry_cell_setting 'monoclinic'
loop_
_space_group_symop_operation_xyz
x,y,z
-x,y,-z
-x,-y,-z
x,-y,z
1/2+x,1/2+y,z
1/2-x,1/2+y,-z
1/2-x,1/2-y,-z
1/2+x,1/2-y,z
loop_
_atom_site_type_symbol
_atom_site_label
_atom_site_fract_x
_atom_site_fract_y
_atom_site_fract_z
Si Si1 0.536442 0.078241 0.098885
Si Si2 0.834572 0.712142 0.618220
Si Si3 0.894753 0.708129 0.854953
Si Si4 0.553138 0.292885 0.702437
Si Si5 0.845656 0.804817 0.143253
Si Si6 0.046267 0.080043 0.088893
Si Si7 0.932717 0.578195 0.469607
O O1 0.605136 0.125499 0.096596
O O2 0.463129 0.069055 0.282803
O O3 0.574000 0.000000 0.024069
O O4 0.500000 0.113103 0.000000
O O5 0.851657 0.722709 0.759506
O O6 0.876435 0.778295 0.488156
O O7 0.740590 0.703287 0.691146
O O8 0.862308 0.634581 0.539452
O O9 0.987832 0.731605 0.747698
O O10 0.843819 0.747951 0.024592
O O11 0.588158 0.284930 0.816413
O O12 0.507636 0.370689 0.745795
O O13 0.869425 0.880676 0.044094
O O14 0.061816 0.000000 0.135424
O O15 0.000000 0.069001 0.000000
O O16 0.903038 0.500000 0.556674
O O17 0.000000 0.608608 0.500000
#
# Coordination Sequence:
#
# PCOD8088256 Si02
#       7
#     8   8   8   8   8   8   8
#     4  10  19  32  53  77 101 136 183 221 251 302
#     4  12  21  33  51  82 113 141 169 225 283 322
#     4  11  20  35  54  75 103 147 184 216 256 326
#     4  10  19  35  56  78 102 139 180 228 264 320
#     4  10  22  34  53  79 110 137 177 222 281 320
#     4   8  16  34  58  79  99 134 185 228 263 317
#     4  10  19  33  51  77 107 139 177 215 260 318
#
# _framework density 18.466514
#
# number of rings (size 3 to 8) (size 9 to 14) (size 15 to 20)
#    0.000    1.857    2.857    3.429    0.000    0.571 
#    0.000    0.000    0.000    7.714    0.000    0.000 
#    0.000    0.000    0.000    0.000    0.000    0.000 
#
# Total GULP energy -346903.308605 kJ/mol
# GULP energy per Si atom -12389.403879 kJ/mol
# Density = 1.842448 g / cm^3
# Si number density = 18.466514 Si / 1000 Ang^3
#
#
#
# Elastic Constant Matrix: (Units=GPa)
#
#
# Indices 1 2 3 4 5 6 
#
# 1 57.9612 15.8705 21.4854 0.0000 -0.4671 0.0000
# 2 15.8705 108.5006 34.5293 0.0000 -7.8304 0.0000
# 3 21.4854 34.5293 82.7000 0.0000 -3.8024 0.0000
# 4 0.0000 0.0000 0.0000 22.9975 0.0000 2.3179
# 5 -0.4671 -7.8304 -3.8024 0.0000 41.5349 0.0000
# 6 0.0000 0.0000 0.0000 2.3179 0.0000 14.0040
#
#
#
# Elastic Compliance Matrix: (Units=1/GPa)
#
#
# Indices 1 2 3 4 5 6 
#
# 1 0.019286 -0.001445 -0.004428 0.000000 -0.000461 0.000000
# 2 -0.001445 0.010845 -0.004076 0.000000 0.001655 0.000000
# 3 -0.004428 -0.004076 0.014970 0.000000 0.000552 0.000000
# 4 0.000000 0.000000 0.000000 0.044221 0.000000 -0.007319
# 5 -0.000461 0.001655 0.000552 0.000000 0.024434 0.000000
# 6 0.000000 0.000000 0.000000 -0.007319 0.000000 0.072619
#
#
# Mechanical properties :
#
#
# Convention : Reuss Voigt Hill
#
# Bulk Modulus (GPa) = 39.68078 43.65914 41.66996
# Shear Modulus (GPa) = 23.29107 27.52572 25.40839
#
# Velocity S-wave (km/s) = 3.55527 3.86498 3.71336
# Velocity P-wave (km/s) = 6.19580 6.60387 6.40309
#
# Compressibility (1/GPa) = 0.02520112
#
# Stress axis : x y z
#
# Youngs Moduli (GPa) = 51.84992 92.21164 66.80115
#
# Poissons Ratio (x) = 0.13324 0.29583
# Poissons Ratio (y) = 0.07492 0.27231
# Poissons Ratio (z) = 0.22962 0.37589
#
# Static dielectric constant tensor:
#      x y z
#    x 3.140510 0.000000 0.068010 
#    y 0.000000 3.784730 0.000000 
#    z 0.068010 0.000000 3.417080 
# 
# 
# High freq. dielectric constant tensor:
#      x y z
#    x 1.691480 0.000000 0.012650 
#    y 0.000000 1.719410 0.000000 
#    z 0.012650 0.000000 1.709310 
# 
# From -- ./inp_files/89512.got.cif
#   From: 2010.06.25/outbox.cif.g09.slc.cpg/sg12_45_cif.got.tgz:89512.got - 2010.06.28 00:19:55.
