data_PCOD8088628
_publ_section_title
;
Structure prediction by ZEFSAII (Michael W. Deem and Ramdas Pophale) SiO2 
 PCOD8088628
Probable space group: C 2/M
;
_chemical_formula_sum "Si O2"
_cell_formula_units_Z 48
_cell_length_a 30.126337
_cell_length_b 9.144197
_cell_length_c 8.973176
_cell_angle_alpha 90.000000
_cell_angle_beta 93.695111
_cell_angle_gamma 90.000000
_cell_volume 2466.802071
_symmetry_space_group_name_H-M "C 2/M"
_symmetry_group_IT_number 12
_symmetry_cell_setting 'monoclinic'
loop_
_space_group_symop_operation_xyz
x,y,z
-x,y,-z
-x,-y,-z
x,-y,z
1/2+x,1/2+y,z
1/2-x,1/2+y,-z
1/2-x,1/2-y,-z
1/2+x,1/2-y,z
loop_
_atom_site_type_symbol
_atom_site_label
_atom_site_fract_x
_atom_site_fract_y
_atom_site_fract_z
Si Si1 0.012345 0.339015 0.674938
Si Si2 0.584455 0.172709 0.306360
Si Si3 0.905576 0.169782 0.382169
Si Si4 0.254995 0.330942 0.656212
Si Si5 0.343359 0.667860 0.852219
Si Si6 0.682325 0.330686 0.823832
O O1 0.027404 0.500000 0.734086
O O2 0.966876 0.289166 0.747881
O O3 0.000000 0.347275 0.500000
O O4 0.052631 0.226141 0.707668
O O5 0.599123 0.246835 0.463600
O O6 0.614707 0.232288 0.179804
O O7 0.590704 0.000000 0.326810
O O8 0.861522 0.200847 0.280214
O O9 0.912746 0.000000 0.417606
O O10 0.243265 0.500000 0.630388
O O11 0.250000 0.250000 0.500000
O O12 0.305308 0.310320 0.721259
O O13 0.222407 0.265917 0.772422
O O14 0.359216 0.500000 0.862260
O O15 0.325645 0.718459 0.008622
O O16 0.696220 0.500000 0.816756
#
# Coordination Sequence:
#
# PCOD8088628 Si02
#       6
#     8   8   8   8   8   8
#     4   8  16  31  50  75 107 139 175 221 265 306
#     4  10  20  34  54  80 108 140 179 221 264 312
#     4  10  19  32  54  81 106 138 179 220 265 314
#     4  11  23  38  59  84 107 137 177 218 263 314
#     4  10  22  39  56  77 108 143 177 216 263 315
#     4  10  22  39  56  78 110 142 175 218 264 313
#
# _framework density 19.458393000000001
#
# number of rings (size 3 to 8) (size 9 to 14) (size 15 to 20)
#    0.000    2.167    0.000    4.000    0.000   11.000 
#    0.000    0.833    0.000    5.000    0.000    0.000 
#    0.000    0.000    0.000    0.000    0.000    0.000 
#
# Total GULP energy -297633.392927 kJ/mol
# GULP energy per Si atom -12401.391372 kJ/mol
# Density = 1.941410 g / cm^3
# Si number density = 19.458393 Si / 1000 Ang^3
#
#
#
# Elastic Constant Matrix: (Units=GPa)
#
#
# Indices 1 2 3 4 5 6 
#
# 1 87.3771 48.5205 15.2096 0.0000 -34.6322 0.0000
# 2 48.5205 94.1422 28.9008 0.0000 -19.9066 0.0000
# 3 15.2096 28.9008 67.9590 0.0000 -24.3720 0.0000
# 4 0.0000 0.0000 0.0000 26.3788 0.0000 -9.7930
# 5 -34.6322 -19.9066 -24.3720 0.0000 26.2711 0.0000
# 6 0.0000 0.0000 0.0000 -9.7930 0.0000 37.3519
#
#
#
# Elastic Compliance Matrix: (Units=1/GPa)
#
#
# Indices 1 2 3 4 5 6 
#
# 1 0.037770 -0.012895 0.017058 0.000000 0.055846 0.000000
# 2 -0.012895 0.017447 -0.008825 0.000000 -0.011965 0.000000
# 3 0.017058 -0.008825 0.030446 0.000000 0.044045 0.000000
# 4 0.000000 0.000000 0.000000 0.041997 0.000000 0.011011
# 5 0.055846 -0.011965 0.044045 0.000000 0.143479 0.000000
# 6 0.000000 0.000000 0.000000 0.011011 0.000000 0.029659
#
#
# Mechanical properties :
#
#
# Convention : Reuss Voigt Hill
#
# Bulk Modulus (GPa) = 13.09916 48.30446 30.70181
# Shear Modulus (GPa) = 14.90011 28.45685 21.67848
#
# Velocity S-wave (km/s) = 2.77021 3.82834 3.34143
# Velocity P-wave (km/s) = 4.12050 6.66483 5.54069
#
# Compressibility (1/GPa) = 0.07634075
#
# Stress axis : x y z
#
# Youngs Moduli (GPa) = 26.47572 57.31562 32.84521
#
# Poissons Ratio (x) = 0.73907 -0.56028
# Poissons Ratio (y) = 0.34140 0.28986
# Poissons Ratio (z) = -0.45163 0.50581
#
# Static dielectric constant tensor:
#      x y z
#    x 3.905240 0.000000 -0.183770 
#    y 0.000000 3.623150 0.000000 
#    z -0.183770 0.000000 3.374590 
# 
# 
# High freq. dielectric constant tensor:
#      x y z
#    x 1.770370 0.000000 -0.009970 
#    y 0.000000 1.761930 0.000000 
#    z -0.009970 0.000000 1.739960 
# 
# From -- ./inp_files/108570.got.cif
#   From: 2010.06.25/outbox.cif.g09.slc.cpg/sg12_55_cif.got.tgz:108570.got - 2010.06.28 00:19:55.
