data_PCOD8088936
_publ_section_title
;
Structure prediction by ZEFSAII (Michael W. Deem and Ramdas Pophale) SiO2 
 PCOD8088936
Probable space group: C 2/M
;
_chemical_formula_sum "Si O2"
_cell_formula_units_Z 56
_cell_length_a 9.207338
_cell_length_b 16.793135
_cell_length_c 21.677088
_cell_angle_alpha 90.000000
_cell_angle_beta 122.757999
_cell_angle_gamma 90.000000
_cell_volume 2818.668114
_symmetry_space_group_name_H-M "C 2/M"
_symmetry_group_IT_number 12
_symmetry_cell_setting 'monoclinic'
loop_
_space_group_symop_operation_xyz
x,y,z
-x,y,-z
-x,-y,-z
x,-y,z
1/2+x,1/2+y,z
1/2-x,1/2+y,-z
1/2-x,1/2-y,-z
1/2+x,1/2-y,z
loop_
_atom_site_type_symbol
_atom_site_label
_atom_site_fract_x
_atom_site_fract_y
_atom_site_fract_z
Si Si1 0.625287 0.586796 0.274843
Si Si2 0.837452 0.341903 0.430339
Si Si3 0.075550 0.590127 0.842721
Si Si4 0.925982 0.702827 0.048333
Si Si5 0.994119 0.825713 0.430645
Si Si6 0.696279 0.631596 0.728798
Si Si7 0.704922 0.705890 0.190255
O O1 0.668063 0.500000 0.256250
O O2 0.771237 0.605599 0.358714
O O3 0.439096 0.581657 0.263117
O O4 0.610830 0.652724 0.219193
O O5 0.918195 0.261974 0.421095
O O6 0.684078 0.323178 0.443512
O O7 0.000000 0.387208 0.500000
O O8 0.150096 0.500000 0.856554
O O9 0.102625 0.623350 0.918011
O O10 0.162894 0.650474 0.815545
O O11 0.876556 0.587854 0.778163
O O12 0.060797 0.761997 0.111089
O O13 0.750000 0.750000 0.000000
O O14 0.000000 0.674384 0.000000
O O15 0.860769 0.872245 0.355865
O O16 0.000000 0.867177 0.500000
O O17 0.694918 0.722606 0.753145
#
# Coordination Sequence:
#
# PCOD8088936 Si02
#       7
#     8   8   8   8   8   8   8
#     4  11  23  38  58  88 122 158 197 246 302 351
#     4  10  20  34  54  82 117 152 198 248 299 349
#     4  11  24  40  63  94 125 155 195 245 296 347
#     4  11  23  44  68  92 121 157 198 239 288 354
#     4  10  19  32  56  87 111 149 204 256 290 339
#     4  10  21  38  62  86 119 159 205 245 292 356
#     4  11  22  40  65  88 120 158 202 238 289 355
#
# _framework density 19.867539000000001
#
# number of rings (size 3 to 8) (size 9 to 14) (size 15 to 20)
#    0.000    1.429    2.857    4.286    4.000    1.714 
#    0.000    2.143    0.000   10.714    0.000    0.000 
#    0.000    0.571    0.000    0.000    0.000    0.000 
#
# Total GULP energy -347147.651445 kJ/mol
# GULP energy per Si atom -12398.130409 kJ/mol
# Density = 1.982232 g / cm^3
# Si number density = 19.867539 Si / 1000 Ang^3
#
#
#
# Elastic Constant Matrix: (Units=GPa)
#
#
# Indices 1 2 3 4 5 6 
#
# 1 73.0549 12.6910 35.3727 0.0000 0.0972 0.0000
# 2 12.6910 88.2057 22.7485 0.0000 -10.7991 0.0000
# 3 35.3727 22.7485 116.1147 0.0000 -3.4242 0.0000
# 4 0.0000 0.0000 0.0000 4.5847 0.0000 5.9394
# 5 0.0972 -10.7991 -3.4242 0.0000 39.4796 0.0000
# 6 0.0000 0.0000 0.0000 5.9394 0.0000 14.1514
#
#
#
# Elastic Compliance Matrix: (Units=1/GPa)
#
#
# Indices 1 2 3 4 5 6 
#
# 1 0.016183 -0.001207 -0.004716 0.000000 -0.000779 0.000000
# 2 -0.001207 0.012414 -0.001969 0.000000 0.003228 0.000000
# 3 -0.004716 -0.001969 0.010446 0.000000 0.000379 0.000000
# 4 0.000000 0.000000 0.000000 0.478035 0.000000 -0.200632
# 5 -0.000779 0.003228 0.000379 0.000000 0.026247 0.000000
# 6 0.000000 0.000000 0.000000 -0.200632 0.000000 0.154870
#
#
# Mechanical properties :
#
#
# Convention : Reuss Voigt Hill
#
# Bulk Modulus (GPa) = 42.99782 46.55553 44.77667
# Shear Modulus (GPa) = 6.92777 25.41401 16.17089
#
# Velocity S-wave (km/s) = 1.86937 3.58043 2.85605
# Velocity P-wave (km/s) = 5.13309 6.36997 5.78468
#
# Compressibility (1/GPa) = 0.02325699
#
# Stress axis : x y z
#
# Youngs Moduli (GPa) = 61.79433 80.55510 95.73174
#
# Poissons Ratio (x) = 0.09726 0.45150
# Poissons Ratio (y) = 0.07461 0.18850
# Poissons Ratio (z) = 0.29144 0.15862
#
# Static dielectric constant tensor:
#      x y z
#    x 3.705190 0.000000 -0.099960 
#    y 0.000000 3.408310 0.000000 
#    z -0.099960 0.000000 3.991070 
# 
# 
# High freq. dielectric constant tensor:
#      x y z
#    x 1.783910 0.000000 -0.000390 
#    y 0.000000 1.756820 0.000000 
#    z -0.000390 0.000000 1.788130 
# 
# From -- ./inp_files/300864.got.cif
#   From: 2010.06.25/outbox.cif.g09.slc.cpg/sg12_151_cif.got.tgz:300864.got - 2010.06.28 00:19:55.
