data_PCOD8088837
_publ_section_title
;
Structure prediction by ZEFSAII (Michael W. Deem and Ramdas Pophale) SiO2 
 PCOD8088837
Probable space group: C 2/M
;
_chemical_formula_sum "Si O2"
_cell_formula_units_Z 48
_cell_length_a 11.796805
_cell_length_b 18.959246
_cell_length_c 20.681471
_cell_angle_alpha 90.000000
_cell_angle_beta 149.294636
_cell_angle_gamma 90.000000
_cell_volume 2361.933213
_symmetry_space_group_name_H-M "C 2/M"
_symmetry_group_IT_number 12
_symmetry_cell_setting 'monoclinic'
loop_
_space_group_symop_operation_xyz
x,y,z
-x,y,-z
-x,-y,-z
x,-y,z
1/2+x,1/2+y,z
1/2-x,1/2+y,-z
1/2-x,1/2-y,-z
1/2+x,1/2-y,z
loop_
_atom_site_type_symbol
_atom_site_label
_atom_site_fract_x
_atom_site_fract_y
_atom_site_fract_z
Si Si1 0.563238 0.920686 0.932786
Si Si2 0.146935 0.342250 0.712077
Si Si3 0.832776 0.423294 0.476339
Si Si4 0.249100 0.582504 0.886124
Si Si5 0.804407 0.288775 0.860139
Si Si6 0.986164 0.879890 0.209934
O O1 0.649673 0.893982 0.905763
O O2 0.384754 0.863702 0.869725
O O3 0.460149 0.000000 0.878976
O O4 0.775517 0.925946 0.084325
O O5 0.110372 0.379996 0.762350
O O6 0.211498 0.260796 0.757104
O O7 0.342327 0.376203 0.765100
O O8 0.911495 0.357820 0.560694
O O9 0.834911 0.500000 0.513588
O O10 0.590951 0.411783 0.326868
O O11 0.000000 0.426839 0.500000
O O12 0.230135 0.500000 0.866977
O O13 0.500000 0.608694 0.000000
O O14 0.604068 0.303000 0.812437
O O15 0.000000 0.253525 0.000000
#
# Coordination Sequence:
#
# PCOD8088837 Si02
#       6
#     8   8   8   8   8   8
#     4  10  21  37  57  85 117 148 186 229 281 339
#     4  11  21  35  56  82 117 143 190 233 282 333
#     4   9  19  35  57  83 109 142 186 238 282 322
#     4  10  19  32  55  84 112 146 183 231 284 329
#     4  10  24  36  55  84 115 155 185 225 281 341
#     4  10  21  36  57  83 110 150 185 235 281 326
#
# _framework density 20.322334999999999
#
# number of rings (size 3 to 8) (size 9 to 14) (size 15 to 20)
#    0.000    2.000    1.667    1.500    2.333    7.000 
#    0.000    0.000    0.000    0.000    0.000    3.500 
#    0.000    0.000    0.000    0.000    0.000    0.000 
#
# Total GULP energy -297340.464242 kJ/mol
# GULP energy per Si atom -12389.186010 kJ/mol
# Density = 2.027608 g / cm^3
# Si number density = 20.322335 Si / 1000 Ang^3
#
#
#
# Elastic Constant Matrix: (Units=GPa)
#
#
# Indices 1 2 3 4 5 6 
#
# 1 75.7353 31.4264 30.0453 0.0005 -17.8079 -0.0009
# 2 31.4264 96.7302 48.3569 0.0037 -17.2945 -0.0043
# 3 30.0453 48.3569 110.7373 0.0019 -22.6318 -0.0134
# 4 0.0005 0.0037 0.0019 24.3896 0.0026 -16.7071
# 5 -17.8079 -17.2945 -22.6318 0.0026 22.7524 -0.0030
# 6 -0.0009 -0.0043 -0.0134 -16.7071 -0.0030 18.2527
#
#
#
# Elastic Compliance Matrix: (Units=1/GPa)
#
#
# Indices 1 2 3 4 5 6 
#
# 1 0.017376 -0.003240 -0.001285 -0.000001 0.009859 0.000000
# 2 -0.003240 0.014382 -0.004625 -0.000005 0.003794 -0.000004
# 3 -0.001285 -0.004625 0.013147 0.000015 0.008557 0.000024
# 4 -0.000001 -0.000005 0.000015 0.109925 0.000012 0.100617
# 5 0.009859 0.003794 0.008557 0.000012 0.063064 0.000029
# 6 0.000000 -0.000004 0.000024 0.100617 0.000029 0.146883
#
#
# Mechanical properties :
#
#
# Convention : Reuss Voigt Hill
#
# Bulk Modulus (GPa) = 37.58757 55.87330 46.73044
# Shear Modulus (GPa) = 12.75686 24.63722 18.69704
#
# Velocity S-wave (km/s) = 2.50816 3.48562 3.03648
# Velocity P-wave (km/s) = 5.18881 6.61458 5.94459
#
# Compressibility (1/GPa) = 0.02660454
#
# Stress axis : x y z
#
# Youngs Moduli (GPa) = 57.54951 69.53341 76.06009
#
# Poissons Ratio (x) = 0.22532 0.09770
# Poissons Ratio (y) = 0.18649 0.35181
# Poissons Ratio (z) = 0.07392 0.32162
#
# Static dielectric constant tensor:
#      x y z
#    x 3.718610 0.000000 -0.186400 
#    y 0.000000 3.682430 -0.000020 
#    z -0.186400 -0.000020 3.914180 
# 
# 
# High freq. dielectric constant tensor:
#      x y z
#    x 1.785070 0.000000 -0.012330 
#    y 0.000000 1.787640 0.000000 
#    z -0.012330 0.000000 1.778870 
# 
# From -- ./inp_files/131788.got.cif
#   From: 2010.06.25/outbox.cif.g09.slc.cpg/sg12_66_cif.got.tgz:131788.got - 2010.06.28 00:19:55.
