data_PCOD8088140
_publ_section_title
;
Structure prediction by ZEFSAII (Michael W. Deem and Ramdas Pophale) SiO2 
 PCOD8088140
Probable space group: C 2/M
;
_chemical_formula_sum "Si O2"
_cell_formula_units_Z 56
_cell_length_a 9.421714
_cell_length_b 22.373997
_cell_length_c 19.143527
_cell_angle_alpha 90.000000
_cell_angle_beta 131.076210
_cell_angle_gamma 90.000000
_cell_volume 3042.092965
_symmetry_space_group_name_H-M "C 2/M"
_symmetry_group_IT_number 12
_symmetry_cell_setting 'monoclinic'
loop_
_space_group_symop_operation_xyz
x,y,z
-x,y,-z
-x,-y,-z
x,-y,z
1/2+x,1/2+y,z
1/2-x,1/2+y,-z
1/2-x,1/2-y,-z
1/2+x,1/2-y,z
loop_
_atom_site_type_symbol
_atom_site_label
_atom_site_fract_x
_atom_site_fract_y
_atom_site_fract_z
Si Si1 0.771983 0.659929 0.681761
Si Si2 0.897917 0.176385 0.613242
Si Si3 0.535770 0.365386 0.090720
Si Si4 0.314451 0.707439 0.737427
Si Si5 0.596792 0.809095 0.419920
Si Si6 0.337908 0.932539 0.997992
Si Si7 0.908051 0.432995 0.180782
O O1 0.569201 0.634057 0.642254
O O2 0.813057 0.720530 0.739263
O O3 0.761654 0.675831 0.597188
O O4 0.930951 0.610659 0.741064
O O5 0.925669 0.185090 0.704782
O O6 0.686289 0.157922 0.518335
O O7 0.923283 0.237780 0.577275
O O8 0.588984 0.310668 0.158543
O O9 0.702678 0.413755 0.141834
O O10 0.500000 0.341402 0.000000
O O11 0.352654 0.394485 0.066715
O O12 0.116105 0.671616 0.666836
O O13 0.419544 0.931965 0.101612
O O14 0.289658 0.000000 0.958287
O O15 0.500000 0.905173 0.000000
O O16 0.945140 0.500000 0.221013
#
# Coordination Sequence:
#
# PCOD8088140 Si02
#       7
#     8   8   8   8   8   8   8
#     4  10  19  32  52  79 112 138 175 218 265 318
#     4   9  18  28  52  79 107 139 174 220 266 308
#     4  10  20  36  55  78 107 144 180 213 263 323
#     4  10  19  32  52  80 113 138 174 218 270 322
#     4   9  16  32  50  76 108 142 176 214 263 315
#     4   9  19  35  55  78 101 129 182 238 267 299
#     4  10  20  36  56  76 103 145 187 218 256 314
#
# _framework density 18.408380000000001
#
# number of rings (size 3 to 8) (size 9 to 14) (size 15 to 20)
#    0.000    2.429    1.429    1.286    2.000    5.143 
#    0.000    3.571    0.000    1.714    0.000    1.000 
#    0.000    0.000    0.000    0.000    0.000    0.000 
#
# Total GULP energy -346892.393475 kJ/mol
# GULP energy per Si atom -12389.014053 kJ/mol
# Density = 1.836648 g / cm^3
# Si number density = 18.408380 Si / 1000 Ang^3
#
#
#
# Elastic Constant Matrix: (Units=GPa)
#
#
# Indices 1 2 3 4 5 6 
#
# 1 109.5169 27.4111 33.6478 0.0000 12.1202 0.0000
# 2 27.4111 62.4549 42.8663 0.0000 -0.0578 0.0000
# 3 33.6478 42.8663 103.3487 0.0000 4.2575 0.0000
# 4 0.0000 0.0000 0.0000 13.7802 0.0000 3.2593
# 5 12.1202 -0.0578 4.2575 0.0000 28.8001 0.0000
# 6 0.0000 0.0000 0.0000 3.2593 0.0000 18.6287
#
#
#
# Elastic Compliance Matrix: (Units=1/GPa)
#
#
# Indices 1 2 3 4 5 6 
#
# 1 0.011105 -0.003524 -0.001973 0.000000 -0.004389 0.000000
# 2 -0.003524 0.023560 -0.008741 0.000000 0.002822 0.000000
# 3 -0.001973 -0.008741 0.013996 0.000000 -0.001256 0.000000
# 4 0.000000 0.000000 0.000000 0.075701 0.000000 -0.013245
# 5 -0.004389 0.002822 -0.001256 0.000000 0.036760 0.000000
# 6 0.000000 0.000000 0.000000 -0.013245 0.000000 0.055998
#
#
# Mechanical properties :
#
#
# Convention : Reuss Voigt Hill
#
# Bulk Modulus (GPa) = 49.54210 53.68565 51.61388
# Shear Modulus (GPa) = 19.81576 23.66813 21.74194
#
# Velocity S-wave (km/s) = 3.28449 3.58959 3.44043
# Velocity P-wave (km/s) = 6.43079 6.81229 6.62429
#
# Compressibility (1/GPa) = 0.02018485
#
# Stress axis : x y z
#
# Youngs Moduli (GPa) = 90.05048 42.44431 71.45012
#
# Poissons Ratio (x) = 0.14956 0.14098
# Poissons Ratio (y) = 0.31731 0.62456
# Poissons Ratio (z) = 0.17769 0.37102
#
# Static dielectric constant tensor:
#      x y z
#    x 3.663210 0.000000 0.143110 
#    y 0.000000 3.012140 0.000000 
#    z 0.143110 0.000000 3.507460 
# 
# 
# High freq. dielectric constant tensor:
#      x y z
#    x 1.735200 0.000000 0.004110 
#    y 0.000000 1.653560 0.000000 
#    z 0.004110 0.000000 1.713270 
# 
# From -- ./inp_files/259242.got.cif
#   From: 2010.06.25/outbox.cif.g09.slc.cpg/sg12_130_cif.got.tgz:259242.got - 2010.06.28 00:19:55.
