data_PCOD8088890
_publ_section_title
;
Structure prediction by ZEFSAII (Michael W. Deem and Ramdas Pophale) SiO2 
 PCOD8088890
Probable space group: C 2/M
;
_chemical_formula_sum "Si O2"
_cell_formula_units_Z 44
_cell_length_a 19.858845
_cell_length_b 8.582409
_cell_length_c 12.988376
_cell_angle_alpha 90.000000
_cell_angle_beta 102.743428
_cell_angle_gamma 90.000000
_cell_volume 2159.167744
_symmetry_space_group_name_H-M "C 2/M"
_symmetry_group_IT_number 12
_symmetry_cell_setting 'monoclinic'
loop_
_space_group_symop_operation_xyz
x,y,z
-x,y,-z
-x,-y,-z
x,-y,z
1/2+x,1/2+y,z
1/2-x,1/2+y,-z
1/2-x,1/2-y,-z
1/2+x,1/2-y,z
loop_
_atom_site_type_symbol
_atom_site_label
_atom_site_fract_x
_atom_site_fract_y
_atom_site_fract_z
Si Si1 0.562149 0.315811 0.220220
Si Si2 0.338574 0.180182 0.236016
Si Si3 0.696652 0.181758 0.192551
Si Si4 0.000000 0.213349 0.000000
Si Si5 0.017313 0.319080 0.620443
Si Si6 0.145742 0.168147 0.974165
O O1 0.551341 0.500000 0.191997
O O2 0.643088 0.273504 0.247666
O O3 0.530441 0.279665 0.319705
O O4 0.524705 0.207830 0.117089
O O5 0.273772 0.278658 0.256264
O O6 0.402245 0.215078 0.332936
O O7 0.360762 0.229283 0.129372
O O8 0.318058 0.000000 0.228872
O O9 0.681721 0.000000 0.196411
O O10 0.691066 0.237564 0.072122
O O11 0.930112 0.124693 0.008016
O O12 0.999711 0.500000 0.630658
O O13 0.000000 0.263040 0.500000
O O14 0.181280 0.000000 0.962843
#
# Coordination Sequence:
#
# PCOD8088890 Si02
#       6
#     8   8   8   4   8   8
#     4  11  21  38  62  91 124 158 200 248 302 359
#     4  11  22  38  59  86 118 158 202 246 299 357
#     4  11  23  38  57  86 123 161 199 243 299 360
#     4  10  19  32  55  88 123 156 189 240 297 352
#     4  10  23  43  65  90 121 157 202 255 303 353
#     4  11  20  34  55  85 123 161 199 241 296 357
#
# _framework density 20.378222000000001
#
# number of rings (size 3 to 8) (size 9 to 14) (size 15 to 20)
#    0.000    1.273    1.818    6.545    0.000    1.091 
#    0.000    3.636    0.000    0.000    0.000    0.000 
#    0.000    0.000    0.000    0.000    0.000    0.000 
#
# Total GULP energy -272555.756905 kJ/mol
# GULP energy per Si atom -12388.898041 kJ/mol
# Density = 2.033184 g / cm^3
# Si number density = 20.378222 Si / 1000 Ang^3
#
#
#
# Elastic Constant Matrix: (Units=GPa)
#
#
# Indices 1 2 3 4 5 6 
#
# 1 114.9451 35.9007 63.5996 0.0000 6.0532 0.0000
# 2 35.9007 81.8098 38.0314 0.0000 5.5053 0.0000
# 3 63.5996 38.0314 127.8074 0.0000 0.8274 0.0000
# 4 0.0000 0.0000 0.0000 21.7210 0.0000 -2.9016
# 5 6.0532 5.5053 0.8274 0.0000 25.1573 0.0000
# 6 0.0000 0.0000 0.0000 -2.9016 0.0000 21.1727
#
#
#
# Elastic Compliance Matrix: (Units=1/GPa)
#
#
# Indices 1 2 3 4 5 6 
#
# 1 0.012749 -0.002902 -0.005466 0.000000 -0.002253 0.000000
# 2 -0.002902 0.015071 -0.003024 0.000000 -0.002500 0.000000
# 3 -0.005466 -0.003024 0.011434 0.000000 0.001601 0.000000
# 4 0.000000 0.000000 0.000000 0.046897 0.000000 0.006427
# 5 -0.002253 -0.002500 0.001601 0.000000 0.040786 0.000000
# 6 0.000000 0.000000 0.000000 0.006427 0.000000 0.048111
#
#
# Mechanical properties :
#
#
# Convention : Reuss Voigt Hill
#
# Bulk Modulus (GPa) = 60.71950 66.62508 63.67229
# Shear Modulus (GPa) = 24.59126 26.07891 25.33508
#
# Velocity S-wave (km/s) = 3.47759 3.58123 3.52979
# Velocity P-wave (km/s) = 6.78128 7.06155 6.92284
#
# Compressibility (1/GPa) = 0.01646917
#
# Stress axis : x y z
#
# Youngs Moduli (GPa) = 78.43566 66.35152 87.45893
#
# Poissons Ratio (x) = 0.19256 0.47806
# Poissons Ratio (y) = 0.22763 0.26451
# Poissons Ratio (z) = 0.42874 0.20067
#
# Static dielectric constant tensor:
#      x y z
#    x 3.883420 0.000000 0.097180 
#    y 0.000000 3.482050 0.000000 
#    z 0.097180 0.000000 3.531920 
# 
# 
# High freq. dielectric constant tensor:
#      x y z
#    x 1.815060 0.000000 0.000790 
#    y 0.000000 1.786120 0.000000 
#    z 0.000790 0.000000 1.767930 
# 
# From -- ./inp_files/163228.got.cif
#   From: 2010.06.25/outbox.cif.g09.slc.cpg/sg12_82_cif.got.tgz:163228.got - 2010.06.28 00:19:55.
