data_PCOD8088066
_publ_section_title
;
Structure prediction by ZEFSAII (Michael W. Deem and Ramdas Pophale) SiO2 
 PCOD8088066
Probable space group: C 2/M
;
_chemical_formula_sum "Si O2"
_cell_formula_units_Z 64
_cell_length_a 17.203458
_cell_length_b 12.044623
_cell_length_c 20.689973
_cell_angle_alpha 90.000000
_cell_angle_beta 46.681856
_cell_angle_gamma 90.000000
_cell_volume 3119.141229
_symmetry_space_group_name_H-M "C 2/M"
_symmetry_group_IT_number 12
_symmetry_cell_setting 'monoclinic'
loop_
_space_group_symop_operation_xyz
x,y,z
-x,y,-z
-x,-y,-z
x,-y,z
1/2+x,1/2+y,z
1/2-x,1/2+y,-z
1/2-x,1/2-y,-z
1/2+x,1/2-y,z
loop_
_atom_site_type_symbol
_atom_site_label
_atom_site_fract_x
_atom_site_fract_y
_atom_site_fract_z
Si Si1 0.907507 0.371857 0.007606
Si Si2 0.073970 0.664680 0.407103
Si Si3 0.857063 0.875010 0.553856
Si Si4 0.514991 0.303393 0.639825
Si Si5 0.706581 0.377675 0.761328
Si Si6 0.372127 0.776663 0.303547
Si Si7 0.083841 0.627384 0.141843
Si Si8 0.703017 0.271514 0.178578
O O1 0.936173 0.500000 0.984209
O O2 0.789955 0.359272 0.104743
O O3 0.909817 0.321179 0.934089
O O4 0.000000 0.315970 0.000000
O O5 0.094479 0.791470 0.420981
O O6 0.181163 0.596735 0.338185
O O7 0.000000 0.598864 0.500000
O O8 0.007950 0.680382 0.377887
O O9 0.923157 0.876650 0.448677
O O10 0.734346 0.839703 0.613809
O O11 0.862319 0.000000 0.578909
O O12 0.592193 0.299315 0.656923
O O13 0.393928 0.339933 0.731224
O O14 0.654840 0.500000 0.804240
O O15 0.635423 0.304144 0.754157
O O16 0.732214 0.311621 0.811690
O O17 0.461940 0.867328 0.236107
O O18 0.122793 0.500000 0.122187
O O19 0.159722 0.700614 0.143463
#
# Coordination Sequence:
#
# PCOD8088066 Si02
#       8
#     8   8   8   8   8   8   8   8
#     4  10  21  37  59  86 112 140 175 217 271 326
#     4   8  17  33  49  70  99 134 179 225 265 312
#     4  10  19  32  52  77 107 142 179 220 266 318
#     4   9  19  33  50  74 106 141 176 215 263 312
#     4  10  20  34  52  74 103 141 180 220 270 320
#     4  10  20  35  53  77 110 143 179 224 268 315
#     4  10  20  36  60  85 108 141 182 221 265 316
#     4  10  20  37  58  80 109 143 180 224 264 313
#
# _framework density 20.518467999999999
#
# number of rings (size 3 to 8) (size 9 to 14) (size 15 to 20)
#    0.000    2.375    0.000    2.250    0.000    3.500 
#    0.000    8.750    0.000   12.750    0.000    0.000 
#    0.000    0.000    0.000    0.000    0.000    0.000 
#
# Total GULP energy -396436.444026 kJ/mol
# GULP energy per Si atom -12388.638876 kJ/mol
# Density = 2.047177 g / cm^3
# Si number density = 20.518468 Si / 1000 Ang^3
#
#
#
# Elastic Constant Matrix: (Units=GPa)
#
#
# Indices 1 2 3 4 5 6 
#
# 1 126.8356 21.2595 34.0918 0.0000 14.2262 0.0000
# 2 21.2595 70.5164 4.0212 0.0000 6.0102 0.0000
# 3 34.0918 4.0212 106.5239 0.0000 -3.0076 0.0000
# 4 0.0000 0.0000 0.0000 16.3895 0.0000 -0.6025
# 5 14.2262 6.0102 -3.0076 0.0000 40.4008 0.0000
# 6 0.0000 0.0000 0.0000 -0.6025 0.0000 4.7257
#
#
#
# Elastic Compliance Matrix: (Units=1/GPa)
#
#
# Indices 1 2 3 4 5 6 
#
# 1 0.009460 -0.002407 -0.003027 0.000000 -0.003198 0.000000
# 2 -0.002407 0.015014 0.000165 0.000000 -0.001374 0.000000
# 3 -0.003027 0.000165 0.010401 0.000000 0.001816 0.000000
# 4 0.000000 0.000000 0.000000 0.061302 0.000000 0.007816
# 5 -0.003198 -0.001374 0.001816 0.000000 0.026218 0.000000
# 6 0.000000 0.000000 0.000000 0.007816 0.000000 0.212604
#
#
# Mechanical properties :
#
#
# Convention : Reuss Voigt Hill
#
# Bulk Modulus (GPa) = 41.08880 46.95788 44.02334
# Shear Modulus (GPa) = 14.13824 28.60342 21.37083
#
# Velocity S-wave (km/s) = 2.62782 3.73773 3.23079
# Velocity P-wave (km/s) = 5.41073 6.44692 5.95142
#
# Compressibility (1/GPa) = 0.02433753
#
# Stress axis : x y z
#
# Youngs Moduli (GPa) = 105.70818 66.60270 96.14113
#
# Poissons Ratio (x) = 0.16030 0.29102
# Poissons Ratio (y) = 0.25442 -0.01583
# Poissons Ratio (z) = 0.31998 -0.01097
#
# Static dielectric constant tensor:
#      x y z
#    x 3.884050 0.000000 0.056690 
#    y 0.000000 3.216340 0.000000 
#    z 0.056690 0.000000 3.899320 
# 
# 
# High freq. dielectric constant tensor:
#      x y z
#    x 1.813290 0.000000 0.004570 
#    y 0.000000 1.766440 0.000000 
#    z 0.004570 0.000000 1.808840 
# 
# From -- ./inp_files/315692.got.cif
#   From: 2010.06.25/outbox.cif.g09.slc.cpg/sg12_158_cif.got.tgz:315692.got - 2010.06.28 00:19:55.
