data_PCOD8088443
_publ_section_title
;
Structure prediction by ZEFSAII (Michael W. Deem and Ramdas Pophale) SiO2 
 PCOD8088443
Probable space group: C 2/M
;
_chemical_formula_sum "Si O2"
_cell_formula_units_Z 64
_cell_length_a 20.444113
_cell_length_b 13.500633
_cell_length_c 16.853828
_cell_angle_alpha 90.000000
_cell_angle_beta 48.722505
_cell_angle_gamma 90.000000
_cell_volume 3495.935574
_symmetry_space_group_name_H-M "C 2/M"
_symmetry_group_IT_number 12
_symmetry_cell_setting 'monoclinic'
loop_
_space_group_symop_operation_xyz
x,y,z
-x,y,-z
-x,-y,-z
x,-y,z
1/2+x,1/2+y,z
1/2-x,1/2+y,-z
1/2-x,1/2-y,-z
1/2+x,1/2-y,z
loop_
_atom_site_type_symbol
_atom_site_label
_atom_site_fract_x
_atom_site_fract_y
_atom_site_fract_z
Si Si1 0.490914 0.302839 0.415397
Si Si2 0.798186 0.214430 0.571282
Si Si3 0.912950 0.387327 0.028068
Si Si4 0.882444 0.891746 0.797384
Si Si5 0.739434 0.388604 0.243322
Si Si6 0.831603 0.612515 0.439268
Si Si7 0.968149 0.387171 0.706029
Si Si8 0.147896 0.281025 0.078302
O O1 0.500000 0.324167 0.500000
O O2 0.392544 0.319372 0.465175
O O3 0.540781 0.387623 0.327975
O O4 0.532458 0.193569 0.364431
O O5 0.793064 0.196038 0.669956
O O6 0.797039 0.329953 0.545973
O O7 0.720454 0.152543 0.594939
O O8 0.923702 0.500000 0.986169
O O9 0.843157 0.385160 0.154605
O O10 0.883724 0.312445 0.982715
O O11 0.000000 0.348223 0.000000
O O12 0.795082 0.864467 0.817877
O O13 0.900823 0.819252 0.856100
O O14 0.874825 0.000000 0.841030
O O15 0.709030 0.500000 0.293682
O O16 0.806152 0.500000 0.475928
O O17 0.934215 0.622595 0.335225
O O18 0.954487 0.500000 0.685304
O O19 0.888608 0.364520 0.830940
O O20 0.250000 0.250000 0.000000
#
# Coordination Sequence:
#
# PCOD8088443 Si02
#       8
#     8   8   8   8   8   8   8   8
#     4  10  19  33  51  76 110 143 177 222 268 321
#     4  10  19  32  54  77 108 145 181 226 275 328
#     4  10  22  38  60  88 113 141 182 238 296 341
#     4  10  21  35  52  77 108 145 187 226 269 329
#     4  10  19  32  53  81 108 137 181 234 284 330
#     4   9  19  35  53  77 108 146 186 225 274 333
#     4   9  20  35  54  80 108 140 179 224 275 329
#     4  11  21  36  58  80 113 147 183 233 283 341
#
# _framework density 18.306975000000001
#
# number of rings (size 3 to 8) (size 9 to 14) (size 15 to 20)
#    0.000    2.125    2.500    0.750    1.750    2.000 
#    0.000    0.000    0.000    1.125    0.000    0.000 
#    0.000    0.000    0.000    0.000    0.000    0.000 
#
# Total GULP energy -396419.367151 kJ/mol
# GULP energy per Si atom -12388.105223 kJ/mol
# Density = 1.826531 g / cm^3
# Si number density = 18.306975 Si / 1000 Ang^3
#
#
#
# Elastic Constant Matrix: (Units=GPa)
#
#
# Indices 1 2 3 4 5 6 
#
# 1 73.2814 39.8266 28.6736 0.0000 -7.9823 0.0000
# 2 39.8266 99.3828 35.6622 0.0000 5.6506 0.0000
# 3 28.6736 35.6622 80.8568 0.0000 -5.4584 0.0000
# 4 0.0000 0.0000 0.0000 23.1317 0.0000 0.5486
# 5 -7.9823 5.6506 -5.4584 0.0000 30.3496 0.0000
# 6 0.0000 0.0000 0.0000 0.5486 0.0000 26.1735
#
#
#
# Elastic Compliance Matrix: (Units=1/GPa)
#
#
# Indices 1 2 3 4 5 6 
#
# 1 0.019338 -0.006836 -0.003455 0.000000 0.005737 0.000000
# 2 -0.006836 0.014688 -0.004414 0.000000 -0.005326 0.000000
# 3 -0.003455 -0.004414 0.015725 0.000000 0.002741 0.000000
# 4 0.000000 0.000000 0.000000 0.043252 0.000000 -0.000906
# 5 0.005737 -0.005326 0.002741 0.000000 0.035943 0.000000
# 6 0.000000 0.000000 0.000000 -0.000906 0.000000 0.038226
#
#
# Mechanical properties :
#
#
# Convention : Reuss Voigt Hill
#
# Bulk Modulus (GPa) = 49.16187 51.31622 50.23905
# Shear Modulus (GPa) = 24.58671 25.88820 25.23745
#
# Velocity S-wave (km/s) = 3.66870 3.76455 3.71694
# Velocity P-wave (km/s) = 6.69764 6.85475 6.77665
#
# Compressibility (1/GPa) = 0.02034097
#
# Stress axis : x y z
#
# Youngs Moduli (GPa) = 51.71126 68.08221 63.59447
#
# Poissons Ratio (x) = 0.46540 0.21975
# Poissons Ratio (y) = 0.35349 0.28069
# Poissons Ratio (z) = 0.17869 0.30049
#
# Static dielectric constant tensor:
#      x y z
#    x 3.371860 0.000000 -0.239090 
#    y 0.000000 3.414260 0.000000 
#    z -0.239090 0.000000 3.440530 
# 
# 
# High freq. dielectric constant tensor:
#      x y z
#    x 1.697850 0.000000 -0.019500 
#    y 0.000000 1.702560 0.000000 
#    z -0.019500 0.000000 1.709900 
# 
# From -- ./inp_files/283296.got.cif
#   From: 2010.06.25/outbox.cif.g09.slc.cpg/sg12_142_cif.got.tgz:283296.got - 2010.06.28 00:19:55.
