data_PCOD8088049
_publ_section_title
;
Structure prediction by ZEFSAII (Michael W. Deem and Ramdas Pophale) SiO2 
 PCOD8088049
Probable space group: C 2/M
;
_chemical_formula_sum "Si O2"
_cell_formula_units_Z 64
_cell_length_a 27.366307
_cell_length_b 10.414254
_cell_length_c 12.832971
_cell_angle_alpha 90.000000
_cell_angle_beta 114.778741
_cell_angle_gamma 90.000000
_cell_volume 3320.667550
_symmetry_space_group_name_H-M "C 2/M"
_symmetry_group_IT_number 12
_symmetry_cell_setting 'monoclinic'
loop_
_space_group_symop_operation_xyz
x,y,z
-x,y,-z
-x,-y,-z
x,-y,z
1/2+x,1/2+y,z
1/2-x,1/2+y,-z
1/2-x,1/2-y,-z
1/2+x,1/2-y,z
loop_
_atom_site_type_symbol
_atom_site_label
_atom_site_fract_x
_atom_site_fract_y
_atom_site_fract_z
Si Si1 0.438093 0.644310 0.470795
Si Si2 0.161215 0.358548 0.122983
Si Si3 0.192249 0.140588 0.297372
Si Si4 0.454129 0.854465 0.885508
Si Si5 0.704580 0.145531 0.941484
Si Si6 0.899540 0.210172 0.662895
Si Si7 0.200376 0.355896 0.517107
Si Si8 0.858296 0.354129 0.322284
O O1 0.500000 0.668610 0.500000
O O2 0.421252 0.500000 0.420753
O O3 0.426499 0.652787 0.584387
O O4 0.406344 0.752531 0.379646
O O5 0.183299 0.500000 0.177149
O O6 0.194572 0.245170 0.207511
O O7 0.099389 0.345781 0.095726
O O8 0.163983 0.344535 0.001690
O O9 0.131839 0.111873 0.289153
O O10 0.236094 0.190105 0.424650
O O11 0.211895 0.000000 0.272886
O O12 0.446861 0.782086 0.768418
O O13 0.470491 0.000000 0.872247
O O14 0.500000 0.791112 0.000000
O O15 0.671322 0.183010 0.809974
O O16 0.728243 0.000000 0.953351
O O17 0.750000 0.250000 0.000000
O O18 0.846276 0.296578 0.595428
O O19 0.200587 0.500000 0.476923
O O20 0.183977 0.339731 0.623009
O O21 0.881804 0.500000 0.339775
#
# Coordination Sequence:
#
# PCOD8088049 Si02
#       8
#     8   8   8   8   8   8   8   8
#     4  10  22  39  56  76 106 140 175 219 269 318
#     4   9  19  34  51  75 107 138 172 214 258 304
#     4  10  19  32  52  77 105 135 169 209 255 309
#     4   9  18  33  54  79 105 134 170 215 265 312
#     4  10  20  34  53  78 110 147 183 219 259 308
#     4  10  19  33  53  76 103 135 172 212 256 311
#     4   9  17  30  49  76 107 136 165 205 257 307
#     4   9  19  35  54  78 107 138 177 221 261 307
#
# _framework density 19.273233999999999
#
# number of rings (size 3 to 8) (size 9 to 14) (size 15 to 20)
#    0.000    2.500    0.000    1.875    0.000    4.250 
#    0.000    5.625    0.000   10.875    0.000    0.000 
#    0.000    0.000    0.000    0.000    0.000    0.000 
#
# Total GULP energy -396437.102330 kJ/mol
# GULP energy per Si atom -12388.659448 kJ/mol
# Density = 1.922937 g / cm^3
# Si number density = 19.273234 Si / 1000 Ang^3
#
#
#
# Elastic Constant Matrix: (Units=GPa)
#
#
# Indices 1 2 3 4 5 6 
#
# 1 60.5449 23.0585 26.6703 0.0000 9.6994 0.0000
# 2 23.0585 95.1081 61.5271 0.0000 25.7291 0.0000
# 3 26.6703 61.5271 122.1433 0.0000 16.7155 0.0000
# 4 0.0000 0.0000 0.0000 19.6584 0.0000 11.7478
# 5 9.6994 25.7291 16.7155 0.0000 29.1528 0.0000
# 6 0.0000 0.0000 0.0000 11.7478 0.0000 21.4133
#
#
#
# Elastic Compliance Matrix: (Units=1/GPa)
#
#
# Indices 1 2 3 4 5 6 
#
# 1 0.018961 -0.002050 -0.002704 0.000000 -0.002949 0.000000
# 2 -0.002050 0.019103 -0.007554 0.000000 -0.011846 0.000000
# 3 -0.002704 -0.007554 0.012530 0.000000 0.000382 0.000000
# 4 0.000000 0.000000 0.000000 0.075681 0.000000 -0.041521
# 5 -0.002949 -0.011846 0.000382 0.000000 0.045519 0.000000
# 6 0.000000 0.000000 0.000000 -0.041521 0.000000 0.069479
#
#
# Mechanical properties :
#
#
# Convention : Reuss Voigt Hill
#
# Bulk Modulus (GPa) = 38.49350 55.58979 47.04164
# Shear Modulus (GPa) = 18.21173 25.14762 21.67967
#
# Velocity S-wave (km/s) = 3.07730 3.61611 3.35753
# Velocity P-wave (km/s) = 5.71334 6.80740 6.28422
#
# Compressibility (1/GPa) = 0.02597841
#
# Stress axis : x y z
#
# Youngs Moduli (GPa) = 52.74004 52.34861 79.80628
#
# Poissons Ratio (x) = 0.10732 0.21579
# Poissons Ratio (y) = 0.10812 0.60284
# Poissons Ratio (z) = 0.14261 0.39543
#
# Static dielectric constant tensor:
#      x y z
#    x 3.466830 0.000000 -0.042140 
#    y 0.000000 3.707420 0.000000 
#    z -0.042140 0.000000 3.614990 
# 
# 
# High freq. dielectric constant tensor:
#      x y z
#    x 1.742630 0.000000 -0.005630 
#    y 0.000000 1.755390 0.000000 
#    z -0.005630 0.000000 1.748350 
# 
# From -- ./inp_files/175312.got.cif
#   From: 2010.06.25/outbox.cif.g09.slc.cpg/sg12_88_cif.got.tgz:175312.got - 2010.06.28 00:19:55.
