data_PCOD8088809
_publ_section_title
;
Structure prediction by ZEFSAII (Michael W. Deem and Ramdas Pophale) SiO2 
 PCOD8088809
Probable space group: C 2/M
;
_chemical_formula_sum "Si O2"
_cell_formula_units_Z 64
_cell_length_a 28.344523
_cell_length_b 17.141947
_cell_length_c 12.259405
_cell_angle_alpha 90.000000
_cell_angle_beta 32.604338
_cell_angle_gamma 90.000000
_cell_volume 3209.623879
_symmetry_space_group_name_H-M "C 2/M"
_symmetry_group_IT_number 12
_symmetry_cell_setting 'monoclinic'
loop_
_space_group_symop_operation_xyz
x,y,z
-x,y,-z
-x,-y,-z
x,-y,z
1/2+x,1/2+y,z
1/2-x,1/2+y,-z
1/2-x,1/2-y,-z
1/2+x,1/2-y,z
loop_
_atom_site_type_symbol
_atom_site_label
_atom_site_fract_x
_atom_site_fract_y
_atom_site_fract_z
Si Si1 0.593076 0.329014 0.366552
Si Si2 0.679981 0.592842 0.606117
Si Si3 0.872260 0.407635 0.215848
Si Si4 0.766873 0.910806 0.052414
Si Si5 0.058182 0.907625 0.649962
Si Si6 0.366723 0.408789 0.069156
Si Si7 0.528174 0.092435 0.764920
Si Si8 0.924590 0.352610 0.564774
O O1 0.500000 0.358408 0.500000
O O2 0.608798 0.368724 0.451931
O O3 0.595192 0.236900 0.373712
O O4 0.674915 0.353980 0.133883
O O5 0.683765 0.500000 0.606246
O O6 0.774861 0.624296 0.383234
O O7 0.606210 0.620433 0.666126
O O8 0.657834 0.629612 0.767261
O O9 0.877783 0.500000 0.206334
O O10 0.902192 0.380763 0.278587
O O11 0.934105 0.379738 0.996048
O O12 0.663673 0.899769 0.236512
O O13 0.791893 0.000000 0.975741
O O14 0.789489 0.891488 0.134296
O O15 0.959074 0.874965 0.846516
O O16 0.062942 0.000000 0.626198
O O17 0.380865 0.500000 0.060181
O O18 0.545460 0.136835 0.618382
O O19 0.532673 0.000000 0.733283
O O20 0.000000 0.383391 0.500000
#
# Coordination Sequence:
#
# PCOD8088809 Si02
#       8
#     8   8   8   8   8   8   8   8
#     4  11  23  41  59  78 116 157 196 235 287 346
#     4   9  16  27  48  84 119 139 170 229 297 342
#     4   8  15  29  54  84 112 145 184 233 287 333
#     4  11  22  38  64  89 109 146 198 246 284 335
#     4  10  19  32  55  83 110 145 189 240 284 331
#     4   9  17  30  54  85 113 141 181 234 289 336
#     4   9  17  33  57  81 109 149 196 238 275 330
#     4  11  25  40  57  82 120 159 191 235 293 345
#
# _framework density 19.940031000000001
#
# number of rings (size 3 to 8) (size 9 to 14) (size 15 to 20)
#    0.000    2.250    1.250    3.000    0.000    6.000 
#    0.000    1.250    5.500    1.500    0.000    0.000 
#    0.000    0.000    0.000    0.000    0.000    0.000 
#
# Total GULP energy -396746.673303 kJ/mol
# GULP energy per Si atom -12398.333541 kJ/mol
# Density = 1.989465 g / cm^3
# Si number density = 19.940031 Si / 1000 Ang^3
#
#
#
# Elastic Constant Matrix: (Units=GPa)
#
#
# Indices 1 2 3 4 5 6 
#
# 1 115.1772 30.8011 58.0125 0.0000 -4.7320 0.0000
# 2 30.8011 38.9330 23.7907 0.0000 5.3171 0.0000
# 3 58.0125 23.7907 119.0046 0.0000 2.7971 0.0000
# 4 0.0000 0.0000 0.0000 13.1592 0.0000 -10.7975
# 5 -4.7320 5.3171 2.7971 0.0000 41.2096 0.0000
# 6 0.0000 0.0000 0.0000 -10.7975 0.0000 3.5996
#
#
#
# Elastic Compliance Matrix: (Units=1/GPa)
#
#
# Indices 1 2 3 4 5 6 
#
# 1 0.013476 -0.007978 -0.005043 0.000000 0.002919 0.000000
# 2 -0.007978 0.034462 -0.002879 0.000000 -0.005167 0.000000
# 3 -0.005043 -0.002879 0.011460 0.000000 -0.000985 0.000000
# 4 0.000000 0.000000 0.000000 -0.052005 0.000000 -0.155994
# 5 0.002919 -0.005167 -0.000985 0.000000 0.025335 0.000000
# 6 0.000000 0.000000 0.000000 -0.155994 0.000000 -0.190114
#
#
# Mechanical properties :
#
#
# Convention : Reuss Voigt Hill
#
# Bulk Modulus (GPa) = 36.23459 55.36927 45.80193
# Shear Modulus (GPa) = -42.96000 22.29440 -10.33280
#
# Velocity S-wave (km/s) = -4.64665 3.34739 -2.27886
# Velocity P-wave (km/s) = 3.25227 6.53974 4.01191
#
# Compressibility (1/GPa) = 0.02759794
#
# Stress axis : x y z
#
# Youngs Moduli (GPa) = 74.20744 29.01771 87.26033
#
# Poissons Ratio (x) = 0.23151 0.44004
# Poissons Ratio (y) = 0.59204 0.25119
# Poissons Ratio (z) = 0.37421 0.08353
#
# Static dielectric constant tensor:
#      x y z
#    x 3.787750 0.000000 -0.085700 
#    y 0.000000 3.130280 0.000000 
#    z -0.085700 0.000000 3.824430 
# 
# 
# High freq. dielectric constant tensor:
#      x y z
#    x 1.784580 0.000000 0.000050 
#    y 0.000000 1.730210 0.000000 
#    z 0.000050 0.000000 1.791120 
# 
# From -- ./inp_files/190016.got.cif
#   From: 2010.06.25/outbox.cif.g09.slc.cpg/sg12_96_cif.got.tgz:190016.got - 2010.06.28 00:19:55.
