data_PCOD8088086
_publ_section_title
;
Structure prediction by ZEFSAII (Michael W. Deem and Ramdas Pophale) SiO2 
 PCOD8088086
Probable space group: C 2/M
;
_chemical_formula_sum "Si O2"
_cell_formula_units_Z 56
_cell_length_a 31.983425
_cell_length_b 8.509354
_cell_length_c 12.043625
_cell_angle_alpha 90.000000
_cell_angle_beta 123.269153
_cell_angle_gamma 90.000000
_cell_volume 2740.554702
_symmetry_space_group_name_H-M "C 2/M"
_symmetry_group_IT_number 12
_symmetry_cell_setting 'monoclinic'
loop_
_space_group_symop_operation_xyz
x,y,z
-x,y,-z
-x,-y,-z
x,-y,z
1/2+x,1/2+y,z
1/2-x,1/2+y,-z
1/2-x,1/2-y,-z
1/2+x,1/2-y,z
loop_
_atom_site_type_symbol
_atom_site_label
_atom_site_fract_x
_atom_site_fract_y
_atom_site_fract_z
Si Si1 0.743104 0.814820 0.866770
Si Si2 0.444154 0.813465 0.407476
Si Si3 0.867936 0.313389 0.673074
Si Si4 0.427680 0.185790 0.139875
Si Si5 0.521037 0.187049 0.146333
Si Si6 0.834446 0.687054 0.862627
Si Si7 0.351012 0.812899 0.406269
O O1 0.787317 0.767551 0.849554
O O2 0.692339 0.746379 0.737207
O O3 0.739996 0.000000 0.872044
O O4 0.750000 0.750000 0.000000
O O5 0.500000 0.740368 0.500000
O O6 0.419633 0.761958 0.254802
O O7 0.405656 0.751744 0.445232
O O8 0.448876 0.000000 0.421976
O O9 0.871452 0.500000 0.681768
O O10 0.923956 0.241995 0.754327
O O11 0.837721 0.257379 0.738421
O O12 0.841721 0.256514 0.520200
O O13 0.482354 0.248109 0.183148
O O14 0.427055 0.000000 0.125866
O O15 0.383502 0.251801 0.997965
O O16 0.524478 0.000000 0.151824
O O17 0.500000 0.249735 0.000000
O O18 0.829472 0.500000 0.865911
O O19 0.350440 0.000000 0.400112
#
# Coordination Sequence:
#
# PCOD8088086 Si02
#       7
#     8   8   8   8   8   8   8
#     4  11  23  39  57  75  99 132 172 216 259 303
#     4   9  15  23  37  60  93 131 164 198 246 303
#     4   9  16  27  45  72 107 141 170 204 254 311
#     4   9  15  23  39  66 100 134 168 207 252 298
#     4   9  13  20  36  65 104 140 168 200 248 303
#     4  10  19  32  52  78 105 134 170 211 253 301
#     4   9  18  31  46  68 101 137 168 205 255 305
#
# _framework density 20.433819
#
# number of rings (size 3 to 8) (size 9 to 14) (size 15 to 20)
#    0.000    2.571    1.429    2.143    0.000    6.286 
#    0.000    0.000    0.000    0.857    0.000    2.000 
#    0.000   29.143    0.000    0.000    0.000    0.000 
#
# Total GULP energy -346990.210135 kJ/mol
# GULP energy per Si atom -12392.507505 kJ/mol
# Density = 2.038731 g / cm^3
# Si number density = 20.433819 Si / 1000 Ang^3
#
#
#
# Elastic Constant Matrix: (Units=GPa)
#
#
# Indices 1 2 3 4 5 6 
#
# 1 161.2823 11.8556 86.1009 0.0000 -9.4494 0.0000
# 2 11.8556 14.6229 13.7329 0.0000 0.7057 0.0000
# 3 86.1009 13.7329 171.9114 0.0000 -8.3097 0.0000
# 4 0.0000 0.0000 0.0000 11.6286 0.0000 0.1106
# 5 -9.4494 0.7057 -8.3097 0.0000 39.8756 0.0000
# 6 0.0000 0.0000 0.0000 0.1106 0.0000 17.7842
#
#
#
# Elastic Compliance Matrix: (Units=1/GPa)
#
#
# Indices 1 2 3 4 5 6 
#
# 1 0.008660 -0.003316 -0.004011 0.000000 0.001275 0.000000
# 2 -0.003316 0.075463 -0.004515 0.000000 -0.003062 0.000000
# 3 -0.004011 -0.004515 0.008227 0.000000 0.000844 0.000000
# 4 0.000000 0.000000 0.000000 0.086000 0.000000 -0.000535
# 5 0.001275 -0.003062 0.000844 0.000000 0.025610 0.000000
# 6 0.000000 0.000000 0.000000 -0.000535 0.000000 0.056233
#
#
# Mechanical properties :
#
#
# Convention : Reuss Voigt Hill
#
# Bulk Modulus (GPa) = 14.56335 63.46617 39.01476
# Shear Modulus (GPa) = 16.29906 29.59947 22.94926
#
# Velocity S-wave (km/s) = 2.82734 3.81012 3.35491
# Velocity P-wave (km/s) = 4.21912 7.10512 5.84311
#
# Compressibility (1/GPa) = 0.06866550
#
# Stress axis : x y z
#
# Youngs Moduli (GPa) = 115.47470 13.25157 121.54771
#
# Poissons Ratio (x) = 0.04394 0.48750
# Poissons Ratio (y) = 0.38291 0.54885
# Poissons Ratio (z) = 0.46314 0.05984
#
# Static dielectric constant tensor:
#      x y z
#    x 3.954920 0.000000 -0.041170 
#    y 0.000000 2.885150 0.000000 
#    z -0.041170 0.000000 4.054980 
# 
# 
# High freq. dielectric constant tensor:
#      x y z
#    x 1.812210 0.000000 -0.007330 
#    y 0.000000 1.709210 0.000000 
#    z -0.007330 0.000000 1.813730 
# 
# From -- ./inp_files/180741.got.cif
#   From: 2010.06.25/outbox.cif.g09.slc.cpg/sg12_91_cif.got.tgz:180741.got - 2010.06.28 00:19:55.
