data_PCOD8088159
_publ_section_title
;
Structure prediction by ZEFSAII (Michael W. Deem and Ramdas Pophale) SiO2 
 PCOD8088159
Probable space group: C 2/M
;
_chemical_formula_sum "Si O2"
_cell_formula_units_Z 64
_cell_length_a 23.830461
_cell_length_b 9.325218
_cell_length_c 20.533895
_cell_angle_alpha 90.000000
_cell_angle_beta 52.796295
_cell_angle_gamma 90.000000
_cell_volume 3634.490591
_symmetry_space_group_name_H-M "C 2/M"
_symmetry_group_IT_number 12
_symmetry_cell_setting 'monoclinic'
loop_
_space_group_symop_operation_xyz
x,y,z
-x,y,-z
-x,-y,-z
x,-y,z
1/2+x,1/2+y,z
1/2-x,1/2+y,-z
1/2-x,1/2-y,-z
1/2+x,1/2-y,z
loop_
_atom_site_type_symbol
_atom_site_label
_atom_site_fract_x
_atom_site_fract_y
_atom_site_fract_z
Si Si1 0.913656 0.836061 0.738632
Si Si2 0.282439 0.830505 0.788092
Si Si3 0.721152 0.164843 0.711233
Si Si4 0.287534 0.334932 0.530563
Si Si5 0.429197 0.835199 0.239332
Si Si6 0.429760 0.663680 0.368450
Si Si7 0.936945 0.164402 0.872052
Si Si8 0.209949 0.833209 0.972361
O O1 0.861009 0.732404 0.737453
O O2 0.910292 0.803007 0.817789
O O3 0.992710 0.802146 0.657413
O O4 0.892051 0.000000 0.739409
O O5 0.242656 0.766228 0.754687
O O6 0.237924 0.784520 0.882642
O O7 0.287639 0.000000 0.776626
O O8 0.762742 0.220665 0.618203
O O9 0.637607 0.181321 0.760644
O O10 0.741284 0.000000 0.712252
O O11 0.265083 0.500000 0.538445
O O12 0.250000 0.250000 0.500000
O O13 0.372001 0.313803 0.465508
O O14 0.410909 0.763797 0.321051
O O15 0.495978 0.761672 0.157400
O O16 0.447649 0.000000 0.239532
O O17 0.429162 0.500000 0.342813
O O18 0.960812 0.000000 0.861606
O O19 0.873461 0.201277 0.965814
O O20 0.223939 0.000000 0.975209
O O21 0.250000 0.750000 0.000000
#
# Coordination Sequence:
#
# PCOD8088159 Si02
#       8
#     8   8   8   8   8   8   8   8
#     4   9  17  32  53  77 106 141 173 212 269 322
#     4  11  23  36  54  80 107 141 182 222 267 318
#     4  10  22  38  54  76 110 148 180 215 267 324
#     4  10  19  34  56  82 108 139 181 224 264 312
#     4  10  19  32  52  80 109 138 176 220 265 313
#     4   9  18  32  54  81 108 138 175 218 267 318
#     4   9  18  33  54  79 107 139 174 217 269 320
#     4  10  20  35  55  81 108 136 179 226 267 315
#
# _framework density 17.609071
#
# number of rings (size 3 to 8) (size 9 to 14) (size 15 to 20)
#    0.000    2.250    2.500    1.500    0.000    4.500 
#    0.000    1.250    0.000    7.500    0.000    0.000 
#    0.000    0.000    0.000    0.000    0.000    0.000 
#
# Total GULP energy -396827.658167 kJ/mol
# GULP energy per Si atom -12400.864318 kJ/mol
# Density = 1.756899 g / cm^3
# Si number density = 17.609071 Si / 1000 Ang^3
#
#
#
# Elastic Constant Matrix: (Units=GPa)
#
#
# Indices 1 2 3 4 5 6 
#
# 1 104.4308 62.3201 62.6408 0.0001 -5.6638 -0.0004
# 2 62.3201 87.2609 49.5796 -0.0008 0.6822 0.0004
# 3 62.6408 49.5796 116.0333 0.0002 -7.6897 -0.0002
# 4 0.0001 -0.0008 0.0002 24.9480 -0.0001 -1.1118
# 5 -5.6638 0.6822 -7.6897 -0.0001 27.9547 0.0001
# 6 -0.0004 0.0004 -0.0002 -1.1118 0.0001 34.1518
#
#
#
# Elastic Compliance Matrix: (Units=1/GPa)
#
#
# Indices 1 2 3 4 5 6 
#
# 1 0.019610 -0.010710 -0.005836 0.000000 0.002629 0.000000
# 2 -0.010710 0.021116 -0.003482 0.000001 -0.003643 0.000000
# 3 -0.005836 -0.003482 0.013429 0.000000 0.002597 0.000000
# 4 0.000000 0.000001 0.000000 0.040142 0.000000 0.001307
# 5 0.002629 -0.003643 0.002597 0.000000 0.037108 0.000000
# 6 0.000000 0.000000 0.000000 0.001307 0.000000 0.029324
#
#
# Mechanical properties :
#
#
# Convention : Reuss Voigt Hill
#
# Bulk Modulus (GPa) = 70.93039 72.97844 71.95441
# Shear Modulus (GPa) = 24.33284 26.28987 25.31136
#
# Velocity S-wave (km/s) = 3.72134 3.86809 3.79542
# Velocity P-wave (km/s) = 7.67024 7.84112 7.75615
#
# Compressibility (1/GPa) = 0.01409833
#
# Stress axis : x y z
#
# Youngs Moduli (GPa) = 50.99384 47.35843 74.46645
#
# Poissons Ratio (x) = 0.50720 0.43460
# Poissons Ratio (y) = 0.54613 0.25930
# Poissons Ratio (z) = 0.29761 0.16491
#
# Static dielectric constant tensor:
#      x y z
#    x 3.137530 0.000000 -0.342750 
#    y 0.000000 3.292100 0.000000 
#    z -0.342750 0.000000 3.531860 
# 
# 
# High freq. dielectric constant tensor:
#      x y z
#    x 1.666740 0.000000 -0.026120 
#    y 0.000000 1.682980 0.000000 
#    z -0.026120 0.000000 1.678620 
# 
# From -- ./inp_files/319950.got.cif
#   From: 2010.06.25/outbox.cif.g09.slc.cpg/sg12_160_cif.got.tgz:319950.got - 2010.06.28 00:19:55.
