data_PCOD8088959
_publ_section_title
;
Structure prediction by ZEFSAII (Michael W. Deem and Ramdas Pophale) SiO2 
 PCOD8088959
Probable space group: C 2/M
;
_chemical_formula_sum "Si O2"
_cell_formula_units_Z 64
_cell_length_a 18.809258
_cell_length_b 13.091363
_cell_length_c 31.133838
_cell_angle_alpha 90.000000
_cell_angle_beta 150.446866
_cell_angle_gamma 90.000000
_cell_volume 3781.282288
_symmetry_space_group_name_H-M "C 2/M"
_symmetry_group_IT_number 12
_symmetry_cell_setting 'monoclinic'
loop_
_space_group_symop_operation_xyz
x,y,z
-x,y,-z
-x,-y,-z
x,-y,z
1/2+x,1/2+y,z
1/2-x,1/2+y,-z
1/2-x,1/2-y,-z
1/2+x,1/2-y,z
loop_
_atom_site_type_symbol
_atom_site_label
_atom_site_fract_x
_atom_site_fract_y
_atom_site_fract_z
Si Si1 0.344675 0.381380 0.435574
Si Si2 0.832891 0.244406 0.718609
Si Si3 0.598944 0.120402 0.014215
Si Si4 0.580255 0.379638 0.802991
Si Si5 0.408787 0.384983 0.289418
Si Si6 0.896636 0.383795 0.832636
Si Si7 0.550698 0.116519 0.575374
Si Si8 0.382996 0.727714 0.540085
O O1 0.500000 0.343014 0.500000
O O2 0.323029 0.500000 0.414915
O O3 0.218312 0.322596 0.344803
O O4 0.337150 0.359236 0.482143
O O5 0.884796 0.307173 0.787005
O O6 0.704157 0.169084 0.663810
O O7 0.965676 0.178946 0.771549
O O8 0.761537 0.163060 0.101754
O O9 0.604762 0.000000 0.024985
O O10 0.500000 0.169282 0.000000
O O11 0.535073 0.147045 0.933809
O O12 0.566054 0.500000 0.804671
O O13 0.549618 0.354981 0.737080
O O14 0.460943 0.500000 0.326649
O O15 0.238086 0.375568 0.205870
O O16 0.483293 0.309756 0.361795
O O17 0.909711 0.500000 0.822041
O O18 0.500000 0.124716 0.500000
O O19 0.427634 0.168940 0.539372
O O20 0.563857 0.000000 0.597301
O O21 0.250000 0.750000 0.500000
#
# Coordination Sequence:
#
# PCOD8088959 Si02
#       8
#     8   8   8   8   8   8   8   8
#     4  11  21  37  57  76 103 141 180 223 270 315
#     4  12  20  36  52  80 110 142 180 214 264 320
#     4   9  16  32  54  80 110 135 166 217 277 321
#     4  10  21  34  54  81 109 142 177 216 267 321
#     4  10  19  33  54  80 104 132 176 227 269 309
#     4  10  19  32  57  82 105 136 172 221 273 319
#     4  11  23  39  54  72 105 149 184 213 259 317
#     4  12  22  36  53  77 107 139 181 224 263 310
#
# _framework density 16.925476
#
# number of rings (size 3 to 8) (size 9 to 14) (size 15 to 20)
#    0.000    1.375    5.000    1.875    0.000    3.500 
#    0.000    0.000    0.000    0.000    0.000    0.000 
#    0.000    5.000    0.000    0.000    0.000    0.000 
#
# Total GULP energy -396883.696062 kJ/mol
# GULP energy per Si atom -12402.615502 kJ/mol
# Density = 1.688695 g / cm^3
# Si number density = 16.925476 Si / 1000 Ang^3
#
#
#
# Elastic Constant Matrix: (Units=GPa)
#
#
# Indices 1 2 3 4 5 6 
#
# 1 110.8226 43.0146 42.2556 0.0000 5.0110 0.0000
# 2 43.0146 80.3849 40.1297 0.0001 -3.3725 0.0000
# 3 42.2556 40.1297 96.7606 0.0005 -0.5617 0.0000
# 4 0.0000 0.0001 0.0005 15.4841 0.0000 3.3958
# 5 5.0110 -3.3725 -0.5617 0.0000 25.5228 0.0000
# 6 0.0000 0.0000 0.0000 3.3958 0.0000 18.7868
#
#
#
# Elastic Compliance Matrix: (Units=1/GPa)
#
#
# Indices 1 2 3 4 5 6 
#
# 1 0.012422 -0.005124 -0.003318 0.000000 -0.003189 0.000000
# 2 -0.005124 0.017898 -0.005166 0.000000 0.003257 0.000000
# 3 -0.003318 -0.005166 0.013928 0.000000 0.000275 0.000000
# 4 0.000000 0.000000 0.000000 0.067248 0.000000 -0.012155
# 5 -0.003189 0.003257 0.000275 0.000000 0.040243 0.000000
# 6 0.000000 0.000000 0.000000 -0.012155 0.000000 0.055426
#
#
# Mechanical properties :
#
#
# Convention : Reuss Voigt Hill
#
# Bulk Modulus (GPa) = 58.71724 59.86311 59.29017
# Shear Modulus (GPa) = 20.82829 22.79662 21.81246
#
# Velocity S-wave (km/s) = 3.51178 3.67397 3.59379
# Velocity P-wave (km/s) = 7.15614 7.31046 7.23371
#
# Compressibility (1/GPa) = 0.01703077
#
# Stress axis : x y z
#
# Youngs Moduli (GPa) = 80.50461 55.87237 71.79863
#
# Poissons Ratio (x) = 0.28631 0.23822
# Poissons Ratio (y) = 0.41254 0.37092
# Poissons Ratio (z) = 0.26710 0.28864
#
# Static dielectric constant tensor:
#      x y z
#    x 3.122080 0.000000 -0.003790 
#    y 0.000000 3.275370 0.000000 
#    z -0.003790 0.000000 3.293050 
# 
# 
# High freq. dielectric constant tensor:
#      x y z
#    x 1.652410 0.000000 -0.003910 
#    y 0.000000 1.635850 0.000000 
#    z -0.003910 0.000000 1.658960 
# 
# From -- ./inp_files/296711.got.cif
#   From: 2010.06.25/outbox.cif.g09.slc.cpg/sg12_149_cif.got.tgz:296711.got - 2010.06.28 00:19:55.
