data_PCOD8088563
_publ_section_title
;
Structure prediction by ZEFSAII (Michael W. Deem and Ramdas Pophale) SiO2 
 PCOD8088563
Probable space group: C 2/M
;
_chemical_formula_sum "Si O2"
_cell_formula_units_Z 64
_cell_length_a 28.134405
_cell_length_b 8.984411
_cell_length_c 14.247096
_cell_angle_alpha 90.000000
_cell_angle_beta 94.015054
_cell_angle_gamma 90.000000
_cell_volume 3592.414926
_symmetry_space_group_name_H-M "C 2/M"
_symmetry_group_IT_number 12
_symmetry_cell_setting 'monoclinic'
loop_
_space_group_symop_operation_xyz
x,y,z
-x,y,-z
-x,-y,-z
x,-y,z
1/2+x,1/2+y,z
1/2-x,1/2+y,-z
1/2-x,1/2-y,-z
1/2+x,1/2-y,z
loop_
_atom_site_type_symbol
_atom_site_label
_atom_site_fract_x
_atom_site_fract_y
_atom_site_fract_z
Si Si1 0.240831 0.174683 0.098395
Si Si2 0.104230 0.672326 0.951084
Si Si3 0.672252 0.324872 0.815273
Si Si4 0.424371 0.172135 0.725057
Si Si5 0.447150 0.175755 0.518066
Si Si6 0.905887 0.173302 0.342107
Si Si7 0.028429 0.668769 0.791034
Si Si8 0.366846 0.326422 0.865335
O O1 0.276769 0.243683 0.180563
O O2 0.188387 0.211433 0.128146
O O3 0.249673 0.000000 0.089657
O O4 0.250000 0.250000 0.000000
O O5 0.119419 0.500000 0.955444
O O6 0.143915 0.764434 0.901040
O O7 0.052602 0.693411 0.895728
O O8 0.101264 0.737098 0.055031
O O9 0.679168 0.500000 0.830322
O O10 0.644120 0.287324 0.715519
O O11 0.433005 0.227229 0.620233
O O12 0.472420 0.199490 0.791896
O O13 0.382494 0.270216 0.764670
O O14 0.409139 0.000000 0.725063
O O15 0.500000 0.235464 0.500000
O O16 0.408265 0.243685 0.441789
O O17 0.445790 0.000000 0.508330
O O18 0.949443 0.222147 0.282539
O O19 0.910592 0.000000 0.361379
O O20 0.037280 0.500000 0.756018
O O21 0.377296 0.500000 0.877276
#
# Coordination Sequence:
#
# PCOD8088563 Si02
#       8
#     8   8   8   8   8   8   8   8
#     4  11  22  36  57  81 107 142 181 225 273 321
#     4  10  19  32  54  78 105 145 186 220 262 316
#     4  10  20  34  53  81 113 140 175 224 272 321
#     4  10  21  37  56  77 106 145 186 223 265 317
#     4  10  19  35  58  81 108 142 182 227 266 313
#     4  10  20  32  52  83 114 141 173 221 276 323
#     4   9  18  34  53  76 107 144 186 224 257 311
#     4  11  24  38  52  76 112 144 177 225 275 322
#
# _framework density 17.815314000000001
#
# number of rings (size 3 to 8) (size 9 to 14) (size 15 to 20)
#    0.000    1.875    2.500    1.875    0.000    5.250 
#    0.000    2.500    0.000    0.750    0.000    0.000 
#    0.000    0.000    0.000    0.000    0.000    0.000 
#
# Total GULP energy -396875.977310 kJ/mol
# GULP energy per Si atom -12402.374291 kJ/mol
# Density = 1.777477 g / cm^3
# Si number density = 17.815314 Si / 1000 Ang^3
#
#
#
# Elastic Constant Matrix: (Units=GPa)
#
#
# Indices 1 2 3 4 5 6 
#
# 1 97.6543 51.3332 63.8899 0.0000 -0.0456 0.0000
# 2 51.3332 73.7379 52.2508 0.0000 1.2428 0.0000
# 3 63.8899 52.2508 118.3444 0.0000 0.6755 0.0000
# 4 0.0000 0.0000 0.0000 32.2338 0.0000 0.8213
# 5 -0.0456 1.2428 0.6755 0.0000 24.7568 0.0000
# 6 0.0000 0.0000 0.0000 0.8213 0.0000 27.9911
#
#
#
# Elastic Compliance Matrix: (Units=1/GPa)
#
#
# Indices 1 2 3 4 5 6 
#
# 1 0.019019 -0.008692 -0.006434 0.000000 0.000647 0.000000
# 2 -0.008692 0.023723 -0.005775 0.000000 -0.001049 0.000000
# 3 -0.006434 -0.005775 0.014474 0.000000 -0.000117 0.000000
# 4 0.000000 0.000000 0.000000 0.031047 0.000000 -0.000911
# 5 0.000647 -0.001049 -0.000117 0.000000 0.040450 0.000000
# 6 0.000000 0.000000 0.000000 -0.000911 0.000000 0.035752
#
#
# Mechanical properties :
#
#
# Convention : Reuss Voigt Hill
#
# Bulk Modulus (GPa) = 64.87970 69.40938 67.14454
# Shear Modulus (GPa) = 23.65140 25.14718 24.39929
#
# Velocity S-wave (km/s) = 3.64756 3.76113 3.70478
# Velocity P-wave (km/s) = 7.36455 7.60964 7.48810
#
# Compressibility (1/GPa) = 0.01541314
#
# Stress axis : x y z
#
# Youngs Moduli (GPa) = 52.57970 42.15356 69.09073
#
# Poissons Ratio (x) = 0.36641 0.44450
# Poissons Ratio (y) = 0.45703 0.39903
# Poissons Ratio (z) = 0.33827 0.24345
#
# Static dielectric constant tensor:
#      x y z
#    x 3.335670 0.000000 0.258650 
#    y 0.000000 3.333180 0.000000 
#    z 0.258650 0.000000 3.287900 
# 
# 
# High freq. dielectric constant tensor:
#      x y z
#    x 1.675860 0.000000 0.017480 
#    y 0.000000 1.696750 0.000000 
#    z 0.017480 0.000000 1.678760 
# 
# From -- ./inp_files/248418.got.cif
#   From: 2010.06.25/outbox.cif.g09.slc.cpg/sg12_125_cif.got.tgz:248418.got - 2010.06.28 00:19:55.
