data_PCOD8088034
_publ_section_title
;
Structure prediction by ZEFSAII (Michael W. Deem and Ramdas Pophale) SiO2 
 PCOD8088034
Probable space group: C 2/M
;
_chemical_formula_sum "Si O2"
_cell_formula_units_Z 64
_cell_length_a 21.598412
_cell_length_b 13.023063
_cell_length_c 13.244476
_cell_angle_alpha 90.000000
_cell_angle_beta 106.813452
_cell_angle_gamma 90.000000
_cell_volume 3566.119151
_symmetry_space_group_name_H-M "C 2/M"
_symmetry_group_IT_number 12
_symmetry_cell_setting 'monoclinic'
loop_
_space_group_symop_operation_xyz
x,y,z
-x,y,-z
-x,-y,-z
x,-y,z
1/2+x,1/2+y,z
1/2-x,1/2+y,-z
1/2-x,1/2-y,-z
1/2+x,1/2-y,z
loop_
_atom_site_type_symbol
_atom_site_label
_atom_site_fract_x
_atom_site_fract_y
_atom_site_fract_z
Si Si1 0.637047 0.616386 0.669014
Si Si2 0.251008 0.748113 0.209340
Si Si3 0.426920 0.618881 0.572180
Si Si4 0.542992 0.723437 0.110482
Si Si5 0.360524 0.882647 0.172661
Si Si6 0.152764 0.884659 0.270231
Si Si7 0.861668 0.619219 0.936978
Si Si8 0.962443 0.768835 0.270901
O O1 0.657688 0.500000 0.680167
O O2 0.703540 0.677075 0.702159
O O3 0.598671 0.646578 0.549814
O O4 0.591806 0.641308 0.744862
O O5 0.292753 0.824927 0.159918
O O6 0.211584 0.810138 0.274723
O O7 0.205022 0.678643 0.117462
O O8 0.452948 0.500000 0.589335
O O9 0.369470 0.633278 0.625390
O O10 0.482873 0.702619 0.621010
O O11 0.593952 0.636498 0.165425
O O12 0.579123 0.829271 0.096751
O O13 0.493603 0.742591 0.177149
O O14 0.500000 0.678740 0.000000
O O15 0.420370 0.835697 0.267081
O O16 0.352454 0.000000 0.202124
O O17 0.376806 0.871639 0.062326
O O18 0.176386 0.000000 0.263990
O O19 0.856038 0.500000 0.901256
#
# Coordination Sequence:
#
# PCOD8088034 Si02
#       8
#     8   8   8   8   8   8   8   8
#     4  10  20  34  55  80 102 132 172 216 260 301
#     4  10  20  34  53  75 107 134 172 216 254 302
#     4   9  18  34  56  79 103 132 170 214 261 306
#     4  10  19  33  51  74 105 132 169 212 252 304
#     4  10  20  33  52  74 102 143 178 207 249 302
#     4   9  19  34  52  74 103 139 171 208 256 304
#     4  10  20  34  53  75 102 139 176 212 252 297
#     4  10  19  32  52  77 104 133 166 212 256 307
#
# _framework density 17.946681000000002
#
# number of rings (size 3 to 8) (size 9 to 14) (size 15 to 20)
#    0.000    2.250    1.250    1.875    0.000    3.000 
#    0.000    0.000    0.000    6.750    0.000    0.000 
#    0.000    0.000    0.000    0.000    0.000    0.000 
#
# Total GULP energy -396615.660983 kJ/mol
# GULP energy per Si atom -12394.239406 kJ/mol
# Density = 1.790583 g / cm^3
# Si number density = 17.946681 Si / 1000 Ang^3
#
#
#
# Elastic Constant Matrix: (Units=GPa)
#
#
# Indices 1 2 3 4 5 6 
#
# 1 115.4733 55.3400 48.0339 0.0000 0.8790 0.0000
# 2 55.3400 108.9611 56.5991 0.0000 5.5052 0.0000
# 3 48.0339 56.5991 67.4797 0.0000 3.6811 0.0000
# 4 0.0000 0.0000 0.0000 24.1885 0.0000 2.3675
# 5 0.8790 5.5052 3.6811 0.0000 23.4067 0.0000
# 6 0.0000 0.0000 0.0000 2.3675 0.0000 23.7727
#
#
#
# Elastic Compliance Matrix: (Units=1/GPa)
#
#
# Indices 1 2 3 4 5 6 
#
# 1 0.012926 -0.003215 -0.006576 0.000000 0.001305 0.000000
# 2 -0.003215 0.017130 -0.011969 0.000000 -0.002026 0.000000
# 3 -0.006576 -0.011969 0.029626 0.000000 -0.001597 0.000000
# 4 0.000000 0.000000 0.000000 0.041749 0.000000 -0.004158
# 5 0.001305 -0.002026 -0.001597 0.000000 0.043401 0.000000
# 6 0.000000 0.000000 0.000000 -0.004158 0.000000 0.042479
#
#
# Mechanical properties :
#
#
# Convention : Reuss Voigt Hill
#
# Bulk Modulus (GPa) = 61.86958 67.98445 64.92701
# Shear Modulus (GPa) = 21.16687 23.06966 22.11826
#
# Velocity S-wave (km/s) = 3.43801 3.58921 3.51443
# Velocity P-wave (km/s) = 7.09287 7.42564 7.26116
#
# Compressibility (1/GPa) = 0.01616303
#
# Stress axis : x y z
#
# Youngs Moduli (GPa) = 77.36163 58.37706 33.75445
#
# Poissons Ratio (x) = 0.18771 0.22195
# Poissons Ratio (y) = 0.24875 0.40399
# Poissons Ratio (z) = 0.50869 0.69869
#
# Static dielectric constant tensor:
#      x y z
#    x 3.492710 0.000000 -0.003370 
#    y 0.000000 3.340000 0.000000 
#    z -0.003370 0.000000 3.250770 
# 
# 
# High freq. dielectric constant tensor:
#      x y z
#    x 1.711370 0.000000 -0.000880 
#    y 0.000000 1.688910 0.000000 
#    z -0.000880 0.000000 1.681550 
# 
# From -- ./inp_files/232513.got.cif
#   From: 2010.06.25/outbox.cif.g09.slc.cpg/sg12_117_cif.got.tgz:232513.got - 2010.06.28 00:19:55.
