data_PCOD8088167
_publ_section_title
;
Structure prediction by ZEFSAII (Michael W. Deem and Ramdas Pophale) SiO2 
 PCOD8088167
Probable space group: C 2/M
;
_chemical_formula_sum "Si O2"
_cell_formula_units_Z 64
_cell_length_a 14.546768
_cell_length_b 18.265120
_cell_length_c 12.104920
_cell_angle_alpha 90.000000
_cell_angle_beta 86.970559
_cell_angle_gamma 90.000000
_cell_volume 3211.763953
_symmetry_space_group_name_H-M "C 2/M"
_symmetry_group_IT_number 12
_symmetry_cell_setting 'monoclinic'
loop_
_space_group_symop_operation_xyz
x,y,z
-x,y,-z
-x,-y,-z
x,-y,z
1/2+x,1/2+y,z
1/2-x,1/2+y,-z
1/2-x,1/2-y,-z
1/2+x,1/2-y,z
loop_
_atom_site_type_symbol
_atom_site_label
_atom_site_fract_x
_atom_site_fract_y
_atom_site_fract_z
Si Si1 0.717460 0.084093 0.412449
Si Si2 0.928969 0.325107 0.227729
Si Si3 0.158904 0.287617 0.551746
Si Si4 0.154881 0.658287 0.993307
Si Si5 0.359709 0.331214 0.984053
Si Si6 0.096840 0.584352 0.218231
Si Si7 0.520124 0.663894 0.821160
Si Si8 0.924994 0.861359 0.421194
O O1 0.647881 0.136789 0.485274
O O2 0.688866 0.097940 0.286331
O O3 0.824174 0.101790 0.431468
O O4 0.698368 0.000000 0.447308
O O5 0.843966 0.310093 0.318129
O O6 0.979458 0.250585 0.192752
O O7 0.007368 0.376263 0.277471
O O8 0.890824 0.363483 0.119854
O O9 0.250000 0.250000 0.500000
O O10 0.080674 0.224977 0.544653
O O11 0.144948 0.743735 0.017798
O O12 0.108421 0.614005 0.094313
O O13 0.260436 0.633331 0.977634
O O14 0.421351 0.358731 0.877372
O O15 0.400779 0.359412 0.097514
O O16 0.072899 0.500000 0.213703
O O17 0.536172 0.624282 0.703801
O O18 0.000000 0.897305 0.500000
#
# Coordination Sequence:
#
# PCOD8088167 Si02
#       8
#     8   8   8   8   8   8   8   8
#     4  10  23  41  58  79 114 158 199 236 292 364
#     4  10  20  34  53  80 113 146 187 238 289 346
#     4   9  21  38  58  85 117 149 190 245 301 349
#     4  10  19  32  52  80 111 146 188 233 284 348
#     4   9  17  29  53  78 108 146 174 228 291 340
#     4  11  23  37  56  79 114 162 197 234 284 351
#     4   9  17  32  50  81 113 135 179 231 292 349
#     4  10  21  35  60  88 111 145 189 251 303 341
#
# _framework density 19.926743999999999
#
# number of rings (size 3 to 8) (size 9 to 14) (size 15 to 20)
#    0.000    2.250    1.250    1.125    3.500    6.750 
#    0.000    1.250    0.000    0.750    0.000    3.500 
#    0.000    0.000    0.000    0.000    0.000    0.000 
#
# Total GULP energy -396522.758548 kJ/mol
# GULP energy per Si atom -12391.336205 kJ/mol
# Density = 1.988139 g / cm^3
# Si number density = 19.926744 Si / 1000 Ang^3
#
#
#
# Elastic Constant Matrix: (Units=GPa)
#
#
# Indices 1 2 3 4 5 6 
#
# 1 106.8813 15.2565 47.3236 0.0000 3.3311 0.0000
# 2 15.2565 56.9394 30.2878 0.0000 -0.0524 0.0000
# 3 47.3236 30.2878 123.9047 0.0000 -4.0761 0.0000
# 4 0.0000 0.0000 0.0000 16.0847 0.0000 2.8704
# 5 3.3311 -0.0524 -4.0761 0.0000 34.0406 0.0000
# 6 0.0000 0.0000 0.0000 2.8704 0.0000 15.7743
#
#
#
# Elastic Compliance Matrix: (Units=1/GPa)
#
#
# Indices 1 2 3 4 5 6 
#
# 1 0.011383 -0.000817 -0.004201 0.000000 -0.001618 0.000000
# 2 -0.000817 0.020257 -0.004654 0.000000 -0.000446 0.000000
# 3 -0.004201 -0.004654 0.010869 0.000000 0.001705 0.000000
# 4 0.000000 0.000000 0.000000 0.064258 0.000000 -0.011693
# 5 -0.001618 -0.000446 0.001705 0.000000 0.029739 0.000000
# 6 0.000000 0.000000 0.000000 -0.011693 0.000000 0.065522
#
#
# Mechanical properties :
#
#
# Convention : Reuss Voigt Hill
#
# Bulk Modulus (GPa) = 43.16963 52.60680 47.88821
# Shear Modulus (GPa) = 21.82512 26.17042 23.99777
#
# Velocity S-wave (km/s) = 3.31307 3.62792 3.47407
# Velocity P-wave (km/s) = 6.02880 6.63374 6.33849
#
# Compressibility (1/GPa) = 0.02316443
#
# Stress axis : x y z
#
# Youngs Moduli (GPa) = 87.84717 49.36621 92.00330
#
# Poissons Ratio (x) = 0.04032 0.38653
# Poissons Ratio (y) = 0.07175 0.42822
# Poissons Ratio (z) = 0.36907 0.22977
#
# Static dielectric constant tensor:
#      x y z
#    x 3.751200 0.000000 -0.027870 
#    y 0.000000 3.377660 0.000000 
#    z -0.027870 0.000000 3.759640 
# 
# 
# High freq. dielectric constant tensor:
#      x y z
#    x 1.778490 0.000000 -0.004790 
#    y 0.000000 1.740940 0.000000 
#    z -0.004790 0.000000 1.780860 
# 
# From -- ./inp_files/146124.got.cif
#   From: 2010.06.25/outbox.cif.g09.slc.cpg/sg12_74_cif.got.tgz:146124.got - 2010.06.28 00:19:55.
