data_PCOD8088525
_publ_section_title
;
Structure prediction by ZEFSAII (Michael W. Deem and Ramdas Pophale) SiO2 
 PCOD8088525
Probable space group: C 2/M
;
_chemical_formula_sum "Si O2"
_cell_formula_units_Z 48
_cell_length_a 23.439153
_cell_length_b 13.942217
_cell_length_c 14.348298
_cell_angle_alpha 90.000000
_cell_angle_beta 29.819678
_cell_angle_gamma 90.000000
_cell_volume 2331.675518
_symmetry_space_group_name_H-M "C 2/M"
_symmetry_group_IT_number 12
_symmetry_cell_setting 'monoclinic'
loop_
_space_group_symop_operation_xyz
x,y,z
-x,y,-z
-x,-y,-z
x,-y,z
1/2+x,1/2+y,z
1/2-x,1/2+y,-z
1/2-x,1/2-y,-z
1/2+x,1/2-y,z
loop_
_atom_site_type_symbol
_atom_site_label
_atom_site_fract_x
_atom_site_fract_y
_atom_site_fract_z
Si Si1 0.265603 0.892695 0.552088
Si Si2 0.266496 0.757734 0.822403
Si Si3 0.444153 0.781246 0.411722
Si Si4 0.918181 0.893764 0.330885
Si Si5 0.311912 0.884979 0.922495
Si Si6 0.087989 0.829447 0.946041
O O1 0.372997 0.827568 0.427382
O O2 0.201667 0.857662 0.547705
O O3 0.177318 0.894356 0.763350
O O4 0.311595 0.000000 0.472439
O O5 0.382162 0.774045 0.599439
O O6 0.254134 0.850133 0.908013
O O7 0.156716 0.751283 0.909713
O O8 0.264583 0.658724 0.884367
O O9 0.461740 0.672345 0.353406
O O10 0.560943 0.839691 0.256819
O O11 0.900363 0.000000 0.397242
O O12 0.015613 0.899660 0.114115
O O13 0.315251 0.000000 0.923937
O O14 0.000000 0.774913 0.000000
#
# Coordination Sequence:
#
# PCOD8088525 Si02
#       6
#     8   8   8   8   8   8
#     4   9  18  31  53  85 116 152 197 244 291 347
#     4  10  23  41  60  90 119 154 200 247 297 356
#     4  11  21  37  60  86 118 157 200 247 296 355
#     4  10  19  32  53  84 120 155 192 238 296 355
#     4  11  24  43  65  87 120 161 202 248 297 357
#     4   9  17  34  59  85 114 148 192 244 295 346
#
# _framework density 20.586055000000002
#
# number of rings (size 3 to 8) (size 9 to 14) (size 15 to 20)
#    0.000    2.000    1.667    2.000    0.000    7.333 
#    0.000    0.000    0.000    3.500    0.000    0.000 
#    0.000    0.000    0.000    0.000    0.000    0.000 
#
# Total GULP energy -297405.993742 kJ/mol
# GULP energy per Si atom -12391.916406 kJ/mol
# Density = 2.053920 g / cm^3
# Si number density = 20.586055 Si / 1000 Ang^3
#
#
#
# Elastic Constant Matrix: (Units=GPa)
#
#
# Indices 1 2 3 4 5 6 
#
# 1 96.1138 47.4452 16.2947 0.0000 -1.0365 0.0000
# 2 47.4452 118.9227 18.5642 0.0000 8.3962 0.0000
# 3 16.2947 18.5642 44.5126 0.0000 -1.9788 0.0000
# 4 0.0000 0.0000 0.0000 18.5737 0.0000 -3.4574
# 5 -1.0365 8.3962 -1.9788 0.0000 29.6369 0.0000
# 6 0.0000 0.0000 0.0000 -3.4574 0.0000 26.2487
#
#
#
# Elastic Compliance Matrix: (Units=1/GPa)
#
#
# Indices 1 2 3 4 5 6 
#
# 1 0.013366 -0.005029 -0.002720 0.000000 0.001711 0.000000
# 2 -0.005029 0.011125 -0.002956 0.000000 -0.003525 0.000000
# 3 -0.002720 -0.002956 0.024800 0.000000 0.002398 0.000000
# 4 0.000000 0.000000 0.000000 0.055193 0.000000 0.007270
# 5 0.001711 -0.003525 0.002398 0.000000 0.034960 0.000000
# 6 0.000000 0.000000 0.000000 0.007270 0.000000 0.039055
#
#
# Mechanical properties :
#
#
# Convention : Reuss Voigt Hill
#
# Bulk Modulus (GPa) = 35.86317 47.12860 41.49588
# Shear Modulus (GPa) = 23.90027 26.70821 25.30424
#
# Velocity S-wave (km/s) = 3.41103 3.60584 3.50979
# Velocity P-wave (km/s) = 5.74216 6.34660 6.05193
#
# Compressibility (1/GPa) = 0.02788376
#
# Stress axis : x y z
#
# Youngs Moduli (GPa) = 74.81534 89.88456 40.32184
#
# Poissons Ratio (x) = 0.45201 0.10966
# Poissons Ratio (y) = 0.37623 0.11918
# Poissons Ratio (z) = 0.20347 0.26567
#
# Static dielectric constant tensor:
#      x y z
#    x 4.052610 0.000000 -0.090230 
#    y 0.000000 3.383990 0.000000 
#    z -0.090230 0.000000 3.662100 
# 
# 
# High freq. dielectric constant tensor:
#      x y z
#    x 1.819440 0.000000 -0.008500 
#    y 0.000000 1.777160 0.000000 
#    z -0.008500 0.000000 1.795200 
# 
# From -- ./inp_files/214657.got.cif
#   From: 2010.06.25/outbox.cif.g09.slc.cpg/sg12_108_cif.got.tgz:214657.got - 2010.06.28 00:19:55.
