data_PCOD8088114
_publ_section_title
;
Structure prediction by ZEFSAII (Michael W. Deem and Ramdas Pophale) SiO2 
 PCOD8088114
Probable space group: C 2/M
;
_chemical_formula_sum "Si O2"
_cell_formula_units_Z 48
_cell_length_a 23.043797
_cell_length_b 9.212553
_cell_length_c 12.303355
_cell_angle_alpha 90.000000
_cell_angle_beta 69.171125
_cell_angle_gamma 90.000000
_cell_volume 2441.209348
_symmetry_space_group_name_H-M "C 2/M"
_symmetry_group_IT_number 12
_symmetry_cell_setting 'monoclinic'
loop_
_space_group_symop_operation_xyz
x,y,z
-x,y,-z
-x,-y,-z
x,-y,z
1/2+x,1/2+y,z
1/2-x,1/2+y,-z
1/2-x,1/2-y,-z
1/2+x,1/2-y,z
loop_
_atom_site_type_symbol
_atom_site_label
_atom_site_fract_x
_atom_site_fract_y
_atom_site_fract_z
Si Si1 0.315911 0.827273 0.965985
Si Si2 0.921166 0.666975 0.731248
Si Si3 0.555679 0.167681 0.706551
Si Si4 0.100208 0.167183 0.465217
Si Si5 0.648385 0.828520 0.824341
Si Si6 0.758536 0.166319 0.604366
O O1 0.360677 0.779866 0.837346
O O2 0.305479 0.000000 0.974542
O O3 0.250000 0.750000 0.000000
O O4 0.350312 0.771364 0.052889
O O5 0.913464 0.500000 0.701509
O O6 0.933721 0.759319 0.614392
O O7 0.981693 0.687467 0.767139
O O8 0.582484 0.258325 0.589167
O O9 0.587663 0.223888 0.797241
O O10 0.573238 0.000000 0.673672
O O11 0.173027 0.186244 0.393799
O O12 0.080015 0.000000 0.484532
O O13 0.710504 0.769906 0.724178
O O14 0.649201 0.000000 0.828056
O O15 0.750000 0.250000 0.500000
O O16 0.743342 0.000000 0.588862
#
# Coordination Sequence:
#
# PCOD8088114 Si02
#       6
#     8   8   8   8   8   8
#     4  10  21  39  60  83 111 143 183 228 277 331
#     4  10  22  37  56  82 110 147 191 229 270 327
#     4  10  20  36  57  81 111 147 187 230 276 327
#     4  11  22  35  55  83 115 149 185 229 280 330
#     4   9  18  34  57  81 109 142 178 226 276 322
#     4  10  19  32  52  79 107 138 176 219 270 323
#
# _framework density 19.662386000000001
#
# number of rings (size 3 to 8) (size 9 to 14) (size 15 to 20)
#    0.000    2.000    1.667    2.000    0.000    6.000 
#    0.000    5.000    0.000    0.000    0.000    3.500 
#    0.000    0.000    0.000    0.000    0.000    0.000 
#
# Total GULP energy -297577.314140 kJ/mol
# GULP energy per Si atom -12399.054756 kJ/mol
# Density = 1.961763 g / cm^3
# Si number density = 19.662386 Si / 1000 Ang^3
#
#
#
# Elastic Constant Matrix: (Units=GPa)
#
#
# Indices 1 2 3 4 5 6 
#
# 1 114.2941 33.5172 38.0883 0.0000 12.2676 0.0000
# 2 33.5172 59.7872 35.9073 0.0000 4.9853 0.0000
# 3 38.0883 35.9073 101.8121 0.0000 19.0666 0.0000
# 4 0.0000 0.0000 0.0000 23.0577 0.0000 -1.6825
# 5 12.2676 4.9853 19.0666 0.0000 37.6698 0.0000
# 6 0.0000 0.0000 0.0000 -1.6825 0.0000 25.7781
#
#
#
# Elastic Compliance Matrix: (Units=1/GPa)
#
#
# Indices 1 2 3 4 5 6 
#
# 1 0.011053 -0.004781 -0.002091 0.000000 -0.001908 0.000000
# 2 -0.004781 0.023329 -0.006797 0.000000 0.001910 0.000000
# 3 -0.002091 -0.006797 0.014036 0.000000 -0.005524 0.000000
# 4 0.000000 0.000000 0.000000 0.043577 0.000000 0.002844
# 5 -0.001908 0.001910 -0.005524 0.000000 0.029711 0.000000
# 6 0.000000 0.000000 0.000000 0.002844 0.000000 0.038978
#
#
# Mechanical properties :
#
#
# Convention : Reuss Voigt Hill
#
# Bulk Modulus (GPa) = 47.43957 54.54653 50.99305
# Shear Modulus (GPa) = 25.63442 28.52650 27.08046
#
# Velocity S-wave (km/s) = 3.61464 3.81309 3.71519
# Velocity P-wave (km/s) = 6.44982 6.86935 6.66289
#
# Compressibility (1/GPa) = 0.02107945
#
# Stress axis : x y z
#
# Youngs Moduli (GPa) = 90.47080 42.86470 71.24568
#
# Poissons Ratio (x) = 0.20495 0.14900
# Poissons Ratio (y) = 0.43257 0.48424
# Poissons Ratio (z) = 0.18921 0.29134
#
# Static dielectric constant tensor:
#      x y z
#    x 4.062030 0.000000 0.016590 
#    y 0.000000 3.386110 0.000000 
#    z 0.016590 0.000000 3.694550 
# 
# 
# High freq. dielectric constant tensor:
#      x y z
#    x 1.783260 0.000000 0.002470 
#    y 0.000000 1.738740 0.000000 
#    z 0.002470 0.000000 1.764300 
# 
# From -- ./inp_files/172167.got.cif
#   From: 2010.06.25/outbox.cif.g09.slc.cpg/sg12_87_cif.got.tgz:172167.got - 2010.06.28 00:19:55.
