data_PCOD8088075
_publ_section_title
;
Structure prediction by ZEFSAII (Michael W. Deem and Ramdas Pophale) SiO2 
 PCOD8088075
Probable space group: C 2/M
;
_chemical_formula_sum "Si O2"
_cell_formula_units_Z 48
_cell_length_a 23.825418
_cell_length_b 8.793948
_cell_length_c 27.145682
_cell_angle_alpha 90.000000
_cell_angle_beta 27.640292
_cell_angle_gamma 90.000000
_cell_volume 2638.562918
_symmetry_space_group_name_H-M "C 2/M"
_symmetry_group_IT_number 12
_symmetry_cell_setting 'monoclinic'
loop_
_space_group_symop_operation_xyz
x,y,z
-x,y,-z
-x,-y,-z
x,-y,z
1/2+x,1/2+y,z
1/2-x,1/2+y,-z
1/2-x,1/2-y,-z
1/2+x,1/2-y,z
loop_
_atom_site_type_symbol
_atom_site_label
_atom_site_fract_x
_atom_site_fract_y
_atom_site_fract_z
Si Si1 0.788675 0.827288 0.818479
Si Si2 0.192258 0.678368 0.997203
Si Si3 0.950605 0.175064 0.606680
Si Si4 0.618418 0.336797 0.879245
Si Si5 0.323685 0.820700 0.614706
Si Si6 0.579201 0.823173 0.812965
O O1 0.919741 0.813715 0.689410
O O2 0.710213 0.712145 0.849179
O O3 0.739543 0.000000 0.852331
O O4 0.779493 0.778316 0.882967
O O5 0.188135 0.500000 0.007712
O O6 0.053848 0.738256 0.098992
O O7 0.250000 0.750000 0.000000
O O8 0.851234 0.262062 0.649297
O O9 0.082061 0.246488 0.496587
O O10 0.950389 0.000000 0.589734
O O11 0.660490 0.500000 0.821762
O O12 0.594842 0.203238 0.858847
O O13 0.500000 0.374806 0.000000
O O14 0.188898 0.770433 0.702040
O O15 0.339630 0.000000 0.599227
O O16 0.593798 0.000000 0.789218
#
# Coordination Sequence:
#
# PCOD8088075 Si02
#       6
#     8   8   8   8   8   8
#     4  10  20  35  55  78 108 145 181 217 264 326
#     4  10  23  40  58  80 105 140 182 228 276 322
#     4  10  19  32  52  77 110 150 183 213 260 325
#     4  11  21  30  47  80 113 141 174 216 269 321
#     4  11  21  32  49  78 115 146 179 222 266 315
#     4  11  21  35  55  77 108 147 183 218 265 329
#
# _framework density 18.19172
#
# number of rings (size 3 to 8) (size 9 to 14) (size 15 to 20)
#    0.000    1.500    3.333    4.000    0.000    3.333 
#    0.000    0.000    0.000    1.000    0.000    0.000 
#    0.000    0.000    0.000    0.000    0.000    0.000 
#
# Total GULP energy -297346.371142 kJ/mol
# GULP energy per Si atom -12389.432131 kJ/mol
# Density = 1.815031 g / cm^3
# Si number density = 18.191720 Si / 1000 Ang^3
#
#
#
# Elastic Constant Matrix: (Units=GPa)
#
#
# Indices 1 2 3 4 5 6 
#
# 1 91.8735 31.4255 64.8861 -0.0041 7.0736 0.0061
# 2 31.4255 85.1664 42.7643 -0.0017 -1.3715 0.0130
# 3 64.8861 42.7643 138.8722 0.0057 6.6991 -0.0008
# 4 -0.0041 -0.0017 0.0057 21.1740 -0.0003 -1.9387
# 5 7.0736 -1.3715 6.6991 -0.0003 17.3077 -0.0006
# 6 0.0061 0.0130 -0.0008 -1.9387 -0.0006 26.1015
#
#
#
# Elastic Compliance Matrix: (Units=1/GPa)
#
#
# Indices 1 2 3 4 5 6 
#
# 1 0.017083 -0.002933 -0.006859 0.000005 -0.004559 -0.000003
# 2 -0.002933 0.014528 -0.003278 0.000001 0.003619 -0.000007
# 3 -0.006859 -0.003278 0.011507 -0.000004 -0.001911 0.000003
# 4 0.000005 0.000001 -0.000004 0.047551 0.000001 0.003532
# 5 -0.004559 0.003619 -0.001911 0.000001 0.060668 0.000001
# 6 -0.000003 -0.000007 0.000003 0.003532 0.000001 0.038574
#
#
# Mechanical properties :
#
#
# Convention : Reuss Voigt Hill
#
# Bulk Modulus (GPa) = 58.89642 66.00711 62.45177
# Shear Modulus (GPa) = 22.55205 24.70571 23.62888
#
# Velocity S-wave (km/s) = 3.52474 3.68920 3.60791
# Velocity P-wave (km/s) = 7.00077 7.38308 7.19446
#
# Compressibility (1/GPa) = 0.01697896
#
# Stress axis : x y z
#
# Youngs Moduli (GPa) = 58.53893 68.83176 86.90351
#
# Poissons Ratio (x) = 0.20188 0.59603
# Poissons Ratio (y) = 0.17169 0.28487
# Poissons Ratio (z) = 0.40149 0.22563
#
# Static dielectric constant tensor:
#      x y z
#    x 3.096040 0.000000 -0.086830 
#    y 0.000000 3.423280 0.000000 
#    z -0.086830 0.000000 3.816410 
# 
# 
# High freq. dielectric constant tensor:
#      x y z
#    x 1.645270 0.000000 0.003290 
#    y 0.000000 1.718600 0.000000 
#    z 0.003290 0.000000 1.728630 
# 
# From -- ./inp_files/367108.got.cif
#   From: 2010.06.25/outbox.cif.g09.slc.cpg/sg12_184_cif.got.tgz:367108.got - 2010.06.28 00:19:55.
