data_PCOD8088426
_publ_section_title
;
Structure prediction by ZEFSAII (Michael W. Deem and Ramdas Pophale) SiO2 
 PCOD8088426
Probable space group: C 2/M
;
_chemical_formula_sum "Si O2"
_cell_formula_units_Z 56
_cell_length_a 18.223457
_cell_length_b 8.837558
_cell_length_c 19.991975
_cell_angle_alpha 90.000000
_cell_angle_beta 103.900398
_cell_angle_gamma 90.000000
_cell_volume 3125.434489
_symmetry_space_group_name_H-M "C 2/M"
_symmetry_group_IT_number 12
_symmetry_cell_setting 'monoclinic'
loop_
_space_group_symop_operation_xyz
x,y,z
-x,y,-z
-x,-y,-z
x,-y,z
1/2+x,1/2+y,z
1/2-x,1/2+y,-z
1/2-x,1/2-y,-z
1/2+x,1/2-y,z
loop_
_atom_site_type_symbol
_atom_site_label
_atom_site_fract_x
_atom_site_fract_y
_atom_site_fract_z
Si Si1 0.195173 0.176696 0.434546
Si Si2 0.977819 0.825471 0.569337
Si Si3 0.996927 0.672327 0.925520
Si Si4 0.752679 0.822994 0.315429
Si Si5 0.111304 0.329395 0.207012
Si Si6 0.465696 0.323217 0.194409
Si Si7 0.905877 0.677897 0.308055
O O1 0.250000 0.250000 0.500000
O O2 0.110588 0.201928 0.441275
O O3 0.205625 0.265880 0.368191
O O4 0.214075 0.000000 0.429413
O O5 0.000000 0.772100 0.500000
O O6 0.022579 0.726438 0.632646
O O7 0.000212 0.000000 0.585732
O O8 0.026136 0.500000 0.936464
O O9 0.051042 0.761143 0.884685
O O10 0.910518 0.680115 0.877134
O O11 0.000000 0.747409 0.000000
O O12 0.698525 0.787002 0.239456
O O13 0.829847 0.732470 0.327087
O O14 0.771468 0.000000 0.326285
O O15 0.096507 0.500000 0.230264
O O16 0.052505 0.219988 0.233815
O O17 0.453130 0.500000 0.193730
O O18 0.408718 0.248824 0.234619
O O19 0.904374 0.500000 0.300797
#
# Coordination Sequence:
#
# PCOD8088426 Si02
#       7
#     8   8   8   8   8   8   8
#     4  11  23  38  58  83 111 143 183 225 274 329
#     4  10  22  40  60  82 110 143 181 225 276 328
#     4   8  15  31  55  83 114 145 181 224 272 325
#     4  11  22  37  56  77 109 145 184 230 276 328
#     4   8  17  33  53  80 108 141 179 217 270 322
#     4  10  19  32  53  80 111 142 180 223 268 321
#     4  12  24  37  55  79 109 143 186 230 277 331
#
# _framework density 17.917508999999999
#
# number of rings (size 3 to 8) (size 9 to 14) (size 15 to 20)
#    0.857    1.143    0.000    4.714    0.000    6.286 
#    0.000    0.000    0.000    0.857    0.000    0.000 
#    0.000    0.000    0.000    0.000    0.000    0.000 
#
# Total GULP energy -347034.371308 kJ/mol
# GULP energy per Si atom -12394.084690 kJ/mol
# Density = 1.787673 g / cm^3
# Si number density = 17.917509 Si / 1000 Ang^3
#
#
#
# Elastic Constant Matrix: (Units=GPa)
#
#
# Indices 1 2 3 4 5 6 
#
# 1 76.0147 34.0440 39.7959 0.0000 -5.5373 0.0000
# 2 34.0440 111.6521 48.1982 0.0000 -7.3777 0.0000
# 3 39.7959 48.1982 120.4560 0.0000 -10.4038 0.0000
# 4 0.0000 0.0000 0.0000 26.9548 0.0000 -2.7166
# 5 -5.5373 -7.3777 -10.4038 0.0000 27.8963 0.0000
# 6 0.0000 0.0000 0.0000 -2.7166 0.0000 23.4188
#
#
#
# Elastic Compliance Matrix: (Units=1/GPa)
#
#
# Indices 1 2 3 4 5 6 
#
# 1 0.016883 -0.003280 -0.004186 0.000000 0.000923 0.000000
# 2 -0.003280 0.011509 -0.003425 0.000000 0.001115 0.000000
# 3 -0.004186 -0.003425 0.011268 0.000000 0.002466 0.000000
# 4 0.000000 0.000000 0.000000 0.037538 0.000000 0.004354
# 5 0.000923 0.001115 0.002466 0.000000 0.037245 0.000000
# 6 0.000000 0.000000 0.000000 0.004354 0.000000 0.043206
#
#
# Mechanical properties :
#
#
# Convention : Reuss Voigt Hill
#
# Bulk Modulus (GPa) = 55.93343 61.35543 58.64443
# Shear Modulus (GPa) = 26.97035 28.05963 27.51499
#
# Velocity S-wave (km/s) = 3.88397 3.96162 3.92299
# Velocity P-wave (km/s) = 7.16928 7.43260 7.30213
#
# Compressibility (1/GPa) = 0.01787840
#
# Stress axis : x y z
#
# Youngs Moduli (GPa) = 59.23187 86.89071 88.74658
#
# Poissons Ratio (x) = 0.28500 0.37146
# Poissons Ratio (y) = 0.19428 0.30396
# Poissons Ratio (z) = 0.24792 0.29760
#
# Static dielectric constant tensor:
#      x y z
#    x 3.169170 0.000000 -0.036120 
#    y 0.000000 3.338740 0.000000 
#    z -0.036120 0.000000 3.400030 
# 
# 
# High freq. dielectric constant tensor:
#      x y z
#    x 1.675660 0.000000 -0.001060 
#    y 0.000000 1.699090 0.000000 
#    z -0.001060 0.000000 1.690640 
# 
# From -- ./inp_files/313329.got.cif
#   From: 2010.06.25/outbox.cif.g09.slc.cpg/sg12_157_cif.got.tgz:313329.got - 2010.06.28 00:19:55.
