data_PCOD8088343
_publ_section_title
;
Structure prediction by ZEFSAII (Michael W. Deem and Ramdas Pophale) SiO2 
 PCOD8088343
Probable space group: C 2/M
;
_chemical_formula_sum "Si O2"
_cell_formula_units_Z 56
_cell_length_a 25.564499
_cell_length_b 8.731194
_cell_length_c 22.131783
_cell_angle_alpha 90.000000
_cell_angle_beta 144.836204
_cell_angle_gamma 90.000000
_cell_volume 2845.026850
_symmetry_space_group_name_H-M "C 2/M"
_symmetry_group_IT_number 12
_symmetry_cell_setting 'monoclinic'
loop_
_space_group_symop_operation_xyz
x,y,z
-x,y,-z
-x,-y,-z
x,-y,z
1/2+x,1/2+y,z
1/2-x,1/2+y,-z
1/2-x,1/2-y,-z
1/2+x,1/2-y,z
loop_
_atom_site_type_symbol
_atom_site_label
_atom_site_fract_x
_atom_site_fract_y
_atom_site_fract_z
Si Si1 0.662576 0.818083 0.510053
Si Si2 0.319877 0.817811 0.113344
Si Si3 0.475748 0.818278 0.721483
Si Si4 0.364562 0.681343 0.719235
Si Si5 0.597520 0.317816 0.109874
Si Si6 0.235114 0.317931 0.807251
Si Si7 0.900960 0.317174 0.421315
O O1 0.596162 0.752094 0.395547
O O2 0.767319 0.766937 0.599382
O O3 0.629592 0.751351 0.542961
O O4 0.656108 0.000000 0.504975
O O5 0.422488 0.760092 0.197119
O O6 0.288466 0.753662 0.148880
O O7 0.315544 0.000000 0.106659
O O8 0.250000 0.750000 0.000000
O O9 0.446241 0.756628 0.758897
O O10 0.473352 0.000000 0.719308
O O11 0.375901 0.500000 0.727219
O O12 0.371601 0.740508 0.794907
O O13 0.594799 0.500000 0.108696
O O14 0.666417 0.261688 0.122720
O O15 0.500000 0.248747 0.000000
O O16 0.229809 0.500000 0.803660
O O17 0.163332 0.252016 0.691668
O O18 0.897702 0.500000 0.419443
O O19 0.000000 0.254481 0.500000
#
# Coordination Sequence:
#
# PCOD8088343 Si02
#       7
#     8   8   8   8   8   8   8
#     4   9  16  29  47  73 106 134 166 209 254 302
#     4  10  22  37  54  76 102 136 173 209 254 305
#     4  10  21  35  50  73 108 141 168 205 255 306
#     4  10  19  32  53  79 103 134 175 212 250 299
#     4   9  17  28  46  74 101 124 160 214 260 289
#     4   9  16  29  47  71  99 125 160 207 255 297
#     4   9  14  22  42  70  99 128 159 202 255 303
#
# _framework density 19.683468999999999
#
# number of rings (size 3 to 8) (size 9 to 14) (size 15 to 20)
#    0.000    2.571    1.429    1.286    2.000    4.000 
#    0.000    0.000    0.000    1.286    0.000    0.000 
#    0.000    4.000    0.000    0.000    0.000    0.000 
#
# Total GULP energy -347116.952176 kJ/mol
# GULP energy per Si atom -12397.034006 kJ/mol
# Density = 1.963867 g / cm^3
# Si number density = 19.683469 Si / 1000 Ang^3
#
#
#
# Elastic Constant Matrix: (Units=GPa)
#
#
# Indices 1 2 3 4 5 6 
#
# 1 190.5848 14.1546 78.9699 0.0000 10.8071 0.0000
# 2 14.1546 6.0389 12.9523 0.0000 1.9408 0.0000
# 3 78.9699 12.9523 150.3366 0.0000 15.5516 0.0000
# 4 0.0000 0.0000 0.0000 16.4224 0.0000 -1.1003
# 5 10.8071 1.9408 15.5516 0.0000 40.3868 0.0000
# 6 0.0000 0.0000 0.0000 -1.1003 0.0000 20.0347
#
#
#
# Elastic Compliance Matrix: (Units=1/GPa)
#
#
# Indices 1 2 3 4 5 6 
#
# 1 0.007244 -0.010777 -0.002843 0.000000 -0.000326 0.000000
# 2 -0.010777 0.219545 -0.012978 0.000000 -0.002669 0.000000
# 3 -0.002843 -0.012978 0.009498 0.000000 -0.002273 0.000000
# 4 0.000000 0.000000 0.000000 0.061117 0.000000 0.003357
# 5 -0.000326 -0.002669 -0.002273 0.000000 0.025851 0.000000
# 6 0.000000 0.000000 0.000000 0.003357 0.000000 0.050098
#
#
# Mechanical properties :
#
#
# Convention : Reuss Voigt Hill
#
# Bulk Modulus (GPa) = 5.46173 62.12376 33.79274
# Shear Modulus (GPa) = 10.25474 31.42768 20.84121
#
# Velocity S-wave (km/s) = 2.28498 4.00015 3.25748
# Velocity P-wave (km/s) = 3.12127 7.27769 5.59943
#
# Compressibility (1/GPa) = 0.18309212
#
# Stress axis : x y z
#
# Youngs Moduli (GPa) = 138.04845 4.55487 105.28120
#
# Poissons Ratio (x) = 0.04909 0.29931
# Poissons Ratio (y) = 1.48768 1.36635
# Poissons Ratio (z) = 0.39246 0.05911
#
# Static dielectric constant tensor:
#      x y z
#    x 3.869940 0.000000 0.047670 
#    y 0.000000 2.827650 0.000000 
#    z 0.047670 0.000000 3.838880 
# 
# 
# High freq. dielectric constant tensor:
#      x y z
#    x 1.786680 0.000000 0.002830 
#    y 0.000000 1.689390 0.000000 
#    z 0.002830 0.000000 1.780340 
# 
# From -- ./inp_files/321047.got.cif
#   From: 2010.06.25/outbox.cif.g09.slc.cpg/sg12_161_cif.got.tgz:321047.got - 2010.06.28 00:19:55.
