data_PCOD8088145
_publ_section_title
;
Structure prediction by ZEFSAII (Michael W. Deem and Ramdas Pophale) SiO2 
 PCOD8088145
Probable space group: C 2/M
;
_chemical_formula_sum "Si O2"
_cell_formula_units_Z 56
_cell_length_a 15.929609
_cell_length_b 17.817729
_cell_length_c 11.276833
_cell_angle_alpha 90.000000
_cell_angle_beta 70.224468
_cell_angle_gamma 90.000000
_cell_volume 3011.937340
_symmetry_space_group_name_H-M "C 2/M"
_symmetry_group_IT_number 12
_symmetry_cell_setting 'monoclinic'
loop_
_space_group_symop_operation_xyz
x,y,z
-x,y,-z
-x,-y,-z
x,-y,z
1/2+x,1/2+y,z
1/2-x,1/2+y,-z
1/2-x,1/2-y,-z
1/2+x,1/2-y,z
loop_
_atom_site_type_symbol
_atom_site_label
_atom_site_fract_x
_atom_site_fract_y
_atom_site_fract_z
Si Si1 0.413134 0.415470 0.191186
Si Si2 0.877571 0.222029 0.353579
Si Si3 0.107760 0.871006 0.053319
Si Si4 0.089216 0.586072 0.027595
Si Si5 0.192539 0.222602 0.351780
Si Si6 0.736687 0.416226 0.187277
Si Si7 0.571813 0.778163 0.202144
O O1 0.377928 0.500000 0.228242
O O2 0.389356 0.365692 0.316873
O O3 0.518917 0.417242 0.123743
O O4 0.367855 0.377765 0.096998
O O5 0.859572 0.228548 0.500820
O O6 0.794660 0.251560 0.315842
O O7 0.967364 0.268952 0.284172
O O8 0.184611 0.911278 0.088852
O O9 0.097912 0.783373 0.090747
O O10 0.099496 0.500000 0.066940
O O11 0.091054 0.639630 0.141113
O O12 0.163504 0.607177 0.894915
O O13 0.000000 0.600343 0.000000
O O14 0.194313 0.136725 0.307307
O O15 0.136426 0.271582 0.284923
O O16 0.732307 0.500000 0.241570
#
# Coordination Sequence:
#
# PCOD8088145 Si02
#       7
#     8   8   8   8   8   8   8
#     4  10  19  32  52  79 113 143 172 214 275 333
#     4  10  22  38  55  78 109 146 189 236 266 320
#     4   9  19  31  52  83 111 139 170 216 273 338
#     4  10  22  36  54  84 115 144 183 231 282 328
#     4  10  22  38  56  80 107 145 194 226 271 330
#     4  10  20  34  55  80 110 140 176 227 277 329
#     4  10  21  36  60  80 111 145 185 225 281 328
#
# _framework density 18.592683999999998
#
# number of rings (size 3 to 8) (size 9 to 14) (size 15 to 20)
#    0.000    2.143    0.000    3.000    8.000    1.714 
#    0.000    0.000    0.000    8.571    0.000    0.000 
#    0.000    0.000    0.000    0.000    0.000    0.000 
#
# Total GULP energy -347191.714129 kJ/mol
# GULP energy per Si atom -12399.704076 kJ/mol
# Density = 1.855037 g / cm^3
# Si number density = 18.592684 Si / 1000 Ang^3
#
#
#
# Elastic Constant Matrix: (Units=GPa)
#
#
# Indices 1 2 3 4 5 6 
#
# 1 88.6829 22.5523 12.4714 0.0000 11.1215 0.0000
# 2 22.5523 107.1874 49.1617 0.0000 8.1591 0.0000
# 3 12.4714 49.1617 38.2037 0.0000 8.8055 0.0000
# 4 0.0000 0.0000 0.0000 18.7388 0.0000 -2.2747
# 5 11.1215 8.1591 8.8055 0.0000 23.9410 0.0000
# 6 0.0000 0.0000 0.0000 -2.2747 0.0000 18.4771
#
#
#
# Elastic Compliance Matrix: (Units=1/GPa)
#
#
# Indices 1 2 3 4 5 6 
#
# 1 0.012477 -0.002210 -0.000073 0.000000 -0.005016 0.000000
# 2 -0.002210 0.023398 -0.030361 0.000000 0.004219 0.000000
# 3 -0.000073 -0.030361 0.068700 0.000000 -0.014887 0.000000
# 4 0.000000 0.000000 0.000000 0.054175 0.000000 0.006669
# 5 -0.005016 0.004219 -0.014887 0.000000 0.048137 0.000000
# 6 0.000000 0.000000 0.000000 0.006669 0.000000 0.054942
#
#
# Mechanical properties :
#
#
# Convention : Reuss Voigt Hill
#
# Bulk Modulus (GPa) = 25.45331 44.71607 35.08469
# Shear Modulus (GPa) = 14.69671 22.22396 18.46033
#
# Velocity S-wave (km/s) = 2.81456 3.46107 3.15442
# Velocity P-wave (km/s) = 4.92767 6.33045 5.67259
#
# Compressibility (1/GPa) = 0.03928763
#
# Stress axis : x y z
#
# Youngs Moduli (GPa) = 80.14455 42.73845 14.55615
#
# Poissons Ratio (x) = 0.09444 0.00107
# Poissons Ratio (y) = 0.17710 0.44193
# Poissons Ratio (z) = 0.00589 1.29756
#
# Static dielectric constant tensor:
#      x y z
#    x 3.617420 0.000000 0.017560 
#    y 0.000000 3.361600 0.000000 
#    z 0.017560 0.000000 3.201980 
# 
# 
# High freq. dielectric constant tensor:
#      x y z
#    x 1.737430 0.000000 0.001780 
#    y 0.000000 1.719200 0.000000 
#    z 0.001780 0.000000 1.703850 
# 
# From -- ./inp_files/145491.got.cif
#   From: 2010.06.25/outbox.cif.g09.slc.cpg/sg12_73_cif.got.tgz:145491.got - 2010.06.28 00:19:55.
