data_PCOD8088526
_publ_section_title
;
Structure prediction by ZEFSAII (Michael W. Deem and Ramdas Pophale) SiO2 
 PCOD8088526
Probable space group: C 2/M
;
_chemical_formula_sum "Si O2"
_cell_formula_units_Z 64
_cell_length_a 12.759805
_cell_length_b 26.152381
_cell_length_c 15.126773
_cell_angle_alpha 90.000000
_cell_angle_beta 39.315100
_cell_angle_gamma 90.000000
_cell_volume 3198.205060
_symmetry_space_group_name_H-M "C 2/M"
_symmetry_group_IT_number 12
_symmetry_cell_setting 'monoclinic'
loop_
_space_group_symop_operation_xyz
x,y,z
-x,y,-z
-x,-y,-z
x,-y,z
1/2+x,1/2+y,z
1/2-x,1/2+y,-z
1/2-x,1/2-y,-z
1/2+x,1/2-y,z
loop_
_atom_site_type_symbol
_atom_site_label
_atom_site_fract_x
_atom_site_fract_y
_atom_site_fract_z
Si Si1 0.579102 0.409070 0.036491
Si Si2 0.418529 0.689834 0.856658
Si Si3 0.626534 0.557387 0.337698
Si Si4 0.258695 0.442782 0.331623
Si Si5 0.881311 0.874594 0.398915
Si Si6 0.597335 0.057131 0.255598
Si Si7 0.639328 0.875909 0.706436
Si Si8 0.550716 0.788201 0.065949
O O1 0.632889 0.360751 0.058046
O O2 0.446337 0.443882 0.173549
O O3 0.500000 0.385574 0.000000
O O4 0.735874 0.443686 0.911136
O O5 0.547517 0.676010 0.694657
O O6 0.505844 0.732729 0.860924
O O7 0.248506 0.711683 0.930438
O O8 0.500000 0.552640 0.500000
O O9 0.676358 0.500000 0.273477
O O10 0.536225 0.587516 0.317316
O O11 0.792026 0.587560 0.260201
O O12 0.213339 0.500000 0.393158
O O13 0.249649 0.404009 0.420553
O O14 0.133946 0.425733 0.333717
O O15 0.793923 0.855747 0.546421
O O16 0.468413 0.093890 0.294015
O O17 0.524709 0.000000 0.302897
O O18 0.532579 0.830409 0.816772
O O19 0.500000 0.797955 0.000000
#
# Coordination Sequence:
#
# PCOD8088526 Si02
#       8
#     8   8   8   8   8   8   8   8
#     4   9  16  31  54  80 112 146 192 238 283 337
#     4  10  21  39  60  85 109 148 191 240 296 354
#     4   9  18  34  57  83 116 161 200 229 277 347
#     4   9  18  31  53  82 115 157 194 232 279 345
#     4  10  21  37  59  85 119 154 195 238 290 352
#     4  10  19  32  53  84 121 155 192 236 291 344
#     4  11  22  37  58  87 121 154 191 245 292 344
#     4  11  23  40  64  85 110 146 196 248 299 348
#
# _framework density 20.011225
#
# number of rings (size 3 to 8) (size 9 to 14) (size 15 to 20)
#    0.000    2.125    1.250    2.250    0.000    4.000 
#    0.000    1.250    0.000    1.500    0.000    0.000 
#    0.000    0.000    0.000    0.000    0.000    0.000 
#
# Total GULP energy -396684.993272 kJ/mol
# GULP energy per Si atom -12396.406040 kJ/mol
# Density = 1.996568 g / cm^3
# Si number density = 20.011225 Si / 1000 Ang^3
#
#
#
# Elastic Constant Matrix: (Units=GPa)
#
#
# Indices 1 2 3 4 5 6 
#
# 1 104.7809 36.8070 21.8914 0.0005 4.1956 0.0003
# 2 36.8070 101.6269 30.7379 0.0001 5.8699 0.0001
# 3 21.8914 30.7379 67.2761 0.0002 13.7291 0.0005
# 4 0.0005 0.0001 0.0002 -3.6785 -0.0003 -9.7808
# 5 4.1956 5.8699 13.7291 -0.0003 25.0770 -0.0003
# 6 0.0003 0.0001 0.0005 -9.7808 -0.0003 23.7550
#
#
#
# Elastic Compliance Matrix: (Units=1/GPa)
#
#
# Indices 1 2 3 4 5 6 
#
# 1 0.011179 -0.003421 -0.002090 0.000001 0.000075 0.000000
# 2 -0.003421 0.012466 -0.004620 0.000000 0.000184 0.000000
# 3 -0.002090 -0.004620 0.019547 0.000001 -0.009270 0.000000
# 4 0.000001 0.000000 0.000001 -0.129774 -0.000003 -0.053433
# 5 0.000075 0.000184 -0.009270 -0.000003 0.044897 0.000000
# 6 0.000000 0.000000 0.000000 -0.053433 0.000000 0.020096
#
#
# Mechanical properties :
#
#
# Convention : Reuss Voigt Hill
#
# Bulk Modulus (GPa) = 43.61058 50.28405 46.94732
# Shear Modulus (GPa) = 791.79454 21.31386 406.55420
#
# Velocity S-wave (km/s) = 19.91317 3.26712 14.26899
# Velocity P-wave (km/s) = 23.46386 6.27810 17.17509
#
# Compressibility (1/GPa) = 0.02293022
#
# Stress axis : x y z
#
# Youngs Moduli (GPa) = 89.45281 80.22072 51.15956
#
# Poissons Ratio (x) = 0.27444 0.10691
# Poissons Ratio (y) = 0.30602 0.23634
# Poissons Ratio (z) = 0.18694 0.37060
#
# Static dielectric constant tensor:
#      x y z
#    x 3.756360 0.000000 0.025170 
#    y 0.000000 3.521350 0.000000 
#    z 0.025170 0.000000 3.662510 
# 
# 
# High freq. dielectric constant tensor:
#      x y z
#    x 1.789050 0.000000 0.002620 
#    y 0.000000 1.763330 0.000000 
#    z 0.002620 0.000000 1.776290 
# 
# From -- ./inp_files/209361.got.cif
#   From: 2010.06.25/outbox.cif.g09.slc.cpg/sg12_105_cif.got.tgz:209361.got - 2010.06.28 00:19:55.
