data_PCOD8088182
_publ_section_title
;
Structure prediction by ZEFSAII (Michael W. Deem and Ramdas Pophale) SiO2 
 PCOD8088182
Probable space group: C 2/M
;
_chemical_formula_sum "Si O2"
_cell_formula_units_Z 56
_cell_length_a 29.383073
_cell_length_b 16.061942
_cell_length_c 12.094519
_cell_angle_alpha 90.000000
_cell_angle_beta 28.922338
_cell_angle_gamma 90.000000
_cell_volume 2760.523272
_symmetry_space_group_name_H-M "C 2/M"
_symmetry_group_IT_number 12
_symmetry_cell_setting 'monoclinic'
loop_
_space_group_symop_operation_xyz
x,y,z
-x,y,-z
-x,-y,-z
x,-y,z
1/2+x,1/2+y,z
1/2-x,1/2+y,-z
1/2-x,1/2-y,-z
1/2+x,1/2-y,z
loop_
_atom_site_type_symbol
_atom_site_label
_atom_site_fract_x
_atom_site_fract_y
_atom_site_fract_z
Si Si1 0.184231 0.409140 0.357975
Si Si2 0.574110 0.595164 0.573082
Si Si3 0.001547 0.593566 0.117627
Si Si4 0.707364 0.266386 0.209431
Si Si5 0.824429 0.091171 0.422080
Si Si6 0.626919 0.624298 0.920501
Si Si7 0.334555 0.191046 0.142987
O O1 0.174076 0.500000 0.316636
O O2 0.105499 0.403426 0.617892
O O3 0.170022 0.326177 0.316330
O O4 0.284508 0.411123 0.203156
O O5 0.601595 0.500000 0.478947
O O6 0.623508 0.663937 0.387216
O O7 0.602406 0.616910 0.638315
O O8 0.461435 0.603349 0.812858
O O9 0.039638 0.500000 0.025097
O O10 0.000000 0.637271 0.000000
O O11 0.069971 0.637257 0.061558
O O12 0.787805 0.301566 0.120881
O O13 0.750000 0.250000 0.000000
O O14 0.877979 0.085502 0.191304
O O15 0.736952 0.154297 0.613513
O O16 0.783800 0.000000 0.536407
O O17 0.634489 0.720688 0.879165
#
# Coordination Sequence:
#
# PCOD8088182 Si02
#       7
#     8   8   8   8   8   8   8
#     4  10  21  37  57  83 115 151 193 238 289 353
#     4  10  21  36  57  86 116 148 190 238 290 356
#     4  10  20  35  57  86 122 160 193 234 291 356
#     4  10  23  43  62  81 108 147 197 255 308 347
#     4  10  19  32  52  80 115 152 188 230 285 346
#     4  11  20  33  54  83 120 156 186 226 289 361
#     4  10  21  35  55  83 113 152 202 244 285 348
#
# _framework density 20.286010000000001
#
# number of rings (size 3 to 8) (size 9 to 14) (size 15 to 20)
#    0.000    1.857    0.000    4.286    0.000    6.857 
#    0.000    6.429    0.000    6.000    0.000    0.000 
#    0.000    0.000    0.000    0.000    0.000    0.000 
#
# Total GULP energy -346966.466241 kJ/mol
# GULP energy per Si atom -12391.659509 kJ/mol
# Density = 2.023984 g / cm^3
# Si number density = 20.286010 Si / 1000 Ang^3
#
#
#
# Elastic Constant Matrix: (Units=GPa)
#
#
# Indices 1 2 3 4 5 6 
#
# 1 49.3575 29.2459 42.9079 0.0000 -0.8686 0.0000
# 2 29.2459 152.9777 61.6068 0.0000 -0.7376 0.0000
# 3 42.9079 61.6068 128.8690 0.0000 -3.9054 0.0000
# 4 0.0000 0.0000 0.0000 26.5818 0.0000 -5.1226
# 5 -0.8686 -0.7376 -3.9054 0.0000 37.2584 0.0000
# 6 0.0000 0.0000 0.0000 -5.1226 0.0000 21.2516
#
#
#
# Elastic Compliance Matrix: (Units=1/GPa)
#
#
# Indices 1 2 3 4 5 6 
#
# 1 0.029027 -0.002050 -0.008693 0.000000 -0.000275 0.000000
# 2 -0.002050 0.008242 -0.003265 0.000000 -0.000227 0.000000
# 3 -0.008693 -0.003265 0.012246 0.000000 0.001016 0.000000
# 4 0.000000 0.000000 0.000000 0.039452 0.000000 0.009510
# 5 -0.000275 -0.000227 0.001016 0.000000 0.026935 0.000000
# 6 0.000000 0.000000 0.000000 0.009510 0.000000 0.049347
#
#
# Mechanical properties :
#
#
# Convention : Reuss Voigt Hill
#
# Bulk Modulus (GPa) = 46.51158 66.52503 56.51831
# Shear Modulus (GPa) = 24.94598 30.18127 27.56363
#
# Velocity S-wave (km/s) = 3.51053 3.86137 3.69012
# Velocity P-wave (km/s) = 6.27770 7.26257 6.78802
#
# Compressibility (1/GPa) = 0.02150002
#
# Stress axis : x y z
#
# Youngs Moduli (GPa) = 34.45026 121.32316 81.66026
#
# Poissons Ratio (x) = 0.24868 0.70990
# Poissons Ratio (y) = 0.07061 0.26660
# Poissons Ratio (z) = 0.29949 0.39609
#
# Static dielectric constant tensor:
#      x y z
#    x 3.349670 0.000000 -0.200310 
#    y 0.000000 4.346040 0.000000 
#    z -0.200310 0.000000 3.580320 
# 
# 
# High freq. dielectric constant tensor:
#      x y z
#    x 1.758010 0.000000 -0.021810 
#    y 0.000000 1.818180 0.000000 
#    z -0.021810 0.000000 1.785160 
# 
# From -- ./inp_files/143768.got.cif
#   From: 2010.06.25/outbox.cif.g09.slc.cpg/sg12_72_cif.got.tgz:143768.got - 2010.06.28 00:19:55.
