data_PCOD8088917
_publ_section_title
;
Structure prediction by ZEFSAII (Michael W. Deem and Ramdas Pophale) SiO2 
 PCOD8088917
Probable space group: C 2/M
;
_chemical_formula_sum "Si O2"
_cell_formula_units_Z 64
_cell_length_a 15.541365
_cell_length_b 8.873883
_cell_length_c 23.702774
_cell_angle_alpha 90.000000
_cell_angle_beta 90.174374
_cell_angle_gamma 90.000000
_cell_volume 3268.887866
_symmetry_space_group_name_H-M "C 2/M"
_symmetry_group_IT_number 12
_symmetry_cell_setting 'monoclinic'
loop_
_space_group_symop_operation_xyz
x,y,z
-x,y,-z
-x,-y,-z
x,-y,z
1/2+x,1/2+y,z
1/2-x,1/2+y,-z
1/2-x,1/2-y,-z
1/2+x,1/2-y,z
loop_
_atom_site_type_symbol
_atom_site_label
_atom_site_fract_x
_atom_site_fract_y
_atom_site_fract_z
Si Si1 0.158792 0.322418 0.864139
Si Si2 0.746429 0.177597 0.560778
Si Si3 0.403508 0.326970 0.370724
Si Si4 0.500314 0.179680 0.063827
Si Si5 0.332855 0.174441 0.737472
Si Si6 0.661482 0.174967 0.133983
Si Si7 0.905618 0.826519 0.637100
Si Si8 0.654926 0.823528 0.736214
O O1 0.168335 0.500000 0.869126
O O2 0.249609 0.253541 0.882675
O O3 0.133262 0.276574 0.800324
O O4 0.084803 0.258849 0.905032
O O5 0.750000 0.250000 0.500000
O O6 0.659978 0.227564 0.592099
O O7 0.831295 0.230270 0.594738
O O8 0.744815 0.000000 0.553867
O O9 0.373626 0.500000 0.374013
O O10 0.501540 0.307510 0.392864
O O11 0.404648 0.271512 0.305840
O O12 0.585198 0.242190 0.095322
O O13 0.500343 0.000000 0.066076
O O14 0.500000 0.240348 0.000000
O O15 0.364931 0.204110 0.801141
O O16 0.406031 0.223685 0.693549
O O17 0.252853 0.281053 0.722531
O O18 0.307537 0.000000 0.729404
O O19 0.674402 0.000000 0.121757
O O20 0.890898 0.000000 0.654370
O O21 0.640788 0.000000 0.725577
#
# Coordination Sequence:
#
# PCOD8088917 Si02
#       8
#     8   8   8   8   8   8   8   8
#     4   9  19  34  54  79 109 146 188 232 285 345
#     4  11  24  44  66  87 118 159 197 241 286 336
#     4  11  23  39  60  89 119 153 194 237 286 343
#     4   9  18  34  55  78 108 150 195 234 281 344
#     4  10  19  32  56  84 115 149 190 237 286 345
#     4   9  19  34  53  80 111 144 186 237 286 335
#     4  10  23  40  59  86 121 155 189 233 291 342
#     4  10  19  33  55  82 117 151 186 235 292 347
#
# _framework density 19.578524000000002
#
# number of rings (size 3 to 8) (size 9 to 14) (size 15 to 20)
#    0.000    2.125    1.250    1.500    1.750    3.500 
#    0.000    3.125    0.000    0.750    0.000    0.000 
#    0.000    0.000    0.000    0.000    0.000    0.000 
#
# Total GULP energy -396830.451555 kJ/mol
# GULP energy per Si atom -12400.951611 kJ/mol
# Density = 1.953396 g / cm^3
# Si number density = 19.578524 Si / 1000 Ang^3
#
#
#
# Elastic Constant Matrix: (Units=GPa)
#
#
# Indices 1 2 3 4 5 6 
#
# 1 141.6926 32.1768 79.6319 0.0000 -3.3714 0.0000
# 2 32.1768 44.1759 34.7370 0.0000 0.3004 0.0000
# 3 79.6319 34.7370 131.9294 0.0000 -2.4540 0.0000
# 4 0.0000 0.0000 0.0000 23.7063 0.0000 -0.3886
# 5 -3.3714 0.3004 -2.4540 0.0000 24.9478 0.0000
# 6 0.0000 0.0000 0.0000 -0.3886 0.0000 27.6186
#
#
#
# Elastic Compliance Matrix: (Units=1/GPa)
#
#
# Indices 1 2 3 4 5 6 
#
# 1 0.011130 -0.003588 -0.005755 0.000000 0.000981 0.000000
# 2 -0.003588 0.029733 -0.005689 0.000000 -0.001403 0.000000
# 3 -0.005755 -0.005689 0.012561 0.000000 0.000526 0.000000
# 4 0.000000 0.000000 0.000000 0.042193 0.000000 0.000594
# 5 0.000981 -0.001403 0.000526 0.000000 0.040285 0.000000
# 6 0.000000 0.000000 0.000000 0.000594 0.000000 0.036216
#
#
# Mechanical properties :
#
#
# Convention : Reuss Voigt Hill
#
# Bulk Modulus (GPa) = 42.80801 67.87657 55.34229
# Shear Modulus (GPa) = 23.81300 26.67137 25.24219
#
# Velocity S-wave (km/s) = 3.49131 3.69491 3.59455
# Velocity P-wave (km/s) = 6.17775 7.27649 6.74951
#
# Compressibility (1/GPa) = 0.02336011
#
# Stress axis : x y z
#
# Youngs Moduli (GPa) = 89.84669 33.63220 79.61004
#
# Poissons Ratio (x) = 0.12068 0.45816
# Poissons Ratio (y) = 0.32239 0.45291
# Poissons Ratio (z) = 0.51707 0.19134
#
# Static dielectric constant tensor:
#      x y z
#    x 3.624520 0.000000 0.036960 
#    y 0.000000 3.402480 0.000000 
#    z 0.036960 0.000000 3.703280 
# 
# 
# High freq. dielectric constant tensor:
#      x y z
#    x 1.766950 0.000000 -0.000180 
#    y 0.000000 1.749160 0.000000 
#    z -0.000180 0.000000 1.759520 
# 
# From -- ./inp_files/338756.got.cif
#   From: 2010.06.25/outbox.cif.g09.slc.cpg/sg12_170_cif.got.tgz:338756.got - 2010.06.28 00:19:55.
