data_PCOD8088695
_publ_section_title
;
Structure prediction by ZEFSAII (Michael W. Deem and Ramdas Pophale) SiO2 
 PCOD8088695
Probable space group: C 2/M
;
_chemical_formula_sum "Si O2"
_cell_formula_units_Z 56
_cell_length_a 21.678246
_cell_length_b 13.493133
_cell_length_c 15.996759
_cell_angle_alpha 90.000000
_cell_angle_beta 36.868721
_cell_angle_gamma 90.000000
_cell_volume 2807.425897
_symmetry_space_group_name_H-M "C 2/M"
_symmetry_group_IT_number 12
_symmetry_cell_setting 'monoclinic'
loop_
_space_group_symop_operation_xyz
x,y,z
-x,y,-z
-x,-y,-z
x,-y,z
1/2+x,1/2+y,z
1/2-x,1/2+y,-z
1/2-x,1/2-y,-z
1/2+x,1/2-y,z
loop_
_atom_site_type_symbol
_atom_site_label
_atom_site_fract_x
_atom_site_fract_y
_atom_site_fract_z
Si Si1 0.260285 0.111691 0.358713
Si Si2 0.218277 0.389979 0.283858
Si Si3 0.580748 0.616310 0.670863
Si Si4 0.614144 0.305628 0.195731
Si Si5 0.093886 0.209551 0.833828
Si Si6 0.786807 0.392272 0.905117
Si Si7 0.118047 0.807525 0.378371
O O1 0.197219 0.137109 0.512486
O O2 0.356122 0.183909 0.240682
O O3 0.180218 0.116961 0.368602
O O4 0.303521 0.000000 0.316322
O O5 0.180360 0.500000 0.353770
O O6 0.323799 0.365190 0.216337
O O7 0.240478 0.388413 0.162280
O O8 0.132947 0.305819 0.396691
O O9 0.558176 0.500000 0.698034
O O10 0.505751 0.668295 0.684182
O O11 0.556974 0.662723 0.786835
O O12 0.631085 0.189704 0.153755
O O13 0.659686 0.319738 0.239227
O O14 0.677462 0.377285 0.067389
O O15 0.000000 0.224073 0.000000
O O16 0.832217 0.500000 0.880050
O O17 0.000000 0.835877 0.500000
#
# Coordination Sequence:
#
# PCOD8088695 Si02
#       7
#     8   8   8   8   8   8   8
#     4  10  23  41  60  83 114 152 193 235 282 340
#     4   9  19  35  56  82 110 142 180 225 278 331
#     4  11  22  37  60  85 112 148 190 235 286 337
#     4  10  19  32  54  82 111 145 184 230 277 332
#     4  11  23  39  60  85 114 149 191 240 286 333
#     4   9  18  33  52  79 115 146 179 226 283 338
#     4  10  19  35  56  81 112 142 181 227 271 329
#
# _framework density 19.947098
#
# number of rings (size 3 to 8) (size 9 to 14) (size 15 to 20)
#    0.000    2.000    1.429    2.143    0.000    5.429 
#    0.000    0.714    0.000    0.000    0.000    0.000 
#    0.000    0.000    0.000    0.000    0.000    0.000 
#
# Total GULP energy -347116.390674 kJ/mol
# GULP energy per Si atom -12397.013953 kJ/mol
# Density = 1.990170 g / cm^3
# Si number density = 19.947098 Si / 1000 Ang^3
#
#
#
# Elastic Constant Matrix: (Units=GPa)
#
#
# Indices 1 2 3 4 5 6 
#
# 1 68.0597 31.5966 13.0422 0.0000 0.7690 0.0000
# 2 31.5966 112.7308 32.9197 0.0000 8.2713 0.0000
# 3 13.0422 32.9197 70.5811 0.0000 9.1895 0.0000
# 4 0.0000 0.0000 0.0000 24.2901 0.0000 1.7976
# 5 0.7690 8.2713 9.1895 0.0000 22.6640 0.0000
# 6 0.0000 0.0000 0.0000 1.7976 0.0000 23.1690
#
#
#
# Elastic Compliance Matrix: (Units=1/GPa)
#
#
# Indices 1 2 3 4 5 6 
#
# 1 0.017012 -0.004522 -0.001240 0.000000 0.001576 0.000000
# 2 -0.004522 0.011550 -0.004247 0.000000 -0.002340 0.000000
# 3 -0.001240 -0.004247 0.017072 0.000000 -0.005330 0.000000
# 4 0.000000 0.000000 0.000000 0.041407 0.000000 -0.003213
# 5 0.001576 -0.002340 -0.005330 0.000000 0.047084 0.000000
# 6 0.000000 0.000000 0.000000 -0.003213 0.000000 0.043410
#
#
# Mechanical properties :
#
#
# Convention : Reuss Voigt Hill
#
# Bulk Modulus (GPa) = 39.03616 45.16538 42.10077
# Shear Modulus (GPa) = 24.26113 25.61216 24.93664
#
# Velocity S-wave (km/s) = 3.49129 3.58719 3.53957
# Velocity P-wave (km/s) = 5.98870 6.31260 6.15278
#
# Compressibility (1/GPa) = 0.02561728
#
# Stress axis : x y z
#
# Youngs Moduli (GPa) = 58.78220 86.58088 58.57580
#
# Poissons Ratio (x) = 0.39150 0.07261
# Poissons Ratio (y) = 0.26580 0.24876
# Poissons Ratio (z) = 0.07287 0.36769
#
# Static dielectric constant tensor:
#      x y z
#    x 3.537620 0.000000 0.199990 
#    y 0.000000 3.829390 0.000000 
#    z 0.199990 0.000000 3.608930 
# 
# 
# High freq. dielectric constant tensor:
#      x y z
#    x 1.766500 0.000000 0.016570 
#    y 0.000000 1.785760 0.000000 
#    z 0.016570 0.000000 1.772010 
# 
# From -- ./inp_files/233671.got.cif
#   From: 2010.06.25/outbox.cif.g09.slc.cpg/sg12_117_cif.got.tgz:233671.got - 2010.06.28 00:19:55.
