data_PCOD8088540
_publ_section_title
;
Structure prediction by ZEFSAII (Michael W. Deem and Ramdas Pophale) SiO2 
 PCOD8088540
Probable space group: C 2/M
;
_chemical_formula_sum "Si O2"
_cell_formula_units_Z 56
_cell_length_a 24.840688
_cell_length_b 9.020153
_cell_length_c 12.313281
_cell_angle_alpha 90.000000
_cell_angle_beta 104.481690
_cell_angle_gamma 90.000000
_cell_volume 2671.337589
_symmetry_space_group_name_H-M "C 2/M"
_symmetry_group_IT_number 12
_symmetry_cell_setting 'monoclinic'
loop_
_space_group_symop_operation_xyz
x,y,z
-x,y,-z
-x,-y,-z
x,-y,z
1/2+x,1/2+y,z
1/2-x,1/2+y,-z
1/2-x,1/2-y,-z
1/2+x,1/2-y,z
loop_
_atom_site_type_symbol
_atom_site_label
_atom_site_fract_x
_atom_site_fract_y
_atom_site_fract_z
Si Si1 0.521735 0.830008 0.285573
Si Si2 0.674802 0.327837 0.628443
Si Si3 0.654395 0.666042 0.002787
Si Si4 0.896851 0.322857 0.230987
Si Si5 0.203082 0.329238 0.220480
Si Si6 0.860619 0.326534 0.597812
Si Si7 0.451527 0.663520 0.902956
O O1 0.460692 0.757013 0.270763
O O2 0.572740 0.801101 0.395436
O O3 0.553928 0.778551 0.195403
O O4 0.507806 0.000000 0.269280
O O5 0.658143 0.500000 0.626163
O O6 0.631221 0.229703 0.672930
O O7 0.735811 0.299571 0.704174
O O8 0.673504 0.272291 0.503948
O O9 0.674312 0.500000 0.978772
O O10 0.700138 0.744760 0.102480
O O11 0.602630 0.655298 0.054374
O O12 0.637779 0.756740 0.887324
O O13 0.895314 0.500000 0.221876
O O14 0.192100 0.500000 0.188212
O O15 0.159176 0.275250 0.290945
O O16 0.845493 0.500000 0.576025
O O17 0.467270 0.500000 0.865680
O O18 0.500000 0.729783 0.000000
#
# Coordination Sequence:
#
# PCOD8088540 Si02
#       7
#     8   8   8   8   8   8   8
#     4  10  21  36  60  90 119 155 198 241 291 354
#     4  11  25  43  62  86 118 159 205 250 297 352
#     4  11  22  36  60  93 125 157 195 243 299 357
#     4  11  24  41  61  87 122 165 203 239 291 357
#     4  10  22  41  65  91 119 154 199 249 300 353
#     4  10  21  40  65  91 119 151 195 252 302 351
#     4  10  19  32  53  86 125 157 187 237 301 354
#
# _framework density 20.963282
#
# number of rings (size 3 to 8) (size 9 to 14) (size 15 to 20)
#    0.000    1.571    2.857    1.714    0.000    4.857 
#    0.000    2.857    0.000    0.000    0.000    0.000 
#    0.000    0.000    0.000    0.000    0.000    0.000 
#
# Total GULP energy -346940.402849 kJ/mol
# GULP energy per Si atom -12390.728673 kJ/mol
# Density = 2.091557 g / cm^3
# Si number density = 20.963282 Si / 1000 Ang^3
#
#
#
# Elastic Constant Matrix: (Units=GPa)
#
#
# Indices 1 2 3 4 5 6 
#
# 1 76.8150 -122.4160 10.0319 0.0000 39.1458 0.0000
# 2 -122.4160 1214.5792 -1.3939 0.0000 -293.2344 0.0000
# 3 10.0319 -1.3939 56.2085 0.0000 12.8295 0.0000
# 4 0.0000 0.0000 0.0000 34.4332 0.0000 -0.1472
# 5 39.1458 -293.2344 12.8295 0.0000 108.1956 0.0000
# 6 0.0000 0.0000 0.0000 -0.1472 0.0000 26.5347
#
#
#
# Elastic Compliance Matrix: (Units=1/GPa)
#
#
# Indices 1 2 3 4 5 6 
#
# 1 0.016351 0.000803 -0.002102 0.000000 -0.003491 0.000000
# 2 0.000803 0.002543 -0.001631 0.000000 0.006794 0.000000
# 3 -0.002102 -0.001631 0.019488 0.000000 -0.005971 0.000000
# 4 0.000000 0.000000 0.000000 0.029042 0.000000 0.000161
# 5 -0.003491 0.006794 -0.005971 0.000000 0.029628 0.000000
# 6 0.000000 0.000000 0.000000 0.000161 0.000000 0.037687
#
#
# Mechanical properties :
#
#
# Convention : Reuss Voigt Hill
#
# Bulk Modulus (GPa) = 30.74780 124.44963 77.59872
# Shear Modulus (GPa) = 33.01637 131.25807 82.13722
#
# Velocity S-wave (km/s) = 3.97288 7.92144 6.26630
# Velocity P-wave (km/s) = 5.97866 11.96495 9.45792
#
# Compressibility (1/GPa) = 0.03252265
#
# Stress axis : x y z
#
# Youngs Moduli (GPa) = 61.15770 393.28535 51.31261
#
# Poissons Ratio (x) = -0.31570 0.10784
# Poissons Ratio (y) = -0.04909 0.08369
# Poissons Ratio (z) = 0.12853 0.64144
#
# Static dielectric constant tensor:
#      x y z
#    x 3.880410 0.000000 0.181680 
#    y 0.000000 3.951900 0.000000 
#    z 0.181680 0.000000 3.770180 
# 
# 
# High freq. dielectric constant tensor:
#      x y z
#    x 1.828310 0.000000 0.015560 
#    y 0.000000 1.814060 0.000000 
#    z 0.015560 0.000000 1.820460 
# 
# From -- ./inp_files/181132.got.cif
#   From: 2010.06.25/outbox.cif.g09.slc.cpg/sg12_91_cif.got.tgz:181132.got - 2010.06.28 00:19:55.
