data_PCOD8088925
_publ_section_title
;
Structure prediction by ZEFSAII (Michael W. Deem and Ramdas Pophale) SiO2 
 PCOD8088925
Probable space group: C 2/M
;
_chemical_formula_sum "Si O2"
_cell_formula_units_Z 64
_cell_length_a 20.251997
_cell_length_b 8.771156
_cell_length_c 21.961194
_cell_angle_alpha 90.000000
_cell_angle_beta 123.507469
_cell_angle_gamma 90.000000
_cell_volume 3252.742998
_symmetry_space_group_name_H-M "C 2/M"
_symmetry_group_IT_number 12
_symmetry_cell_setting 'monoclinic'
loop_
_space_group_symop_operation_xyz
x,y,z
-x,y,-z
-x,-y,-z
x,-y,z
1/2+x,1/2+y,z
1/2-x,1/2+y,-z
1/2-x,1/2-y,-z
1/2+x,1/2-y,z
loop_
_atom_site_type_symbol
_atom_site_label
_atom_site_fract_x
_atom_site_fract_y
_atom_site_fract_z
Si Si1 0.346534 0.676425 0.164782
Si Si2 0.771571 0.819872 0.446936
Si Si3 0.499250 0.324338 0.685731
Si Si4 0.550817 0.318804 0.470664
Si Si5 0.896616 0.321510 0.065257
Si Si6 0.128122 0.679587 0.293686
Si Si7 0.682426 0.679154 0.088022
Si Si8 0.920887 0.321727 0.862769
O O1 0.340380 0.500000 0.142235
O O2 0.408623 0.698077 0.251449
O O3 0.374698 0.775754 0.122214
O O4 0.263091 0.735732 0.147834
O O5 0.750000 0.750000 0.500000
O O6 0.859032 0.765835 0.472767
O O7 0.710076 0.760439 0.364625
O O8 0.767402 0.000000 0.451391
O O9 0.474154 0.500000 0.673538
O O10 0.482012 0.254045 0.610210
O O11 0.447254 0.243418 0.709953
O O12 0.500000 0.248142 0.500000
O O13 0.543249 0.500000 0.466888
O O14 0.880409 0.500000 0.048054
O O15 0.987301 0.280264 0.097776
O O16 0.840719 0.227248 0.991818
O O17 0.121397 0.500000 0.295048
O O18 0.125205 0.729451 0.221773
O O19 0.696326 0.500000 0.097639
O O20 0.612977 0.726270 0.098570
O O21 0.909339 0.500000 0.870762
#
# Coordination Sequence:
#
# PCOD8088925 Si02
#       8
#     8   8   8   8   8   8   8   8
#     4  11  23  39  61  88 118 155 201 246 294 352
#     4  10  19  32  56  85 114 150 190 237 284 335
#     4  10  20  35  59  86 113 151 194 243 288 339
#     4   9  18  33  54  84 117 151 191 235 282 333
#     4  11  22  40  65  89 117 155 196 242 296 352
#     4  10  20  35  58  87 116 153 193 239 292 347
#     4  12  26  41  59  86 121 156 194 245 298 351
#     4  10  22  40  61  87 119 155 196 242 296 352
#
# _framework density 19.675702000000001
#
# number of rings (size 3 to 8) (size 9 to 14) (size 15 to 20)
#    0.000    1.625    2.500    2.625    0.000    4.500 
#    0.000    3.750    0.000    1.500    0.000    0.000 
#    0.000    0.000    0.000    0.000    0.000    0.000 
#
# Total GULP energy -396909.753198 kJ/mol
# GULP energy per Si atom -12403.429787 kJ/mol
# Density = 1.963092 g / cm^3
# Si number density = 19.675702 Si / 1000 Ang^3
#
#
#
# Elastic Constant Matrix: (Units=GPa)
#
#
# Indices 1 2 3 4 5 6 
#
# 1 96.3762 21.2775 15.3571 0.0000 9.7525 0.0000
# 2 21.2775 33.4954 23.6081 0.0000 5.3770 0.0000
# 3 15.3571 23.6081 92.8467 0.0000 14.4879 0.0000
# 4 0.0000 0.0000 0.0000 21.9418 0.0000 -4.3722
# 5 9.7525 5.3770 14.4879 0.0000 36.2732 0.0000
# 6 0.0000 0.0000 0.0000 -4.3722 0.0000 28.1634
#
#
#
# Elastic Compliance Matrix: (Units=1/GPa)
#
#
# Indices 1 2 3 4 5 6 
#
# 1 0.012241 -0.007595 0.000261 0.000000 -0.002269 0.000000
# 2 -0.007595 0.041198 -0.009155 0.000000 -0.000408 0.000000
# 3 0.000261 -0.009155 0.013709 0.000000 -0.004188 0.000000
# 4 0.000000 0.000000 0.000000 0.047030 0.000000 0.007301
# 5 -0.002269 -0.000408 -0.004188 0.000000 0.029912 0.000000
# 6 0.000000 0.000000 0.000000 0.007301 0.000000 0.036641
#
#
# Mechanical properties :
#
#
# Convention : Reuss Voigt Hill
#
# Bulk Modulus (GPa) = 29.26743 38.13375 33.70059
# Shear Modulus (GPa) = 22.21236 28.10740 25.15988
#
# Velocity S-wave (km/s) = 3.36359 3.78369 3.57981
# Velocity P-wave (km/s) = 5.47651 6.20578 5.85251
#
# Compressibility (1/GPa) = 0.03416768
#
# Stress axis : x y z
#
# Youngs Moduli (GPa) = 81.69289 24.27294 72.94560
#
# Poissons Ratio (x) = 0.18436 -0.01902
# Poissons Ratio (y) = 0.62049 0.66785
# Poissons Ratio (z) = -0.02130 0.22223
#
# Static dielectric constant tensor:
#      x y z
#    x 3.686030 0.000000 0.258790 
#    y 0.000000 3.410800 0.000000 
#    z 0.258790 0.000000 4.053180 
# 
# 
# High freq. dielectric constant tensor:
#      x y z
#    x 1.770560 0.000000 0.008490 
#    y 0.000000 1.748340 0.000000 
#    z 0.008490 0.000000 1.781610 
# 
# From -- ./inp_files/320044.got.cif
#   From: 2010.06.25/outbox.cif.g09.slc.cpg/sg12_161_cif.got.tgz:320044.got - 2010.06.28 00:19:55.
