data_PCOD8088481
_publ_section_title
;
Structure prediction by ZEFSAII (Michael W. Deem and Ramdas Pophale) SiO2 
 PCOD8088481
Probable space group: C 2/M
;
_chemical_formula_sum "Si O2"
_cell_formula_units_Z 64
_cell_length_a 16.210088
_cell_length_b 8.963428
_cell_length_c 22.759681
_cell_angle_alpha 90.000000
_cell_angle_beta 89.209603
_cell_angle_gamma 90.000000
_cell_volume 3306.620489
_symmetry_space_group_name_H-M "C 2/M"
_symmetry_group_IT_number 12
_symmetry_cell_setting 'monoclinic'
loop_
_space_group_symop_operation_xyz
x,y,z
-x,y,-z
-x,-y,-z
x,-y,z
1/2+x,1/2+y,z
1/2-x,1/2+y,-z
1/2-x,1/2-y,-z
1/2+x,1/2-y,z
loop_
_atom_site_type_symbol
_atom_site_label
_atom_site_fract_x
_atom_site_fract_y
_atom_site_fract_z
Si Si1 0.958214 0.672850 0.679992
Si Si2 0.783031 0.178423 0.440401
Si Si3 0.376447 0.174951 0.258213
Si Si4 0.951951 0.162722 0.939604
Si Si5 0.331626 0.170357 0.011174
Si Si6 0.079993 0.674260 0.871592
Si Si7 0.956060 0.671830 0.440842
Si Si8 0.787011 0.821198 0.672334
O O1 0.943224 0.500000 0.696873
O O2 0.875004 0.764301 0.697452
O O3 0.038853 0.738376 0.713659
O O4 0.976648 0.691730 0.610819
O O5 0.750000 0.250000 0.500000
O O6 0.877501 0.225253 0.428401
O O7 0.724804 0.244297 0.390386
O O8 0.775368 0.000000 0.442185
O O9 0.375505 0.217314 0.189440
O O10 0.290666 0.234638 0.286877
O O11 0.378466 0.000000 0.269223
O O12 0.999705 0.223741 0.881967
O O13 0.915159 0.000000 0.923123
O O14 0.886160 0.288908 0.954419
O O15 0.000000 0.145291 0.000000
O O16 0.362941 0.220088 0.074618
O O17 0.313995 0.000000 0.010908
O O18 0.250000 0.250000 0.000000
O O19 0.055699 0.500000 0.873282
O O20 0.925988 0.500000 0.445186
O O21 0.000000 0.724215 0.500000
O O22 0.789253 0.000000 0.666927
#
# Coordination Sequence:
#
# PCOD8088481 Si02
#       8
#     8   8   8   8   8   8   8   8
#     4  10  20  38  61  86 118 156 194 238 295 353
#     4  12  24  38  59  87 119 153 196 246 300 356
#     4   9  19  39  63  83 117 161 198 237 294 356
#     4   9  17  31  52  77 106 139 178 226 278 328
#     4  10  19  32  53  81 115 150 189 234 286 340
#     4   9  18  35  58  81 108 150 194 230 277 346
#     4  10  20  36  59  86 118 154 193 239 298 356
#     4  11  22  40  63  88 119 157 198 243 295 353
#
# _framework density 19.35511
#
# number of rings (size 3 to 8) (size 9 to 14) (size 15 to 20)
#    0.000    2.000    1.250    3.000    0.000    3.750 
#    2.250    1.875    0.000    0.000    0.000    0.000 
#    0.000    0.000    0.000    0.000    0.000    0.000 
#
# Total GULP energy -396578.023868 kJ/mol
# GULP energy per Si atom -12393.063246 kJ/mol
# Density = 1.931106 g / cm^3
# Si number density = 19.355110 Si / 1000 Ang^3
#
#
#
# Elastic Constant Matrix: (Units=GPa)
#
#
# Indices 1 2 3 4 5 6 
#
# 1 135.9877 43.5539 49.1759 0.0000 -6.7897 0.0000
# 2 43.5539 33.2293 43.6583 0.0000 3.8035 0.0000
# 3 49.1759 43.6583 96.0088 0.0000 -22.4555 0.0000
# 4 0.0000 0.0000 0.0000 18.7871 0.0000 -0.3074
# 5 -6.7897 3.8035 -22.4555 0.0000 21.1780 0.0000
# 6 0.0000 0.0000 0.0000 -0.3074 0.0000 37.5991
#
#
#
# Elastic Compliance Matrix: (Units=1/GPa)
#
#
# Indices 1 2 3 4 5 6 
#
# 1 -0.005915 0.096633 -0.060392 0.000000 -0.083287 0.000000
# 2 0.096633 -0.620236 0.353518 0.000000 0.517217 0.000000
# 3 -0.060392 0.353518 -0.184555 0.000000 -0.278541 0.000000
# 4 0.000000 0.000000 0.000000 0.053235 0.000000 0.000435
# 5 -0.083287 0.517217 -0.278541 0.000000 -0.367718 0.000000
# 6 0.000000 0.000000 0.000000 0.000435 0.000000 0.026600
#
#
# Mechanical properties :
#
#
# Convention : Reuss Voigt Hill
#
# Bulk Modulus (GPa) = -32.06179 59.77799 13.85810
# Shear Modulus (GPa) = -2.64760 24.10202 10.72721
#
# Velocity S-wave (km/s) = -1.17084 3.53264 2.35677
# Velocity P-wave (km/s) = 4.29288 6.89865 3.81854
#
# Compressibility (1/GPa) = -0.03118977
#
# Stress axis : x y z
#
# Youngs Moduli (GPa) = -169.05689 -1.61229 -5.41844
#
# Poissons Ratio (x) = 0.15580 -0.32723
# Poissons Ratio (y) = 16.33649 1.91551
# Poissons Ratio (z) = -10.20975 0.56997
#
# Static dielectric constant tensor:
#      x y z
#    x 3.606540 0.000000 -0.050640 
#    y 0.000000 6.857080 0.000000 
#    z -0.050640 0.000000 3.508000 
# 
# 
# High freq. dielectric constant tensor:
#      x y z
#    x 1.755270 0.000000 -0.009840 
#    y 0.000000 1.742800 0.000000 
#    z -0.009840 0.000000 1.746450 
# 
# From -- ./inp_files/338706.got.cif
#   From: 2010.06.25/outbox.cif.g09.slc.cpg/sg12_170_cif.got.tgz:338706.got - 2010.06.28 00:19:55.
