data_PCOD8088314
_publ_section_title
;
Structure prediction by ZEFSAII (Michael W. Deem and Ramdas Pophale) SiO2 
 PCOD8088314
Probable space group: C 2/M
;
_chemical_formula_sum "Si O2"
_cell_formula_units_Z 56
_cell_length_a 19.349296
_cell_length_b 8.647622
_cell_length_c 27.056454
_cell_angle_alpha 90.000000
_cell_angle_beta 140.709882
_cell_angle_gamma 90.000000
_cell_volume 2866.857831
_symmetry_space_group_name_H-M "C 2/M"
_symmetry_group_IT_number 12
_symmetry_cell_setting 'monoclinic'
loop_
_space_group_symop_operation_xyz
x,y,z
-x,y,-z
-x,-y,-z
x,-y,z
1/2+x,1/2+y,z
1/2-x,1/2+y,-z
1/2-x,1/2-y,-z
1/2+x,1/2-y,z
loop_
_atom_site_type_symbol
_atom_site_label
_atom_site_fract_x
_atom_site_fract_y
_atom_site_fract_z
Si Si1 0.935416 0.178962 0.512481
Si Si2 0.453012 0.681245 0.739759
Si Si3 0.888078 0.183422 0.912525
Si Si4 0.773437 0.179822 0.566268
Si Si5 0.668245 0.680417 0.806746
Si Si6 0.349514 0.319232 0.781402
Si Si7 0.389306 0.178176 0.326965
O O1 0.827574 0.282210 0.454041
O O2 0.000000 0.231153 0.500000
O O3 0.012511 0.212295 0.601867
O O4 0.902395 0.000000 0.493879
O O5 0.427726 0.500000 0.728642
O O6 0.381650 0.746497 0.653839
O O7 0.581627 0.714047 0.802830
O O8 0.415037 0.756132 0.771284
O O9 0.790198 0.266033 0.889105
O O10 0.889562 0.246677 0.856698
O O11 0.869424 0.000000 0.904291
O O12 0.000000 0.233820 0.000000
O O13 0.750000 0.250000 0.500000
O O14 0.786207 0.000000 0.564623
O O15 0.666382 0.500000 0.791216
O O16 0.632207 0.787173 0.741743
O O17 0.372765 0.500000 0.795875
O O18 0.220788 0.284767 0.703031
O O19 0.423621 0.000000 0.352283
#
# Coordination Sequence:
#
# PCOD8088314 Si02
#       7
#     8   8   8   8   8   8   8
#     4  11  23  36  50  73 106 140 178 229 281 320
#     4   9  18  32  50  73 100 132 170 212 257 309
#     4   9  18  34  56  80 105 134 169 208 249 301
#     4  11  22  36  54  75 103 140 183 228 277 330
#     4  10  19  32  53  78 104 132 164 207 259 313
#     4   8  15  30  52  75  98 129 171 212 251 301
#     4  10  19  33  54  75  97 133 180 222 261 313
#
# _framework density 19.533580000000001
#
# number of rings (size 3 to 8) (size 9 to 14) (size 15 to 20)
#    0.000    2.286    0.000    4.286    0.000    3.714 
#    0.000    2.857    0.000    9.429    0.000    0.000 
#    0.000    0.000    0.000    0.000    0.000    0.000 
#
# Total GULP energy -347108.658101 kJ/mol
# GULP energy per Si atom -12396.737789 kJ/mol
# Density = 1.948912 g / cm^3
# Si number density = 19.533580 Si / 1000 Ang^3
#
#
#
# Elastic Constant Matrix: (Units=GPa)
#
#
# Indices 1 2 3 4 5 6 
#
# 1 122.1697 24.0585 41.5398 0.0000 14.9821 0.0000
# 2 24.0585 34.5606 18.3548 0.0001 4.6769 -0.0002
# 3 41.5398 18.3548 106.8953 0.0000 16.7743 0.0000
# 4 0.0000 0.0001 0.0000 22.5751 0.0000 3.1342
# 5 14.9821 4.6769 16.7743 0.0000 26.8052 0.0000
# 6 0.0000 -0.0002 0.0000 3.1342 0.0000 25.7876
#
#
#
# Elastic Compliance Matrix: (Units=1/GPa)
#
#
# Indices 1 2 3 4 5 6 
#
# 1 0.010574 -0.005510 -0.002646 0.000000 -0.003293 0.000000
# 2 -0.005510 0.034845 -0.003738 0.000000 -0.000661 0.000000
# 3 -0.002646 -0.003738 0.011855 0.000000 -0.005287 0.000000
# 4 0.000000 0.000000 0.000000 0.045057 0.000000 -0.005476
# 5 -0.003293 -0.000661 -0.005287 0.000000 0.042571 0.000000
# 6 0.000000 0.000000 0.000000 -0.005476 0.000000 0.039444
#
#
# Mechanical properties :
#
#
# Convention : Reuss Voigt Hill
#
# Bulk Modulus (GPa) = 29.86418 47.94798 38.90608
# Shear Modulus (GPa) = 22.80028 27.01175 24.90601
#
# Velocity S-wave (km/s) = 3.42019 3.72269 3.57464
# Velocity P-wave (km/s) = 5.56046 6.56335 6.08261
#
# Compressibility (1/GPa) = 0.03348494
#
# Stress axis : x y z
#
# Youngs Moduli (GPa) = 94.57214 28.69855 84.35315
#
# Poissons Ratio (x) = 0.15812 0.22322
# Poissons Ratio (y) = 0.52107 0.31534
# Poissons Ratio (z) = 0.25027 0.10729
#
# Static dielectric constant tensor:
#      x y z
#    x 3.845000 0.000000 0.110240 
#    y 0.000000 3.296050 0.000000 
#    z 0.110240 0.000000 3.642180 
# 
# 
# High freq. dielectric constant tensor:
#      x y z
#    x 1.768280 0.000000 0.010050 
#    y 0.000000 1.734520 0.000000 
#    z 0.010050 0.000000 1.747510 
# 
# From -- ./inp_files/275204.got.cif
#   From: 2010.06.25/outbox.cif.g09.slc.cpg/sg12_138_cif.got.tgz:275204.got - 2010.06.28 00:19:55.
