data_PCOD8088867
_publ_section_title
;
Structure prediction by ZEFSAII (Michael W. Deem and Ramdas Pophale) SiO2 
 PCOD8088867
Probable space group: C 2/M
;
_chemical_formula_sum "Si O2"
_cell_formula_units_Z 56
_cell_length_a 28.971146
_cell_length_b 9.004649
_cell_length_c 19.732735
_cell_angle_alpha 90.000000
_cell_angle_beta 32.906438
_cell_angle_gamma 90.000000
_cell_volume 2796.626722
_symmetry_space_group_name_H-M "C 2/M"
_symmetry_group_IT_number 12
_symmetry_cell_setting 'monoclinic'
loop_
_space_group_symop_operation_xyz
x,y,z
-x,y,-z
-x,-y,-z
x,-y,z
1/2+x,1/2+y,z
1/2-x,1/2+y,-z
1/2-x,1/2-y,-z
1/2+x,1/2-y,z
loop_
_atom_site_type_symbol
_atom_site_label
_atom_site_fract_x
_atom_site_fract_y
_atom_site_fract_z
Si Si1 0.372548 0.328557 0.443096
Si Si2 0.247957 0.828053 0.802501
Si Si3 0.710748 0.329863 0.695356
Si Si4 0.412484 0.325530 0.644573
Si Si5 0.535558 0.172949 0.287570
Si Si6 0.059771 0.169857 0.787224
Si Si7 0.398414 0.827807 0.942678
O O1 0.383761 0.500000 0.448898
O O2 0.278755 0.276740 0.577018
O O3 0.440306 0.236901 0.403575
O O4 0.385487 0.300321 0.347647
O O5 0.205395 0.803273 0.781964
O O6 0.337569 0.744086 0.692334
O O7 0.263264 0.000000 0.799904
O O8 0.186469 0.760840 0.935024
O O9 0.734892 0.500000 0.648259
O O10 0.618373 0.290399 0.779125
O O11 0.500000 0.284921 0.500000
O O12 0.398303 0.500000 0.668459
O O13 0.410146 0.254750 0.722030
O O14 0.582626 0.204681 0.159085
O O15 0.529817 0.000000 0.311480
O O16 0.977043 0.273086 0.891554
O O17 0.028160 0.000000 0.828759
O O18 0.383575 0.000000 0.975699
#
# Coordination Sequence:
#
# PCOD8088867 Si02
#       7
#     8   8   8   8   8   8   8
#     4  10  19  32  55  86 117 149 186 232 284 334
#     4  11  24  40  59  82 112 152 192 231 277 332
#     4  10  21  36  55  81 114 153 193 233 279 333
#     4  11  24  41  62  89 118 146 180 226 279 333
#     4  10  21  38  61  85 112 149 188 229 280 336
#     4   9  19  36  57  82 114 151 190 232 280 335
#     4  10  22  40  60  84 113 146 189 237 281 328
#
# _framework density 20.024124
#
# number of rings (size 3 to 8) (size 9 to 14) (size 15 to 20)
#    0.000    1.857    0.000    3.429    0.000    8.571 
#    0.000    2.857    0.000    0.000    0.000    0.000 
#    0.000    0.000    0.000    0.000    0.000    0.000 
#
# Total GULP energy -347393.043989 kJ/mol
# GULP energy per Si atom -12406.894428 kJ/mol
# Density = 1.997855 g / cm^3
# Si number density = 20.024124 Si / 1000 Ang^3
#
#
#
# Elastic Constant Matrix: (Units=GPa)
#
#
# Indices 1 2 3 4 5 6 
#
# 1 111.0926 48.3165 29.6397 -0.0020 -4.5044 0.0016
# 2 48.3165 112.1216 60.2267 -0.0032 -2.3472 0.0000
# 3 29.6397 60.2267 96.8847 -0.0234 -9.3847 -0.0009
# 4 -0.0020 -0.0032 -0.0234 35.6353 0.0024 -9.2353
# 5 -4.5044 -2.3472 -9.3847 0.0024 18.0276 -0.0026
# 6 0.0016 0.0000 -0.0009 -9.2353 -0.0026 28.8735
#
#
#
# Elastic Compliance Matrix: (Units=1/GPa)
#
#
# Indices 1 2 3 4 5 6 
#
# 1 0.011171 -0.004564 -0.000387 0.000000 0.001995 -0.000001
# 2 -0.004564 0.015383 -0.008512 -0.000005 -0.003569 -0.000002
# 3 -0.000387 -0.008512 0.016444 0.000011 0.007355 0.000005
# 4 0.000000 -0.000005 0.000011 0.030598 0.000002 0.009787
# 5 0.001995 -0.003569 0.007355 0.000002 0.059333 0.000006
# 6 -0.000001 -0.000002 0.000005 0.009787 0.000006 0.037764
#
#
# Mechanical properties :
#
#
# Convention : Reuss Voigt Hill
#
# Bulk Modulus (GPa) = 62.22240 66.27387 64.24813
# Shear Modulus (GPa) = 24.63327 28.63503 26.63415
#
# Velocity S-wave (km/s) = 3.51120 3.78567 3.65101
# Velocity P-wave (km/s) = 6.89777 7.23030 7.06599
#
# Compressibility (1/GPa) = 0.01607138
#
# Stress axis : x y z
#
# Youngs Moduli (GPa) = 89.52000 65.00522 60.81309
#
# Poissons Ratio (x) = 0.29670 0.02353
# Poissons Ratio (y) = 0.40859 0.51765
# Poissons Ratio (z) = 0.03463 0.55334
#
# Static dielectric constant tensor:
#      x y z
#    x 3.708830 -0.000010 -0.015690 
#    y -0.000010 3.706050 0.000030 
#    z -0.015690 0.000030 3.459950 
# 
# 
# High freq. dielectric constant tensor:
#      x y z
#    x 1.787550 0.000000 -0.001640 
#    y 0.000000 1.789590 0.000000 
#    z -0.001640 0.000000 1.775430 
# 
# From -- ./inp_files/238321.got.cif
#   From: 2010.06.25/outbox.cif.g09.slc.cpg/sg12_120_cif.got.tgz:238321.got - 2010.06.28 00:19:55.
