data_PCOD8088601
_publ_section_title
;
Structure prediction by ZEFSAII (Michael W. Deem and Ramdas Pophale) SiO2 
 PCOD8088601
Probable space group: C 2/M
;
_chemical_formula_sum "Si O2"
_cell_formula_units_Z 60
_cell_length_a 5.169081
_cell_length_b 17.012504
_cell_length_c 36.002750
_cell_angle_alpha 90.000000
_cell_angle_beta 77.505896
_cell_angle_gamma 90.000000
_cell_volume 3091.068797
_symmetry_space_group_name_H-M "C 2/M"
_symmetry_group_IT_number 12
_symmetry_cell_setting 'monoclinic'
loop_
_space_group_symop_operation_xyz
x,y,z
-x,y,-z
-x,-y,-z
x,-y,z
1/2+x,1/2+y,z
1/2-x,1/2+y,-z
1/2-x,1/2-y,-z
1/2+x,1/2-y,z
loop_
_atom_site_type_symbol
_atom_site_label
_atom_site_fract_x
_atom_site_fract_y
_atom_site_fract_z
Si Si1 0.832386 0.407098 0.121125
Si Si2 0.500000 0.695596 0.000000
Si Si3 0.315617 0.406372 0.793750
Si Si4 0.215719 0.592802 0.522826
Si Si5 0.440573 0.800317 0.679027
Si Si6 0.930408 0.300172 0.407273
Si Si7 0.405010 0.406592 0.075025
Si Si8 0.616052 0.906872 0.251119
O O1 0.810435 0.500000 0.124205
O O2 0.756465 0.371228 0.163574
O O3 0.630235 0.376585 0.096210
O O4 0.126626 0.380864 0.101340
O O5 0.557683 0.638213 0.964285
O O6 0.250000 0.750000 0.000000
O O7 0.308039 0.500000 0.795367
O O8 0.604046 0.375953 0.773030
O O9 0.105014 0.375011 0.770372
O O10 0.500000 0.623063 0.500000
O O11 0.209994 0.500000 0.527269
O O12 0.154200 0.626638 0.565163
O O13 0.000000 0.622772 0.500000
O O14 0.647252 0.735539 0.686957
O O15 0.527566 0.831741 0.635858
O O16 0.440055 0.874197 0.706322
O O17 0.701155 0.234957 0.415102
O O18 0.419125 0.500000 0.067274
O O19 0.610959 0.000000 0.254552
#
# Coordination Sequence:
#
# PCOD8088601 Si02
#       8
#     8   4   8   8   8   8   8   8
#     4   9  17  31  55  83 108 134 169 219 266 299
#     4  12  25  40  57  78 110 146 172 210 269 314
#     4   9  17  30  51  82 111 133 168 218 264 306
#     4  10  21  36  54  79 110 139 168 211 267 319
#     4  10  21  37  54  74 106 141 176 220 266 308
#     4  10  21  36  55  78 102 137 181 220 259 307
#     4  10  20  36  59  83 104 135 181 220 252 305
#     4  10  19  32  54  80 105 137 177 215 255 311
#
# _framework density 19.410761999999998
#
# number of rings (size 3 to 8) (size 9 to 14) (size 15 to 20)
#    0.000    2.133    0.000    3.400    0.000    5.333 
#    0.000    2.667    0.000   25.600    0.000    0.000 
#    0.000    0.000    0.000    0.000    0.000    0.000 
#
# Total GULP energy -372069.603457 kJ/mol
# GULP energy per Si atom -12402.320115 kJ/mol
# Density = 1.936658 g / cm^3
# Si number density = 19.410762 Si / 1000 Ang^3
#
#
#
# Elastic Constant Matrix: (Units=GPa)
#
#
# Indices 1 2 3 4 5 6 
#
# 1 118.9079 24.0034 31.9291 0.0000 6.8816 0.0000
# 2 24.0034 34.2661 48.8377 0.0000 0.3148 0.0000
# 3 31.9291 48.8377 141.2885 0.0000 6.8002 0.0000
# 4 0.0000 0.0000 0.0000 16.4776 0.0000 0.6108
# 5 6.8816 0.3148 6.8002 0.0000 31.8579 0.0000
# 6 0.0000 0.0000 0.0000 0.6108 0.0000 10.6235
#
#
#
# Elastic Compliance Matrix: (Units=1/GPa)
#
#
# Indices 1 2 3 4 5 6 
#
# 1 0.009949 -0.007676 0.000510 0.000000 -0.002182 0.000000
# 2 -0.007676 0.063882 -0.020608 0.000000 0.005426 0.000000
# 3 0.000510 -0.020608 0.014227 0.000000 -0.002943 0.000000
# 4 0.000000 0.000000 0.000000 0.060818 0.000000 -0.003497
# 5 -0.002182 0.005426 -0.002943 0.000000 0.032435 0.000000
# 6 0.000000 0.000000 0.000000 -0.003497 0.000000 0.094332
#
#
# Mechanical properties :
#
#
# Convention : Reuss Voigt Hill
#
# Bulk Modulus (GPa) = 30.75935 56.00032 43.37983
# Shear Modulus (GPa) = 14.61868 24.43794 19.52831
#
# Velocity S-wave (km/s) = 2.74729 3.55207 3.17528
# Velocity P-wave (km/s) = 5.09356 6.76282 5.98666
#
# Compressibility (1/GPa) = 0.03251044
#
# Stress axis : x y z
#
# Youngs Moduli (GPa) = 100.51552 15.65392 70.28692
#
# Poissons Ratio (x) = 0.12016 -0.03585
# Poissons Ratio (y) = 0.77155 1.44846
# Poissons Ratio (z) = -0.05126 0.32259
#
# Static dielectric constant tensor:
#      x y z
#    x 4.017840 0.000000 -0.038670 
#    y 0.000000 3.091150 0.000000 
#    z -0.038670 0.000000 3.755350 
# 
# 
# High freq. dielectric constant tensor:
#      x y z
#    x 1.779090 0.000000 0.000110 
#    y 0.000000 1.717470 0.000000 
#    z 0.000110 0.000000 1.771060 
# 
# From -- ./inp_files/371600.got.cif
#   From: 2010.06.25/outbox.cif.g09.slc.cpg/sg12_186_cif.got.tgz:371600.got - 2010.06.28 00:19:55.
