data_PCOD8088779
_publ_section_title
;
Structure prediction by ZEFSAII (Michael W. Deem and Ramdas Pophale) SiO2 
 PCOD8088779
Probable space group: C 2/M
;
_chemical_formula_sum "Si O2"
_cell_formula_units_Z 56
_cell_length_a 19.377685
_cell_length_b 8.892097
_cell_length_c 24.669647
_cell_angle_alpha 90.000000
_cell_angle_beta 43.700840
_cell_angle_gamma 90.000000
_cell_volume 2936.836828
_symmetry_space_group_name_H-M "C 2/M"
_symmetry_group_IT_number 12
_symmetry_cell_setting 'monoclinic'
loop_
_space_group_symop_operation_xyz
x,y,z
-x,y,-z
-x,-y,-z
x,-y,z
1/2+x,1/2+y,z
1/2-x,1/2+y,-z
1/2-x,1/2-y,-z
1/2+x,1/2-y,z
loop_
_atom_site_type_symbol
_atom_site_label
_atom_site_fract_x
_atom_site_fract_y
_atom_site_fract_z
Si Si1 0.538187 0.325799 0.281591
Si Si2 0.329139 0.672822 0.992634
Si Si3 0.296028 0.175694 0.315121
Si Si4 0.723919 0.321723 0.241948
Si Si5 0.002705 0.170513 0.813515
Si Si6 0.112796 0.678246 0.933604
Si Si7 0.687229 0.678419 0.583248
O O1 0.536983 0.500000 0.296689
O O2 0.625198 0.249927 0.269115
O O3 0.561906 0.297905 0.204475
O O4 0.427082 0.262227 0.357460
O O5 0.300564 0.500000 0.017247
O O6 0.437163 0.691153 0.903912
O O7 0.250000 0.750000 0.000000
O O8 0.326107 0.756809 0.051004
O O9 0.225551 0.224414 0.304452
O O10 0.408667 0.210394 0.232846
O O11 0.266557 0.268147 0.385502
O O12 0.285127 0.000000 0.333941
O O13 0.720396 0.500000 0.237927
O O14 0.826382 0.267124 0.154241
O O15 0.046018 0.000000 0.784768
O O16 0.110301 0.500000 0.939841
O O17 0.000000 0.743846 0.000000
O O18 0.694046 0.500000 0.576485
O O19 0.750000 0.750000 0.500000
#
# Coordination Sequence:
#
# PCOD8088779 Si02
#       7
#     8   8   8   8   8   8   8
#     4   8  15  30  52  74  96 130 173 210 248 299
#     4  11  22  34  50  73 102 138 182 232 281 325
#     4  10  19  32  55  82 104 131 168 209 253 306
#     4   9  17  31  51  75 104 137 174 214 257 310
#     4   9  18  33  51  70  98 137 177 218 263 313
#     4  10  20  34  52  75 106 144 183 225 273 322
#     4  10  20  36  58  81 106 135 168 208 254 307
#
# _framework density 19.068134000000001
#
# number of rings (size 3 to 8) (size 9 to 14) (size 15 to 20)
#    0.000    2.429    0.000    3.857    0.000    4.857 
#    0.000    2.143    0.000   13.714    0.000    0.000 
#    0.000    0.000    0.000    0.000    0.000    0.000 
#
# Total GULP energy -347079.490466 kJ/mol
# GULP energy per Si atom -12395.696088 kJ/mol
# Density = 1.902473 g / cm^3
# Si number density = 19.068134 Si / 1000 Ang^3
#
#
#
# Elastic Constant Matrix: (Units=GPa)
#
#
# Indices 1 2 3 4 5 6 
#
# 1 116.8027 18.5446 38.1547 0.0000 13.7218 -0.0004
# 2 18.5446 35.9004 22.2947 -0.0002 5.1055 -0.0011
# 3 38.1547 22.2947 97.8047 0.0000 15.9304 -0.0001
# 4 0.0000 -0.0002 0.0000 25.8014 0.0001 3.8191
# 5 13.7218 5.1055 15.9304 0.0001 26.0136 -0.0001
# 6 -0.0004 -0.0011 -0.0001 3.8191 -0.0001 26.4320
#
#
#
# Elastic Compliance Matrix: (Units=1/GPa)
#
#
# Indices 1 2 3 4 5 6 
#
# 1 0.010346 -0.003157 -0.002809 0.000000 -0.003118 0.000000
# 2 -0.003157 0.033509 -0.006228 0.000000 -0.001097 0.000001
# 3 -0.002809 -0.006228 0.013662 0.000000 -0.005663 0.000000
# 4 0.000000 0.000000 0.000000 0.039605 0.000000 -0.005722
# 5 -0.003118 -0.001097 -0.005663 0.000000 0.043769 0.000000
# 6 0.000000 0.000001 0.000000 -0.005722 0.000000 0.038660
#
#
# Mechanical properties :
#
#
# Convention : Reuss Voigt Hill
#
# Bulk Modulus (GPa) = 30.18378 45.38843 37.78610
# Shear Modulus (GPa) = 23.25766 27.08366 25.17066
#
# Velocity S-wave (km/s) = 3.49623 3.77286 3.63717
# Velocity P-wave (km/s) = 5.67115 6.54479 6.12357
#
# Compressibility (1/GPa) = 0.03313038
#
# Stress axis : x y z
#
# Youngs Moduli (GPa) = 96.65138 29.84233 73.19425
#
# Poissons Ratio (x) = 0.09421 0.20559
# Poissons Ratio (y) = 0.30511 0.45587
# Poissons Ratio (z) = 0.27148 0.18587
#
# Static dielectric constant tensor:
#      x y z
#    x 3.776610 0.000000 0.156950 
#    y 0.000000 3.246490 0.000000 
#    z 0.156950 0.000000 3.846350 
# 
# 
# High freq. dielectric constant tensor:
#      x y z
#    x 1.747070 0.000000 0.011000 
#    y 0.000000 1.714320 0.000000 
#    z 0.011000 0.000000 1.731760 
# 
# From -- ./inp_files/280174.got.cif
#   From: 2010.06.25/outbox.cif.g09.slc.cpg/sg12_141_cif.got.tgz:280174.got - 2010.06.28 00:19:55.
