data_PCOD8088203
_publ_section_title
;
Structure prediction by ZEFSAII (Michael W. Deem and Ramdas Pophale) SiO2 
 PCOD8088203
Probable space group: C 2/M
;
_chemical_formula_sum "Si O2"
_cell_formula_units_Z 56
_cell_length_a 9.260675
_cell_length_b 19.392807
_cell_length_c 20.920773
_cell_angle_alpha 90.000000
_cell_angle_beta 125.612162
_cell_angle_gamma 90.000000
_cell_volume 3054.494865
_symmetry_space_group_name_H-M "C 2/M"
_symmetry_group_IT_number 12
_symmetry_cell_setting 'monoclinic'
loop_
_space_group_symop_operation_xyz
x,y,z
-x,y,-z
-x,-y,-z
x,-y,z
1/2+x,1/2+y,z
1/2-x,1/2+y,-z
1/2-x,1/2-y,-z
1/2+x,1/2-y,z
loop_
_atom_site_type_symbol
_atom_site_label
_atom_site_fract_x
_atom_site_fract_y
_atom_site_fract_z
Si Si1 0.837099 0.335630 0.201532
Si Si2 0.795915 0.079997 0.943327
Si Si3 0.812075 0.422649 0.485978
Si Si4 0.460776 0.175065 0.622951
Si Si5 0.685446 0.314330 0.361560
Si Si6 0.307924 0.180964 0.979413
Si Si7 0.503508 0.705352 0.813138
O O1 0.778811 0.402216 0.146250
O O2 0.961729 0.359034 0.292279
O O3 0.665604 0.295270 0.183936
O O4 0.942888 0.285039 0.181538
O O5 0.772872 0.000000 0.949715
O O6 0.685099 0.117855 0.969708
O O7 0.000000 0.103776 0.000000
O O8 0.737443 0.500000 0.479259
O O9 0.675618 0.380482 0.405677
O O10 0.000000 0.428313 0.500000
O O11 0.831997 0.381730 0.558045
O O12 0.354797 0.244921 0.609917
O O13 0.617563 0.195223 0.615085
O O14 0.543426 0.327295 0.268168
O O15 0.166692 0.163686 0.886698
O O16 0.500000 0.192900 0.000000
O O17 0.250000 0.250000 0.000000
#
# Coordination Sequence:
#
# PCOD8088203 Si02
#       7
#     8   8   8   8   8   8   8
#     4  10  19  33  53  80 106 134 175 221 267 310
#     4  11  23  38  53  75 110 144 178 220 268 319
#     4   9  17  31  51  76 105 137 172 209 255 309
#     4   9  18  31  53  79 105 133 171 216 259 306
#     4   9  18  32  51  78 105 133 170 217 260 303
#     4  12  22  35  59  82 106 139 181 225 265 312
#     4  10  19  32  52  82 103 131 177 219 264 308
#
# _framework density 18.333635999999998
#
# number of rings (size 3 to 8) (size 9 to 14) (size 15 to 20)
#    0.000    2.000    2.857    1.714    0.000    0.857 
#    0.000    2.857    0.000    1.714    0.000    0.000 
#    0.000    0.000    0.000    0.000    0.000    0.000 
#
# Total GULP energy -347202.783934 kJ/mol
# GULP energy per Si atom -12400.099426 kJ/mol
# Density = 1.829191 g / cm^3
# Si number density = 18.333636 Si / 1000 Ang^3
#
#
#
# Elastic Constant Matrix: (Units=GPa)
#
#
# Indices 1 2 3 4 5 6 
#
# 1 74.6082 39.2798 28.2477 0.0000 -7.4053 0.0000
# 2 39.2798 116.8035 69.6166 0.0000 -8.5609 0.0000
# 3 28.2477 69.6166 139.0285 0.0000 -6.5645 0.0000
# 4 0.0000 0.0000 0.0000 26.5540 0.0000 -0.1901
# 5 -7.4053 -8.5609 -6.5645 0.0000 21.2497 0.0000
# 6 0.0000 0.0000 0.0000 -0.1901 0.0000 19.6313
#
#
#
# Elastic Compliance Matrix: (Units=1/GPa)
#
#
# Indices 1 2 3 4 5 6 
#
# 1 0.016612 -0.004864 -0.000770 0.000000 0.003592 0.000000
# 2 -0.004864 0.013829 -0.005838 0.000000 0.002072 0.000000
# 3 -0.000770 -0.005838 0.010299 0.000000 0.000561 0.000000
# 4 0.000000 0.000000 0.000000 0.037662 0.000000 0.000365
# 5 0.003592 0.002072 0.000561 0.000000 0.049319 0.000000
# 6 0.000000 0.000000 0.000000 0.000365 0.000000 0.050943
#
#
# Mechanical properties :
#
#
# Convention : Reuss Voigt Hill
#
# Bulk Modulus (GPa) = 56.19571 67.19206 61.69389
# Shear Modulus (GPa) = 24.09154 26.37338 25.23246
#
# Velocity S-wave (km/s) = 3.62893 3.79690 3.71387
# Velocity P-wave (km/s) = 6.94817 7.48005 7.21901
#
# Compressibility (1/GPa) = 0.01779495
#
# Stress axis : x y z
#
# Youngs Moduli (GPa) = 60.19600 72.31197 97.09472
#
# Poissons Ratio (x) = 0.35176 0.07475
# Poissons Ratio (y) = 0.29282 0.56688
# Poissons Ratio (z) = 0.04634 0.42219
#
# Static dielectric constant tensor:
#      x y z
#    x 3.238180 0.000000 -0.047910 
#    y 0.000000 3.225420 0.000000 
#    z -0.047910 0.000000 3.781590 
# 
# 
# High freq. dielectric constant tensor:
#      x y z
#    x 1.693590 0.000000 -0.007630 
#    y 0.000000 1.685510 0.000000 
#    z -0.007630 0.000000 1.732820 
# 
# From -- ./inp_files/300877.got.cif
#   From: 2010.06.25/outbox.cif.g09.slc.cpg/sg12_151_cif.got.tgz:300877.got - 2010.06.28 00:19:55.
