data_PCOD8088991
_publ_section_title
;
Structure prediction by ZEFSAII (Michael W. Deem and Ramdas Pophale) SiO2 
 PCOD8088991
Probable space group: C 2/M
;
_chemical_formula_sum "Si O2"
_cell_formula_units_Z 36
_cell_length_a 9.393781
_cell_length_b 20.015872
_cell_length_c 15.016423
_cell_angle_alpha 90.000000
_cell_angle_beta 37.805876
_cell_angle_gamma 90.000000
_cell_volume 1730.746543
_symmetry_space_group_name_H-M "C 2/M"
_symmetry_group_IT_number 12
_symmetry_cell_setting 'monoclinic'
loop_
_space_group_symop_operation_xyz
x,y,z
-x,y,-z
-x,-y,-z
x,-y,z
1/2+x,1/2+y,z
1/2-x,1/2+y,-z
1/2-x,1/2-y,-z
1/2+x,1/2-y,z
loop_
_atom_site_type_symbol
_atom_site_label
_atom_site_fract_x
_atom_site_fract_y
_atom_site_fract_z
Si Si1 0.472606 0.709597 0.858550
Si Si2 0.859764 0.387191 0.450045
Si Si3 0.350762 0.574234 0.259851
Si Si4 0.448642 0.252321 0.674286
Si Si5 0.000000 0.140846 0.500000
O O1 0.453172 0.627992 0.868151
O O2 0.545072 0.729866 0.723356
O O3 0.685982 0.726382 0.817843
O O4 0.250000 0.750000 0.000000
O O5 0.717939 0.415192 0.603431
O O6 0.717932 0.403542 0.428411
O O7 0.115079 0.419119 0.317737
O O8 0.883955 0.305864 0.448383
O O9 0.454346 0.500000 0.195517
O O10 0.429087 0.316031 0.620559
#
# Coordination Sequence:
#
# PCOD8088991 Si02
#       5
#     8   8   8   8   4
#     4  11  22  37  60  86 117 159 206 250 286 344
#     4  10  19  32  58  88 121 154 186 245 305 356
#     4  10  21  39  59  84 119 162 200 236 301 368
#     4  11  20  34  55  91 121 147 195 254 305 340
#     4  12  18  30  55  90 127 144 182 258 310 336
#
# _framework density 20.800273000000001
#
# number of rings (size 3 to 8) (size 9 to 14) (size 15 to 20)
#    0.000    1.333    4.444    5.333    0.000    0.000 
#    0.000    2.222    0.000   14.667    0.000    0.000 
#    0.000    0.000    0.000    0.000    0.000    0.000 
#
# Total GULP energy -223071.168842 kJ/mol
# GULP energy per Si atom -12392.842713 kJ/mol
# Density = 2.075293 g / cm^3
# Si number density = 20.800273 Si / 1000 Ang^3
#
#
#
# Elastic Constant Matrix: (Units=GPa)
#
#
# Indices 1 2 3 4 5 6 
#
# 1 136.6365 20.1916 15.1169 -0.0001 -10.9600 0.0020
# 2 20.1916 140.6613 38.0546 0.0075 -6.2642 -0.0015
# 3 15.1169 38.0546 64.8311 0.0190 -9.2930 -0.0064
# 4 -0.0001 0.0075 0.0190 26.3623 -0.0072 -3.5733
# 5 -10.9600 -6.2642 -9.2930 -0.0072 20.6933 0.0003
# 6 0.0020 -0.0015 -0.0064 -3.5733 0.0003 17.7850
#
#
#
# Elastic Compliance Matrix: (Units=1/GPa)
#
#
# Indices 1 2 3 4 5 6 
#
# 1 0.007806 -0.000723 -0.000892 0.000002 0.003515 -0.000001
# 2 -0.000723 0.008521 -0.004829 0.000001 0.000028 -0.000001
# 3 -0.000892 -0.004829 0.019441 -0.000010 0.006797 0.000005
# 4 0.000002 0.000001 -0.000010 0.038995 0.000010 0.007835
# 5 0.003515 0.000028 0.006797 0.000010 0.053247 0.000003
# 6 -0.000001 -0.000001 0.000005 0.007835 0.000003 0.057801
#
#
# Mechanical properties :
#
#
# Convention : Reuss Voigt Hill
#
# Bulk Modulus (GPa) = 43.70484 54.31724 49.01104
# Shear Modulus (GPa) = 24.23347 30.88584 27.55965
#
# Velocity S-wave (km/s) = 3.41699 3.85759 3.64396
# Velocity P-wave (km/s) = 6.05187 6.78320 6.42794
#
# Compressibility (1/GPa) = 0.02288076
#
# Stress axis : x y z
#
# Youngs Moduli (GPa) = 128.10439 117.36148 51.43653
#
# Poissons Ratio (x) = 0.08481 0.04589
# Poissons Ratio (y) = 0.09257 0.24838
# Poissons Ratio (z) = 0.11429 0.56673
#
# Static dielectric constant tensor:
#      x y z
#    x 4.456390 -0.000010 -0.202000 
#    y -0.000010 3.802430 0.000010 
#    z -0.202000 0.000010 3.233670 
# 
# 
# High freq. dielectric constant tensor:
#      x y z
#    x 1.835770 0.000000 -0.010010 
#    y 0.000000 1.796510 0.000000 
#    z -0.010010 0.000000 1.766740 
# 
# From -- ./inp_files/77890.got.cif
#   From: 2010.06.25/outbox.cif.g09.slc.cpg/sg12_39_cif.got.tgz:77890.got - 2010.06.28 00:19:55.
