data_PCOD8088672
_publ_section_title
;
Structure prediction by ZEFSAII (Michael W. Deem and Ramdas Pophale) SiO2 
 PCOD8088672
Probable space group: C 2/M
;
_chemical_formula_sum "Si O2"
_cell_formula_units_Z 64
_cell_length_a 24.291678
_cell_length_b 9.148611
_cell_length_c 16.061001
_cell_angle_alpha 90.000000
_cell_angle_beta 91.282447
_cell_angle_gamma 90.000000
_cell_volume 3568.424297
_symmetry_space_group_name_H-M "C 2/M"
_symmetry_group_IT_number 12
_symmetry_cell_setting 'monoclinic'
loop_
_space_group_symop_operation_xyz
x,y,z
-x,y,-z
-x,-y,-z
x,-y,z
1/2+x,1/2+y,z
1/2-x,1/2+y,-z
1/2-x,1/2-y,-z
1/2+x,1/2-y,z
loop_
_atom_site_type_symbol
_atom_site_label
_atom_site_fract_x
_atom_site_fract_y
_atom_site_fract_z
Si Si1 0.439109 0.827415 0.026430
Si Si2 0.625177 0.168193 0.374967
Si Si3 0.304179 0.827628 0.468810
Si Si4 0.072299 0.831084 0.802526
Si Si5 0.179847 0.168517 0.700487
Si Si6 0.879509 0.172513 0.880417
Si Si7 0.796498 0.331373 0.772731
Si Si8 0.043993 0.168518 0.268602
O O1 0.428691 0.774778 0.119203
O O2 0.430673 0.000000 0.020548
O O3 0.500000 0.780250 0.000000
O O4 0.394227 0.748791 0.967407
O O5 0.645357 0.210702 0.467732
O O6 0.674080 0.209602 0.313032
O O7 0.568979 0.251648 0.350085
O O8 0.610168 0.000000 0.368168
O O9 0.250000 0.750000 0.500000
O O10 0.321258 0.771793 0.379226
O O11 0.292797 0.000000 0.466426
O O12 0.126345 0.796327 0.752163
O O13 0.020360 0.795111 0.741671
O O14 0.069939 0.000000 0.832094
O O15 0.232166 0.204085 0.760251
O O16 0.181874 0.000000 0.670932
O O17 0.820264 0.231235 0.847633
O O18 0.925498 0.220046 0.814672
O O19 0.876588 0.000000 0.894129
O O20 0.806572 0.500000 0.796573
O O21 0.055432 0.000000 0.283758
#
# Coordination Sequence:
#
# PCOD8088672 Si02
#       8
#     8   8   8   8   8   8   8   8
#     4  11  22  35  55  83 111 142 182 225 272 322
#     4   9  18  32  52  78 107 140 177 222 271 317
#     4  11  21  35  56  83 112 143 185 230 273 320
#     4  10  21  38  58  80 111 146 181 223 273 327
#     4  10  21  38  58  81 111 148 182 221 276 327
#     4  10  19  32  54  82 109 138 179 226 272 318
#     4   9  17  33  53  77 110 141 176 220 270 323
#     4   9  18  32  52  80 108 139 178 222 270 320
#
# _framework density 17.935088
#
# number of rings (size 3 to 8) (size 9 to 14) (size 15 to 20)
#    0.000    2.125    2.500    1.125    0.000    3.500 
#    0.000    1.250    0.000    3.750    0.000    0.000 
#    0.000    0.000    0.000    0.000    0.000    0.000 
#
# Total GULP energy -396889.253608 kJ/mol
# GULP energy per Si atom -12402.789175 kJ/mol
# Density = 1.789427 g / cm^3
# Si number density = 17.935088 Si / 1000 Ang^3
#
#
#
# Elastic Constant Matrix: (Units=GPa)
#
#
# Indices 1 2 3 4 5 6 
#
# 1 128.3417 49.8926 60.3571 0.0000 14.7321 0.0000
# 2 49.8926 80.7089 60.3008 0.0000 13.7034 0.0000
# 3 60.3571 60.3008 98.7282 0.0000 17.9671 0.0000
# 4 0.0000 0.0000 0.0000 35.2630 0.0000 7.2776
# 5 14.7321 13.7034 17.9671 0.0000 27.3022 0.0000
# 6 0.0000 0.0000 0.0000 7.2776 0.0000 24.7785
#
#
#
# Elastic Compliance Matrix: (Units=1/GPa)
#
#
# Indices 1 2 3 4 5 6 
#
# 1 0.011466 -0.003317 -0.004727 0.000000 -0.001412 0.000000
# 2 -0.003317 0.023912 -0.012177 0.000000 -0.002199 0.000000
# 3 -0.004727 -0.012177 0.021448 0.000000 -0.005452 0.000000
# 4 0.000000 0.000000 0.000000 0.030188 0.000000 -0.008866
# 5 -0.001412 -0.002199 -0.005452 0.000000 0.042080 0.000000
# 6 0.000000 0.000000 0.000000 -0.008866 0.000000 0.042962
#
#
# Mechanical properties :
#
#
# Convention : Reuss Voigt Hill
#
# Bulk Modulus (GPa) = 61.03274 72.09776 66.56525
# Shear Modulus (GPa) = 22.94005 26.61730 24.77868
#
# Velocity S-wave (km/s) = 3.58027 3.85657 3.72099
# Velocity P-wave (km/s) = 7.15506 7.75354 7.46030
#
# Compressibility (1/GPa) = 0.01638465
#
# Stress axis : x y z
#
# Youngs Moduli (GPa) = 87.21293 41.82067 46.62354
#
# Poissons Ratio (x) = 0.13870 0.22040
# Poissons Ratio (y) = 0.28925 0.56773
# Poissons Ratio (z) = 0.41228 0.50925
#
# Static dielectric constant tensor:
#      x y z
#    x 3.362620 0.000000 0.190110 
#    y 0.000000 3.321600 0.000000 
#    z 0.190110 0.000000 3.249570 
# 
# 
# High freq. dielectric constant tensor:
#      x y z
#    x 1.689350 0.000000 0.023430 
#    y 0.000000 1.696930 0.000000 
#    z 0.023430 0.000000 1.682320 
# 
# From -- ./inp_files/238645.got.cif
#   From: 2010.06.25/outbox.cif.g09.slc.cpg/sg12_120_cif.got.tgz:238645.got - 2010.06.28 00:19:55.
