data_PCOD8088087
_publ_section_title
;
Structure prediction by ZEFSAII (Michael W. Deem and Ramdas Pophale) SiO2 
 PCOD8088087
Probable space group: C 2/M
;
_chemical_formula_sum "Si O2"
_cell_formula_units_Z 48
_cell_length_a 19.083029
_cell_length_b 9.238968
_cell_length_c 29.376533
_cell_angle_alpha 90.000000
_cell_angle_beta 31.347243
_cell_angle_gamma 90.000000
_cell_volume 2694.394969
_symmetry_space_group_name_H-M "C 2/M"
_symmetry_group_IT_number 12
_symmetry_cell_setting 'monoclinic'
loop_
_space_group_symop_operation_xyz
x,y,z
-x,y,-z
-x,-y,-z
x,-y,z
1/2+x,1/2+y,z
1/2-x,1/2+y,-z
1/2-x,1/2-y,-z
1/2+x,1/2-y,z
loop_
_atom_site_type_symbol
_atom_site_label
_atom_site_fract_x
_atom_site_fract_y
_atom_site_fract_z
Si Si1 0.167384 0.670596 0.254869
Si Si2 0.196777 0.167441 0.148660
Si Si3 0.436033 0.834013 0.270731
Si Si4 0.352157 0.167175 0.218040
Si Si5 0.145931 0.666034 0.026744
Si Si6 0.139619 0.665795 0.589042
O O1 0.191765 0.500000 0.238157
O O2 0.233389 0.745400 0.173979
O O3 0.234971 0.734065 0.262539
O O4 0.009683 0.709743 0.344412
O O5 0.064704 0.230329 0.197325
O O6 0.171659 0.000000 0.174821
O O7 0.320813 0.185229 0.045011
O O8 0.346686 0.810067 0.275491
O O9 0.345970 0.799017 0.365131
O O10 0.488711 0.000000 0.244608
O O11 0.494871 0.222300 0.119111
O O12 0.326847 0.000000 0.219069
O O13 0.155511 0.500000 0.036874
O O14 0.250000 0.750000 0.000000
O O15 0.167575 0.500000 0.563265
O O16 0.250000 0.750000 0.500000
#
# Coordination Sequence:
#
# PCOD8088087 Si02
#       6
#     8   8   8   8   8   8
#     4  10  22  38  54  76 108 141 175 217 266 317
#     4  10  19  32  52  78 105 140 184 222 258 306
#     4   9  18  34  55  78 107 140 175 214 261 314
#     4  10  20  35  54  77 108 144 177 218 264 306
#     4  10  20  32  51  78 107 141 183 223 258 303
#     4   9  19  36  58  81 102 131 171 214 261 319
#
# _framework density 17.814761000000001
#
# number of rings (size 3 to 8) (size 9 to 14) (size 15 to 20)
#    0.000    2.333    1.667    2.000    0.000    6.000 
#    0.000    4.167    0.000    5.000    0.000    0.000 
#    0.000    0.000    0.000    0.000    0.000    0.000 
#
# Total GULP energy -297622.472628 kJ/mol
# GULP energy per Si atom -12400.936359 kJ/mol
# Density = 1.777421 g / cm^3
# Si number density = 17.814761 Si / 1000 Ang^3
#
#
#
# Elastic Constant Matrix: (Units=GPa)
#
#
# Indices 1 2 3 4 5 6 
#
# 1 130.5919 59.4009 61.5412 0.0001 3.3233 0.0002
# 2 59.4009 83.6742 50.8670 0.0002 0.7874 0.0016
# 3 61.5412 50.8670 116.8462 -0.0005 14.3719 0.0000
# 4 0.0001 0.0002 -0.0005 28.3082 0.0001 -1.1864
# 5 3.3233 0.7874 14.3719 0.0001 21.1065 -0.0001
# 6 0.0002 0.0016 0.0000 -1.1864 -0.0001 35.5691
#
#
#
# Elastic Compliance Matrix: (Units=1/GPa)
#
#
# Indices 1 2 3 4 5 6 
#
# 1 0.012376 -0.006481 -0.003806 0.000000 0.000885 0.000000
# 2 -0.006481 0.020065 -0.005845 0.000000 0.004252 -0.000001
# 3 -0.003806 -0.005845 0.014195 0.000000 -0.008849 0.000000
# 4 0.000000 0.000000 0.000000 0.035375 0.000000 0.001180
# 5 0.000885 0.004252 -0.008849 0.000000 0.053106 0.000000
# 6 0.000000 -0.000001 0.000000 0.001180 0.000000 0.028154
#
#
# Mechanical properties :
#
#
# Convention : Reuss Voigt Hill
#
# Bulk Modulus (GPa) = 69.56878 74.97005 72.26942
# Shear Modulus (GPa) = 24.95948 27.61698 26.28823
#
# Velocity S-wave (km/s) = 3.74713 3.94157 3.84558
# Velocity P-wave (km/s) = 7.60640 7.93026 7.77002
#
# Compressibility (1/GPa) = 0.01437426
#
# Stress axis : x y z
#
# Youngs Moduli (GPa) = 80.79991 49.83875 70.44489
#
# Poissons Ratio (x) = 0.32298 0.26811
# Poissons Ratio (y) = 0.52363 0.41172
# Poissons Ratio (z) = 0.30752 0.29128
#
# Static dielectric constant tensor:
#      x y z
#    x 3.363560 0.000000 0.149070 
#    y 0.000000 3.352670 0.000000 
#    z 0.149070 0.000000 3.193480 
# 
# 
# High freq. dielectric constant tensor:
#      x y z
#    x 1.689980 0.000000 0.014270 
#    y 0.000000 1.693000 0.000000 
#    z 0.014270 0.000000 1.672940 
# 
# From -- ./inp_files/248776.got.cif
#   From: 2010.06.25/outbox.cif.g09.slc.cpg/sg12_125_cif.got.tgz:248776.got - 2010.06.28 00:19:55.
