data_PCOD8088546
_publ_section_title
;
Structure prediction by ZEFSAII (Michael W. Deem and Ramdas Pophale) SiO2 
 PCOD8088546
Probable space group: C 2/M
;
_chemical_formula_sum "Si O2"
_cell_formula_units_Z 48
_cell_length_a 8.355913
_cell_length_b 29.246321
_cell_length_c 11.723100
_cell_angle_alpha 90.000000
_cell_angle_beta 61.424161
_cell_angle_gamma 90.000000
_cell_volume 2515.900815
_symmetry_space_group_name_H-M "C 2/M"
_symmetry_group_IT_number 12
_symmetry_cell_setting 'monoclinic'
loop_
_space_group_symop_operation_xyz
x,y,z
-x,y,-z
-x,-y,-z
x,-y,z
1/2+x,1/2+y,z
1/2-x,1/2+y,-z
1/2-x,1/2-y,-z
1/2+x,1/2-y,z
loop_
_atom_site_type_symbol
_atom_site_label
_atom_site_fract_x
_atom_site_fract_y
_atom_site_fract_z
Si Si1 0.196112 0.892209 0.424392
Si Si2 0.000000 0.605836 0.000000
Si Si3 0.482635 0.946285 0.768694
Si Si4 0.922602 0.052645 0.150839
Si Si5 0.500000 0.758640 0.500000
Si Si6 0.159044 0.187483 0.616847
Si Si7 0.631078 0.369235 0.197143
O O1 0.362333 0.927981 0.370774
O O2 0.213671 0.855234 0.518428
O O3 0.197874 0.865242 0.304473
O O4 0.000000 0.918064 0.500000
O O5 0.814895 0.636697 0.058399
O O6 0.992814 0.574326 0.113973
O O7 0.289768 0.933452 0.777421
O O8 0.502506 0.000000 0.775778
O O9 0.034912 0.082202 0.203519
O O10 0.950852 0.000000 0.175890
O O11 0.000000 0.062805 0.000000
O O12 0.657205 0.791419 0.394412
O O13 0.561661 0.727968 0.583115
O O14 0.022005 0.170566 0.765226
#
# Coordination Sequence:
#
# PCOD8088546 Si02
#       7
#     8   4   8   8   4   8   8
#     4   9  19  36  52  78 113 138 178 222 264 324
#     4  10  19  32  54  76 106 152 180 228 254 308
#     4  10  20  32  51  77 108 149 190 221 257 304
#     4  10  20  34  50  77 111 145 191 228 252 300
#     4  10  20  36  64  82 108 130 172 222 270 334
#     4  10  20  38  58  89 104 135 173 218 275 329
#     4  10  19  34  55  80 110 142 178 221 268 316
#
# _framework density 19.078654
#
# number of rings (size 3 to 8) (size 9 to 14) (size 15 to 20)
#    0.000    2.167    4.167    0.250    2.333    3.000 
#    0.000    2.500    0.000    9.000    0.000    0.000 
#    0.000    0.000    0.000    0.000    0.000    0.000 
#
# Total GULP energy -297403.822838 kJ/mol
# GULP energy per Si atom -12391.825952 kJ/mol
# Density = 1.903523 g / cm^3
# Si number density = 19.078654 Si / 1000 Ang^3
#
#
#
# Elastic Constant Matrix: (Units=GPa)
#
#
# Indices 1 2 3 4 5 6 
#
# 1 91.8928 44.2746 44.8174 0.0000 -43.8611 0.0000
# 2 44.2746 70.5052 43.9636 0.0000 -29.4881 0.0000
# 3 44.8174 43.9636 81.2031 0.0000 -40.7931 0.0000
# 4 0.0000 0.0000 0.0000 16.6862 0.0000 -9.2021
# 5 -43.8611 -29.4881 -40.7931 0.0000 48.5438 0.0000
# 6 0.0000 0.0000 0.0000 -9.2021 0.0000 30.1906
#
#
#
# Elastic Compliance Matrix: (Units=1/GPa)
#
#
# Indices 1 2 3 4 5 6 
#
# 1 0.021601 -0.006940 -0.000827 0.000000 0.014607 0.000000
# 2 -0.006940 0.024576 -0.008870 0.000000 0.001204 0.000000
# 3 -0.000827 -0.008870 0.025078 0.000000 0.014939 0.000000
# 4 0.000000 0.000000 0.000000 0.072039 0.000000 0.021958
# 5 0.014607 0.001204 0.014939 0.000000 0.047083 0.000000
# 6 0.000000 0.000000 0.000000 0.021958 0.000000 0.039816
#
#
# Mechanical properties :
#
#
# Convention : Reuss Voigt Hill
#
# Bulk Modulus (GPa) = 26.32867 56.63469 41.48168
# Shear Modulus (GPa) = 18.10754 26.45380 22.28067
#
# Velocity S-wave (km/s) = 3.08409 3.72770 3.42106
# Velocity P-wave (km/s) = 5.14900 6.94816 6.11511
#
# Compressibility (1/GPa) = 0.03798141
#
# Stress axis : x y z
#
# Youngs Moduli (GPa) = 46.29355 40.68980 39.87540
#
# Poissons Ratio (x) = 0.28238 0.03297
# Poissons Ratio (y) = 0.32127 0.35371
# Poissons Ratio (z) = 0.03828 0.36093
#
# Static dielectric constant tensor:
#      x y z
#    x 3.880890 0.000000 -0.547410 
#    y 0.000000 3.418700 0.000000 
#    z -0.547410 0.000000 3.647170 
# 
# 
# High freq. dielectric constant tensor:
#      x y z
#    x 1.755710 0.000000 -0.028220 
#    y 0.000000 1.716410 0.000000 
#    z -0.028220 0.000000 1.726510 
# 
# From -- ./inp_files/123547.got.cif
#   From: 2010.06.25/outbox.cif.g09.slc.cpg/sg12_62_cif.got.tgz:123547.got - 2010.06.28 00:19:55.
