data_PCOD8088912
_publ_section_title
;
Structure prediction by ZEFSAII (Michael W. Deem and Ramdas Pophale) SiO2 
 PCOD8088912
Probable space group: C 2/M
;
_chemical_formula_sum "Si O2"
_cell_formula_units_Z 52
_cell_length_a 7.693582
_cell_length_b 18.513091
_cell_length_c 16.014646
_cell_angle_alpha 90.000000
_cell_angle_beta 92.481166
_cell_angle_gamma 90.000000
_cell_volume 2278.859376
_symmetry_space_group_name_H-M "C 2/M"
_symmetry_group_IT_number 12
_symmetry_cell_setting 'monoclinic'
loop_
_space_group_symop_operation_xyz
x,y,z
-x,y,-z
-x,-y,-z
x,-y,z
1/2+x,1/2+y,z
1/2-x,1/2+y,-z
1/2-x,1/2-y,-z
1/2+x,1/2-y,z
loop_
_atom_site_type_symbol
_atom_site_label
_atom_site_fract_x
_atom_site_fract_y
_atom_site_fract_z
Si Si1 0.942191 0.824428 0.678912
Si Si2 0.770963 0.581339 0.871273
Si Si3 0.160329 0.667997 0.279160
Si Si4 0.366409 0.081982 0.566271
Si Si5 0.136443 0.082686 0.178596
Si Si6 0.299451 0.667916 0.978441
Si Si7 0.000000 0.866020 0.500000
O O1 0.894165 0.750565 0.723410
O O2 0.832663 0.886750 0.725864
O O3 0.919942 0.820653 0.577187
O O4 0.138411 0.841467 0.701217
O O5 0.842357 0.500000 0.871136
O O6 0.885038 0.628704 0.808523
O O7 0.567460 0.583153 0.845845
O O8 0.808001 0.615814 0.962228
O O9 0.069155 0.628352 0.354064
O O10 0.500000 0.109787 0.500000
O O11 0.162870 0.087668 0.536252
O O12 0.402164 0.000000 0.590678
O O13 0.207207 0.000000 0.174035
O O14 0.235853 0.137659 0.116300
O O15 0.500000 0.657884 0.000000
O O16 0.250000 0.750000 0.000000
#
# Coordination Sequence:
#
# PCOD8088912 Si02
#       7
#     8   8   8   8   8   8   4
#     4  10  22  35  56  81 108 149 184 232 288 334
#     4   9  17  32  55  81 107 143 187 229 275 331
#     4  10  21  35  55  79 112 144 185 232 282 338
#     4  10  22  38  59  85 114 151 193 242 292 341
#     4   9  18  34  54  81 110 140 186 234 275 329
#     4  10  19  32  56  83 110 144 180 225 277 334
#     4  10  23  38  60  84 113 156 196 242 289 346
#
# _framework density 22.818432000000001
#
# number of rings (size 3 to 8) (size 9 to 14) (size 15 to 20)
#    0.000    2.308    0.000    2.077    3.231    7.385 
#    0.000    0.000    0.000    3.692    0.000    0.000 
#    0.000    0.000    0.000    0.000    0.000    0.000 
#
# Total GULP energy -322148.947434 kJ/mol
# GULP energy per Si atom -12390.344132 kJ/mol
# Density = 2.276650 g / cm^3
# Si number density = 22.818432 Si / 1000 Ang^3
#
#
#
# Elastic Constant Matrix: (Units=GPa)
#
#
# Indices 1 2 3 4 5 6 
#
# 1 25.9544 5.1065 19.3278 0.0000 -14.0570 0.0000
# 2 5.1065 167.6668 90.8553 0.0000 -33.7608 0.0000
# 3 19.3278 90.8553 175.8071 0.0000 -37.7345 0.0000
# 4 0.0000 0.0000 0.0000 44.0724 0.0000 -12.1125
# 5 -14.0570 -33.7608 -37.7345 0.0000 25.8501 0.0000
# 6 0.0000 0.0000 0.0000 -12.1125 0.0000 29.7987
#
#
#
# Elastic Compliance Matrix: (Units=1/GPa)
#
#
# Indices 1 2 3 4 5 6 
#
# 1 0.059562 0.007001 -0.001823 0.000000 0.038871 0.000000
# 2 0.007001 0.009975 -0.003366 0.000000 0.011921 0.000000
# 3 -0.001823 -0.003366 0.009425 0.000000 0.008370 0.000000
# 4 0.000000 0.000000 0.000000 0.025543 0.000000 0.010383
# 5 0.038871 0.011921 0.008370 0.000000 0.087610 0.000000
# 6 0.000000 0.000000 0.000000 0.010383 0.000000 0.037779
#
#
# Mechanical properties :
#
#
# Convention : Reuss Voigt Hill
#
# Bulk Modulus (GPa) = 12.10865 66.66750 39.38807
# Shear Modulus (GPa) = 19.70059 36.88681 28.29370
#
# Velocity S-wave (km/s) = 2.94149 4.02498 3.52511
# Velocity P-wave (km/s) = 4.10543 7.13306 5.81958
#
# Compressibility (1/GPa) = 0.08258561
#
# Stress axis : x y z
#
# Youngs Moduli (GPa) = 16.78922 100.24589 106.10641
#
# Poissons Ratio (x) = -0.70179 0.19341
# Poissons Ratio (y) = -0.11754 0.35716
# Poissons Ratio (z) = 0.03060 0.33744
#
# Static dielectric constant tensor:
#      x y z
#    x 3.807180 0.000000 -0.467360 
#    y 0.000000 3.708380 0.000000 
#    z -0.467360 0.000000 4.851450 
# 
# 
# High freq. dielectric constant tensor:
#      x y z
#    x 1.876160 0.000000 -0.024790 
#    y 0.000000 1.899630 0.000000 
#    z -0.024790 0.000000 1.913080 
# 
# From -- ./inp_files/197067.got.cif
#   From: 2010.06.25/outbox.cif.g09.slc.cpg/sg12_99_cif.got.tgz:197067.got - 2010.06.28 00:19:55.
