data_PCOD8088614
_publ_section_title
;
Structure prediction by ZEFSAII (Michael W. Deem and Ramdas Pophale) SiO2 
 PCOD8088614
Probable space group: C 2/M
;
_chemical_formula_sum "Si O2"
_cell_formula_units_Z 64
_cell_length_a 20.985752
_cell_length_b 8.616786
_cell_length_c 18.717521
_cell_angle_alpha 90.000000
_cell_angle_beta 87.500785
_cell_angle_gamma 90.000000
_cell_volume 3381.464897
_symmetry_space_group_name_H-M "C 2/M"
_symmetry_group_IT_number 12
_symmetry_cell_setting 'monoclinic'
loop_
_space_group_symop_operation_xyz
x,y,z
-x,y,-z
-x,-y,-z
x,-y,z
1/2+x,1/2+y,z
1/2-x,1/2+y,-z
1/2-x,1/2-y,-z
1/2+x,1/2-y,z
loop_
_atom_site_type_symbol
_atom_site_label
_atom_site_fract_x
_atom_site_fract_y
_atom_site_fract_z
Si Si1 0.642704 0.684953 0.676666
Si Si2 0.123544 0.816488 0.839639
Si Si3 0.255037 0.316451 0.078033
Si Si4 0.500893 0.821485 0.182201
Si Si5 0.642272 0.179678 0.183784
Si Si6 0.492437 0.679414 0.332503
Si Si7 0.758410 0.316643 0.577558
Si Si8 0.370217 0.684336 0.660632
O O1 0.644041 0.500000 0.674676
O O2 0.644395 0.739148 0.759062
O O3 0.577050 0.746137 0.640304
O O4 0.702895 0.753279 0.631213
O O5 0.178742 0.759880 0.890351
O O6 0.056961 0.732272 0.867182
O O7 0.113984 0.000000 0.844039
O O8 0.251953 0.500000 0.074608
O O9 0.195678 0.253751 0.127821
O O10 0.250000 0.250000 0.000000
O O11 0.572914 0.800017 0.148443
O O12 0.495059 0.703743 0.247861
O O13 0.490895 0.000000 0.206078
O O14 0.647832 0.271112 0.257797
O O15 0.655417 0.000000 0.201374
O O16 0.493697 0.500000 0.350181
O O17 0.557916 0.748753 0.362230
O O18 0.754207 0.500000 0.574361
O O19 0.750000 0.250000 0.500000
O O20 0.825860 0.265940 0.605391
O O21 0.365329 0.500000 0.652845
#
# Coordination Sequence:
#
# PCOD8088614 Si02
#       8
#     8   8   8   8   8   8   8   8
#     4   8  15  31  55  75  92 125 168 202 238 290
#     4   9  17  32  53  74  97 127 163 202 247 298
#     4  10  21  36  52  71  99 136 174 210 248 292
#     4   9  16  27  48  77 102 124 156 201 249 294
#     4   9  18  34  54  75 101 133 166 201 247 300
#     4   8  15  30  51  74  99 126 160 201 243 292
#     4  11  22  36  52  71 101 137 171 208 249 295
#     4  10  19  32  54  81 103 126 162 207 251 296
#
# _framework density 18.926708000000001
#
# number of rings (size 3 to 8) (size 9 to 14) (size 15 to 20)
#    0.000    2.750    0.000    2.625    0.000    4.000 
#    0.000    8.750    0.000    7.500    0.000    0.000 
#    0.000    0.000    0.000    0.000    0.000    0.000 
#
# Total GULP energy -396433.563089 kJ/mol
# GULP energy per Si atom -12388.548847 kJ/mol
# Density = 1.888363 g / cm^3
# Si number density = 18.926708 Si / 1000 Ang^3
#
#
#
# Elastic Constant Matrix: (Units=GPa)
#
#
# Indices 1 2 3 4 5 6 
#
# 1 170.4720 26.7453 64.2025 0.0000 34.2435 0.0000
# 2 26.7453 28.0143 21.1817 0.0000 5.2020 0.0000
# 3 64.2025 21.1817 87.0867 0.0000 22.0346 0.0000
# 4 0.0000 0.0000 0.0000 25.3810 0.0000 4.5339
# 5 34.2435 5.2020 22.0346 0.0000 15.9334 0.0000
# 6 0.0000 0.0000 0.0000 4.5339 0.0000 28.5844
#
#
#
# Elastic Compliance Matrix: (Units=1/GPa)
#
#
# Indices 1 2 3 4 5 6 
#
# 1 0.011604 -0.005788 -0.002023 0.000000 -0.020252 0.000000
# 2 -0.005788 0.046632 -0.009799 0.000000 0.010767 0.000000
# 3 -0.002023 -0.009799 0.020686 0.000000 -0.021061 0.000000
# 4 0.000000 0.000000 0.000000 0.040548 0.000000 -0.006432
# 5 -0.020252 0.010767 -0.021061 0.000000 0.131896 0.000000
# 6 0.000000 0.000000 0.000000 -0.006432 0.000000 0.036004
#
#
# Mechanical properties :
#
#
# Convention : Reuss Voigt Hill
#
# Bulk Modulus (GPa) = 22.88230 56.64798 39.76514
# Shear Modulus (GPa) = 14.82981 25.54266 20.18623
#
# Velocity S-wave (km/s) = 2.80221 3.67762 3.26935
# Velocity P-wave (km/s) = 4.75248 6.93025 5.94198
#
# Compressibility (1/GPa) = 0.04370190
#
# Stress axis : x y z
#
# Youngs Moduli (GPa) = 86.17614 21.44446 48.34135
#
# Poissons Ratio (x) = 0.12413 0.09779
# Poissons Ratio (y) = 0.49883 0.47370
# Poissons Ratio (z) = 0.17432 0.21013
#
# Static dielectric constant tensor:
#      x y z
#    x 4.277740 0.000000 -0.023260 
#    y 0.000000 3.275800 0.000000 
#    z -0.023260 0.000000 3.220870 
# 
# 
# High freq. dielectric constant tensor:
#      x y z
#    x 1.768710 0.000000 0.008510 
#    y 0.000000 1.716210 0.000000 
#    z 0.008510 0.000000 1.688330 
# 
# From -- ./inp_files/319184.got.cif
#   From: 2010.06.25/outbox.cif.g09.slc.cpg/sg12_160_cif.got.tgz:319184.got - 2010.06.28 00:19:55.
