data_PCOD8088829
_publ_section_title
;
Structure prediction by ZEFSAII (Michael W. Deem and Ramdas Pophale) SiO2 
 PCOD8088829
Probable space group: C 2/M
;
_chemical_formula_sum "Si O2"
_cell_formula_units_Z 48
_cell_length_a 17.769529
_cell_length_b 8.922125
_cell_length_c 15.317763
_cell_angle_alpha 90.000000
_cell_angle_beta 86.108639
_cell_angle_gamma 90.000000
_cell_volume 2422.909282
_symmetry_space_group_name_H-M "C 2/M"
_symmetry_group_IT_number 12
_symmetry_cell_setting 'monoclinic'
loop_
_space_group_symop_operation_xyz
x,y,z
-x,y,-z
-x,-y,-z
x,-y,z
1/2+x,1/2+y,z
1/2-x,1/2+y,-z
1/2-x,1/2-y,-z
1/2+x,1/2-y,z
loop_
_atom_site_type_symbol
_atom_site_label
_atom_site_fract_x
_atom_site_fract_y
_atom_site_fract_z
Si Si1 0.351770 0.176382 0.671310
Si Si2 0.328301 0.828215 0.486611
Si Si3 0.669878 0.672108 0.011136
Si Si4 0.567928 0.671814 0.180811
Si Si5 0.810097 0.324618 0.299963
Si Si6 0.083033 0.322617 0.865226
O O1 0.377644 0.215764 0.568486
O O2 0.410430 0.263464 0.726875
O O3 0.266506 0.229999 0.695736
O O4 0.357093 0.000000 0.691020
O O5 0.250000 0.750000 0.500000
O O6 0.359078 0.795262 0.386075
O O7 0.309017 0.000000 0.498516
O O8 0.678642 0.500000 0.982282
O O9 0.640087 0.686020 0.112095
O O10 0.750000 0.750000 0.000000
O O11 0.610511 0.751220 0.952770
O O12 0.542328 0.500000 0.192696
O O13 0.500552 0.767019 0.146164
O O14 0.789071 0.500000 0.292933
O O15 0.862006 0.270228 0.216860
O O16 0.082436 0.500000 0.875185
#
# Coordination Sequence:
#
# PCOD8088829 Si02
#       6
#     8   8   8   8   8   8
#     4  10  19  32  55  84 109 140 184 227 266 313
#     4   8  15  29  50  77 108 140 176 220 267 314
#     4  11  24  41  61  84 109 140 178 220 268 320
#     4  11  24  40  56  77 110 148 180 217 270 324
#     4   9  18  34  55  80 111 144 178 220 271 322
#     4  11  23  38  58  83 110 143 181 221 268 320
#
# _framework density 19.810894000000001
#
# number of rings (size 3 to 8) (size 9 to 14) (size 15 to 20)
#    0.000    2.000    0.000    3.500    0.000   10.667 
#    0.000    0.833    0.000    5.000    0.000    0.000 
#    0.000    0.000    0.000    0.000    0.000    0.000 
#
# Total GULP energy -297461.386355 kJ/mol
# GULP energy per Si atom -12394.224431 kJ/mol
# Density = 1.976580 g / cm^3
# Si number density = 19.810894 Si / 1000 Ang^3
#
#
#
# Elastic Constant Matrix: (Units=GPa)
#
#
# Indices 1 2 3 4 5 6 
#
# 1 63.9146 23.2221 13.6327 0.0000 23.3764 0.0000
# 2 23.2221 81.1827 35.2400 0.0000 12.2971 0.0000
# 3 13.6327 35.2400 100.4349 0.0000 29.1598 0.0000
# 4 0.0000 0.0000 0.0000 29.6008 0.0000 4.9122
# 5 23.3764 12.2971 29.1598 0.0000 31.6219 0.0000
# 6 0.0000 0.0000 0.0000 4.9122 0.0000 32.5586
#
#
#
# Elastic Compliance Matrix: (Units=1/GPa)
#
#
# Indices 1 2 3 4 5 6 
#
# 1 0.023973 -0.005835 0.004479 0.000000 -0.019583 0.000000
# 2 -0.005835 0.015991 -0.005825 0.000000 0.003467 0.000000
# 3 0.004479 -0.005825 0.015973 0.000000 -0.015775 0.000000
# 4 0.000000 0.000000 0.000000 0.034650 0.000000 -0.005228
# 5 -0.019583 0.003467 -0.015775 0.000000 0.059299 0.000000
# 6 0.000000 0.000000 0.000000 -0.005228 0.000000 0.031503
#
#
# Mechanical properties :
#
#
# Convention : Reuss Voigt Hill
#
# Bulk Modulus (GPa) = 24.05382 43.30242 33.67812
# Shear Modulus (GPa) = 23.85394 30.31876 27.08635
#
# Velocity S-wave (km/s) = 3.47375 3.91629 3.70164
# Velocity P-wave (km/s) = 5.31576 6.50808 5.94190
#
# Compressibility (1/GPa) = 0.04157343
#
# Stress axis : x y z
#
# Youngs Moduli (GPa) = 41.71338 62.53691 62.60704
#
# Poissons Ratio (x) = 0.36493 -0.28043
# Poissons Ratio (y) = 0.24342 0.36470
# Poissons Ratio (z) = -0.18684 0.36429
#
# Static dielectric constant tensor:
#      x y z
#    x 3.184150 0.000000 0.015710 
#    y 0.000000 3.662380 0.000000 
#    z 0.015710 0.000000 4.331100 
# 
# 
# High freq. dielectric constant tensor:
#      x y z
#    x 1.742790 0.000000 0.011760 
#    y 0.000000 1.781510 0.000000 
#    z 0.011760 0.000000 1.798680 
# 
# From -- ./inp_files/221583.got.cif
#   From: 2010.06.25/outbox.cif.g09.slc.cpg/sg12_111_cif.got.tgz:221583.got - 2010.06.28 00:19:55.
