data_PCOD8088177
_publ_section_title
;
Structure prediction by ZEFSAII (Michael W. Deem and Ramdas Pophale) SiO2 
 PCOD8088177
Probable space group: C 2/M
;
_chemical_formula_sum "Si O2"
_cell_formula_units_Z 56
_cell_length_a 27.141130
_cell_length_b 8.928893
_cell_length_c 20.095922
_cell_angle_alpha 90.000000
_cell_angle_beta 35.134197
_cell_angle_gamma 90.000000
_cell_volume 2802.682325
_symmetry_space_group_name_H-M "C 2/M"
_symmetry_group_IT_number 12
_symmetry_cell_setting 'monoclinic'
loop_
_space_group_symop_operation_xyz
x,y,z
-x,y,-z
-x,-y,-z
x,-y,z
1/2+x,1/2+y,z
1/2-x,1/2+y,-z
1/2-x,1/2-y,-z
1/2+x,1/2-y,z
loop_
_atom_site_type_symbol
_atom_site_label
_atom_site_fract_x
_atom_site_fract_y
_atom_site_fract_z
Si Si1 0.505664 0.177229 0.808498
Si Si2 0.699413 0.823366 0.615891
Si Si3 0.257500 0.677399 0.695928
Si Si4 0.280184 0.673904 0.900389
Si Si5 0.433670 0.177484 0.516475
Si Si6 0.026977 0.174730 0.295430
Si Si7 0.651486 0.823406 0.933956
O O1 0.600792 0.226975 0.723219
O O2 0.476576 0.260353 0.774395
O O3 0.499540 0.000000 0.802994
O O4 0.442473 0.230640 0.938232
O O5 0.750000 0.750000 0.500000
O O6 0.739269 0.766945 0.641317
O O7 0.708022 0.000000 0.599512
O O8 0.272861 0.500000 0.681463
O O9 0.340216 0.757666 0.635655
O O10 0.175245 0.723998 0.832239
O O11 0.261760 0.500000 0.929702
O O12 0.379789 0.704701 0.776579
O O13 0.225306 0.742561 0.900531
O O14 0.250000 0.750000 0.000000
O O15 0.500000 0.231477 0.500000
O O16 0.459375 0.241166 0.416256
O O17 0.429671 0.000000 0.517008
O O18 0.003517 0.000000 0.319200
O O19 0.653883 0.000000 0.936515
#
# Coordination Sequence:
#
# PCOD8088177 Si02
#       7
#     8   8   8   8   8   8   8
#     4  10  20  36  58  84 115 150 190 235 285 339
#     4  10  22  38  59  85 111 147 192 240 289 338
#     4  10  21  39  61  85 115 150 190 237 288 341
#     4  10  19  32  52  80 113 149 185 224 275 333
#     4  11  24  40  58  83 114 150 191 234 285 343
#     4  11  22  35  56  86 116 150 193 238 284 336
#     4   9  18  34  57  83 114 149 186 230 283 340
#
# _framework density 19.980858999999999
#
# number of rings (size 3 to 8) (size 9 to 14) (size 15 to 20)
#    0.000    1.857    1.429    2.571    0.000    6.857 
#    0.000    4.286    0.000    0.000    0.000    3.000 
#    0.000    0.000    0.000    0.000    0.000    0.000 
#
# Total GULP energy -347196.901986 kJ/mol
# GULP energy per Si atom -12399.889357 kJ/mol
# Density = 1.993538 g / cm^3
# Si number density = 19.980859 Si / 1000 Ang^3
#
#
#
# Elastic Constant Matrix: (Units=GPa)
#
#
# Indices 1 2 3 4 5 6 
#
# 1 125.5915 30.5782 71.9564 -0.0075 -1.1265 0.0016
# 2 30.5782 42.2393 35.2311 -0.0169 -2.7910 0.0087
# 3 71.9564 35.2311 168.7697 -0.0043 3.5471 0.0036
# 4 -0.0075 -0.0169 -0.0043 25.5237 0.0071 1.1306
# 5 -1.1265 -2.7910 3.5471 0.0071 40.2210 -0.0020
# 6 0.0016 0.0087 0.0036 1.1306 -0.0020 25.1313
#
#
#
# Elastic Compliance Matrix: (Units=1/GPa)
#
#
# Indices 1 2 3 4 5 6 
#
# 1 0.011371 -0.005040 -0.003802 -0.000001 0.000304 0.000002
# 2 -0.005040 0.031157 -0.004406 0.000018 0.002409 -0.000010
# 3 -0.003802 -0.004406 0.008491 -0.000002 -0.001161 0.000001
# 4 -0.000001 0.000018 -0.000002 0.039257 -0.000006 -0.001766
# 5 0.000304 0.002409 -0.001161 -0.000006 0.025141 0.000002
# 6 0.000002 -0.000010 0.000001 -0.001766 0.000002 0.039870
#
#
# Mechanical properties :
#
#
# Convention : Reuss Voigt Hill
#
# Bulk Modulus (GPa) = 40.77960 68.01464 54.39712
# Shear Modulus (GPa) = 26.32168 31.43088 28.87628
#
# Velocity S-wave (km/s) = 3.63346 3.97047 3.80570
# Velocity P-wave (km/s) = 6.16898 7.42518 6.82604
#
# Compressibility (1/GPa) = 0.02452206
#
# Stress axis : x y z
#
# Youngs Moduli (GPa) = 87.94606 32.09513 117.77866
#
# Poissons Ratio (x) = 0.16176 0.44782
# Poissons Ratio (y) = 0.44325 0.51893
# Poissons Ratio (z) = 0.33439 0.14141
#
# Static dielectric constant tensor:
#      x y z
#    x 3.816890 -0.000010 -0.097500 
#    y -0.000010 3.397090 0.000030 
#    z -0.097500 0.000030 3.912960 
# 
# 
# High freq. dielectric constant tensor:
#      x y z
#    x 1.780820 0.000000 -0.000070 
#    y 0.000000 1.753970 0.000000 
#    z -0.000070 0.000000 1.798410 
# 
# From -- ./inp_files/329534.got.cif
#   From: 2010.06.25/outbox.cif.g09.slc.cpg/sg12_165_cif.got.tgz:329534.got - 2010.06.28 00:19:55.
