data_PCOD8088615
_publ_section_title
;
Structure prediction by ZEFSAII (Michael W. Deem and Ramdas Pophale) SiO2 
 PCOD8088615
Probable space group: C 2/M
;
_chemical_formula_sum "Si O2"
_cell_formula_units_Z 64
_cell_length_a 23.127138
_cell_length_b 9.287168
_cell_length_c 16.911432
_cell_angle_alpha 90.000000
_cell_angle_beta 103.657202
_cell_angle_gamma 90.000000
_cell_volume 3529.630899
_symmetry_space_group_name_H-M "C 2/M"
_symmetry_group_IT_number 12
_symmetry_cell_setting 'monoclinic'
loop_
_space_group_symop_operation_xyz
x,y,z
-x,y,-z
-x,-y,-z
x,-y,z
1/2+x,1/2+y,z
1/2-x,1/2+y,-z
1/2-x,1/2-y,-z
1/2+x,1/2-y,z
loop_
_atom_site_type_symbol
_atom_site_label
_atom_site_fract_x
_atom_site_fract_y
_atom_site_fract_z
Si Si1 0.428401 0.665540 0.390624
Si Si2 0.532429 0.165386 0.137110
Si Si3 0.343008 0.169472 0.247848
Si Si4 0.120976 0.332407 0.305517
Si Si5 0.394780 0.168360 0.098484
Si Si6 0.792255 0.166982 0.771865
Si Si7 0.118570 0.167802 0.059800
Si Si8 0.935901 0.165867 0.575255
O O1 0.418994 0.500000 0.364240
O O2 0.382863 0.761520 0.328062
O O3 0.415503 0.688888 0.478838
O O4 0.495584 0.713294 0.392089
O O5 0.565705 0.197884 0.229761
O O6 0.464244 0.205428 0.128331
O O7 0.558447 0.262908 0.075494
O O8 0.540914 0.000000 0.113875
O O9 0.363425 0.222271 0.168193
O O10 0.275227 0.217173 0.238573
O O11 0.351273 0.000000 0.257380
O O12 0.133807 0.500000 0.320922
O O13 0.180262 0.259563 0.290238
O O14 0.106164 0.264595 0.385183
O O15 0.383747 0.000000 0.079729
O O16 0.365496 0.257493 0.017833
O O17 0.826354 0.198028 0.864560
O O18 0.797232 0.000000 0.750232
O O19 0.107115 0.000000 0.042815
O O20 0.928221 0.000000 0.597970
#
# Coordination Sequence:
#
# PCOD8088615 Si02
#       8
#     8   8   8   8   8   8   8   8
#     4   9  19  35  55  80 109 138 166 201 249 304
#     4   9  18  32  49  72 104 134 160 202 259 307
#     4  10  21  37  55  74 100 136 175 213 256 304
#     4  10  19  32  54  81 103 131 176 217 248 295
#     4  10  20  33  50  73 101 132 165 206 259 310
#     4   9  20  38  54  70 100 139 173 212 262 304
#     4  10  20  33  50  73  99 130 171 212 250 299
#     4   9  18  34  55  80 111 140 162 195 253 312
#
# _framework density 18.132207999999999
#
# number of rings (size 3 to 8) (size 9 to 14) (size 15 to 20)
#    0.000    2.500    0.000    2.625    0.000    6.500 
#    0.000    1.875    0.000    0.000    0.000    0.000 
#    0.000    0.000    0.000    0.000    0.000    0.000 
#
# Total GULP energy -396917.983633 kJ/mol
# GULP energy per Si atom -12403.686989 kJ/mol
# Density = 1.809094 g / cm^3
# Si number density = 18.132208 Si / 1000 Ang^3
#
#
#
# Elastic Constant Matrix: (Units=GPa)
#
#
# Indices 1 2 3 4 5 6 
#
# 1 120.8897 56.2343 67.2062 0.0000 -14.8496 0.0000
# 2 56.2343 73.7132 57.2508 0.0000 -9.6647 0.0000
# 3 67.2062 57.2508 105.9996 0.0000 -18.4359 0.0000
# 4 0.0000 0.0000 0.0000 37.1171 0.0000 0.7833
# 5 -14.8496 -9.6647 -18.4359 0.0000 18.6791 0.0000
# 6 0.0000 0.0000 0.0000 0.7833 0.0000 24.1583
#
#
#
# Elastic Compliance Matrix: (Units=1/GPa)
#
#
# Indices 1 2 3 4 5 6 
#
# 1 0.014644 -0.006844 -0.005045 0.000000 0.003121 0.000000
# 2 -0.006844 0.026570 -0.010342 0.000000 -0.001900 0.000000
# 3 -0.005045 -0.010342 0.020029 0.000000 0.010406 0.000000
# 4 0.000000 0.000000 0.000000 0.026960 0.000000 -0.000874
# 5 0.003121 -0.001900 0.010406 0.000000 0.065304 0.000000
# 6 0.000000 0.000000 0.000000 -0.000874 0.000000 0.041422
#
#
# Mechanical properties :
#
#
# Convention : Reuss Voigt Hill
#
# Bulk Modulus (GPa) = 59.59451 73.55388 66.57419
# Shear Modulus (GPa) = 20.40948 23.98496 22.19722
#
# Velocity S-wave (km/s) = 3.35862 3.64095 3.50263
# Velocity P-wave (km/s) = 6.92665 7.63733 7.29065
#
# Compressibility (1/GPa) = 0.01678007
#
# Stress axis : x y z
#
# Youngs Moduli (GPa) = 68.28895 37.63613 49.92867
#
# Poissons Ratio (x) = 0.25756 0.25191
# Poissons Ratio (y) = 0.46734 0.51637
# Poissons Ratio (z) = 0.34454 0.38924
#
# Static dielectric constant tensor:
#      x y z
#    x 3.292270 0.000000 -0.076650 
#    y 0.000000 3.299550 0.000000 
#    z -0.076650 0.000000 3.302520 
# 
# 
# High freq. dielectric constant tensor:
#      x y z
#    x 1.695250 0.000000 -0.006370 
#    y 0.000000 1.700800 0.000000 
#    z -0.006370 0.000000 1.704380 
# 
# From -- ./inp_files/281318.got.cif
#   From: 2010.06.25/outbox.cif.g09.slc.cpg/sg12_141_cif.got.tgz:281318.got - 2010.06.28 00:19:55.
