data_PCOD8088952
_publ_section_title
;
Structure prediction by ZEFSAII (Michael W. Deem and Ramdas Pophale) SiO2 
 PCOD8088952
Probable space group: C 2/M
;
_chemical_formula_sum "Si O2"
_cell_formula_units_Z 56
_cell_length_a 17.884271
_cell_length_b 14.262195
_cell_length_c 20.103899
_cell_angle_alpha 90.000000
_cell_angle_beta 146.993775
_cell_angle_gamma 90.000000
_cell_volume 2793.311182
_symmetry_space_group_name_H-M "C 2/M"
_symmetry_group_IT_number 12
_symmetry_cell_setting 'monoclinic'
loop_
_space_group_symop_operation_xyz
x,y,z
-x,y,-z
-x,-y,-z
x,-y,z
1/2+x,1/2+y,z
1/2-x,1/2+y,-z
1/2-x,1/2-y,-z
1/2+x,1/2-y,z
loop_
_atom_site_type_symbol
_atom_site_label
_atom_site_fract_x
_atom_site_fract_y
_atom_site_fract_z
Si Si1 0.540455 0.791933 0.323889
Si Si2 0.355729 0.893856 0.925350
Si Si3 0.163467 0.343658 0.936463
Si Si4 0.815458 0.106667 0.735703
Si Si5 0.716854 0.218131 0.781082
Si Si6 0.119275 0.898937 0.996635
Si Si7 0.201004 0.891428 0.428091
O O1 0.480163 0.825121 0.208165
O O2 0.430662 0.809279 0.300263
O O3 0.668832 0.859859 0.431717
O O4 0.577645 0.681028 0.351708
O O5 0.239837 0.829776 0.803805
O O6 0.311762 0.000000 0.877664
O O7 0.500000 0.869203 0.000000
O O8 0.367509 0.879174 0.013194
O O9 0.262075 0.414385 0.970167
O O10 0.250000 0.250000 0.000000
O O11 0.727243 0.178470 0.714425
O O12 0.759522 0.118040 0.619663
O O13 0.792732 0.000000 0.743635
O O14 0.976624 0.134404 0.857062
O O15 0.840231 0.174330 0.916629
O O16 0.098484 0.000000 0.015551
O O17 0.159722 0.000000 0.414045
#
# Coordination Sequence:
#
# PCOD8088952 Si02
#       7
#     8   8   8   8   8   8   8
#     4  10  23  40  62  90 117 160 201 242 304 351
#     4  11  24  38  56  88 126 164 197 235 294 358
#     4  11  20  38  61  90 120 155 197 246 298 352
#     4  10  21  36  61  90 121 157 193 245 307 361
#     4  11  22  36  59  86 125 155 194 248 298 366
#     4  10  19  32  56  90 121 151 190 243 307 365
#     4  10  23  42  63  89 118 155 205 252 294 351
#
# _framework density 20.047892000000001
#
# number of rings (size 3 to 8) (size 9 to 14) (size 15 to 20)
#    0.000    1.571    2.857    3.000    2.000    5.714 
#    0.000    1.429    0.000    0.000    0.000    3.000 
#    0.000    0.000    0.000    0.000    0.000    0.000 
#
# Total GULP energy -347150.424143 kJ/mol
# GULP energy per Si atom -12398.229434 kJ/mol
# Density = 2.000226 g / cm^3
# Si number density = 20.047892 Si / 1000 Ang^3
#
#
#
# Elastic Constant Matrix: (Units=GPa)
#
#
# Indices 1 2 3 4 5 6 
#
# 1 89.0438 22.8354 18.5055 0.0006 -4.0794 0.0002
# 2 22.8354 97.4024 20.0715 0.0008 -2.2613 0.0002
# 3 18.5055 20.0715 59.7406 0.0012 -4.1495 0.0005
# 4 0.0006 0.0008 0.0012 19.9345 0.0004 -2.0209
# 5 -4.0794 -2.2613 -4.1495 0.0004 23.5982 0.0001
# 6 0.0002 0.0002 0.0005 -2.0209 0.0001 25.8497
#
#
#
# Elastic Compliance Matrix: (Units=1/GPa)
#
#
# Indices 1 2 3 4 5 6 
#
# 1 0.012505 -0.002279 -0.003010 0.000000 0.001414 0.000000
# 2 -0.002279 0.011450 -0.003130 0.000000 0.000153 0.000000
# 3 -0.003010 -0.003130 0.018897 -0.000001 0.002503 0.000000
# 4 0.000000 0.000000 -0.000001 0.050565 -0.000001 0.003953
# 5 0.001414 0.000153 0.002503 -0.000001 0.043075 0.000000
# 6 0.000000 0.000000 0.000000 0.003953 0.000000 0.038994
#
#
# Mechanical properties :
#
#
# Convention : Reuss Voigt Hill
#
# Bulk Modulus (GPa) = 38.44100 41.00130 39.72115
# Shear Modulus (GPa) = 24.87627 26.19479 25.53553
#
# Velocity S-wave (km/s) = 3.52638 3.61863 3.57280
# Velocity P-wave (km/s) = 5.98303 6.16079 6.07256
#
# Compressibility (1/GPa) = 0.02601389
#
# Stress axis : x y z
#
# Youngs Moduli (GPa) = 79.96737 87.33997 52.91876
#
# Poissons Ratio (x) = 0.19902 0.15928
# Poissons Ratio (y) = 0.18222 0.16565
# Poissons Ratio (z) = 0.24069 0.27340
#
# Static dielectric constant tensor:
#      x y z
#    x -0.406380 0.000000 -0.216030 
#    y 0.000000 3.901830 0.000000 
#    z -0.216030 0.000000 3.471810 
# 
# 
# High freq. dielectric constant tensor:
#      x y z
#    x 1.779040 0.000000 0.001920 
#    y 0.000000 1.793630 0.000000 
#    z 0.001920 0.000000 1.764170 
# 
# From -- ./inp_files/316754.got.cif
#   From: 2010.06.25/outbox.cif.g09.slc.cpg/sg12_159_cif.got.tgz:316754.got - 2010.06.28 00:19:55.
