data_PCOD8088398
_publ_section_title
;
Structure prediction by ZEFSAII (Michael W. Deem and Ramdas Pophale) SiO2 
 PCOD8088398
Probable space group: C 2/M
;
_chemical_formula_sum "Si O2"
_cell_formula_units_Z 56
_cell_length_a 20.653342
_cell_length_b 9.026580
_cell_length_c 28.118443
_cell_angle_alpha 90.000000
_cell_angle_beta 145.358237
_cell_angle_gamma 90.000000
_cell_volume 2979.834930
_symmetry_space_group_name_H-M "C 2/M"
_symmetry_group_IT_number 12
_symmetry_cell_setting 'monoclinic'
loop_
_space_group_symop_operation_xyz
x,y,z
-x,y,-z
-x,-y,-z
x,-y,z
1/2+x,1/2+y,z
1/2-x,1/2+y,-z
1/2-x,1/2-y,-z
1/2+x,1/2-y,z
loop_
_atom_site_type_symbol
_atom_site_label
_atom_site_fract_x
_atom_site_fract_y
_atom_site_fract_z
Si Si1 0.687537 0.326187 0.005700
Si Si2 0.494738 0.826127 0.552042
Si Si3 0.664645 0.824200 0.817769
Si Si4 0.932868 0.326347 0.724155
Si Si5 0.062517 0.825880 0.172139
Si Si6 0.220221 0.174760 0.531413
Si Si7 0.286364 0.175535 0.256550
O O1 0.707782 0.500000 0.012038
O O2 0.554171 0.285596 0.925500
O O3 0.750000 0.250000 0.000000
O O4 0.741353 0.268299 0.087589
O O5 0.500000 0.782790 0.500000
O O6 0.397341 0.735269 0.519355
O O7 0.613583 0.776821 0.647250
O O8 0.470436 0.000000 0.544366
O O9 0.539725 0.769296 0.757787
O O10 0.692403 0.755256 0.782884
O O11 0.666652 0.000000 0.815575
O O12 0.942631 0.500000 0.739447
O O13 0.934675 0.246402 0.775083
O O14 0.818272 0.282985 0.627827
O O15 0.166782 0.762266 0.203985
O O16 0.075386 0.000000 0.187489
O O17 0.250000 0.250000 0.500000
O O18 0.211666 0.000000 0.518367
O O19 0.280904 0.000000 0.249399
#
# Coordination Sequence:
#
# PCOD8088398 Si02
#       7
#     8   8   8   8   8   8   8
#     4  10  19  32  53  80 107 137 175 219 267 317
#     4  10  20  36  58  80 109 151 189 228 280 331
#     4   9  17  31  52  75 104 141 175 212 261 318
#     4  10  20  35  55  77 104 142 179 214 268 328
#     4  10  20  33  54  83 107 133 176 226 266 311
#     4  11  23  37  56  82 111 144 185 233 280 331
#     4   9  18  33  52  77 109 141 178 221 268 321
#
# _framework density 18.792987
#
# number of rings (size 3 to 8) (size 9 to 14) (size 15 to 20)
#    0.000    2.143    1.429    2.143    0.000    5.429 
#    0.000    3.571    0.000    1.714    0.000    2.000 
#    0.000    0.000    0.000    0.000    0.000    0.000 
#
# Total GULP energy -347234.722875 kJ/mol
# GULP energy per Si atom -12401.240103 kJ/mol
# Density = 1.875021 g / cm^3
# Si number density = 18.792987 Si / 1000 Ang^3
#
#
#
# Elastic Constant Matrix: (Units=GPa)
#
#
# Indices 1 2 3 4 5 6 
#
# 1 140.2416 20.3769 65.8348 -0.0001 2.3233 0.0000
# 2 20.3769 26.0631 26.0402 0.0000 1.8709 0.0002
# 3 65.8348 26.0402 144.4958 0.0000 6.4332 0.0000
# 4 -0.0001 0.0000 0.0000 20.6628 0.0000 0.0550
# 5 2.3233 1.8709 6.4332 0.0000 41.1122 0.0000
# 6 0.0000 0.0002 0.0000 0.0550 0.0000 29.7347
#
#
#
# Elastic Compliance Matrix: (Units=1/GPa)
#
#
# Indices 1 2 3 4 5 6 
#
# 1 0.009360 -0.003735 -0.003601 0.000000 0.000204 0.000000
# 2 -0.003735 0.048312 -0.006965 0.000000 -0.000898 0.000000
# 3 -0.003601 -0.006965 0.009862 0.000000 -0.001023 0.000000
# 4 0.000000 0.000000 0.000000 0.048396 0.000000 -0.000089
# 5 0.000204 -0.000898 -0.001023 0.000000 0.024513 0.000000
# 6 0.000000 0.000000 0.000000 -0.000089 0.000000 0.033631
#
#
# Mechanical properties :
#
#
# Convention : Reuss Voigt Hill
#
# Bulk Modulus (GPa) = 25.68541 59.47826 42.58183
# Shear Modulus (GPa) = 23.18545 31.53852 27.36198
#
# Velocity S-wave (km/s) = 3.51626 4.10104 3.81985
# Velocity P-wave (km/s) = 5.49387 7.35816 6.49327
#
# Compressibility (1/GPa) = 0.03893260
#
# Stress axis : x y z
#
# Youngs Moduli (GPa) = 106.83583 20.69892 101.40166
#
# Poissons Ratio (x) = 0.07732 0.36511
# Poissons Ratio (y) = 0.39906 0.70622
# Poissons Ratio (z) = 0.38467 0.14416
#
# Static dielectric constant tensor:
#      x y z
#    x 3.690900 0.000000 0.086830 
#    y 0.000000 3.318240 0.000000 
#    z 0.086830 0.000000 3.792600 
# 
# 
# High freq. dielectric constant tensor:
#      x y z
#    x 1.742170 0.000000 0.001640 
#    y 0.000000 1.692840 0.000000 
#    z 0.001640 0.000000 1.750010 
# 
# From -- ./inp_files/363194.got.cif
#   From: 2010.06.25/outbox.cif.g09.slc.cpg/sg12_182_cif.got.tgz:363194.got - 2010.06.28 00:19:55.
