data_PCOD8088687
_publ_section_title
;
Structure prediction by ZEFSAII (Michael W. Deem and Ramdas Pophale) SiO2 
 PCOD8088687
Probable space group: C 2/M
;
_chemical_formula_sum "Si O2"
_cell_formula_units_Z 56
_cell_length_a 28.819016
_cell_length_b 9.166808
_cell_length_c 21.473930
_cell_angle_alpha 90.000000
_cell_angle_beta 31.026091
_cell_angle_gamma 90.000000
_cell_volume 2923.998336
_symmetry_space_group_name_H-M "C 2/M"
_symmetry_group_IT_number 12
_symmetry_cell_setting 'monoclinic'
loop_
_space_group_symop_operation_xyz
x,y,z
-x,y,-z
-x,-y,-z
x,-y,z
1/2+x,1/2+y,z
1/2-x,1/2+y,-z
1/2-x,1/2-y,-z
1/2+x,1/2-y,z
loop_
_atom_site_type_symbol
_atom_site_label
_atom_site_fract_x
_atom_site_fract_y
_atom_site_fract_z
Si Si1 0.210613 0.675006 0.106016
Si Si2 0.600630 0.172422 0.883919
Si Si3 0.740482 0.827689 0.826990
Si Si4 0.864803 0.666259 0.408890
Si Si5 0.415991 0.665323 0.551791
Si Si6 0.800463 0.328568 0.351032
Si Si7 0.993542 0.333547 0.658341
O O1 0.219033 0.500000 0.091903
O O2 0.264248 0.735719 0.104008
O O3 0.107064 0.729529 0.229359
O O4 0.250000 0.750000 0.000000
O O5 0.651728 0.211491 0.889239
O O6 0.653813 0.238078 0.763414
O O7 0.595077 0.000000 0.882021
O O8 0.500000 0.239328 0.000000
O O9 0.827345 0.774986 0.688075
O O10 0.746276 0.000000 0.835738
O O11 0.831999 0.500000 0.453200
O O12 0.863084 0.712624 0.338396
O O13 0.797970 0.762145 0.527234
O O14 0.966554 0.684941 0.317658
O O15 0.500000 0.681237 0.500000
O O16 0.398912 0.500000 0.550670
O O17 0.435783 0.755145 0.467517
O O18 0.787858 0.500000 0.358052
O O19 0.990476 0.500000 0.640587
#
# Coordination Sequence:
#
# PCOD8088687 Si02
#       7
#     8   8   8   8   8   8   8
#     4  11  24  40  57  78 107 143 183 222 268 323
#     4   9  18  32  54  81 105 138 184 226 261 307
#     4  10  20  36  57  82 111 143 181 225 273 321
#     4   9  18  32  52  78 107 137 171 216 268 316
#     4  10  19  32  54  82 111 141 176 219 268 318
#     4   9  17  32  53  77 105 136 175 219 264 312
#     4  10  21  35  53  80 110 142 179 219 267 323
#
# _framework density 19.151855999999999
#
# number of rings (size 3 to 8) (size 9 to 14) (size 15 to 20)
#    0.000    2.286    1.429    1.286    0.000    4.286 
#    0.000    5.000    0.000    5.143    0.000    0.000 
#    0.000    0.000    0.000    0.000    0.000    0.000 
#
# Total GULP energy -347165.290672 kJ/mol
# GULP energy per Si atom -12398.760381 kJ/mol
# Density = 1.910827 g / cm^3
# Si number density = 19.151856 Si / 1000 Ang^3
#
#
#
# Elastic Constant Matrix: (Units=GPa)
#
#
# Indices 1 2 3 4 5 6 
#
# 1 131.9447 38.3005 70.2542 -0.0065 4.4715 0.0032
# 2 38.3005 44.5463 33.6878 -0.0157 6.6278 0.0098
# 3 70.2542 33.6878 100.5428 -0.0080 7.1598 0.0048
# 4 -0.0065 -0.0157 -0.0080 21.0134 0.0073 7.3570
# 5 4.4715 6.6278 7.1598 0.0073 31.6393 -0.0036
# 6 0.0032 0.0098 0.0048 7.3570 -0.0036 25.8252
#
#
#
# Elastic Compliance Matrix: (Units=1/GPa)
#
#
# Indices 1 2 3 4 5 6 
#
# 1 0.013138 -0.005963 -0.007256 -0.000005 0.001034 0.000003
# 2 -0.005963 0.033302 -0.006662 0.000029 -0.004626 -0.000019
# 3 -0.007256 -0.006662 0.017356 0.000000 -0.001506 0.000000
# 4 -0.000005 0.000029 0.000000 0.052861 -0.000019 -0.015059
# 5 0.001034 -0.004626 -0.001506 -0.000019 0.032770 0.000012
# 6 0.000003 -0.000019 0.000000 -0.015059 0.000012 0.043012
#
#
# Mechanical properties :
#
#
# Convention : Reuss Voigt Hill
#
# Bulk Modulus (GPa) = 41.60835 62.39096 51.99966
# Shear Modulus (GPa) = 20.81498 24.68169 22.74834
#
# Velocity S-wave (km/s) = 3.30030 3.59379 3.45017
# Velocity P-wave (km/s) = 6.02456 7.06174 6.56367
#
# Compressibility (1/GPa) = 0.02403363
#
# Stress axis : x y z
#
# Youngs Moduli (GPa) = 76.11373 30.02851 57.61767
#
# Poissons Ratio (x) = 0.17905 0.41808
# Poissons Ratio (y) = 0.45384 0.38387
# Poissons Ratio (z) = 0.55229 0.20006
#
# Static dielectric constant tensor:
#      x y z
#    x 3.721520 -0.000010 -0.029830 
#    y -0.000010 3.297600 0.000010 
#    z -0.029830 0.000010 3.529300 
# 
# 
# High freq. dielectric constant tensor:
#      x y z
#    x 1.763740 0.000000 -0.000550 
#    y 0.000000 1.717980 0.000000 
#    z -0.000550 0.000000 1.734360 
# 
# From -- ./inp_files/238953.got.cif
#   From: 2010.06.25/outbox.cif.g09.slc.cpg/sg12_120_cif.got.tgz:238953.got - 2010.06.28 00:19:55.
