data_PCOD8088273
_publ_section_title
;
Structure prediction by ZEFSAII (Michael W. Deem and Ramdas Pophale) SiO2 
 PCOD8088273
Probable space group: C 2/M
;
_chemical_formula_sum "Si O2"
_cell_formula_units_Z 56
_cell_length_a 9.414642
_cell_length_b 28.625442
_cell_length_c 19.733750
_cell_angle_alpha 90.000000
_cell_angle_beta 36.203292
_cell_angle_gamma 90.000000
_cell_volume 3141.212634
_symmetry_space_group_name_H-M "C 2/M"
_symmetry_group_IT_number 12
_symmetry_cell_setting 'monoclinic'
loop_
_space_group_symop_operation_xyz
x,y,z
-x,y,-z
-x,-y,-z
x,-y,z
1/2+x,1/2+y,z
1/2-x,1/2+y,-z
1/2-x,1/2-y,-z
1/2+x,1/2-y,z
loop_
_atom_site_type_symbol
_atom_site_label
_atom_site_fract_x
_atom_site_fract_y
_atom_site_fract_z
Si Si1 0.732353 0.272099 0.079062
Si Si2 0.621707 0.701479 0.608869
Si Si3 0.822483 0.448607 0.472144
Si Si4 0.089958 0.352980 0.614071
Si Si5 0.442250 0.354939 0.232536
Si Si6 0.365859 0.550865 0.312777
Si Si7 0.679917 0.779879 0.684193
O O1 0.631163 0.325263 0.115754
O O2 0.569935 0.239597 0.189731
O O3 0.750000 0.250000 0.000000
O O4 0.000000 0.275252 0.000000
O O5 0.802552 0.678645 0.486765
O O6 0.565972 0.664350 0.688239
O O7 0.750920 0.746361 0.593537
O O8 0.377349 0.718987 0.666918
O O9 0.780372 0.500000 0.454044
O O10 0.795552 0.405324 0.430273
O O11 0.631694 0.442008 0.606786
O O12 0.089790 0.445994 0.397877
O O13 0.148694 0.331810 0.665367
O O14 0.806458 0.352093 0.711872
O O15 0.516614 0.409398 0.214479
O O16 0.474786 0.500000 0.252042
#
# Coordination Sequence:
#
# PCOD8088273 Si02
#       7
#     8   8   8   8   8   8   8
#     4  11  22  38  52  66  92 126 169 220 257 289
#     4  11  21  34  47  72 106 133 159 195 240 295
#     4   8  14  25  45  73 105 137 161 185 224 281
#     4  11  19  31  50  76 107 133 159 195 235 292
#     4  10  19  32  53  77  97 130 169 200 250 296
#     4   8  13  25  46  75 104 128 159 197 233 283
#     4  11  23  35  50  71  95 131 172 201 247 301
#
# _framework density 17.82751
#
# number of rings (size 3 to 8) (size 9 to 14) (size 15 to 20)
#    0.000    2.000    1.429    6.429    0.000    2.286 
#    0.000    0.000    0.000    3.000    0.000    1.000 
#    0.000    5.714    0.000    0.000    0.000    0.286 
#
# Total GULP energy -346962.433968 kJ/mol
# GULP energy per Si atom -12391.515499 kJ/mol
# Density = 1.778693 g / cm^3
# Si number density = 17.827510 Si / 1000 Ang^3
#
#
#
# Elastic Constant Matrix: (Units=GPa)
#
#
# Indices 1 2 3 4 5 6 
#
# 1 56.0696 20.1038 -0.4704 0.0000 2.1775 0.0000
# 2 20.1038 146.1720 29.9243 0.0000 14.7378 0.0000
# 3 -0.4704 29.9243 44.3465 0.0000 4.0480 0.0000
# 4 0.0000 0.0000 0.0000 26.3936 0.0000 3.4174
# 5 2.1775 14.7378 4.0480 0.0000 20.3383 0.0000
# 6 0.0000 0.0000 0.0000 3.4174 0.0000 20.0324
#
#
#
# Elastic Compliance Matrix: (Units=1/GPa)
#
#
# Indices 1 2 3 4 5 6 
#
# 1 0.018957 -0.003047 0.002282 0.000000 -0.000276 0.000000
# 2 -0.003047 0.008910 -0.005587 0.000000 -0.005018 0.000000
# 3 0.002282 -0.005587 0.026477 0.000000 -0.001466 0.000000
# 4 0.000000 0.000000 0.000000 0.038744 0.000000 -0.006609
# 5 -0.000276 -0.005018 -0.001466 0.000000 0.053126 0.000000
# 6 0.000000 0.000000 0.000000 -0.006609 0.000000 0.051047
#
#
# Mechanical properties :
#
#
# Convention : Reuss Voigt Hill
#
# Bulk Modulus (GPa) = 24.01393 38.41152 31.21273
# Shear Modulus (GPa) = 22.33698 26.48821 24.41259
#
# Velocity S-wave (km/s) = 3.54354 3.85880 3.70452
# Velocity P-wave (km/s) = 5.49924 6.43791 5.98700
#
# Compressibility (1/GPa) = 0.04164249
#
# Stress axis : x y z
#
# Youngs Moduli (GPa) = 52.75038 112.23448 37.76801
#
# Poissons Ratio (x) = 0.34194 -0.08619
# Poissons Ratio (y) = 0.16071 0.21099
# Poissons Ratio (z) = -0.12038 0.62700
#
# Static dielectric constant tensor:
#      x y z
#    x 3.174310 0.000000 0.080380 
#    y 0.000000 3.936920 0.000000 
#    z 0.080380 0.000000 3.110400 
# 
# 
# High freq. dielectric constant tensor:
#      x y z
#    x 1.675360 0.000000 0.003260 
#    y 0.000000 1.703480 0.000000 
#    z 0.003260 0.000000 1.649200 
# 
# From -- ./inp_files/185200.got.cif
#   From: 2010.06.25/outbox.cif.g09.slc.cpg/sg12_93_cif.got.tgz:185200.got - 2010.06.28 00:19:55.
