data_PCOD8088362
_publ_section_title
;
Structure prediction by ZEFSAII (Michael W. Deem and Ramdas Pophale) SiO2 
 PCOD8088362
Probable space group: C 2/M
;
_chemical_formula_sum "Si O2"
_cell_formula_units_Z 60
_cell_length_a 18.616545
_cell_length_b 11.320237
_cell_length_c 15.800324
_cell_angle_alpha 90.000000
_cell_angle_beta 99.090732
_cell_angle_gamma 90.000000
_cell_volume 3287.994167
_symmetry_space_group_name_H-M "C 2/M"
_symmetry_group_IT_number 12
_symmetry_cell_setting 'monoclinic'
loop_
_space_group_symop_operation_xyz
x,y,z
-x,y,-z
-x,-y,-z
x,-y,z
1/2+x,1/2+y,z
1/2-x,1/2+y,-z
1/2-x,1/2-y,-z
1/2+x,1/2-y,z
loop_
_atom_site_type_symbol
_atom_site_label
_atom_site_fract_x
_atom_site_fract_y
_atom_site_fract_z
Si Si1 0.157277 0.866731 0.008152
Si Si2 0.574557 0.865596 0.544929
Si Si3 0.172850 0.632881 0.260011
Si Si4 0.500000 0.728315 0.000000
Si Si5 0.112103 0.360910 0.733753
Si Si6 0.208500 0.638726 0.451799
Si Si7 0.771180 0.773106 0.140588
Si Si8 0.979957 0.639964 0.825184
O O1 0.174451 0.838712 0.913190
O O2 0.072063 0.851681 0.011756
O O3 0.179548 0.000000 0.031044
O O4 0.205901 0.787570 0.077982
O O5 0.500000 0.802185 0.500000
O O6 0.606966 0.807677 0.637165
O O7 0.629297 0.859215 0.477581
O O8 0.555377 0.000000 0.565998
O O9 0.150464 0.500000 0.274740
O O10 0.203919 0.681685 0.353889
O O11 0.233374 0.636550 0.198134
O O12 0.097605 0.696131 0.217728
O O13 0.497516 0.811793 0.080153
O O14 0.119992 0.500000 0.733867
O O15 0.183997 0.317783 0.794435
O O16 0.039760 0.319221 0.768598
O O17 0.239484 0.500000 0.467341
O O18 0.250000 0.750000 0.500000
O O19 0.976451 0.500000 0.833500
#
# Coordination Sequence:
#
# PCOD8088362 Si02
#       8
#     8   8   8   4   8   8   8   8
#     4  11  24  38  55  75 105 144 180 223 271 328
#     4   9  17  31  53  82 111 141 179 224 273 324
#     4  10  20  35  56  80 109 142 179 223 268 323
#     4  12  20  40  54  74 104 142 180 220 272 324
#     4  10  19  32  53  79 107 137 175 224 271 317
#     4  10  20  35  57  85 115 149 184 225 279 333
#     4  11  21  37  54  78 108 136 179 223 269 325
#     4  10  20  34  54  81 106 136 179 224 271 318
#
# _framework density 18.248207000000001
#
# number of rings (size 3 to 8) (size 9 to 14) (size 15 to 20)
#    0.000    1.733    2.667    2.800    0.000    3.200 
#    0.000    0.667    0.000    0.400    0.000    0.000 
#    0.000    0.000    0.000    0.000    0.000    0.000 
#
# Total GULP energy -371786.390409 kJ/mol
# GULP energy per Si atom -12392.879680 kJ/mol
# Density = 1.820667 g / cm^3
# Si number density = 18.248207 Si / 1000 Ang^3
#
#
#
# Elastic Constant Matrix: (Units=GPa)
#
#
# Indices 1 2 3 4 5 6 
#
# 1 85.4940 14.0966 21.0943 0.0000 -0.3848 0.0000
# 2 14.0966 50.7188 20.2652 0.0000 2.8708 0.0000
# 3 21.0943 20.2652 108.1217 0.0000 -5.6589 0.0000
# 4 0.0000 0.0000 0.0000 23.5639 0.0000 1.7121
# 5 -0.3848 2.8708 -5.6589 0.0000 33.5232 0.0000
# 6 0.0000 0.0000 0.0000 1.7121 0.0000 21.6713
#
#
#
# Elastic Compliance Matrix: (Units=1/GPa)
#
#
# Indices 1 2 3 4 5 6 
#
# 1 0.012629 -0.002734 -0.001949 0.000000 0.000050 0.000000
# 2 -0.002734 0.022118 -0.003746 0.000000 -0.002558 0.000000
# 3 -0.001949 -0.003746 0.010439 0.000000 0.002061 0.000000
# 4 0.000000 0.000000 0.000000 0.042683 0.000000 -0.003372
# 5 0.000050 -0.002558 0.002061 0.000000 0.030398 0.000000
# 6 0.000000 0.000000 0.000000 -0.003372 0.000000 0.046410
#
#
# Mechanical properties :
#
#
# Convention : Reuss Voigt Hill
#
# Bulk Modulus (GPa) = 35.30100 39.47185 37.38642
# Shear Modulus (GPa) = 26.18122 28.34359 27.26240
#
# Velocity S-wave (km/s) = 3.79189 3.94537 3.86939
# Velocity P-wave (km/s) = 6.20952 6.51399 6.36358
#
# Compressibility (1/GPa) = 0.02832781
#
# Stress axis : x y z
#
# Youngs Moduli (GPa) = 79.18539 45.21207 95.79470
#
# Poissons Ratio (x) = 0.12362 0.18668
# Poissons Ratio (y) = 0.21650 0.35885
# Poissons Ratio (z) = 0.15431 0.16936
#
# Static dielectric constant tensor:
#      x y z
#    x 3.504390 0.000000 -0.029890 
#    y 0.000000 3.096550 0.000000 
#    z -0.029890 0.000000 3.678580 
# 
# 
# High freq. dielectric constant tensor:
#      x y z
#    x 1.717470 0.000000 -0.005240 
#    y 0.000000 1.668350 0.000000 
#    z -0.005240 0.000000 1.727160 
# 
# From -- ./inp_files/223867.got.cif
#   From: 2010.06.25/outbox.cif.g09.slc.cpg/sg12_112_cif.got.tgz:223867.got - 2010.06.28 00:19:55.
