data_PCOD8088307
_publ_section_title
;
Structure prediction by ZEFSAII (Michael W. Deem and Ramdas Pophale) SiO2 
 PCOD8088307
Probable space group: C 2/M
;
_chemical_formula_sum "Si O2"
_cell_formula_units_Z 64
_cell_length_a 15.465654
_cell_length_b 9.237279
_cell_length_c 25.170303
_cell_angle_alpha 90.000000
_cell_angle_beta 107.892147
_cell_angle_gamma 90.000000
_cell_volume 3421.936100
_symmetry_space_group_name_H-M "C 2/M"
_symmetry_group_IT_number 12
_symmetry_cell_setting 'monoclinic'
loop_
_space_group_symop_operation_xyz
x,y,z
-x,y,-z
-x,-y,-z
x,-y,z
1/2+x,1/2+y,z
1/2-x,1/2+y,-z
1/2-x,1/2-y,-z
1/2+x,1/2-y,z
loop_
_atom_site_type_symbol
_atom_site_label
_atom_site_fract_x
_atom_site_fract_y
_atom_site_fract_z
Si Si1 0.470916 0.171703 0.748719
Si Si2 0.269420 0.828340 0.867260
Si Si3 0.480133 0.170780 0.630904
Si Si4 0.150768 0.170780 0.630903
Si Si5 0.279073 0.830154 0.558148
Si Si6 0.097843 0.328339 0.867261
Si Si7 0.468633 0.171941 0.937261
Si Si8 0.277801 0.171702 0.748717
O O1 0.493357 0.226385 0.693825
O O2 0.548987 0.222769 0.803773
O O3 0.374716 0.237919 0.749433
O O4 0.462532 0.000000 0.747520
O O5 0.194731 0.749997 0.889456
O O6 0.367492 0.773065 0.905343
O O7 0.254784 0.777234 0.803771
O O8 0.259672 0.000000 0.871576
O O9 0.553998 0.250001 0.608001
O O10 0.380718 0.216803 0.592551
O O11 0.494493 0.000000 0.629029
O O12 0.211826 0.216805 0.592548
O O13 0.200467 0.226386 0.693823
O O14 0.134535 0.000000 0.629028
O O15 0.250000 0.750000 0.500000
O O16 0.273498 0.000000 0.546999
O O17 0.111903 0.500000 0.871577
O O18 0.037858 0.273059 0.905345
O O19 0.468794 0.000000 0.937571
O O20 0.500000 0.234652 0.000000
O O21 0.284987 0.000000 0.747517
#
# Coordination Sequence:
#
# PCOD8088307 Si02
#       8
#     8   8   8   8   8   8   8   8
#     4   9  15  29  54  78 101 133 171 207 249 306
#     4  10  19  32  53  78 103 134 171 212 257 304
#     4  10  20  35  56  80 105 134 169 210 256 305
#     4  10  20  35  56  80 105 134 169 210 256 305
#     4  10  22  39  57  76 102 138 175 211 251 299
#     4  10  19  32  53  78 103 134 171 212 257 304
#     4   9  18  33  52  73  99 137 182 215 245 301
#     4   9  15  29  54  78 101 133 171 207 249 306
#
# _framework density 18.702863000000001
#
# number of rings (size 3 to 8) (size 9 to 14) (size 15 to 20)
#    0.000    2.375    2.500    0.750    0.000    2.000 
#    0.000    3.125    0.000    2.250    0.000    0.000 
#    0.000    0.000    0.000    0.000    0.000    0.000 
#
# Total GULP energy -396808.952362 kJ/mol
# GULP energy per Si atom -12400.279761 kJ/mol
# Density = 1.866029 g / cm^3
# Si number density = 18.702863 Si / 1000 Ang^3
#
#
#
# Elastic Constant Matrix: (Units=GPa)
#
#
# Indices 1 2 3 4 5 6 
#
# 1 188.7211 44.0817 79.4943 0.0000 2.9881 0.0000
# 2 44.0817 24.3962 32.0094 0.0000 0.4300 0.0000
# 3 79.4943 32.0094 153.9987 0.0000 -1.7626 0.0000
# 4 0.0000 0.0000 0.0000 16.7022 0.0000 0.5122
# 5 2.9881 0.4300 -1.7626 0.0000 12.8621 0.0000
# 6 0.0000 0.0000 0.0000 0.5122 0.0000 31.0362
#
#
#
# Elastic Compliance Matrix: (Units=1/GPa)
#
#
# Indices 1 2 3 4 5 6 
#
# 1 0.009585 -0.014798 -0.001895 0.000000 -0.001992 0.000000
# 2 -0.014798 0.079364 -0.008862 0.000000 -0.000430 0.000000
# 3 -0.001895 -0.008862 0.009337 0.000000 0.002016 0.000000
# 4 0.000000 0.000000 0.000000 0.059902 0.000000 -0.000989
# 5 -0.001992 -0.000430 0.002016 0.000000 0.078501 0.000000
# 6 0.000000 0.000000 0.000000 -0.000989 0.000000 0.032237
#
#
# Mechanical properties :
#
#
# Convention : Reuss Voigt Hill
#
# Bulk Modulus (GPa) = 21.19734 75.36518 48.28126
# Shear Modulus (GPa) = 14.89148 26.22215 20.55682
#
# Velocity S-wave (km/s) = 2.82479 3.74844 3.31890
# Velocity P-wave (km/s) = 4.69016 7.68882 6.36850
#
# Compressibility (1/GPa) = 0.04717573
#
# Stress axis : x y z
#
# Youngs Moduli (GPa) = 104.32930 12.60010 107.10327
#
# Poissons Ratio (x) = 0.18646 0.20293
# Poissons Ratio (y) = 1.54388 0.94919
# Poissons Ratio (z) = 0.19768 0.11167
#
# Static dielectric constant tensor:
#      x y z
#    x 3.542010 0.000000 -0.001630 
#    y 0.000000 2.883410 0.000000 
#    z -0.001630 0.000000 3.587320 
# 
# 
# High freq. dielectric constant tensor:
#      x y z
#    x 1.742430 0.000000 0.000440 
#    y 0.000000 1.674840 0.000000 
#    z 0.000440 0.000000 1.729950 
# 
# From -- ./inp_files/359943.got.cif
#   From: 2010.06.25/outbox.cif.g09.slc.cpg/sg12_180_cif.got.tgz:359943.got - 2010.06.28 00:19:55.
