data_PCOD8088458
_publ_section_title
;
Structure prediction by ZEFSAII (Michael W. Deem and Ramdas Pophale) SiO2 
 PCOD8088458
Probable space group: C 2/M
;
_chemical_formula_sum "Si O2"
_cell_formula_units_Z 56
_cell_length_a 29.906561
_cell_length_b 9.655672
_cell_length_c 11.518721
_cell_angle_alpha 90.000000
_cell_angle_beta 64.464961
_cell_angle_gamma 90.000000
_cell_volume 3001.336624
_symmetry_space_group_name_H-M "C 2/M"
_symmetry_group_IT_number 12
_symmetry_cell_setting 'monoclinic'
loop_
_space_group_symop_operation_xyz
x,y,z
-x,y,-z
-x,-y,-z
x,-y,z
1/2+x,1/2+y,z
1/2-x,1/2+y,-z
1/2-x,1/2-y,-z
1/2+x,1/2-y,z
loop_
_atom_site_type_symbol
_atom_site_label
_atom_site_fract_x
_atom_site_fract_y
_atom_site_fract_z
Si Si1 0.776189 0.660381 0.306323
Si Si2 0.900916 0.659560 0.894536
Si Si3 0.571792 0.345078 0.673405
Si Si4 0.288786 0.160912 0.027654
Si Si5 0.319995 0.341475 0.451470
Si Si6 0.444188 0.342444 0.047491
Si Si7 0.007273 0.661374 0.361372
O O1 0.789524 0.500000 0.308146
O O2 0.785080 0.707714 0.165208
O O3 0.719164 0.692662 0.403456
O O4 0.812326 0.745817 0.348412
O O5 0.906096 0.500000 0.926964
O O6 0.937005 0.692537 0.745316
O O7 0.844493 0.691282 0.919522
O O8 0.914613 0.749781 0.990226
O O9 0.552998 0.500000 0.663604
O O10 0.625354 0.314523 0.555756
O O11 0.582123 0.331984 0.798994
O O12 0.531086 0.237178 0.678939
O O13 0.274865 0.000000 0.028785
O O14 0.250000 0.250000 0.000000
O O15 0.314792 0.500000 0.415486
O O16 0.444945 0.500000 0.999347
O O17 0.500000 0.286641 0.000000
O O18 0.994521 0.500000 0.369741
O O19 0.000000 0.717810 0.500000
#
# Coordination Sequence:
#
# PCOD8088458 Si02
#       7
#     8   8   8   8   8   8   8
#     4   9  18  34  53  76 106 135 169 214 260 306
#     4  10  21  37  56  78 105 138 176 218 263 312
#     4  10  20  34  52  78 108 136 169 209 255 309
#     4  10  22  38  55  77 105 138 178 221 262 308
#     4   9  18  32  53  79 106 135 167 208 259 311
#     4  10  19  32  53  81 111 137 168 212 259 309
#     4  10  22  38  53  72 102 138 175 214 255 303
#
# _framework density 18.658353999999999
#
# number of rings (size 3 to 8) (size 9 to 14) (size 15 to 20)
#    0.000    2.286    1.429    0.857    0.000    4.000 
#    0.000    0.000    0.000    0.000    0.000    0.000 
#    0.000    0.000    0.000    0.000    0.000    0.000 
#
# Total GULP energy -347217.023171 kJ/mol
# GULP energy per Si atom -12400.607970 kJ/mol
# Density = 1.861589 g / cm^3
# Si number density = 18.658354 Si / 1000 Ang^3
#
#
#
# Elastic Constant Matrix: (Units=GPa)
#
#
# Indices 1 2 3 4 5 6 
#
# 1 114.5905 53.6690 52.2148 0.0000 -13.8726 0.0000
# 2 53.6690 63.3605 39.8952 0.0000 1.8773 0.0000
# 3 52.2148 39.8952 104.3289 0.0000 -7.7756 0.0000
# 4 0.0000 0.0000 0.0000 24.5278 0.0000 3.0892
# 5 -13.8726 1.8773 -7.7756 0.0000 26.9971 0.0000
# 6 0.0000 0.0000 0.0000 3.0892 0.0000 33.7518
#
#
#
# Elastic Compliance Matrix: (Units=1/GPa)
#
#
# Indices 1 2 3 4 5 6 
#
# 1 0.017259 -0.012989 -0.003007 0.000000 0.008906 0.000000
# 2 -0.012989 0.030956 -0.006126 0.000000 -0.010592 0.000000
# 3 -0.003007 -0.006126 0.013642 0.000000 0.002810 0.000000
# 4 0.000000 0.000000 0.000000 0.041245 0.000000 -0.003775
# 5 0.008906 -0.010592 0.002810 0.000000 0.043163 0.000000
# 6 0.000000 0.000000 0.000000 -0.003775 0.000000 0.029974
#
#
# Mechanical properties :
#
#
# Convention : Reuss Voigt Hill
#
# Bulk Modulus (GPa) = 56.77813 63.75976 60.26894
# Shear Modulus (GPa) = 22.08926 26.15542 24.12234
#
# Velocity S-wave (km/s) = 3.44449 3.74813 3.59951
# Velocity P-wave (km/s) = 6.80557 7.27858 7.04605
#
# Compressibility (1/GPa) = 0.01761242
#
# Stress axis : x y z
#
# Youngs Moduli (GPa) = 57.94217 32.30347 73.30335
#
# Poissons Ratio (x) = 0.41960 0.22041
# Poissons Ratio (y) = 0.75263 0.44906
# Poissons Ratio (z) = 0.17422 0.19789
#
# Static dielectric constant tensor:
#      x y z
#    x 3.326570 0.000000 -0.322810 
#    y 0.000000 3.387770 0.000000 
#    z -0.322810 0.000000 3.611480 
# 
# 
# High freq. dielectric constant tensor:
#      x y z
#    x 1.717560 0.000000 -0.024600 
#    y 0.000000 1.721250 0.000000 
#    z -0.024600 0.000000 1.727320 
# 
# From -- ./inp_files/186438.got.cif
#   From: 2010.06.25/outbox.cif.g09.slc.cpg/sg12_94_cif.got.tgz:186438.got - 2010.06.28 00:19:55.
