data_PCOD8088876
_publ_section_title
;
Structure prediction by ZEFSAII (Michael W. Deem and Ramdas Pophale) SiO2 
 PCOD8088876
Probable space group: C 2/M
;
_chemical_formula_sum "Si O2"
_cell_formula_units_Z 56
_cell_length_a 31.582385
_cell_length_b 10.554701
_cell_length_c 25.699429
_cell_angle_alpha 90.000000
_cell_angle_beta 160.640318
_cell_angle_gamma 90.000000
_cell_volume 2839.843161
_symmetry_space_group_name_H-M "C 2/M"
_symmetry_group_IT_number 12
_symmetry_cell_setting 'monoclinic'
loop_
_space_group_symop_operation_xyz
x,y,z
-x,y,-z
-x,-y,-z
x,-y,z
1/2+x,1/2+y,z
1/2-x,1/2+y,-z
1/2-x,1/2-y,-z
1/2+x,1/2-y,z
loop_
_atom_site_type_symbol
_atom_site_label
_atom_site_fract_x
_atom_site_fract_y
_atom_site_fract_z
Si Si1 0.483083 0.860753 0.040955
Si Si2 0.850531 0.645958 0.443705
Si Si3 0.693039 0.352924 0.972637
Si Si4 0.418743 0.361191 0.689318
Si Si5 0.287378 0.211135 0.627158
Si Si6 0.787032 0.147910 0.821103
Si Si7 0.614088 0.856063 0.711370
O O1 0.401146 0.743652 0.968645
O O2 0.418354 0.000000 0.974460
O O3 0.500000 0.835129 0.000000
O O4 0.620386 0.868507 0.228484
O O5 0.875418 0.500000 0.483861
O O6 0.799880 0.698477 0.439087
O O7 0.746087 0.666840 0.277663
O O8 0.984951 0.713339 0.582179
O O9 0.699969 0.500000 0.959963
O O10 0.548487 0.306418 0.814896
O O11 0.750000 0.250000 0.000000
O O12 0.769325 0.340277 0.114367
O O13 0.450175 0.500000 0.747025
O O14 0.376973 0.283107 0.690588
O O15 0.309667 0.373222 0.518780
O O16 0.664543 0.190484 0.713580
O O17 0.825220 0.000000 0.876707
O O18 0.571858 0.000000 0.654837
#
# Coordination Sequence:
#
# PCOD8088876 Si02
#       7
#     8   8   8   8   8   8   8
#     4  11  23  39  57  81 117 156 191 234 289 345
#     4  10  19  32  55  87 116 147 191 239 284 338
#     4  10  20  37  58  82 111 147 188 234 288 341
#     4  10  22  38  58  84 117 152 192 242 292 339
#     4  11  21  37  58  83 114 155 197 235 285 346
#     4  10  20  36  59  86 114 149 193 240 285 336
#     4   9  18  33  55  83 117 148 180 233 295 340
#
# _framework density 19.719398999999999
#
# number of rings (size 3 to 8) (size 9 to 14) (size 15 to 20)
#    0.000    1.857    1.429    3.000    0.000    4.286 
#    0.000    5.714    0.000    3.429    0.000    0.000 
#    0.000    0.000    0.000    0.000    0.000    0.000 
#
# Total GULP energy -347006.872009 kJ/mol
# GULP energy per Si atom -12393.102572 kJ/mol
# Density = 1.967452 g / cm^3
# Si number density = 19.719399 Si / 1000 Ang^3
#
#
#
# Elastic Constant Matrix: (Units=GPa)
#
#
# Indices 1 2 3 4 5 6 
#
# 1 112.2648 47.1636 32.7492 -0.0004 14.1642 -0.0003
# 2 47.1636 85.1539 30.7639 -0.0004 17.5322 -0.0005
# 3 32.7492 30.7639 94.3658 -0.0006 14.8517 -0.0006
# 4 -0.0004 -0.0004 -0.0006 15.1883 -0.0003 9.9950
# 5 14.1642 17.5322 14.8517 -0.0003 36.5027 -0.0003
# 6 -0.0003 -0.0005 -0.0006 9.9950 -0.0003 13.6840
#
#
#
# Elastic Compliance Matrix: (Units=1/GPa)
#
#
# Indices 1 2 3 4 5 6 
#
# 1 0.012059 -0.005676 -0.002166 0.000000 -0.001072 0.000000
# 2 -0.005676 0.016874 -0.002780 0.000000 -0.004771 0.000000
# 3 -0.002166 -0.002780 0.012728 0.000000 -0.003003 0.000000
# 4 0.000000 0.000000 0.000000 0.126779 0.000000 -0.092601
# 5 -0.001072 -0.004771 -0.003003 0.000000 0.031324 0.000000
# 6 0.000000 0.000000 0.000000 -0.092601 0.000000 0.140716
#
#
# Mechanical properties :
#
#
# Convention : Reuss Voigt Hill
#
# Bulk Modulus (GPa) = 48.98060 57.01534 52.99797
# Shear Modulus (GPa) = 13.56744 25.14886 19.35815
#
# Velocity S-wave (km/s) = 2.62587 3.57506 3.13658
# Velocity P-wave (km/s) = 5.83835 6.78362 6.32866
#
# Compressibility (1/GPa) = 0.02041625
#
# Stress axis : x y z
#
# Youngs Moduli (GPa) = 82.92498 59.26341 78.56866
#
# Poissons Ratio (x) = 0.33637 0.17018
# Poissons Ratio (y) = 0.47067 0.21845
# Poissons Ratio (z) = 0.17961 0.16477
#
# Static dielectric constant tensor:
#      x y z
#    x 3.672870 0.000000 0.096380 
#    y 0.000000 3.399690 0.000000 
#    z 0.096380 0.000000 3.791500 
# 
# 
# High freq. dielectric constant tensor:
#      x y z
#    x 1.776300 0.000000 0.000670 
#    y 0.000000 1.739790 0.000000 
#    z 0.000670 0.000000 1.780240 
# 
# From -- ./inp_files/353928.got.cif
#   From: 2010.06.25/outbox.cif.g09.slc.cpg/sg12_177_cif.got.tgz:353928.got - 2010.06.28 00:19:55.
