data_PCOD8088408
_publ_section_title
;
Structure prediction by ZEFSAII (Michael W. Deem and Ramdas Pophale) SiO2 
 PCOD8088408
Probable space group: C 2/M
;
_chemical_formula_sum "Si O2"
_cell_formula_units_Z 64
_cell_length_a 17.889739
_cell_length_b 8.784680
_cell_length_c 34.160904
_cell_angle_alpha 90.000000
_cell_angle_beta 143.102057
_cell_angle_gamma 90.000000
_cell_volume 3223.248963
_symmetry_space_group_name_H-M "C 2/M"
_symmetry_group_IT_number 12
_symmetry_cell_setting 'monoclinic'
loop_
_space_group_symop_operation_xyz
x,y,z
-x,y,-z
-x,-y,-z
x,-y,z
1/2+x,1/2+y,z
1/2-x,1/2+y,-z
1/2-x,1/2-y,-z
1/2+x,1/2-y,z
loop_
_atom_site_type_symbol
_atom_site_label
_atom_site_fract_x
_atom_site_fract_y
_atom_site_fract_z
Si Si1 0.098837 0.671930 0.006765
Si Si2 0.695870 0.822504 0.244163
Si Si3 0.218372 0.319797 0.862383
Si Si4 0.423109 0.176667 0.506711
Si Si5 0.977728 0.177988 0.376110
Si Si6 0.092019 0.179009 0.124448
Si Si7 0.341417 0.179970 0.610874
Si Si8 0.940173 0.319663 0.735314
O O1 0.131734 0.500000 0.009461
O O2 0.040671 0.751951 0.944228
O O3 0.224999 0.754219 0.073598
O O4 0.000000 0.683824 0.000000
O O5 0.621846 0.730964 0.180484
O O6 0.646485 0.764114 0.265448
O O7 0.841776 0.786966 0.301830
O O8 0.667351 0.000000 0.226510
O O9 0.219208 0.500000 0.866147
O O10 0.298026 0.264137 0.858330
O O11 0.079416 0.254445 0.798941
O O12 0.500000 0.209362 0.500000
O O13 0.508720 0.226306 0.578640
O O14 0.301692 0.281317 0.455987
O O15 0.385646 0.000000 0.494820
O O16 0.078831 0.230606 0.387398
O O17 0.994129 0.000000 0.392346
O O18 0.079362 0.000000 0.117583
O O19 0.381972 0.240866 0.670513
O O20 0.362567 0.000000 0.614795
O O21 0.944833 0.500000 0.735729
#
# Coordination Sequence:
#
# PCOD8088408 Si02
#       8
#     8   8   8   8   8   8   8   8
#     4   9  17  30  50  77 107 138 176 222 271 322
#     4  10  21  37  56  79 109 144 182 225 274 329
#     4   9  17  32  54  78 105 137 177 223 269 323
#     4  11  24  41  61  87 119 152 187 230 280 332
#     4  11  23  39  60  86 116 150 190 233 278 330
#     4  10  19  32  53  80 108 140 179 223 274 328
#     4  11  22  39  63  87 114 149 191 234 278 331
#     4   9  19  36  57  80 107 143 183 224 275 332
#
# _framework density 19.855743
#
# number of rings (size 3 to 8) (size 9 to 14) (size 15 to 20)
#    0.000    2.000    0.000    3.750    0.000    6.000 
#    0.000    3.750    0.000    0.000    0.000    0.000 
#    0.000    0.000    0.000    0.000    0.000    0.000 
#
# Total GULP energy -396916.571651 kJ/mol
# GULP energy per Si atom -12403.642864 kJ/mol
# Density = 1.981055 g / cm^3
# Si number density = 19.855743 Si / 1000 Ang^3
#
#
#
# Elastic Constant Matrix: (Units=GPa)
#
#
# Indices 1 2 3 4 5 6 
#
# 1 74.9303 20.4784 24.2931 0.0000 -15.5777 0.0001
# 2 20.4784 40.3680 25.2232 0.0000 -4.7798 0.0002
# 3 24.2931 25.2232 110.0259 0.0000 -17.6300 0.0000
# 4 0.0000 0.0000 0.0000 35.6216 0.0000 -5.0076
# 5 -15.5777 -4.7798 -17.6300 0.0000 27.4453 -0.0001
# 6 0.0001 0.0002 0.0000 -5.0076 -0.0001 14.9418
#
#
#
# Elastic Compliance Matrix: (Units=1/GPa)
#
#
# Indices 1 2 3 4 5 6 
#
# 1 0.017275 -0.007277 -0.000867 0.000000 0.007981 0.000000
# 2 -0.007277 0.031997 -0.006128 0.000000 -0.002494 0.000000
# 3 -0.000867 -0.006128 0.011633 0.000000 0.005913 0.000000
# 4 0.000000 0.000000 0.000000 0.029461 0.000000 0.009874
# 5 0.007981 -0.002494 0.005913 0.000000 0.044330 0.000000
# 6 0.000000 0.000000 0.000000 0.009874 0.000000 0.070235
#
#
# Mechanical properties :
#
#
# Convention : Reuss Voigt Hill
#
# Bulk Modulus (GPa) = 30.90202 40.59041 35.74621
# Shear Modulus (GPa) = 20.46986 25.95705 23.21345
#
# Velocity S-wave (km/s) = 3.21429 3.61956 3.42293
# Velocity P-wave (km/s) = 5.41965 6.16079 5.80206
#
# Compressibility (1/GPa) = 0.03236035
#
# Stress axis : x y z
#
# Youngs Moduli (GPa) = 57.88814 31.25262 85.96519
#
# Poissons Ratio (x) = 0.22741 0.07455
# Poissons Ratio (y) = 0.42122 0.52683
# Poissons Ratio (z) = 0.05020 0.19153
#
# Static dielectric constant tensor:
#      x y z
#    x 3.565130 0.000000 0.007770 
#    y 0.000000 3.475730 0.000000 
#    z 0.007770 0.000000 3.827710 
# 
# 
# High freq. dielectric constant tensor:
#      x y z
#    x 1.763040 0.000000 -0.000360 
#    y 0.000000 1.764970 0.000000 
#    z -0.000360 0.000000 1.792040 
# 
# From -- ./inp_files/378413.got.cif
#   From: 2010.06.25/outbox.cif.g09.slc.cpg/sg12_190_cif.got.tgz:378413.got - 2010.06.28 00:19:55.
