data_PCOD8088810
_publ_section_title
;
Structure prediction by ZEFSAII (Michael W. Deem and Ramdas Pophale) SiO2 
 PCOD8088810
Probable space group: C 2/M
;
_chemical_formula_sum "Si O2"
_cell_formula_units_Z 64
_cell_length_a 24.243821
_cell_length_b 8.886981
_cell_length_c 20.552114
_cell_angle_alpha 90.000000
_cell_angle_beta 128.338681
_cell_angle_gamma 90.000000
_cell_volume 3473.169872
_symmetry_space_group_name_H-M "C 2/M"
_symmetry_group_IT_number 12
_symmetry_cell_setting 'monoclinic'
loop_
_space_group_symop_operation_xyz
x,y,z
-x,y,-z
-x,-y,-z
x,-y,z
1/2+x,1/2+y,z
1/2-x,1/2+y,-z
1/2-x,1/2-y,-z
1/2+x,1/2-y,z
loop_
_atom_site_type_symbol
_atom_site_label
_atom_site_fract_x
_atom_site_fract_y
_atom_site_fract_z
Si Si1 0.673448 0.325009 0.375232
Si Si2 0.821117 0.175566 0.131704
Si Si3 0.332898 0.174602 0.491940
Si Si4 0.451875 0.823605 0.776583
Si Si5 0.472577 0.326605 0.050887
Si Si6 0.956113 0.322615 0.279643
Si Si7 0.680360 0.673197 0.018785
Si Si8 0.534735 0.676679 0.457408
O O1 0.660692 0.500000 0.380948
O O2 0.656309 0.230545 0.426855
O O3 0.753252 0.296699 0.410029
O O4 0.621845 0.266022 0.281239
O O5 0.877136 0.260578 0.217421
O O6 0.742868 0.227371 0.094775
O O7 0.829366 0.000000 0.150516
O O8 0.834860 0.220066 0.066795
O O9 0.384866 0.264888 0.482457
O O10 0.353136 0.000000 0.505161
O O11 0.488625 0.781218 0.870562
O O12 0.501012 0.772139 0.752837
O O13 0.436572 0.000000 0.764003
O O14 0.487887 0.500000 0.080644
O O15 0.500000 0.285470 0.000000
O O16 0.389272 0.294849 0.990568
O O17 0.953311 0.500000 0.284478
O O18 0.992346 0.255815 0.369312
O O19 0.703854 0.500000 0.039107
O O20 0.500000 0.721529 0.500000
O O21 0.533767 0.500000 0.444618
#
# Coordination Sequence:
#
# PCOD8088810 Si02
#       8
#     8   8   8   8   8   8   8   8
#     4  10  20  34  57  85 115 147 186 236 282 332
#     4  10  19  32  55  83 111 144 183 230 280 329
#     4  10  20  35  56  85 115 149 189 229 283 336
#     4  11  22  35  56  86 116 146 188 235 281 333
#     4  10  21  38  59  82 112 151 190 228 279 340
#     4  11  22  36  57  85 114 146 188 235 280 332
#     4   9  18  33  53  80 112 145 182 228 279 328
#     4  11  24  40  59  84 115 152 190 231 284 341
#
# _framework density 18.426971000000002
#
# number of rings (size 3 to 8) (size 9 to 14) (size 15 to 20)
#    0.000    1.750    2.500    2.250    0.000    4.750 
#    0.000    1.250    0.000    1.500    0.000    0.000 
#    0.000    0.000    0.000    0.000    0.000    0.000 
#
# Total GULP energy -396952.966966 kJ/mol
# GULP energy per Si atom -12404.780218 kJ/mol
# Density = 1.838503 g / cm^3
# Si number density = 18.426971 Si / 1000 Ang^3
#
#
#
# Elastic Constant Matrix: (Units=GPa)
#
#
# Indices 1 2 3 4 5 6 
#
# 1 120.3745 45.4867 58.2610 0.0000 10.3640 0.0000
# 2 45.4867 73.9677 48.5230 0.0000 6.7928 0.0000
# 3 58.2610 48.5230 100.1708 0.0000 11.6857 0.0000
# 4 0.0000 0.0000 0.0000 32.8713 0.0000 7.1366
# 5 10.3640 6.7928 11.6857 0.0000 25.7173 0.0000
# 6 0.0000 0.0000 0.0000 7.1366 0.0000 25.1900
#
#
#
# Elastic Compliance Matrix: (Units=1/GPa)
#
#
# Indices 1 2 3 4 5 6 
#
# 1 0.012474 -0.004231 -0.005015 0.000000 -0.001631 0.000000
# 2 -0.004231 0.021272 -0.007800 0.000000 -0.000369 0.000000
# 3 -0.005015 -0.007800 0.017109 0.000000 -0.003693 0.000000
# 4 0.000000 0.000000 0.000000 0.032416 0.000000 -0.009184
# 5 -0.001631 -0.000369 -0.003693 0.000000 0.041317 0.000000
# 6 0.000000 0.000000 0.000000 -0.009184 0.000000 0.042300
#
#
# Mechanical properties :
#
#
# Convention : Reuss Voigt Hill
#
# Bulk Modulus (GPa) = 59.65903 66.56157 63.11030
# Shear Modulus (GPa) = 24.20495 26.23855 25.22175
#
# Velocity S-wave (km/s) = 3.62824 3.77758 3.70366
# Velocity P-wave (km/s) = 7.07095 7.43149 7.25346
#
# Compressibility (1/GPa) = 0.01676192
#
# Stress axis : x y z
#
# Youngs Moduli (GPa) = 80.16641 47.00934 58.44788
#
# Poissons Ratio (x) = 0.19890 0.29313
# Poissons Ratio (y) = 0.33920 0.45592
# Poissons Ratio (z) = 0.40206 0.36669
#
# Static dielectric constant tensor:
#      x y z
#    x 3.493620 0.000000 0.257890 
#    y 0.000000 3.436200 0.000000 
#    z 0.257890 0.000000 3.274500 
# 
# 
# High freq. dielectric constant tensor:
#      x y z
#    x 1.705150 0.000000 0.025130 
#    y 0.000000 1.725970 0.000000 
#    z 0.025130 0.000000 1.706320 
# 
# From -- ./inp_files/324339.got.cif
#   From: 2010.06.25/outbox.cif.g09.slc.cpg/sg12_163_cif.got.tgz:324339.got - 2010.06.28 00:19:55.
