data_PCOD8088692
_publ_section_title
;
Structure prediction by ZEFSAII (Michael W. Deem and Ramdas Pophale) SiO2 
 PCOD8088692
Probable space group: C 2/M
;
_chemical_formula_sum "Si O2"
_cell_formula_units_Z 64
_cell_length_a 28.620532
_cell_length_b 12.770970
_cell_length_c 22.193438
_cell_angle_alpha 90.000000
_cell_angle_beta 25.862691
_cell_angle_gamma 90.000000
_cell_volume 3538.569239
_symmetry_space_group_name_H-M "C 2/M"
_symmetry_group_IT_number 12
_symmetry_cell_setting 'monoclinic'
loop_
_space_group_symop_operation_xyz
x,y,z
-x,y,-z
-x,-y,-z
x,-y,z
1/2+x,1/2+y,z
1/2-x,1/2+y,-z
1/2-x,1/2-y,-z
1/2+x,1/2-y,z
loop_
_atom_site_type_symbol
_atom_site_label
_atom_site_fract_x
_atom_site_fract_y
_atom_site_fract_z
Si Si1 0.272143 0.721434 0.406065
Si Si2 0.614892 0.232014 0.212856
Si Si3 0.506917 0.618510 0.422294
Si Si4 0.410371 0.119845 0.053741
Si Si5 0.994955 0.242707 0.847226
Si Si6 0.441178 0.120159 0.341308
Si Si7 0.771753 0.120299 0.647145
Si Si8 0.668374 0.623111 0.039329
O O1 0.250000 0.750000 0.500000
O O2 0.396310 0.685291 0.254883
O O3 0.183212 0.633651 0.493563
O O4 0.255927 0.821127 0.382181
O O5 0.591944 0.299396 0.298689
O O6 0.514293 0.161632 0.310757
O O7 0.640523 0.316604 0.132262
O O8 0.711822 0.155524 0.117837
O O9 0.500000 0.642316 0.500000
O O10 0.546818 0.500000 0.364592
O O11 0.394781 0.637797 0.519659
O O12 0.299160 0.157465 0.213445
O O13 0.402195 0.000000 0.040245
O O14 0.500000 0.131830 0.000000
O O15 0.435473 0.193421 0.968333
O O16 0.029211 0.321316 0.754610
O O17 0.914238 0.154007 0.917499
O O18 0.466191 0.000000 0.300982
O O19 0.743936 0.000000 0.666011
O O20 0.660714 0.500000 0.059877
#
# Coordination Sequence:
#
# PCOD8088692 Si02
#       8
#     8   8   8   8   8   8   8   8
#     4  10  20  34  51  81 114 147 186 223 274 332
#     4  10  20  38  60  82 110 144 182 233 283 331
#     4  10  21  36  57  86 115 144 182 230 288 343
#     4  10  19  32  54  82 111 144 179 223 277 332
#     4  10  21  35  55  83 114 147 183 228 280 336
#     4  10  20  35  56  81 109 142 183 233 279 327
#     4  10  20  35  56  82 115 149 184 231 285 339
#     4  10  22  38  58  83 111 147 188 228 280 338
#
# _framework density 18.086406
#
# number of rings (size 3 to 8) (size 9 to 14) (size 15 to 20)
#    0.000    2.000    2.500    1.125    1.750    2.500 
#    0.000    1.250    0.000    4.125    0.000    0.000 
#    0.000    0.000    0.000    0.000    0.000    0.000 
#
# Total GULP energy -396724.096676 kJ/mol
# GULP energy per Si atom -12397.628021 kJ/mol
# Density = 1.804524 g / cm^3
# Si number density = 18.086406 Si / 1000 Ang^3
#
#
#
# Elastic Constant Matrix: (Units=GPa)
#
#
# Indices 1 2 3 4 5 6 
#
# 1 84.2073 32.3595 32.4660 0.0000 -13.3068 0.0000
# 2 32.3595 81.3072 35.7174 -0.0003 -9.4538 0.0000
# 3 32.4660 35.7174 76.9183 -0.0002 -6.3487 0.0000
# 4 0.0000 -0.0003 -0.0002 23.9003 0.0001 6.2066
# 5 -13.3068 -9.4538 -6.3487 0.0001 24.8956 0.0000
# 6 0.0000 0.0000 0.0000 6.2066 0.0000 21.0726
#
#
#
# Elastic Compliance Matrix: (Units=1/GPa)
#
#
# Indices 1 2 3 4 5 6 
#
# 1 0.015986 -0.003667 -0.004550 0.000000 0.005992 0.000000
# 2 -0.003667 0.016718 -0.005979 0.000000 0.002864 0.000000
# 3 -0.004550 -0.005979 0.017682 0.000000 -0.000193 0.000000
# 4 0.000000 0.000000 0.000000 0.045306 0.000000 -0.013344
# 5 0.005992 0.002864 -0.000193 0.000000 0.044409 0.000000
# 6 0.000000 0.000000 0.000000 -0.013344 0.000000 0.051385
#
#
# Mechanical properties :
#
#
# Convention : Reuss Voigt Hill
#
# Bulk Modulus (GPa) = 45.46762 49.27985 47.37374
# Shear Modulus (GPa) = 22.00632 23.43302 22.71967
#
# Velocity S-wave (km/s) = 3.49195 3.60337 3.54810
# Velocity P-wave (km/s) = 6.43832 6.67970 6.56012
#
# Compressibility (1/GPa) = 0.02199367
#
# Stress axis : x y z
#
# Youngs Moduli (GPa) = 62.55634 59.81647 56.55541
#
# Poissons Ratio (x) = 0.21932 0.25733
# Poissons Ratio (y) = 0.22937 0.33815
# Poissons Ratio (z) = 0.28464 0.35764
#
# Static dielectric constant tensor:
#      x y z
#    x 3.407040 0.000000 -0.276990 
#    y 0.000000 3.169790 0.000000 
#    z -0.276990 0.000000 3.316580 
# 
# 
# High freq. dielectric constant tensor:
#      x y z
#    x 1.702700 0.000000 -0.014770 
#    y 0.000000 1.677610 0.000000 
#    z -0.014770 0.000000 1.710940 
# 
# From -- ./inp_files/327770.got.cif
#   From: 2010.06.25/outbox.cif.g09.slc.cpg/sg12_164_cif.got.tgz:327770.got - 2010.06.28 00:19:55.
