data_PCOD8088289
_publ_section_title
;
Structure prediction by ZEFSAII (Michael W. Deem and Ramdas Pophale) SiO2 
 PCOD8088289
Probable space group: C 2/M
;
_chemical_formula_sum "Si O2"
_cell_formula_units_Z 56
_cell_length_a 26.842415
_cell_length_b 9.134718
_cell_length_c 13.434454
_cell_angle_alpha 90.000000
_cell_angle_beta 64.721637
_cell_angle_gamma 90.000000
_cell_volume 2978.669550
_symmetry_space_group_name_H-M "C 2/M"
_symmetry_group_IT_number 12
_symmetry_cell_setting 'monoclinic'
loop_
_space_group_symop_operation_xyz
x,y,z
-x,y,-z
-x,-y,-z
x,-y,z
1/2+x,1/2+y,z
1/2-x,1/2+y,-z
1/2-x,1/2-y,-z
1/2+x,1/2-y,z
loop_
_atom_site_type_symbol
_atom_site_label
_atom_site_fract_x
_atom_site_fract_y
_atom_site_fract_z
Si Si1 0.561444 0.326243 0.811125
Si Si2 0.332886 0.828706 0.613762
Si Si3 0.553019 0.826088 0.395844
Si Si4 0.727507 0.832259 0.747126
Si Si5 0.654788 0.830735 0.621731
Si Si6 0.042831 0.331249 0.178723
Si Si7 0.882299 0.332233 0.061279
O O1 0.561940 0.500000 0.811877
O O2 0.602076 0.267739 0.691172
O O3 0.500830 0.269465 0.839355
O O4 0.578828 0.268230 0.904378
O O5 0.391149 0.764249 0.602130
O O6 0.282513 0.760350 0.718612
O O7 0.324776 0.787710 0.505179
O O8 0.330877 0.000000 0.634777
O O9 0.500000 0.762375 0.500000
O O10 0.551685 0.773546 0.282815
O O11 0.552625 0.000000 0.403114
O O12 0.703329 0.798321 0.658162
O O13 0.681765 0.787659 0.868989
O O14 0.744533 0.000000 0.742849
O O15 0.636208 0.000000 0.641527
O O16 0.022787 0.500000 0.195839
O O17 0.100297 0.315471 0.068788
O O18 0.889497 0.500000 0.092357
#
# Coordination Sequence:
#
# PCOD8088289 Si02
#       7
#     8   8   8   8   8   8   8
#     4  11  21  31  49  79 109 132 161 209 263 304
#     4  10  19  32  53  78 101 130 171 214 253 293
#     4   9  18  33  54  78 100 126 167 214 250 288
#     4   9  18  32  49  72 102 133 168 209 252 301
#     4   9  18  33  52  74 103 139 173 202 242 305
#     4  10  19  34  55  73  97 137 177 209 245 297
#     4   9  19  35  53  73  99 136 176 205 241 303
#
# _framework density 18.800341
#
# number of rings (size 3 to 8) (size 9 to 14) (size 15 to 20)
#    0.000    2.429    0.000    3.857    0.000    7.429 
#    0.000    1.429    0.000    1.714    0.000    0.000 
#    0.000    0.000    0.000    0.000    0.000    0.000 
#
# Total GULP energy -347191.382267 kJ/mol
# GULP energy per Si atom -12399.692224 kJ/mol
# Density = 1.875755 g / cm^3
# Si number density = 18.800341 Si / 1000 Ang^3
#
#
#
# Elastic Constant Matrix: (Units=GPa)
#
#
# Indices 1 2 3 4 5 6 
#
# 1 103.1939 31.7574 68.3882 0.0000 -25.2076 0.0000
# 2 31.7574 59.6946 38.4305 0.0000 -9.1528 0.0000
# 3 68.3882 38.4305 145.2071 0.0000 -13.2008 0.0000
# 4 0.0000 0.0000 0.0000 18.7795 0.0000 -11.6153
# 5 -25.2076 -9.1528 -13.2008 0.0000 24.8066 0.0000
# 6 0.0000 0.0000 0.0000 -11.6153 0.0000 19.7988
#
#
#
# Elastic Compliance Matrix: (Units=1/GPa)
#
#
# Indices 1 2 3 4 5 6 
#
# 1 0.018523 -0.003502 -0.006519 0.000000 0.014062 0.000000
# 2 -0.003502 0.021423 -0.003810 0.000000 0.002319 0.000000
# 3 -0.006519 -0.003810 0.010756 0.000000 -0.002306 0.000000
# 4 0.000000 0.000000 0.000000 0.083576 0.000000 0.049032
# 5 0.014062 0.002319 -0.002306 0.000000 0.054229 0.000000
# 6 0.000000 0.000000 0.000000 0.049032 0.000000 0.079273
#
#
# Mechanical properties :
#
#
# Convention : Reuss Voigt Hill
#
# Bulk Modulus (GPa) = 43.40046 65.02755 54.21401
# Shear Modulus (GPa) = 16.49507 23.97827 20.23667
#
# Velocity S-wave (km/s) = 2.96528 3.57517 3.28441
# Velocity P-wave (km/s) = 5.90414 7.19069 6.57894
#
# Compressibility (1/GPa) = 0.02304123
#
# Stress axis : x y z
#
# Youngs Moduli (GPa) = 53.98684 46.67873 92.97564
#
# Poissons Ratio (x) = 0.16345 0.60608
# Poissons Ratio (y) = 0.18904 0.35423
# Poissons Ratio (z) = 0.35193 0.17784
#
# Static dielectric constant tensor:
#      x y z
#    x 3.318300 0.000000 -0.085210 
#    y 0.000000 3.153530 0.000000 
#    z -0.085210 0.000000 3.606820 
# 
# 
# High freq. dielectric constant tensor:
#      x y z
#    x 1.713190 0.000000 -0.013580 
#    y 0.000000 1.701340 0.000000 
#    z -0.013580 0.000000 1.739620 
# 
# From -- ./inp_files/238250.got.cif
#   From: 2010.06.25/outbox.cif.g09.slc.cpg/sg12_120_cif.got.tgz:238250.got - 2010.06.28 00:19:55.
