data_PCOD8088155
_publ_section_title
;
Structure prediction by ZEFSAII (Michael W. Deem and Ramdas Pophale) SiO2 
 PCOD8088155
Probable space group: C 2/M
;
_chemical_formula_sum "Si O2"
_cell_formula_units_Z 64
_cell_length_a 24.429455
_cell_length_b 9.027249
_cell_length_c 20.046940
_cell_angle_alpha 90.000000
_cell_angle_beta 125.767570
_cell_angle_gamma 90.000000
_cell_volume 3587.149696
_symmetry_space_group_name_H-M "C 2/M"
_symmetry_group_IT_number 12
_symmetry_cell_setting 'monoclinic'
loop_
_space_group_symop_operation_xyz
x,y,z
-x,y,-z
-x,-y,-z
x,-y,z
1/2+x,1/2+y,z
1/2-x,1/2+y,-z
1/2-x,1/2-y,-z
1/2+x,1/2-y,z
loop_
_atom_site_type_symbol
_atom_site_label
_atom_site_fract_x
_atom_site_fract_y
_atom_site_fract_z
Si Si1 0.160959 0.671325 0.730292
Si Si2 0.819661 0.825490 0.030751
Si Si3 0.310855 0.670711 0.874494
Si Si4 0.925429 0.324446 0.704994
Si Si5 0.182588 0.323479 0.479495
Si Si6 0.922456 0.326071 0.201354
Si Si7 0.842418 0.327356 0.769097
Si Si8 0.690138 0.326703 0.621746
O O1 0.159756 0.500000 0.707975
O O2 0.232047 0.714415 0.814701
O O3 0.102946 0.707775 0.742173
O O4 0.147944 0.770854 0.655711
O O5 0.880172 0.764261 0.117659
O O6 0.811184 0.000000 0.035537
O O7 0.750000 0.750000 0.000000
O O8 0.837535 0.787892 0.966746
O O9 0.320781 0.500000 0.865720
O O10 0.354442 0.755914 0.850015
O O11 0.924005 0.500000 0.706275
O O12 0.878949 0.270950 0.611006
O O13 0.896087 0.262668 0.754182
O O14 0.001199 0.266953 0.748666
O O15 0.191590 0.500000 0.486332
O O16 0.250000 0.250000 0.500000
O O17 0.164786 0.264070 0.539989
O O18 0.915588 0.500000 0.180237
O O19 0.852135 0.500000 0.785756
O O20 0.768539 0.289457 0.688511
O O21 0.677466 0.500000 0.601581
#
# Coordination Sequence:
#
# PCOD8088155 Si02
#       8
#     8   8   8   8   8   8   8   8
#     4   9  17  32  52  77 105 137 175 215 265 319
#     4  11  21  35  55  81 111 140 179 225 266 316
#     4   9  18  32  50  77 106 134 172 219 263 309
#     4   9  19  36  56  78 108 141 178 220 266 321
#     4  11  20  34  55  81 109 141 180 226 270 318
#     4  10  20  37  58  79 107 143 179 221 268 319
#     4   9  17  32  52  77 105 137 177 218 263 314
#     4  10  19  32  52  80 108 137 176 225 269 312
#
# _framework density 17.841463999999998
#
# number of rings (size 3 to 8) (size 9 to 14) (size 15 to 20)
#    0.000    2.250    2.500    1.125    0.000    2.000 
#    0.000    3.125    0.000    7.500    0.000    0.000 
#    0.000    0.000    0.000    0.000    0.000    0.000 
#
# Total GULP energy -396821.372669 kJ/mol
# GULP energy per Si atom -12400.667896 kJ/mol
# Density = 1.780086 g / cm^3
# Si number density = 17.841464 Si / 1000 Ang^3
#
#
#
# Elastic Constant Matrix: (Units=GPa)
#
#
# Indices 1 2 3 4 5 6 
#
# 1 145.5661 49.0770 79.9006 0.0000 -14.1054 0.0000
# 2 49.0770 63.7010 55.6610 0.0000 -10.1974 0.0000
# 3 79.9006 55.6610 125.8086 0.0000 -11.8850 0.0000
# 4 0.0000 0.0000 0.0000 30.1092 0.0000 -8.0470
# 5 -14.1054 -10.1974 -11.8850 0.0000 31.2780 0.0000
# 6 0.0000 0.0000 0.0000 -8.0470 0.0000 26.3972
#
#
#
# Elastic Compliance Matrix: (Units=1/GPa)
#
#
# Indices 1 2 3 4 5 6 
#
# 1 0.011209 -0.003706 -0.005306 0.000000 0.001830 0.000000
# 2 -0.003706 0.027358 -0.009403 0.000000 0.003675 0.000000
# 3 -0.005306 -0.009403 0.015520 0.000000 0.000439 0.000000
# 4 0.000000 0.000000 0.000000 0.036158 0.000000 0.011023
# 5 0.001830 0.003675 0.000439 0.000000 0.034162 0.000000
# 6 0.000000 0.000000 0.000000 0.011023 0.000000 0.041243
#
#
# Mechanical properties :
#
#
# Convention : Reuss Voigt Hill
#
# Bulk Modulus (GPa) = 57.94899 78.26142 68.10521
# Shear Modulus (GPa) = 24.01147 27.58604 25.79876
#
# Velocity S-wave (km/s) = 3.67253 3.93641 3.80676
# Velocity P-wave (km/s) = 7.10871 8.03869 7.58796
#
# Compressibility (1/GPa) = 0.01725656
#
# Stress axis : x y z
#
# Youngs Moduli (GPa) = 89.21191 36.55202 64.43264
#
# Poissons Ratio (x) = 0.13548 0.34190
# Poissons Ratio (y) = 0.33065 0.60585
# Poissons Ratio (z) = 0.47338 0.34369
#
# Static dielectric constant tensor:
#      x y z
#    x 3.454010 0.000000 -0.168850 
#    y 0.000000 3.213890 0.000000 
#    z -0.168850 0.000000 3.416600 
# 
# 
# High freq. dielectric constant tensor:
#      x y z
#    x 1.688600 0.000000 -0.023250 
#    y 0.000000 1.681450 0.000000 
#    z -0.023250 0.000000 1.681130 
# 
# From -- ./inp_files/324224.got.cif
#   From: 2010.06.25/outbox.cif.g09.slc.cpg/sg12_163_cif.got.tgz:324224.got - 2010.06.28 00:19:55.
