data_PCOD8088970
_publ_section_title
;
Structure prediction by ZEFSAII (Michael W. Deem and Ramdas Pophale) SiO2 
 PCOD8088970
Probable space group: C 2/M
;
_chemical_formula_sum "Si O2"
_cell_formula_units_Z 56
_cell_length_a 9.821519
_cell_length_b 19.331951
_cell_length_c 18.220810
_cell_angle_alpha 90.000000
_cell_angle_beta 58.618110
_cell_angle_gamma 90.000000
_cell_volume 2953.487653
_symmetry_space_group_name_H-M "C 2/M"
_symmetry_group_IT_number 12
_symmetry_cell_setting 'monoclinic'
loop_
_space_group_symop_operation_xyz
x,y,z
-x,y,-z
-x,-y,-z
x,-y,z
1/2+x,1/2+y,z
1/2-x,1/2+y,-z
1/2-x,1/2-y,-z
1/2+x,1/2-y,z
loop_
_atom_site_type_symbol
_atom_site_label
_atom_site_fract_x
_atom_site_fract_y
_atom_site_fract_z
Si Si1 0.189202 0.196286 0.190205
Si Si2 0.919494 0.309206 0.598385
Si Si3 0.591066 0.687505 0.634417
Si Si4 0.021837 0.420506 0.675493
Si Si5 0.154792 0.078736 0.499316
Si Si6 0.840979 0.686128 0.006174
Si Si7 0.985779 0.670113 0.822523
O O1 0.231420 0.153728 0.102627
O O2 0.119761 0.272581 0.190507
O O3 0.346171 0.202844 0.197284
O O4 0.049010 0.157335 0.273925
O O5 0.738681 0.281563 0.639496
O O6 0.000000 0.332525 0.500000
O O7 0.024923 0.248335 0.602540
O O8 0.908515 0.375527 0.654864
O O9 0.670462 0.625528 0.566584
O O10 0.965931 0.500000 0.688730
O O11 0.200778 0.410986 0.596751
O O12 0.015438 0.394364 0.761005
O O13 0.000000 0.104391 0.500000
O O14 0.139491 0.000000 0.530388
O O15 0.750000 0.750000 0.000000
O O16 0.889663 0.639725 0.921607
O O17 0.000000 0.714843 0.000000
#
# Coordination Sequence:
#
# PCOD8088970 Si02
#       7
#     8   8   8   8   8   8   8
#     4  10  19  32  57  87 119 142 178 230 284 334
#     4  12  25  38  56  84 113 149 189 240 285 329
#     4  12  23  36  59  83 116 144 185 233 285 331
#     4  11  24  40  57  78 111 154 196 232 277 339
#     4  10  22  38  56  79 110 150 189 227 277 334
#     4   8  16  30  51  82 116 142 173 220 277 336
#     4  10  19  35  57  85 115 145 185 228 280 334
#
# _framework density 18.960633999999999
#
# number of rings (size 3 to 8) (size 9 to 14) (size 15 to 20)
#    0.000    1.571    2.857    2.571    2.000    0.857 
#    0.000    0.000    0.000    4.714    0.000    1.000 
#    0.000    0.000    0.000    0.000    0.000    0.000 
#
# Total GULP energy -346948.014778 kJ/mol
# GULP energy per Si atom -12391.000528 kJ/mol
# Density = 1.891748 g / cm^3
# Si number density = 18.960634 Si / 1000 Ang^3
#
#
#
# Elastic Constant Matrix: (Units=GPa)
#
#
# Indices 1 2 3 4 5 6 
#
# 1 112.6097 39.2771 38.0046 0.0000 2.7355 0.0000
# 2 39.2771 78.1160 51.4318 0.0000 8.3464 0.0000
# 3 38.0046 51.4318 162.1507 0.0000 10.3710 0.0000
# 4 0.0000 0.0000 0.0000 18.6511 0.0000 3.0161
# 5 2.7355 8.3464 10.3710 0.0000 26.1264 0.0000
# 6 0.0000 0.0000 0.0000 3.0161 0.0000 16.2471
#
#
#
# Elastic Compliance Matrix: (Units=1/GPa)
#
#
# Indices 1 2 3 4 5 6 
#
# 1 0.010921 -0.004879 -0.001066 0.000000 0.000838 0.000000
# 2 -0.004879 0.018628 -0.004532 0.000000 -0.003641 0.000000
# 3 -0.001066 -0.004532 0.007957 0.000000 -0.001599 0.000000
# 4 0.000000 0.000000 0.000000 0.055276 0.000000 -0.010261
# 5 0.000838 -0.003641 -0.001599 0.000000 0.039986 0.000000
# 6 0.000000 0.000000 0.000000 -0.010261 0.000000 0.063454
#
#
# Mechanical properties :
#
#
# Convention : Reuss Voigt Hill
#
# Bulk Modulus (GPa) = 60.41623 67.81148 64.11385
# Shear Modulus (GPa) = 22.45254 27.14913 24.80084
#
# Velocity S-wave (km/s) = 3.44490 3.78811 3.62058
# Velocity P-wave (km/s) = 6.91060 7.41451 7.16699
#
# Compressibility (1/GPa) = 0.01655184
#
# Stress axis : x y z
#
# Youngs Moduli (GPa) = 91.56373 53.68368 125.68141
#
# Poissons Ratio (x) = 0.26193 0.13394
# Poissons Ratio (y) = 0.44676 0.56958
# Poissons Ratio (z) = 0.09758 0.24329
#
# Static dielectric constant tensor:
#      x y z
#    x 3.676990 0.000000 0.120760 
#    y 0.000000 3.070400 0.000000 
#    z 0.120760 0.000000 4.180730 
# 
# 
# High freq. dielectric constant tensor:
#      x y z
#    x 1.752720 0.000000 0.003650 
#    y 0.000000 1.679890 0.000000 
#    z 0.003650 0.000000 1.763030 
# 
# From -- ./inp_files/257994.got.cif
#   From: 2010.06.25/outbox.cif.g09.slc.cpg/sg12_129_cif.got.tgz:257994.got - 2010.06.28 00:19:55.
