data_PCOD8088500
_publ_section_title
;
Structure prediction by ZEFSAII (Michael W. Deem and Ramdas Pophale) SiO2 
 PCOD8088500
Probable space group: C 2/M
;
_chemical_formula_sum "Si O2"
_cell_formula_units_Z 40
_cell_length_a 25.151254
_cell_length_b 8.670661
_cell_length_c 10.274440
_cell_angle_alpha 90.000000
_cell_angle_beta 104.520196
_cell_angle_gamma 90.000000
_cell_volume 2169.062084
_symmetry_space_group_name_H-M "C 2/M"
_symmetry_group_IT_number 12
_symmetry_cell_setting 'monoclinic'
loop_
_space_group_symop_operation_xyz
x,y,z
-x,y,-z
-x,-y,-z
x,-y,z
1/2+x,1/2+y,z
1/2-x,1/2+y,-z
1/2-x,1/2-y,-z
1/2+x,1/2-y,z
loop_
_atom_site_type_symbol
_atom_site_label
_atom_site_fract_x
_atom_site_fract_y
_atom_site_fract_z
Si Si1 0.728542 0.681724 0.853583
Si Si2 0.504970 0.673774 0.657259
Si Si3 0.785072 0.181584 0.638245
Si Si4 0.617117 0.821395 0.704998
Si Si5 0.892647 0.678730 0.606677
O O1 0.736424 0.500000 0.856608
O O2 0.763971 0.754878 0.760962
O O3 0.664642 0.721833 0.799466
O O4 0.750000 0.750000 0.000000
O O5 0.500000 0.672769 0.500000
O O6 0.507542 0.500000 0.713644
O O7 0.559706 0.765366 0.731534
O O8 0.452610 0.761066 0.685326
O O9 0.750000 0.250000 0.500000
O O10 0.848630 0.225951 0.662308
O O11 0.777437 0.000000 0.631483
O O12 0.618482 0.792174 0.551888
O O13 0.625721 0.000000 0.743658
O O14 0.887921 0.500000 0.639525
#
# Coordination Sequence:
#
# PCOD8088500 Si02
#       5
#     8   8   8   8   8
#     4  12  25  41  60  83 115 153 194 237 286 343
#     4   9  17  29  48  77 112 147 186 231 283 334
#     4  12  23  37  58  85 116 151 191 237 288 339
#     4  10  19  33  54  80 113 149 190 234 282 336
#     4  10  19  32  53  82 115 148 187 234 285 335
#
# _framework density 18.441151000000001
#
# number of rings (size 3 to 8) (size 9 to 14) (size 15 to 20)
#    0.000    1.400    2.000    5.400    0.000    4.000 
#    0.000    0.000    0.000    1.200    0.000    8.400 
#    0.000    0.000    0.000    0.000    0.000    0.000 
#
# Total GULP energy -248083.792911 kJ/mol
# GULP energy per Si atom -12404.189646 kJ/mol
# Density = 1.839918 g / cm^3
# Si number density = 18.441151 Si / 1000 Ang^3
#
#
#
# Elastic Constant Matrix: (Units=GPa)
#
#
# Indices 1 2 3 4 5 6 
#
# 1 162.5255 68.7057 53.1080 0.0000 1.2398 0.0000
# 2 68.7057 167.7366 52.8064 0.0000 -2.7180 0.0000
# 3 53.1080 52.8064 79.8500 0.0000 -8.5392 0.0000
# 4 0.0000 0.0000 0.0000 24.8212 0.0000 1.8822
# 5 1.2398 -2.7180 -8.5392 0.0000 14.2181 0.0000
# 6 0.0000 0.0000 0.0000 1.8822 0.0000 41.7404
#
#
#
# Elastic Compliance Matrix: (Units=1/GPa)
#
#
# Indices 1 2 3 4 5 6 
#
# 1 0.008633 -0.002094 -0.004788 0.000000 -0.004029 0.000000
# 2 -0.002094 0.008074 -0.004020 0.000000 -0.000688 0.000000
# 3 -0.004788 -0.004020 0.019587 0.000000 0.011413 0.000000
# 4 0.000000 0.000000 0.000000 0.040426 0.000000 -0.001823
# 5 -0.004029 -0.000688 0.011413 0.000000 0.077407 0.000000
# 6 0.000000 0.000000 0.000000 -0.001823 0.000000 0.024040
#
#
# Mechanical properties :
#
#
# Convention : Reuss Voigt Hill
#
# Bulk Modulus (GPa) = 69.01479 84.37247 76.69363
# Shear Modulus (GPa) = 24.41378 31.85543 28.13460
#
# Velocity S-wave (km/s) = 3.64246 4.16072 3.91018
# Velocity P-wave (km/s) = 7.42937 8.30263 7.87811
#
# Compressibility (1/GPa) = 0.01448965
#
# Stress axis : x y z
#
# Youngs Moduli (GPa) = 115.82809 123.85375 51.05407
#
# Poissons Ratio (x) = 0.25938 0.24444
# Poissons Ratio (y) = 0.24257 0.20525
# Poissons Ratio (z) = 0.55458 0.49792
#
# Static dielectric constant tensor:
#      x y z
#    x 3.687230 0.000000 0.052600 
#    y 0.000000 3.613230 0.000000 
#    z 0.052600 0.000000 3.019060 
# 
# 
# High freq. dielectric constant tensor:
#      x y z
#    x 1.736890 0.000000 0.005580 
#    y 0.000000 1.738010 0.000000 
#    z 0.005580 0.000000 1.663750 
# 
# From -- ./inp_files/92809.got.cif
#   From: 2010.06.25/outbox.cif.g09.slc.cpg/sg12_47_cif.got.tgz:92809.got - 2010.06.28 00:19:55.
