data_PCOD8088317
_publ_section_title
;
Structure prediction by ZEFSAII (Michael W. Deem and Ramdas Pophale) SiO2 
 PCOD8088317
Probable space group: C 2/M
;
_chemical_formula_sum "Si O2"
_cell_formula_units_Z 40
_cell_length_a 17.935460
_cell_length_b 8.816731
_cell_length_c 25.967373
_cell_angle_alpha 90.000000
_cell_angle_beta 149.956717
_cell_angle_gamma 90.000000
_cell_volume 2055.823783
_symmetry_space_group_name_H-M "C 2/M"
_symmetry_group_IT_number 12
_symmetry_cell_setting 'monoclinic'
loop_
_space_group_symop_operation_xyz
x,y,z
-x,y,-z
-x,-y,-z
x,-y,z
1/2+x,1/2+y,z
1/2-x,1/2+y,-z
1/2-x,1/2-y,-z
1/2+x,1/2-y,z
loop_
_atom_site_type_symbol
_atom_site_label
_atom_site_fract_x
_atom_site_fract_y
_atom_site_fract_z
Si Si1 0.830771 0.819917 0.298289
Si Si2 0.331216 0.680260 0.500097
Si Si3 0.826097 0.679050 0.094805
Si Si4 0.663498 0.819557 0.298403
Si Si5 0.674716 0.176037 0.101010
O O1 0.743751 0.752920 0.295584
O O2 0.749566 0.763519 0.198132
O O3 0.999545 0.760016 0.399811
O O4 0.827429 0.000000 0.298978
O O5 0.324831 0.500000 0.500205
O O6 0.250000 0.750000 0.500000
O O7 0.250386 0.740380 0.400431
O O8 0.824128 0.500000 0.087372
O O9 0.737752 0.725088 0.092617
O O10 0.994755 0.740615 0.199462
O O11 0.750000 0.750000 0.000000
O O12 0.667145 0.000000 0.299367
O O13 0.712006 0.000000 0.113334
O O14 0.500000 0.203370 0.000000
#
# Coordination Sequence:
#
# PCOD8088317 Si02
#       5
#     8   8   8   8   8
#     4   9  17  31  53  78 102 134 176 214 251 303
#     4  10  19  32  53  78 104 134 170 212 255 304
#     4  11  22  36  55  78 106 138 174 217 263 312
#     4   9  18  33  53  77 103 134 173 215 257 303
#     4  10  20  35  55  78 107 141 175 214 260 310
#
# _framework density 19.456921000000001
#
# number of rings (size 3 to 8) (size 9 to 14) (size 15 to 20)
#    0.000    2.200    0.000    3.600    0.000    6.000 
#    0.000    1.000    0.000    6.000    0.000    0.000 
#    0.000    0.000    0.000    0.000    0.000    0.000 
#
# Total GULP energy -248049.801212 kJ/mol
# GULP energy per Si atom -12402.490061 kJ/mol
# Density = 1.941264 g / cm^3
# Si number density = 19.456921 Si / 1000 Ang^3
#
#
#
# Elastic Constant Matrix: (Units=GPa)
#
#
# Indices 1 2 3 4 5 6 
#
# 1 168.9587 31.2684 90.1300 0.0000 -10.5950 0.0000
# 2 31.2684 30.0279 31.6028 0.0000 1.0047 -0.0001
# 3 90.1300 31.6028 203.9040 0.0000 -9.4219 0.0000
# 4 0.0000 0.0000 0.0000 18.2862 0.0001 -4.5670
# 5 -10.5950 1.0047 -9.4219 0.0001 43.5981 0.0000
# 6 0.0000 -0.0001 0.0000 -4.5670 0.0000 31.4601
#
#
#
# Elastic Compliance Matrix: (Units=1/GPa)
#
#
# Indices 1 2 3 4 5 6 
#
# 1 0.008645 -0.006112 -0.002798 0.000000 0.001637 0.000000
# 2 -0.006112 0.044338 -0.004329 0.000000 -0.003443 0.000000
# 3 -0.002798 -0.004329 0.006854 0.000000 0.000901 0.000000
# 4 0.000000 0.000000 0.000000 0.056743 0.000000 0.008237
# 5 0.001637 -0.003443 0.000901 0.000000 0.023609 0.000000
# 6 0.000000 0.000000 0.000000 0.008237 0.000000 0.032982
#
#
# Mechanical properties :
#
#
# Convention : Reuss Voigt Hill
#
# Bulk Modulus (GPa) = 29.97785 78.76587 54.37186
# Shear Modulus (GPa) = 23.72252 35.32819 29.52536
#
# Velocity S-wave (km/s) = 3.49554 4.26574 3.89970
# Velocity P-wave (km/s) = 5.63316 8.05184 6.94855
#
# Compressibility (1/GPa) = 0.03335796
#
# Stress axis : x y z
#
# Youngs Moduli (GPa) = 115.67168 22.55382 145.90276
#
# Poissons Ratio (x) = 0.13785 0.40830
# Poissons Ratio (y) = 0.70697 0.63168
# Poissons Ratio (z) = 0.32370 0.09765
#
# Static dielectric constant tensor:
#      x y z
#    x 3.400660 0.000000 0.447650 
#    y 0.000000 3.140920 0.000000 
#    z 0.447650 0.000000 3.372160 
# 
# 
# High freq. dielectric constant tensor:
#      x y z
#    x 1.776690 0.000000 -0.000640 
#    y 0.000000 1.709390 0.000000 
#    z -0.000640 0.000000 1.781440 
# 
# From -- ./inp_files/140481.got.cif
#   From: 2010.06.25/outbox.cif.g09.slc.cpg/sg12_71_cif.got.tgz:140481.got - 2010.06.28 00:19:55.
