data_PCOD8088655
_publ_section_title
;
Structure prediction by ZEFSAII (Michael W. Deem and Ramdas Pophale) SiO2 
 PCOD8088655
Probable space group: C 2/M
;
_chemical_formula_sum "Si O2"
_cell_formula_units_Z 56
_cell_length_a 5.231485
_cell_length_b 16.693946
_cell_length_c 33.283989
_cell_angle_alpha 90.000000
_cell_angle_beta 103.852331
_cell_angle_gamma 90.000000
_cell_volume 2822.286000
_symmetry_space_group_name_H-M "C 2/M"
_symmetry_group_IT_number 12
_symmetry_cell_setting 'monoclinic'
loop_
_space_group_symop_operation_xyz
x,y,z
-x,y,-z
-x,-y,-z
x,-y,z
1/2+x,1/2+y,z
1/2-x,1/2+y,-z
1/2-x,1/2-y,-z
1/2+x,1/2-y,z
loop_
_atom_site_type_symbol
_atom_site_label
_atom_site_fract_x
_atom_site_fract_y
_atom_site_fract_z
Si Si1 0.777225 0.340565 0.517878
Si Si2 0.570043 0.404510 0.046706
Si Si3 0.433274 0.699956 0.264821
Si Si4 0.270006 0.301824 0.171551
Si Si5 0.921452 0.594699 0.606994
Si Si6 0.858298 0.594859 0.906233
Si Si7 0.503112 0.406790 0.342333
O O1 0.500000 0.385268 0.500000
O O2 0.750000 0.250000 0.500000
O O3 0.851749 0.347934 0.567151
O O4 0.000000 0.385292 0.500000
O O5 0.569690 0.500000 0.046318
O O6 0.353844 0.371831 0.069870
O O7 0.856035 0.371777 0.070251
O O8 0.500000 0.371161 0.000000
O O9 0.229310 0.767330 0.271919
O O10 0.336404 0.664778 0.218476
O O11 0.434175 0.629725 0.296943
O O12 0.513568 0.253173 0.162928
O O13 0.214761 0.377013 0.141079
O O14 0.904824 0.500000 0.595349
O O15 0.717247 0.618437 0.633936
O O16 0.211742 0.620822 0.631476
O O17 0.857508 0.500000 0.905656
O O18 0.501556 0.500000 0.334825
#
# Coordination Sequence:
#
# PCOD8088655 Si02
#       7
#     8   8   8   8   8   8   8
#     4  10  21  38  53  78 112 141 182 226 262 311
#     4   9  17  30  50  77 109 140 178 235 286 324
#     4  10  21  39  57  86 112 145 186 221 270 331
#     4  10  21  37  57  76 113 149 178 222 277 336
#     4  10  21  38  59  82 111 147 182 219 273 327
#     4  10  19  32  54  82 104 137 192 231 269 330
#     4  10  21  39  60  86 116 145 180 226 276 327
#
# _framework density 19.842072999999999
#
# number of rings (size 3 to 8) (size 9 to 14) (size 15 to 20)
#    0.000    2.143    0.000    3.000    0.000    2.857 
#   15.429    0.000    0.000   18.857    0.000    0.000 
#    0.000    0.000    0.000    0.000    0.000    0.000 
#
# Total GULP energy -347172.772748 kJ/mol
# GULP energy per Si atom -12399.027598 kJ/mol
# Density = 1.979691 g / cm^3
# Si number density = 19.842073 Si / 1000 Ang^3
#
#
#
# Elastic Constant Matrix: (Units=GPa)
#
#
# Indices 1 2 3 4 5 6 
#
# 1 179.6912 21.1613 63.9029 0.0000 4.1792 0.0000
# 2 21.1613 28.4510 48.3984 0.0000 -2.4423 0.0000
# 3 63.9029 48.3984 169.2160 0.0000 -3.5123 0.0000
# 4 0.0000 0.0000 0.0000 38.7046 0.0000 -3.2535
# 5 4.1792 -2.4423 -3.5123 0.0000 36.1788 0.0000
# 6 0.0000 0.0000 0.0000 -3.2535 0.0000 7.6274
#
#
#
# Elastic Compliance Matrix: (Units=1/GPa)
#
#
# Indices 1 2 3 4 5 6 
#
# 1 0.006491 -0.001384 -0.002077 0.000000 -0.001045 0.000000
# 2 -0.001384 0.069019 -0.019156 0.000000 0.002959 0.000000
# 3 -0.002077 -0.019156 0.012176 0.000000 0.000129 0.000000
# 4 0.000000 0.000000 0.000000 0.026798 0.000000 0.011431
# 5 -0.001045 0.002959 0.000129 0.000000 0.027973 0.000000
# 6 0.000000 0.000000 0.000000 0.011431 0.000000 0.135982
#
#
# Mechanical properties :
#
#
# Convention : Reuss Voigt Hill
#
# Bulk Modulus (GPa) = 23.55695 71.58704 47.57199
# Shear Modulus (GPa) = 14.80060 32.76186 23.78123
#
# Velocity S-wave (km/s) = 2.73412 4.06782 3.46573
# Velocity P-wave (km/s) = 4.67602 7.63018 6.32791
#
# Compressibility (1/GPa) = 0.04245032
#
# Stress axis : x y z
#
# Youngs Moduli (GPa) = 154.05750 14.48879 82.13131
#
# Poissons Ratio (x) = 0.02006 0.17059
# Poissons Ratio (y) = 0.21327 1.57333
# Poissons Ratio (z) = 0.31998 0.27755
#
# Static dielectric constant tensor:
#      x y z
#    x 4.960380 0.000000 0.127040 
#    y 0.000000 3.095570 0.000000 
#    z 0.127040 0.000000 3.711970 
# 
# 
# High freq. dielectric constant tensor:
#      x y z
#    x 1.805850 0.000000 0.001080 
#    y 0.000000 1.732110 0.000000 
#    z 0.001080 0.000000 1.785510 
# 
# From -- ./inp_files/354931.got.cif
#   From: 2010.06.25/outbox.cif.g09.slc.cpg/sg12_178_cif.got.tgz:354931.got - 2010.06.28 00:19:55.
