data_PCOD8088332
_publ_section_title
;
Structure prediction by ZEFSAII (Michael W. Deem and Ramdas Pophale) SiO2 
 PCOD8088332
Probable space group: C 2/M
;
_chemical_formula_sum "Si O2"
_cell_formula_units_Z 60
_cell_length_a 28.981922
_cell_length_b 9.583776
_cell_length_c 18.645582
_cell_angle_alpha 90.000000
_cell_angle_beta 39.700272
_cell_angle_gamma 90.000000
_cell_volume 3308.150754
_symmetry_space_group_name_H-M "C 2/M"
_symmetry_group_IT_number 12
_symmetry_cell_setting 'monoclinic'
loop_
_space_group_symop_operation_xyz
x,y,z
-x,y,-z
-x,-y,-z
x,-y,z
1/2+x,1/2+y,z
1/2-x,1/2+y,-z
1/2-x,1/2-y,-z
1/2+x,1/2-y,z
loop_
_atom_site_type_symbol
_atom_site_label
_atom_site_fract_x
_atom_site_fract_y
_atom_site_fract_z
Si Si1 0.382335 0.841497 0.746919
Si Si2 0.598659 0.665986 0.135851
Si Si3 0.606898 0.657623 0.487114
Si Si4 0.755179 0.662198 0.695794
Si Si5 0.225759 0.162805 0.885722
Si Si6 0.303815 0.335592 0.385962
Si Si7 0.000000 0.750595 0.500000
Si Si8 0.941844 0.163543 0.302122
O O1 0.404837 0.739035 0.783349
O O2 0.305498 0.782897 0.810284
O O3 0.441776 0.842265 0.612669
O O4 0.375090 0.000000 0.783811
O O5 0.604864 0.500000 0.140736
O O6 0.523885 0.705613 0.184083
O O7 0.664079 0.729715 0.010231
O O8 0.635049 0.500000 0.463661
O O9 0.671967 0.752204 0.382921
O O10 0.542635 0.654742 0.506045
O O11 0.580043 0.725616 0.594133
O O12 0.776972 0.500000 0.667299
O O13 0.708280 0.695666 0.823150
O O14 0.708902 0.705092 0.681564
O O15 0.222472 0.000000 0.903580
O O16 0.291248 0.500000 0.414352
O O17 0.250000 0.250000 0.500000
O O18 0.385533 0.288539 0.308038
O O19 0.937453 0.000000 0.316709
#
# Coordination Sequence:
#
# PCOD8088332 Si02
#       8
#     8   8   8   8   8   8   4   8
#     4  11  22  35  53  78 108 139 174 215 259 311
#     4  10  20  37  57  73 101 143 180 217 257 301
#     4  11  21  34  53  77 109 140 172 215 257 309
#     4  10  20  35  54  79 107 138 173 213 262 317
#     4   9  19  36  54  74 103 140 178 216 258 305
#     4  10  19  32  53  78 107 135 169 212 261 317
#     4  12  22  34  52  80 112 142 168 208 264 316
#     4   9  18  33  51  77 105 133 169 216 261 301
#
# _framework density 18.13702
#
# number of rings (size 3 to 8) (size 9 to 14) (size 15 to 20)
#    0.000    1.867    4.000    0.800    0.000    1.067 
#    0.000    2.000    0.000    4.000    0.000    0.000 
#    0.000    3.200    0.000    0.000    0.000    0.000 
#
# Total GULP energy -371846.085135 kJ/mol
# GULP energy per Si atom -12394.869505 kJ/mol
# Density = 1.809574 g / cm^3
# Si number density = 18.137020 Si / 1000 Ang^3
#
#
#
# Elastic Constant Matrix: (Units=GPa)
#
#
# Indices 1 2 3 4 5 6 
#
# 1 139.6821 26.7113 58.4784 -0.0055 -6.0072 0.0020
# 2 26.7113 40.3472 25.0371 0.0053 -0.5565 0.0049
# 3 58.4784 25.0371 132.9292 -0.0048 -10.8556 0.0041
# 4 -0.0055 0.0053 -0.0048 16.8239 -0.0014 0.6647
# 5 -6.0072 -0.5565 -10.8556 -0.0014 26.0436 -0.0025
# 6 0.0020 0.0049 0.0041 0.6647 -0.0025 18.3735
#
#
#
# Elastic Compliance Matrix: (Units=1/GPa)
#
#
# Indices 1 2 3 4 5 6 
#
# 1 0.009355 -0.004150 -0.003276 0.000003 0.000703 0.000001
# 2 -0.004150 0.029976 -0.003982 -0.000012 -0.001976 -0.000006
# 3 -0.003276 -0.003982 0.009985 0.000003 0.003321 0.000000
# 4 0.000003 -0.000012 0.000003 0.059524 0.000005 -0.002153
# 5 0.000703 -0.001976 0.003321 0.000005 0.039902 0.000005
# 6 0.000001 -0.000006 0.000000 -0.002153 0.000005 0.054504
#
#
# Mechanical properties :
#
#
# Convention : Reuss Voigt Hill
#
# Bulk Modulus (GPa) = 37.73626 59.26804 48.50215
# Shear Modulus (GPa) = 21.28609 25.76364 23.52486
#
# Velocity S-wave (km/s) = 3.42954 3.77304 3.60538
# Velocity P-wave (km/s) = 6.04431 7.19236 6.64318
#
# Compressibility (1/GPa) = 0.02649971
#
# Stress axis : x y z
#
# Youngs Moduli (GPa) = 106.89917 33.36002 100.14835
#
# Poissons Ratio (x) = 0.13846 0.32810
# Poissons Ratio (y) = 0.44368 0.39874
# Poissons Ratio (z) = 0.35021 0.13282
#
# Static dielectric constant tensor:
#      x y z
#    x 3.757170 -0.000020 -0.139320 
#    y -0.000020 3.017120 0.000020 
#    z -0.139320 0.000020 3.553610 
# 
# 
# High freq. dielectric constant tensor:
#      x y z
#    x 1.710930 0.000000 -0.001610 
#    y 0.000000 1.671050 0.000000 
#    z -0.001610 0.000000 1.699640 
# 
# From -- ./inp_files/292893.got.cif
#   From: 2010.06.25/outbox.cif.g09.slc.cpg/sg12_147_cif.got.tgz:292893.got - 2010.06.28 00:19:55.
