data_PCOD8088373
_publ_section_title
;
Structure prediction by ZEFSAII (Michael W. Deem and Ramdas Pophale) SiO2 
 PCOD8088373
Probable space group: C 2/M
;
_chemical_formula_sum "Si O2"
_cell_formula_units_Z 56
_cell_length_a 17.803800
_cell_length_b 8.758564
_cell_length_c 18.711489
_cell_angle_alpha 90.000000
_cell_angle_beta 76.018110
_cell_angle_gamma 90.000000
_cell_volume 2831.341694
_symmetry_space_group_name_H-M "C 2/M"
_symmetry_group_IT_number 12
_symmetry_cell_setting 'monoclinic'
loop_
_space_group_symop_operation_xyz
x,y,z
-x,y,-z
-x,-y,-z
x,-y,z
1/2+x,1/2+y,z
1/2-x,1/2+y,-z
1/2-x,1/2-y,-z
1/2+x,1/2-y,z
loop_
_atom_site_type_symbol
_atom_site_label
_atom_site_fract_x
_atom_site_fract_y
_atom_site_fract_z
Si Si1 0.621111 0.818510 0.354786
Si Si2 0.466453 0.175501 0.930671
Si Si3 0.331978 0.181457 0.500109
Si Si4 0.260830 0.819900 0.792470
Si Si5 0.807970 0.821270 0.930326
Si Si6 0.601151 0.177821 0.787892
Si Si7 0.952542 0.318615 0.354423
O O1 0.642022 0.756855 0.428522
O O2 0.686299 0.760578 0.284973
O O3 0.537853 0.751542 0.350428
O O4 0.617736 0.000000 0.356563
O O5 0.395106 0.285641 0.932889
O O6 0.530644 0.208799 0.856873
O O7 0.438491 0.000000 0.933733
O O8 0.500000 0.216223 0.000000
O O9 0.250000 0.250000 0.500000
O O10 0.394234 0.241445 0.428399
O O11 0.326222 0.000000 0.500358
O O12 0.292235 0.743403 0.856133
O O13 0.172912 0.775022 0.798653
O O14 0.267378 0.000000 0.800253
O O15 0.793885 0.000000 0.932577
O O16 0.750000 0.750000 0.000000
O O17 0.576879 0.239127 0.715580
O O18 0.624178 0.000000 0.781121
O O19 0.956503 0.500000 0.353907
#
# Coordination Sequence:
#
# PCOD8088373 Si02
#       7
#     8   8   8   8   8   8   8
#     4   9  18  33  54  80 108 143 188 234 278 329
#     4  10  21  38  60  85 115 151 188 229 279 332
#     4  10  19  32  53  79 108 143 185 232 280 334
#     4  11  22  37  58  83 114 149 187 232 281 334
#     4  12  25  41  62  87 116 148 186 230 276 330
#     4  10  20  35  56  82 114 150 189 234 284 338
#     4   9  17  31  53  79 107 144 190 235 279 332
#
# _framework density 19.77861
#
# number of rings (size 3 to 8) (size 9 to 14) (size 15 to 20)
#    0.000    1.857    0.000    4.714    0.000    6.000 
#    0.000    0.714    0.000    4.286    0.000    0.000 
#    0.000    0.000    0.000    0.000    0.000    0.000 
#
# Total GULP energy -347314.849619 kJ/mol
# GULP energy per Si atom -12404.101772 kJ/mol
# Density = 1.973359 g / cm^3
# Si number density = 19.778610 Si / 1000 Ang^3
#
#
#
# Elastic Constant Matrix: (Units=GPa)
#
#
# Indices 1 2 3 4 5 6 
#
# 1 138.2936 38.9794 65.6382 0.0000 5.1177 0.0000
# 2 38.9794 61.7085 44.1781 0.0000 -1.9417 0.0000
# 3 65.6382 44.1781 180.3955 0.0000 10.2894 0.0000
# 4 0.0000 0.0000 0.0000 12.4516 0.0000 2.8016
# 5 5.1177 -1.9417 10.2894 0.0000 34.5409 0.0000
# 6 0.0000 0.0000 0.0000 2.8016 0.0000 33.6977
#
#
#
# Elastic Compliance Matrix: (Units=1/GPa)
#
#
# Indices 1 2 3 4 5 6 
#
# 1 0.009638 -0.004423 -0.002368 0.000000 -0.000971 0.000000
# 2 -0.004423 0.021909 -0.003931 0.000000 0.003058 0.000000
# 3 -0.002368 -0.003931 0.007487 0.000000 -0.002101 0.000000
# 4 0.000000 0.000000 0.000000 0.081842 0.000000 -0.006804
# 5 -0.000971 0.003058 -0.002101 0.000000 0.029893 0.000000
# 6 0.000000 0.000000 0.000000 -0.006804 0.000000 0.030241
#
#
# Mechanical properties :
#
#
# Convention : Reuss Voigt Hill
#
# Bulk Modulus (GPa) = 56.84748 75.33212 66.08980
# Shear Modulus (GPa) = 24.00189 31.57818 27.79003
#
# Velocity S-wave (km/s) = 3.48735 4.00006 3.75247
# Velocity P-wave (km/s) = 6.70968 7.71391 7.22925
#
# Compressibility (1/GPa) = 0.01759093
#
# Stress axis : x y z
#
# Youngs Moduli (GPa) = 103.76062 45.64284 133.55706
#
# Poissons Ratio (x) = 0.20187 0.31628
# Poissons Ratio (y) = 0.45893 0.52496
# Poissons Ratio (z) = 0.24572 0.17940
#
# Static dielectric constant tensor:
#      x y z
#    x 3.723590 0.000000 0.015040 
#    y 0.000000 3.270000 0.000000 
#    z 0.015040 0.000000 3.937040 
# 
# 
# High freq. dielectric constant tensor:
#      x y z
#    x 1.788620 0.000000 0.001190 
#    y 0.000000 1.736010 0.000000 
#    z 0.001190 0.000000 1.795440 
# 
# From -- ./inp_files/275064.got.cif
#   From: 2010.06.25/outbox.cif.g09.slc.cpg/sg12_138_cif.got.tgz:275064.got - 2010.06.28 00:19:55.
