data_PCOD8088662
_publ_section_title
;
Structure prediction by ZEFSAII (Michael W. Deem and Ramdas Pophale) SiO2 
 PCOD8088662
Probable space group: C 2/M
;
_chemical_formula_sum "Si O2"
_cell_formula_units_Z 64
_cell_length_a 17.653216
_cell_length_b 13.419590
_cell_length_c 26.503511
_cell_angle_alpha 90.000000
_cell_angle_beta 33.272444
_cell_angle_gamma 90.000000
_cell_volume 3444.599585
_symmetry_space_group_name_H-M "C 2/M"
_symmetry_group_IT_number 12
_symmetry_cell_setting 'monoclinic'
loop_
_space_group_symop_operation_xyz
x,y,z
-x,y,-z
-x,-y,-z
x,-y,z
1/2+x,1/2+y,z
1/2-x,1/2+y,-z
1/2-x,1/2-y,-z
1/2+x,1/2-y,z
loop_
_atom_site_type_symbol
_atom_site_label
_atom_site_fract_x
_atom_site_fract_y
_atom_site_fract_z
Si Si1 0.882203 0.391788 0.839226
Si Si2 0.345425 0.384379 0.653265
Si Si3 0.360577 0.384953 0.473825
Si Si4 0.331616 0.842489 0.975346
Si Si5 0.612417 0.116809 0.864121
Si Si6 0.821662 0.694981 0.342324
Si Si7 0.577499 0.612210 0.674143
Si Si8 0.282354 0.681056 0.859596
O O1 0.851697 0.500000 0.829969
O O2 0.844504 0.412173 0.919226
O O3 0.798542 0.300950 0.859858
O O4 0.045320 0.370576 0.745260
O O5 0.351152 0.500000 0.635185
O O6 0.494368 0.342394 0.586263
O O7 0.243298 0.365672 0.756097
O O8 0.298921 0.323067 0.630356
O O9 0.351778 0.500000 0.493016
O O10 0.232032 0.330456 0.571673
O O11 0.350391 0.369527 0.419707
O O12 0.485105 0.820814 0.911674
O O13 0.250000 0.750000 0.000000
O O14 0.242526 0.878408 0.073554
O O15 0.650039 0.161843 0.897901
O O16 0.572343 0.000000 0.890632
O O17 0.859734 0.812179 0.319837
O O18 0.603352 0.500000 0.678676
O O19 0.414407 0.632717 0.759212
#
# Coordination Sequence:
#
# PCOD8088662 Si02
#       8
#     8   8   8   8   8   8   8   8
#     4  10  20  35  54  80 111 142 178 220 262 317
#     4  10  19  32  54  82 108 134 171 222 274 316
#     4  10  19  33  54  81 109 134 172 223 270 318
#     4  10  21  35  54  81 109 136 171 216 265 320
#     4  11  20  34  57  81 108 139 175 221 269 313
#     4  11  20  32  54  81 107 144 177 215 271 319
#     4  10  21  36  52  77 111 142 179 222 262 310
#     4  10  21  35  55  82 108 144 178 219 267 316
#
# _framework density 18.579809000000001
#
# number of rings (size 3 to 8) (size 9 to 14) (size 15 to 20)
#    0.000    1.750    2.500    3.000    0.000    3.500 
#    0.000    0.000    0.000    9.000    0.000    0.000 
#    0.000    0.000    0.000    0.000    0.000    0.000 
#
# Total GULP energy -396577.957887 kJ/mol
# GULP energy per Si atom -12393.061184 kJ/mol
# Density = 1.853752 g / cm^3
# Si number density = 18.579809 Si / 1000 Ang^3
#
#
#
# Elastic Constant Matrix: (Units=GPa)
#
#
# Indices 1 2 3 4 5 6 
#
# 1 63.8362 33.0704 11.1338 -0.0003 1.4095 0.0000
# 2 33.0704 95.9118 33.1719 -0.0004 1.8527 0.0000
# 3 11.1338 33.1719 79.7526 -0.0020 9.0863 0.0002
# 4 -0.0003 -0.0004 -0.0020 14.2287 0.0004 4.7538
# 5 1.4095 1.8527 9.0863 0.0004 27.5020 0.0000
# 6 0.0000 0.0000 0.0002 4.7538 0.0000 19.9427
#
#
#
# Elastic Compliance Matrix: (Units=1/GPa)
#
#
# Indices 1 2 3 4 5 6 
#
# 1 0.019081 -0.006622 0.000157 0.000000 -0.000584 0.000000
# 2 -0.006622 0.014497 -0.005230 -0.000001 0.001091 0.000000
# 3 0.000157 -0.005230 0.015226 0.000002 -0.004686 -0.000001
# 4 0.000000 -0.000001 0.000002 0.076362 -0.000002 -0.018202
# 5 -0.000584 0.001091 -0.004686 -0.000002 0.037866 0.000001
# 6 0.000000 0.000000 -0.000001 -0.018202 0.000001 0.054482
#
#
# Mechanical properties :
#
#
# Convention : Reuss Voigt Hill
#
# Bulk Modulus (GPa) = 39.34716 43.80585 41.57650
# Shear Modulus (GPa) = 20.05006 23.14300 21.59653
#
# Velocity S-wave (km/s) = 3.28858 3.53313 3.41305
# Velocity P-wave (km/s) = 5.97018 6.34605 6.16098
#
# Compressibility (1/GPa) = 0.02541480
#
# Stress axis : x y z
#
# Youngs Moduli (GPa) = 52.40748 68.97859 65.67739
#
# Poissons Ratio (x) = 0.45679 -0.01032
# Poissons Ratio (y) = 0.34706 0.34347
# Poissons Ratio (z) = -0.00823 0.36073
#
# Static dielectric constant tensor:
#      x y z
#    x 3.324430 0.000000 0.176310 
#    y 0.000000 3.268300 0.000000 
#    z 0.176310 0.000000 3.769470 
# 
# 
# High freq. dielectric constant tensor:
#      x y z
#    x 1.705300 0.000000 0.011900 
#    y 0.000000 1.698390 0.000000 
#    z 0.011900 0.000000 1.742790 
# 
# From -- ./inp_files/315713.got.cif
#   From: 2010.06.25/outbox.cif.g09.slc.cpg/sg12_158_cif.got.tgz:315713.got - 2010.06.28 00:19:55.
