data_PCOD8088388
_publ_section_title
;
Structure prediction by ZEFSAII (Michael W. Deem and Ramdas Pophale) SiO2 
 PCOD8088388
Probable space group: C 2/M
;
_chemical_formula_sum "Si O2"
_cell_formula_units_Z 56
_cell_length_a 19.261816
_cell_length_b 8.767455
_cell_length_c 24.737369
_cell_angle_alpha 90.000000
_cell_angle_beta 48.309626
_cell_angle_gamma 90.000000
_cell_volume 3119.604051
_symmetry_space_group_name_H-M "C 2/M"
_symmetry_group_IT_number 12
_symmetry_cell_setting 'monoclinic'
loop_
_space_group_symop_operation_xyz
x,y,z
-x,y,-z
-x,-y,-z
x,-y,z
1/2+x,1/2+y,z
1/2-x,1/2+y,-z
1/2-x,1/2-y,-z
1/2+x,1/2-y,z
loop_
_atom_site_type_symbol
_atom_site_label
_atom_site_fract_x
_atom_site_fract_y
_atom_site_fract_z
Si Si1 0.544986 0.179551 0.559025
Si Si2 0.458781 0.680405 0.140106
Si Si3 0.607447 0.827067 0.929735
Si Si4 0.135788 0.678827 0.401969
Si Si5 0.337586 0.681359 0.300135
Si Si6 0.667570 0.318826 0.005710
Si Si7 0.666689 0.321269 0.577023
O O1 0.620134 0.216606 0.473231
O O2 0.445115 0.248157 0.593293
O O3 0.570803 0.277114 0.597922
O O4 0.543622 0.000000 0.573156
O O5 0.453230 0.500000 0.136980
O O6 0.389251 0.747055 0.130458
O O7 0.418667 0.740344 0.218336
O O8 0.566656 0.732847 0.081314
O O9 0.643917 0.000000 0.906836
O O10 0.500000 0.820004 0.000000
O O11 0.671037 0.741758 0.941868
O O12 0.125295 0.500000 0.400644
O O13 0.236650 0.736783 0.330477
O O14 0.340922 0.500000 0.300327
O O15 0.346417 0.747006 0.356004
O O16 0.678895 0.500000 0.999508
O O17 0.750000 0.250000 0.000000
O O18 0.684327 0.500000 0.570447
O O19 0.750000 0.250000 0.500000
#
# Coordination Sequence:
#
# PCOD8088388 Si02
#       7
#     8   8   8   8   8   8   8
#     4   9  16  29  49  70  91 119 161 205 243 290
#     4   9  18  33  53  75 100 133 172 209 249 302
#     4   9  17  31  52  76 102 131 163 201 245 295
#     4   8  14  27  49  70  90 122 160 197 241 297
#     4   9  17  31  51  72  96 131 169 204 250 302
#     4  10  19  32  53  80 106 135 171 209 247 294
#     4  11  20  31  49  71  97 130 167 209 253 299
#
# _framework density 17.950996
#
# number of rings (size 3 to 8) (size 9 to 14) (size 15 to 20)
#    0.000    2.714    1.429    2.143    0.000    2.286 
#    0.000    4.286    0.000    3.429    0.000    0.000 
#    0.000    0.000    0.000    0.000    0.000    0.000 
#
# Total GULP energy -346926.058791 kJ/mol
# GULP energy per Si atom -12390.216385 kJ/mol
# Density = 1.791014 g / cm^3
# Si number density = 17.950996 Si / 1000 Ang^3
#
#
#
# Elastic Constant Matrix: (Units=GPa)
#
#
# Indices 1 2 3 4 5 6 
#
# 1 133.7080 35.5307 63.3578 -0.0001 15.6799 -0.0002
# 2 35.5307 48.9276 26.2495 -0.0003 7.1920 -0.0012
# 3 63.3578 26.2495 113.6382 0.0000 12.7043 0.0000
# 4 -0.0001 -0.0003 0.0000 15.0183 0.0000 4.7624
# 5 15.6799 7.1920 12.7043 0.0000 26.1597 0.0000
# 6 -0.0002 -0.0012 0.0000 4.7624 0.0000 31.9458
#
#
#
# Elastic Compliance Matrix: (Units=1/GPa)
#
#
# Indices 1 2 3 4 5 6 
#
# 1 0.011568 -0.005331 -0.004871 0.000000 -0.003102 0.000000
# 2 -0.005331 0.026192 -0.002781 0.000000 -0.002655 0.000001
# 3 -0.004871 -0.002781 0.012421 0.000000 -0.002348 0.000000
# 4 0.000000 0.000000 0.000000 0.069889 0.000000 -0.010419
# 5 -0.003102 -0.002655 -0.002348 0.000000 0.041956 0.000000
# 6 0.000000 0.000001 0.000000 -0.010419 0.000000 0.032856
#
#
# Mechanical properties :
#
#
# Convention : Reuss Voigt Hill
#
# Bulk Modulus (GPa) = 41.29888 60.72775 51.01332
# Shear Modulus (GPa) = 21.84173 26.03380 23.93777
#
# Velocity S-wave (km/s) = 3.49197 3.81237 3.65568
# Velocity P-wave (km/s) = 6.27016 7.29946 6.80430
#
# Compressibility (1/GPa) = 0.02421373
#
# Stress axis : x y z
#
# Youngs Moduli (GPa) = 86.44845 38.17975 80.51142
#
# Poissons Ratio (x) = 0.20353 0.39219
# Poissons Ratio (y) = 0.46084 0.22391
# Poissons Ratio (z) = 0.42111 0.10618
#
# Static dielectric constant tensor:
#      x y z
#    x 3.729750 0.000000 0.035480 
#    y 0.000000 3.097780 0.000000 
#    z 0.035480 0.000000 3.443970 
# 
# 
# High freq. dielectric constant tensor:
#      x y z
#    x 1.704420 0.000000 0.009080 
#    y 0.000000 1.668570 0.000000 
#    z 0.009080 0.000000 1.672200 
# 
# From -- ./inp_files/345491.got.cif
#   From: 2010.06.25/outbox.cif.g09.slc.cpg/sg12_173_cif.got.tgz:345491.got - 2010.06.28 00:19:55.
