data_PCOD8088745
_publ_section_title
;
Structure prediction by ZEFSAII (Michael W. Deem and Ramdas Pophale) SiO2 
 PCOD8088745
Probable space group: C 2/M
;
_chemical_formula_sum "Si O2"
_cell_formula_units_Z 48
_cell_length_a 10.719445
_cell_length_b 23.797696
_cell_length_c 9.337931
_cell_angle_alpha 90.000000
_cell_angle_beta 87.888151
_cell_angle_gamma 90.000000
_cell_volume 2380.470466
_symmetry_space_group_name_H-M "C 2/M"
_symmetry_group_IT_number 12
_symmetry_cell_setting 'monoclinic'
loop_
_space_group_symop_operation_xyz
x,y,z
-x,y,-z
-x,-y,-z
x,-y,z
1/2+x,1/2+y,z
1/2-x,1/2+y,-z
1/2-x,1/2-y,-z
1/2+x,1/2-y,z
loop_
_atom_site_type_symbol
_atom_site_label
_atom_site_fract_x
_atom_site_fract_y
_atom_site_fract_z
Si Si1 0.373009 0.239660 0.087657
Si Si2 0.998381 0.566188 0.161817
Si Si3 0.621170 0.364243 0.914684
Si Si4 0.369977 0.564269 0.583835
Si Si5 0.257105 0.935786 0.696619
Si Si6 0.232602 0.632371 0.808370
O O1 0.331378 0.194299 0.211802
O O2 0.500000 0.218646 0.000000
O O3 0.250000 0.250000 0.000000
O O4 0.403661 0.301557 0.148160
O O5 0.001762 0.500000 0.163636
O O6 0.111450 0.589922 0.254344
O O7 0.868687 0.586171 0.233877
O O8 0.000000 0.589978 0.000000
O O9 0.733850 0.368961 0.024638
O O10 0.500000 0.387064 0.000000
O O11 0.644892 0.403538 0.778835
O O12 0.500000 0.576313 0.500000
O O13 0.370153 0.500000 0.646507
O O14 0.258111 0.570533 0.472780
O O15 0.349763 0.613552 0.704108
O O16 0.245603 0.000000 0.745808
#
# Coordination Sequence:
#
# PCOD8088745 Si02
#       6
#     8   8   8   8   8   8
#     4   9  20  35  57  87 116 148 193 247 297 344
#     4  10  19  32  54  85 116 144 187 244 290 341
#     4  10  20  35  56  84 113 146 193 241 288 344
#     4  10  22  39  57  82 120 160 195 236 293 355
#     4  10  21  36  55  83 120 153 188 241 293 343
#     4  11  20  34  59  82 109 152 197 239 286 348
#
# _framework density 20.164082000000001
#
# number of rings (size 3 to 8) (size 9 to 14) (size 15 to 20)
#    0.000    2.000    1.667    2.000    2.333    1.667 
#    0.000    3.333    0.000    0.000    0.000    0.000 
#    0.000    0.000    0.000    0.000    0.000    0.000 
#
# Total GULP energy -297348.575735 kJ/mol
# GULP energy per Si atom -12389.523989 kJ/mol
# Density = 2.011819 g / cm^3
# Si number density = 20.164082 Si / 1000 Ang^3
#
#
#
# Elastic Constant Matrix: (Units=GPa)
#
#
# Indices 1 2 3 4 5 6 
#
# 1 87.6224 21.3722 10.2425 0.0000 -7.6196 0.0000
# 2 21.3722 74.6682 45.9850 0.0000 -18.4914 0.0000
# 3 10.2425 45.9850 62.2936 0.0000 -8.8583 0.0000
# 4 0.0000 0.0000 0.0000 27.8935 0.0000 -11.3686
# 5 -7.6196 -18.4914 -8.8583 0.0000 34.4280 0.0000
# 6 0.0000 0.0000 0.0000 -11.3686 0.0000 31.7124
#
#
#
# Elastic Compliance Matrix: (Units=1/GPa)
#
#
# Indices 1 2 3 4 5 6 
#
# 1 0.012330 -0.003924 0.000994 0.000000 0.000877 0.000000
# 2 -0.003924 0.028710 -0.019181 0.000000 0.009617 0.000000
# 3 0.000994 -0.019181 0.029702 0.000000 -0.002440 0.000000
# 4 0.000000 0.000000 0.000000 0.041985 0.000000 0.015051
# 5 0.000877 0.009617 -0.002440 0.000000 0.033778 0.000000
# 6 0.000000 0.000000 0.000000 0.015051 0.000000 0.036929
#
#
# Mechanical properties :
#
#
# Convention : Reuss Voigt Hill
#
# Bulk Modulus (GPa) = 37.70760 42.19816 39.95288
# Shear Modulus (GPa) = 21.14200 28.60574 24.87387
#
# Velocity S-wave (km/s) = 3.24157 3.77058 3.51604
# Velocity P-wave (km/s) = 5.72288 6.31896 6.02829
#
# Compressibility (1/GPa) = 0.02651985
#
# Stress axis : x y z
#
# Youngs Moduli (GPa) = 81.10415 34.83081 33.66775
#
# Poissons Ratio (x) = 0.13669 -0.03348
# Poissons Ratio (y) = 0.31828 0.64578
# Poissons Ratio (z) = -0.08065 0.66809
#
# Static dielectric constant tensor:
#      x y z
#    x 3.951870 0.000000 0.070320 
#    y 0.000000 3.857010 0.000000 
#    z 0.070320 0.000000 3.348440 
# 
# 
# High freq. dielectric constant tensor:
#      x y z
#    x 1.809290 0.000000 -0.000350 
#    y 0.000000 1.782330 0.000000 
#    z -0.000350 0.000000 1.742270 
# 
# From -- ./inp_files/50650.got.cif
#   From: 2010.06.25/outbox.cif.g09.slc.cpg/sg12_26_cif.got.tgz:50650.got - 2010.06.28 00:19:55.
