data_PCOD8088667
_publ_section_title
;
Structure prediction by ZEFSAII (Michael W. Deem and Ramdas Pophale) SiO2 
 PCOD8088667
Probable space group: C 2/M
;
_chemical_formula_sum "Si O2"
_cell_formula_units_Z 56
_cell_length_a 20.606783
_cell_length_b 9.105911
_cell_length_c 17.214653
_cell_angle_alpha 90.000000
_cell_angle_beta 73.743490
_cell_angle_gamma 90.000000
_cell_volume 3101.067877
_symmetry_space_group_name_H-M "C 2/M"
_symmetry_group_IT_number 12
_symmetry_cell_setting 'monoclinic'
loop_
_space_group_symop_operation_xyz
x,y,z
-x,y,-z
-x,-y,-z
x,-y,z
1/2+x,1/2+y,z
1/2-x,1/2+y,-z
1/2-x,1/2-y,-z
1/2+x,1/2-y,z
loop_
_atom_site_type_symbol
_atom_site_label
_atom_site_fract_x
_atom_site_fract_y
_atom_site_fract_z
Si Si1 0.422266 0.326847 0.331384
Si Si2 0.691756 0.674005 0.745150
Si Si3 0.158119 0.669495 0.334928
Si Si4 0.651986 0.169963 0.079191
Si Si5 0.697345 0.670121 0.917211
Si Si6 0.430093 0.168758 0.487832
Si Si7 0.572391 0.326851 0.234110
O O1 0.414981 0.500000 0.342736
O O2 0.366068 0.261548 0.291470
O O3 0.409211 0.258711 0.419600
O O4 0.494947 0.282606 0.273732
O O5 0.689205 0.500000 0.745076
O O6 0.764956 0.726878 0.690682
O O7 0.678633 0.727468 0.837640
O O8 0.153397 0.500000 0.308525
O O9 0.130150 0.688284 0.430844
O O10 0.115321 0.767731 0.291286
O O11 0.722915 0.195857 0.098503
O O12 0.594411 0.253594 0.146153
O O13 0.632956 0.000000 0.080355
O O14 0.654063 0.234791 0.991850
O O15 0.678988 0.500000 0.935999
O O16 0.500000 0.231146 0.500000
O O17 0.440790 0.000000 0.460192
O O18 0.582823 0.500000 0.224381
#
# Coordination Sequence:
#
# PCOD8088667 Si02
#       7
#     8   8   8   8   8   8   8
#     4  10  22  37  55  78 109 144 178 221 268 318
#     4   9  18  36  57  78 106 143 181 216 266 321
#     4  10  19  35  58  79 103 141 183 221 264 318
#     4  10  19  32  54  82 108 139 177 221 267 312
#     4   9  17  32  55  80 106 138 176 221 265 312
#     4  10  20  34  55  81 109 140 178 222 269 321
#     4  11  21  33  52  81 109 138 179 223 265 313
#
# _framework density 18.058295999999999
#
# number of rings (size 3 to 8) (size 9 to 14) (size 15 to 20)
#    0.000    2.143    2.857    0.857    0.000    2.571 
#    0.000    2.143    0.000    4.286    0.000    0.000 
#    0.000    0.000    0.000    0.000    0.000    0.000 
#
# Total GULP energy -347276.150365 kJ/mol
# GULP energy per Si atom -12402.719656 kJ/mol
# Density = 1.801719 g / cm^3
# Si number density = 18.058296 Si / 1000 Ang^3
#
#
#
# Elastic Constant Matrix: (Units=GPa)
#
#
# Indices 1 2 3 4 5 6 
#
# 1 132.1373 37.9832 77.6817 0.0000 6.4041 0.0000
# 2 37.9832 52.3619 50.7374 0.0000 -7.9862 0.0000
# 3 77.6817 50.7374 142.0016 0.0000 4.3641 0.0000
# 4 0.0000 0.0000 0.0000 28.8482 0.0000 1.8964
# 5 6.4041 -7.9862 4.3641 0.0000 30.2794 0.0000
# 6 0.0000 0.0000 0.0000 1.8964 0.0000 18.3930
#
#
#
# Elastic Compliance Matrix: (Units=1/GPa)
#
#
# Indices 1 2 3 4 5 6 
#
# 1 0.011783 -0.004341 -0.004804 0.000000 -0.002945 0.000000
# 2 -0.004341 0.033640 -0.009990 0.000000 0.011230 0.000000
# 3 -0.004804 -0.009990 0.013348 0.000000 -0.003543 0.000000
# 4 0.000000 0.000000 0.000000 0.034901 0.000000 -0.003598
# 5 -0.002945 0.011230 -0.003543 0.000000 0.037121 0.000000
# 6 0.000000 0.000000 0.000000 -0.003598 0.000000 0.054740
#
#
# Mechanical properties :
#
#
# Convention : Reuss Voigt Hill
#
# Bulk Modulus (GPa) = 48.77886 73.25616 61.01751
# Shear Modulus (GPa) = 21.67915 26.17736 23.92826
#
# Velocity S-wave (km/s) = 3.46860 3.81150 3.64408
# Velocity P-wave (km/s) = 6.56598 7.74755 7.18111
#
# Compressibility (1/GPa) = 0.02050068
#
# Stress axis : x y z
#
# Youngs Moduli (GPa) = 84.86981 29.72677 74.91480
#
# Poissons Ratio (x) = 0.12905 0.35990
# Poissons Ratio (y) = 0.36844 0.74838
# Poissons Ratio (z) = 0.40772 0.29696
#
# Static dielectric constant tensor:
#      x y z
#    x 3.410550 0.000000 -0.043020 
#    y 0.000000 3.195730 0.000000 
#    z -0.043020 0.000000 3.465150 
# 
# 
# High freq. dielectric constant tensor:
#      x y z
#    x 1.684830 0.000000 -0.004670 
#    y 0.000000 1.684210 0.000000 
#    z -0.004670 0.000000 1.714640 
# 
# From -- ./inp_files/275221.got.cif
#   From: 2010.06.25/outbox.cif.g09.slc.cpg/sg12_138_cif.got.tgz:275221.got - 2010.06.28 00:19:55.
