data_PCOD8088735
_publ_section_title
;
Structure prediction by ZEFSAII (Michael W. Deem and Ramdas Pophale) SiO2 
 PCOD8088735
Probable space group: C 2/M
;
_chemical_formula_sum "Si O2"
_cell_formula_units_Z 56
_cell_length_a 30.588892
_cell_length_b 8.853200
_cell_length_c 11.679123
_cell_angle_alpha 90.000000
_cell_angle_beta 64.000433
_cell_angle_gamma 90.000000
_cell_volume 2842.732806
_symmetry_space_group_name_H-M "C 2/M"
_symmetry_group_IT_number 12
_symmetry_cell_setting 'monoclinic'
loop_
_space_group_symop_operation_xyz
x,y,z
-x,y,-z
-x,-y,-z
x,-y,z
1/2+x,1/2+y,z
1/2-x,1/2+y,-z
1/2-x,1/2-y,-z
1/2+x,1/2-y,z
loop_
_atom_site_type_symbol
_atom_site_label
_atom_site_fract_x
_atom_site_fract_y
_atom_site_fract_z
Si Si1 0.368730 0.672935 0.550479
Si Si2 0.710132 0.672933 0.184288
Si Si3 0.978993 0.322368 0.826130
Si Si4 0.409768 0.822684 0.286617
Si Si5 0.818400 0.325660 0.010265
Si Si6 0.546314 0.675340 0.374114
Si Si7 0.900834 0.822101 0.061844
O O1 0.375730 0.500000 0.502838
O O2 0.315139 0.702946 0.663843
O O3 0.376922 0.779914 0.432985
O O4 0.406073 0.712872 0.608489
O O5 0.701115 0.500000 0.155353
O O6 0.767330 0.704996 0.133346
O O7 0.686682 0.781504 0.116556
O O8 0.975075 0.500000 0.846124
O O9 0.951057 0.272789 0.743742
O O10 0.034867 0.268372 0.755997
O O11 0.952754 0.246281 0.964515
O O12 0.387537 0.740013 0.202197
O O13 0.406795 0.000000 0.269592
O O14 0.834092 0.500000 0.000714
O O15 0.858948 0.223654 0.021932
O O16 0.500000 0.727399 0.500000
O O17 0.542747 0.500000 0.343834
O O18 0.905253 0.000000 0.060552
#
# Coordination Sequence:
#
# PCOD8088735 Si02
#       7
#     8   8   8   8   8   8   8
#     4  10  20  36  57  83 117 154 192 229 274 334
#     4   9  19  36  61  91 120 152 187 230 283 340
#     4  11  23  38  58  84 115 150 190 238 289 338
#     4  11  24  40  57  81 115 151 190 236 284 338
#     4  10  20  37  61  89 119 148 187 238 288 335
#     4  10  19  32  54  84 118 153 187 226 273 329
#     4  12  25  40  60  82 109 149 196 239 286 343
#
# _framework density 19.699354
#
# number of rings (size 3 to 8) (size 9 to 14) (size 15 to 20)
#    0.000    1.571    1.429    3.857    0.000    6.571 
#    0.000    0.714    0.000    0.000    0.000    0.000 
#    0.000    0.000    0.000    0.000    0.000    0.000 
#
# Total GULP energy -347369.980086 kJ/mol
# GULP energy per Si atom -12406.070717 kJ/mol
# Density = 1.965452 g / cm^3
# Si number density = 19.699354 Si / 1000 Ang^3
#
#
#
# Elastic Constant Matrix: (Units=GPa)
#
#
# Indices 1 2 3 4 5 6 
#
# 1 45.2391 25.5968 29.1168 0.0000 -4.9188 0.0000
# 2 25.5968 90.3886 42.0980 0.0000 0.7551 0.0000
# 3 29.1168 42.0980 114.3925 0.0000 -8.7655 0.0000
# 4 0.0000 0.0000 0.0000 35.9270 0.0000 2.9164
# 5 -4.9188 0.7551 -8.7655 0.0000 29.0051 0.0000
# 6 0.0000 0.0000 0.0000 2.9164 0.0000 24.8673
#
#
#
# Elastic Compliance Matrix: (Units=1/GPa)
#
#
# Indices 1 2 3 4 5 6 
#
# 1 0.029035 -0.005960 -0.004922 0.000000 0.003592 0.000000
# 2 -0.005960 0.014676 -0.004085 0.000000 -0.002627 0.000000
# 3 -0.004922 -0.004085 0.011713 0.000000 0.002812 0.000000
# 4 0.000000 0.000000 0.000000 0.028102 0.000000 -0.003296
# 5 0.003592 -0.002627 0.002812 0.000000 0.036004 0.000000
# 6 0.000000 0.000000 0.000000 -0.003296 0.000000 0.040600
#
#
# Mechanical properties :
#
#
# Convention : Reuss Voigt Hill
#
# Bulk Modulus (GPa) = 39.23056 49.29372 44.26214
# Shear Modulus (GPa) = 25.18116 28.17379 26.67747
#
# Velocity S-wave (km/s) = 3.57917 3.78589 3.68398
# Velocity P-wave (km/s) = 6.08593 6.64740 6.37285
#
# Compressibility (1/GPa) = 0.02549033
#
# Stress axis : x y z
#
# Youngs Moduli (GPa) = 34.44076 68.13969 85.37187
#
# Poissons Ratio (x) = 0.40612 0.42019
# Poissons Ratio (y) = 0.20527 0.34876
# Poissons Ratio (z) = 0.16951 0.27836
#
# Static dielectric constant tensor:
#      x y z
#    x 3.501830 0.000000 -0.158290 
#    y 0.000000 3.524990 0.000000 
#    z -0.158290 0.000000 3.698130 
# 
# 
# High freq. dielectric constant tensor:
#      x y z
#    x 1.755220 0.000000 -0.007970 
#    y 0.000000 1.768880 0.000000 
#    z -0.007970 0.000000 1.774840 
# 
# From -- ./inp_files/180857.got.cif
#   From: 2010.06.25/outbox.cif.g09.slc.cpg/sg12_91_cif.got.tgz:180857.got - 2010.06.28 00:19:55.
