data_PCOD8088094
_publ_section_title
;
Structure prediction by ZEFSAII (Michael W. Deem and Ramdas Pophale) SiO2 
 PCOD8088094
Probable space group: C 2/M
;
_chemical_formula_sum "Si O2"
_cell_formula_units_Z 56
_cell_length_a 24.565570
_cell_length_b 8.725145
_cell_length_c 14.182956
_cell_angle_alpha 90.000000
_cell_angle_beta 96.750002
_cell_angle_gamma 90.000000
_cell_volume 3018.877148
_symmetry_space_group_name_H-M "C 2/M"
_symmetry_group_IT_number 12
_symmetry_cell_setting 'monoclinic'
loop_
_space_group_symop_operation_xyz
x,y,z
-x,y,-z
-x,-y,-z
x,-y,z
1/2+x,1/2+y,z
1/2-x,1/2+y,-z
1/2-x,1/2-y,-z
1/2+x,1/2-y,z
loop_
_atom_site_type_symbol
_atom_site_label
_atom_site_fract_x
_atom_site_fract_y
_atom_site_fract_z
Si Si1 0.536963 0.817875 0.212163
Si Si2 0.629221 0.319089 0.348683
Si Si3 0.914739 0.317778 0.157743
Si Si4 0.814475 0.319639 0.261979
Si Si5 0.392724 0.820856 0.947292
Si Si6 0.702668 0.179139 0.204945
Si Si7 0.193199 0.319407 0.522756
O O1 0.569959 0.742754 0.305022
O O2 0.474313 0.761670 0.204476
O O3 0.562707 0.758487 0.118610
O O4 0.543053 0.000000 0.221950
O O5 0.627777 0.500000 0.355425
O O6 0.677290 0.270117 0.287402
O O7 0.642747 0.249516 0.453570
O O8 0.914267 0.500000 0.151734
O O9 0.869750 0.260213 0.223119
O O10 0.901517 0.245628 0.051872
O O11 0.806214 0.500000 0.246482
O O12 0.764344 0.234081 0.200617
O O13 0.817578 0.273305 0.371587
O O14 0.331675 0.784339 0.896865
O O15 0.402299 0.000000 0.959809
O O16 0.699981 0.000000 0.229022
O O17 0.195574 0.500000 0.509350
O O18 0.250000 0.250000 0.500000
#
# Coordination Sequence:
#
# PCOD8088094 Si02
#       7
#     8   8   8   8   8   8   8
#     4   9  17  32  56  81 104 136 177 217 255 303
#     4  11  21  34  54  79 105 134 171 221 269 310
#     4   9  17  32  53  77 107 141 176 214 255 305
#     4  10  21  34  51  77 108 139 172 213 262 313
#     4   8  15  28  51  81 105 133 176 217 253 301
#     4  10  19  32  52  78 107 138 173 214 259 312
#     4  11  21  34  54  79 105 136 175 216 263 314
#
# _framework density 18.549945000000001
#
# number of rings (size 3 to 8) (size 9 to 14) (size 15 to 20)
#    0.000    2.286    1.429    3.429    0.000    2.857 
#    0.000    1.429    0.000   15.429    0.000    0.000 
#    0.000    0.000    0.000    0.000    0.000    0.000 
#
# Total GULP energy -347197.496100 kJ/mol
# GULP energy per Si atom -12399.910575 kJ/mol
# Density = 1.850772 g / cm^3
# Si number density = 18.549945 Si / 1000 Ang^3
#
#
#
# Elastic Constant Matrix: (Units=GPa)
#
#
# Indices 1 2 3 4 5 6 
#
# 1 173.6145 37.3174 84.5614 0.0000 10.7689 0.0000
# 2 37.3174 57.6226 35.3969 0.0000 5.3592 0.0000
# 3 84.5614 35.3969 107.9958 0.0000 12.8654 0.0000
# 4 0.0000 0.0000 0.0000 14.6699 0.0000 4.6834
# 5 10.7689 5.3592 12.8654 0.0000 28.5190 0.0000
# 6 0.0000 0.0000 0.0000 4.6834 0.0000 26.2873
#
#
#
# Elastic Compliance Matrix: (Units=1/GPa)
#
#
# Indices 1 2 3 4 5 6 
#
# 1 0.009488 -0.001976 -0.006763 0.000000 -0.000161 0.000000
# 2 -0.001976 0.022163 -0.005612 0.000000 -0.000887 0.000000
# 3 -0.006763 -0.005612 0.016871 0.000000 -0.004003 0.000000
# 4 0.000000 0.000000 0.000000 0.072278 0.000000 -0.012877
# 5 -0.000161 -0.000887 -0.004003 0.000000 0.037097 0.000000
# 6 0.000000 0.000000 0.000000 -0.012877 0.000000 0.040335
#
#
# Mechanical properties :
#
#
# Convention : Reuss Voigt Hill
#
# Bulk Modulus (GPa) = 50.44716 72.64268 61.54492
# Shear Modulus (GPa) = 21.40946 26.02571 23.71759
#
# Velocity S-wave (km/s) = 3.40097 3.74974 3.57960
# Velocity P-wave (km/s) = 6.53272 7.61531 7.09470
#
# Compressibility (1/GPa) = 0.01982272
#
# Stress axis : x y z
#
# Youngs Moduli (GPa) = 105.39145 45.11926 59.27301
#
# Poissons Ratio (x) = 0.08914 0.40085
# Poissons Ratio (y) = 0.20821 0.33262
# Poissons Ratio (z) = 0.71274 0.25320
#
# Static dielectric constant tensor:
#      x y z
#    x 3.513470 0.000000 0.142350 
#    y 0.000000 3.124670 0.000000 
#    z 0.142350 0.000000 3.600570 
# 
# 
# High freq. dielectric constant tensor:
#      x y z
#    x 1.718740 0.000000 0.018140 
#    y 0.000000 1.692680 0.000000 
#    z 0.018140 0.000000 1.718620 
# 
# From -- ./inp_files/230900.got.cif
#   From: 2010.06.25/outbox.cif.g09.slc.cpg/sg12_116_cif.got.tgz:230900.got - 2010.06.28 00:19:55.
