data_PCOD8088780
_publ_section_title
;
Structure prediction by ZEFSAII (Michael W. Deem and Ramdas Pophale) SiO2 
 PCOD8088780
Probable space group: C 2/M
;
_chemical_formula_sum "Si O2"
_cell_formula_units_Z 56
_cell_length_a 31.068361
_cell_length_b 9.246445
_cell_length_c 18.018598
_cell_angle_alpha 90.000000
_cell_angle_beta 36.024566
_cell_angle_gamma 90.000000
_cell_volume 3044.310822
_symmetry_space_group_name_H-M "C 2/M"
_symmetry_group_IT_number 12
_symmetry_cell_setting 'monoclinic'
loop_
_space_group_symop_operation_xyz
x,y,z
-x,y,-z
-x,-y,-z
x,-y,z
1/2+x,1/2+y,z
1/2-x,1/2+y,-z
1/2-x,1/2-y,-z
1/2+x,1/2-y,z
loop_
_atom_site_type_symbol
_atom_site_label
_atom_site_fract_x
_atom_site_fract_y
_atom_site_fract_z
Si Si1 0.833460 0.163624 0.807586
Si Si2 0.546296 0.665607 0.865272
Si Si3 0.661808 0.836921 0.055756
Si Si4 0.077936 0.665262 0.426371
Si Si5 0.048112 0.162761 0.146793
Si Si6 0.571111 0.164259 0.609051
Si Si7 0.328148 0.170823 0.394296
O O1 0.863358 0.256530 0.834314
O O2 0.861879 0.230270 0.691963
O O3 0.860924 0.000000 0.778699
O O4 0.746900 0.171817 0.923484
O O5 0.572935 0.500000 0.841617
O O6 0.486854 0.672563 0.884273
O O7 0.616883 0.762759 0.745021
O O8 0.500000 0.725689 0.000000
O O9 0.622597 0.756101 0.042043
O O10 0.633467 0.000000 0.101294
O O11 0.094805 0.500000 0.381445
O O12 0.088872 0.689252 0.498503
O O13 0.000000 0.710146 0.500000
O O14 0.994483 0.227884 0.283023
O O15 0.067079 0.000000 0.143129
O O16 0.639802 0.198145 0.567585
O O17 0.545095 0.000000 0.659554
O O18 0.250000 0.250000 0.500000
O O19 0.318535 0.000000 0.391516
#
# Coordination Sequence:
#
# PCOD8088780 Si02
#       7
#     8   8   8   8   8   8   8
#     4  10  21  35  52  75 103 136 176 219 260 305
#     4   9  19  37  58  82 113 144 181 229 280 335
#     4  10  20  35  53  73 103 140 174 214 263 315
#     4  10  20  34  53  77 105 138 173 211 264 320
#     4  10  19  32  55  82 104 135 176 217 263 316
#     4   9  19  35  54  78 108 142 178 217 265 324
#     4  10  20  36  58  82 111 149 190 232 281 335
#
# _framework density 18.394967000000001
#
# number of rings (size 3 to 8) (size 9 to 14) (size 15 to 20)
#    0.000    2.286    0.000    2.571    0.000    5.143 
#    2.571    0.000    0.000    0.000    0.000    0.000 
#    0.000    0.000    0.000    0.000    0.000    0.000 
#
# Total GULP energy -347140.578855 kJ/mol
# GULP energy per Si atom -12397.877816 kJ/mol
# Density = 1.835310 g / cm^3
# Si number density = 18.394967 Si / 1000 Ang^3
#
#
#
# Elastic Constant Matrix: (Units=GPa)
#
#
# Indices 1 2 3 4 5 6 
#
# 1 77.9687 52.3176 50.5426 -0.0016 -1.4593 -0.0004
# 2 52.3176 138.2545 63.5825 -0.0070 1.7998 0.0026
# 3 50.5426 63.5825 90.0064 -0.0072 17.7786 0.0018
# 4 -0.0016 -0.0070 -0.0072 34.9596 0.0033 -3.6269
# 5 -1.4593 1.7998 17.7786 0.0033 23.1182 0.0004
# 6 -0.0004 0.0026 0.0018 -3.6269 0.0004 29.9900
#
#
#
# Elastic Compliance Matrix: (Units=1/GPa)
#
#
# Indices 1 2 3 4 5 6 
#
# 1 0.023988 -0.002835 -0.013926 -0.000003 0.012444 0.000001
# 2 -0.002835 0.011772 -0.007673 0.000000 0.004806 -0.000001
# 3 -0.013926 -0.007673 0.028778 0.000006 -0.022413 0.000000
# 4 -0.000003 0.000000 0.000006 0.028968 -0.000009 0.003503
# 5 0.012444 0.004806 -0.022413 -0.000009 0.060904 -0.000001
# 6 0.000001 -0.000001 0.000000 0.003503 -0.000001 0.033768
#
#
# Mechanical properties :
#
#
# Convention : Reuss Voigt Hill
#
# Bulk Modulus (GPa) = 63.81609 71.01277 67.41443
# Shear Modulus (GPa) = 20.63816 26.93268 23.78542
#
# Velocity S-wave (km/s) = 3.35318 3.83055 3.59979
# Velocity P-wave (km/s) = 7.05402 7.63233 7.34887
#
# Compressibility (1/GPa) = 0.01567003
#
# Stress axis : x y z
#
# Youngs Moduli (GPa) = 41.68723 84.94542 34.74888
#
# Poissons Ratio (x) = 0.24083 0.48390
# Poissons Ratio (y) = 0.11819 0.26664
# Poissons Ratio (z) = 0.58052 0.65182
#
# Static dielectric constant tensor:
#      x y z
#    x 3.470080 0.000000 -0.001100 
#    y 0.000000 3.678020 0.000020 
#    z -0.001100 0.000020 3.244980 
# 
# 
# High freq. dielectric constant tensor:
#      x y z
#    x 1.714760 0.000000 -0.004470 
#    y 0.000000 1.725150 0.000000 
#    z -0.004470 0.000000 1.702220 
# 
# From -- ./inp_files/292429.got.cif
#   From: 2010.06.25/outbox.cif.g09.slc.cpg/sg12_147_cif.got.tgz:292429.got - 2010.06.28 00:19:55.
