data_PCOD8088946
_publ_section_title
;
Structure prediction by ZEFSAII (Michael W. Deem and Ramdas Pophale) SiO2 
 PCOD8088946
Probable space group: C 2/M
;
_chemical_formula_sum "Si O2"
_cell_formula_units_Z 60
_cell_length_a 23.780805
_cell_length_b 14.971766
_cell_length_c 15.496343
_cell_angle_alpha 90.000000
_cell_angle_beta 33.604236
_cell_angle_gamma 90.000000
_cell_volume 3053.582436
_symmetry_space_group_name_H-M "C 2/M"
_symmetry_group_IT_number 12
_symmetry_cell_setting 'monoclinic'
loop_
_space_group_symop_operation_xyz
x,y,z
-x,y,-z
-x,-y,-z
x,-y,z
1/2+x,1/2+y,z
1/2-x,1/2+y,-z
1/2-x,1/2-y,-z
1/2+x,1/2-y,z
loop_
_atom_site_type_symbol
_atom_site_label
_atom_site_fract_x
_atom_site_fract_y
_atom_site_fract_z
Si Si1 0.815236 0.215945 0.098448
Si Si2 0.500000 0.796869 0.500000
Si Si3 0.601955 0.903078 0.636486
Si Si4 0.705509 0.655226 0.531087
Si Si5 0.345295 0.752572 0.563458
Si Si6 0.378755 0.099039 0.957500
Si Si7 0.994056 0.101884 0.109976
Si Si8 0.164328 0.601315 0.187916
O O1 0.758584 0.207850 0.262900
O O2 0.755826 0.166281 0.098027
O O3 0.818271 0.322811 0.082242
O O4 0.925444 0.171347 0.955252
O O5 0.426826 0.733105 0.535506
O O6 0.438288 0.862905 0.639544
O O7 0.697834 0.909360 0.580010
O O8 0.612385 0.831215 0.549086
O O9 0.498539 0.883320 0.820750
O O10 0.591101 0.000000 0.605336
O O11 0.750000 0.750000 0.500000
O O12 0.670087 0.663291 0.475811
O O13 0.615164 0.626299 0.710339
O O14 0.349245 0.105008 0.896012
O O15 0.348774 0.000000 0.031473
O O16 0.020661 0.000000 0.102353
O O17 0.000000 0.111840 0.000000
O O18 0.186394 0.500000 0.191132
#
# Coordination Sequence:
#
# PCOD8088946 Si02
#       8
#     8   4   8   8   8   8   8   8
#     4  11  22  36  57  84 118 157 191 237 291 358
#     4  10  19  32  56  88 119 152 191 248 294 342
#     4  10  19  35  60  85 110 146 193 251 303 344
#     4  10  20  36  56  80 116 155 196 237 283 350
#     4  10  21  35  56  86 116 155 197 239 292 349
#     4  10  21  38  58  83 115 154 197 244 292 342
#     4  11  23  38  58  88 122 153 190 242 305 365
#     4  10  20  34  56  87 118 149 190 241 299 353
#
# _framework density 19.649051
#
# number of rings (size 3 to 8) (size 9 to 14) (size 15 to 20)
#    0.000    1.733    1.333    4.600    0.000    3.733 
#    0.000    1.333    0.000    2.000    0.000    3.733 
#    0.000    0.000    0.000    0.000    0.000    0.000 
#
# Total GULP energy -371786.326254 kJ/mol
# GULP energy per Si atom -12392.877542 kJ/mol
# Density = 1.960433 g / cm^3
# Si number density = 19.649051 Si / 1000 Ang^3
#
#
#
# Elastic Constant Matrix: (Units=GPa)
#
#
# Indices 1 2 3 4 5 6 
#
# 1 91.1744 26.7891 27.8558 0.0000 -9.6684 0.0000
# 2 26.7891 97.1662 26.1043 0.0000 -6.5494 0.0000
# 3 27.8558 26.1043 53.8407 0.0000 -17.5797 0.0000
# 4 0.0000 0.0000 0.0000 40.1703 0.0000 -3.4475
# 5 -9.6684 -6.5494 -17.5797 0.0000 25.7139 0.0000
# 6 0.0000 0.0000 0.0000 -3.4475 0.0000 26.6714
#
#
#
# Elastic Compliance Matrix: (Units=1/GPa)
#
#
# Indices 1 2 3 4 5 6 
#
# 1 0.013398 -0.002120 -0.005710 0.000000 0.000594 0.000000
# 2 -0.002120 0.012196 -0.005230 0.000000 -0.001266 0.000000
# 3 -0.005710 -0.005230 0.029516 0.000000 0.016700 0.000000
# 4 0.000000 0.000000 0.000000 0.025173 0.000000 0.003254
# 5 0.000594 -0.001266 0.016700 0.000000 0.050207 0.000000
# 6 0.000000 0.000000 0.000000 0.003254 0.000000 0.037914
#
#
# Mechanical properties :
#
#
# Convention : Reuss Voigt Hill
#
# Bulk Modulus (GPa) = 34.49398 44.85330 39.67364
# Shear Modulus (GPa) = 24.48725 29.27327 26.88026
#
# Velocity S-wave (km/s) = 3.53403 3.86399 3.70269
# Velocity P-wave (km/s) = 5.85198 6.54095 6.20603
#
# Compressibility (1/GPa) = 0.02899057
#
# Stress axis : x y z
#
# Youngs Moduli (GPa) = 74.63543 81.99586 33.87998
#
# Poissons Ratio (x) = 0.17382 0.19346
# Poissons Ratio (y) = 0.15822 0.17718
# Poissons Ratio (z) = 0.42619 0.42881
#
# Static dielectric constant tensor:
#      x y z
#    x 4.156530 0.000000 -0.250190 
#    y 0.000000 0.317400 0.000000 
#    z -0.250190 0.000000 3.567560 
# 
# 
# High freq. dielectric constant tensor:
#      x y z
#    x 1.763680 0.000000 -0.015730 
#    y 0.000000 1.759710 0.000000 
#    z -0.015730 0.000000 1.763390 
# 
# From -- ./inp_files/293489.got.cif
#   From: 2010.06.25/outbox.cif.g09.slc.cpg/sg12_147_cif.got.tgz:293489.got - 2010.06.28 00:19:55.
