data_PCOD8088281
_publ_section_title
;
Structure prediction by ZEFSAII (Michael W. Deem and Ramdas Pophale) SiO2 
 PCOD8088281
Probable space group: C 2/M
;
_chemical_formula_sum "Si O2"
_cell_formula_units_Z 64
_cell_length_a 20.876652
_cell_length_b 8.845762
_cell_length_c 21.669164
_cell_angle_alpha 90.000000
_cell_angle_beta 119.976641
_cell_angle_gamma 90.000000
_cell_volume 3466.339266
_symmetry_space_group_name_H-M "C 2/M"
_symmetry_group_IT_number 12
_symmetry_cell_setting 'monoclinic'
loop_
_space_group_symop_operation_xyz
x,y,z
-x,y,-z
-x,-y,-z
x,-y,z
1/2+x,1/2+y,z
1/2-x,1/2+y,-z
1/2-x,1/2-y,-z
1/2+x,1/2-y,z
loop_
_atom_site_type_symbol
_atom_site_label
_atom_site_fract_x
_atom_site_fract_y
_atom_site_fract_z
Si Si1 0.458201 0.678579 0.165301
Si Si2 0.785794 0.179063 0.577006
Si Si3 0.965733 0.820144 0.920629
Si Si4 0.164648 0.327784 0.828149
Si Si5 0.722445 0.673837 0.664779
Si Si6 0.799836 0.822511 0.817938
Si Si7 0.907829 0.171498 0.317117
Si Si8 0.948963 0.825668 0.673929
O O1 0.459919 0.500000 0.165459
O O2 0.487054 0.743594 0.114252
O O3 0.373125 0.729993 0.135648
O O4 0.510888 0.742174 0.245716
O O5 0.750000 0.250000 0.500000
O O6 0.738117 0.223732 0.613449
O O7 0.868941 0.248417 0.623596
O O8 0.786192 0.000000 0.569694
O O9 0.881608 0.765521 0.873218
O O10 0.968895 0.000000 0.923535
O O11 0.000000 0.752656 0.000000
O O12 0.152958 0.500000 0.841374
O O13 0.251145 0.291772 0.856569
O O14 0.125030 0.294984 0.744416
O O15 0.741871 0.500000 0.659499
O O16 0.771129 0.727191 0.746109
O O17 0.634130 0.690976 0.637696
O O18 0.797502 0.000000 0.799060
O O19 0.997094 0.196722 0.360258
O O20 0.892761 0.000000 0.284628
O O21 0.933553 0.000000 0.679843
#
# Coordination Sequence:
#
# PCOD8088281 Si02
#       8
#     8   8   8   8   8   8   8   8
#     4   9  16  29  50  72  93 120 159 203 241 280
#     4  11  22  36  52  71 100 133 165 201 240 284
#     4   9  17  30  49  71  94 127 173 212 236 273
#     4   9  16  26  44  71  99 123 150 192 246 295
#     4  10  19  32  53  78 100 124 158 200 245 292
#     4   9  17  31  51  73  97 126 161 201 243 286
#     4   8  15  30  51  73  95 120 157 200 236 278
#     4   8  15  30  52  72  90 121 162 199 234 277
#
# _framework density 18.463283000000001
#
# number of rings (size 3 to 8) (size 9 to 14) (size 15 to 20)
#    0.000    2.875    0.000    2.625    0.000    3.000 
#    0.000    9.375    0.000    5.250    0.000    0.000 
#    0.000    0.000    0.000    0.000    0.000    0.000 
#
# Total GULP energy -396495.032785 kJ/mol
# GULP energy per Si atom -12390.469775 kJ/mol
# Density = 1.842126 g / cm^3
# Si number density = 18.463283 Si / 1000 Ang^3
#
#
#
# Elastic Constant Matrix: (Units=GPa)
#
#
# Indices 1 2 3 4 5 6 
#
# 1 170.3530 30.5450 65.8164 0.0000 -17.1189 0.0000
# 2 30.5450 35.7154 20.8399 0.0000 -1.7269 0.0000
# 3 65.8164 20.8399 86.7423 0.0000 -11.0515 0.0000
# 4 0.0000 0.0000 0.0000 16.0890 0.0000 -2.9586
# 5 -17.1189 -1.7269 -11.0515 0.0000 8.9259 0.0000
# 6 0.0000 0.0000 0.0000 -2.9586 0.0000 27.5260
#
#
#
# Elastic Compliance Matrix: (Units=1/GPa)
#
#
# Indices 1 2 3 4 5 6 
#
# 1 0.009795 -0.005062 -0.004686 0.000000 0.012003 0.000000
# 2 -0.005062 0.035302 -0.005945 0.000000 -0.010239 0.000000
# 3 -0.004686 -0.005945 0.018072 0.000000 0.012237 0.000000
# 4 0.000000 0.000000 0.000000 0.063408 0.000000 0.006815
# 5 0.012003 -0.010239 0.012237 0.000000 0.148224 0.000000
# 6 0.000000 0.000000 0.000000 0.006815 0.000000 0.037062
#
#
# Mechanical properties :
#
#
# Convention : Reuss Voigt Hill
#
# Bulk Modulus (GPa) = 31.46468 58.57926 45.02197
# Shear Modulus (GPa) = 14.13061 22.21548 18.17304
#
# Velocity S-wave (km/s) = 2.76947 3.47252 3.14073
# Velocity P-wave (km/s) = 5.22545 6.91911 6.13105
#
# Compressibility (1/GPa) = 0.03178167
#
# Stress axis : x y z
#
# Youngs Moduli (GPa) = 102.09759 28.32697 55.33556
#
# Poissons Ratio (x) = 0.14339 0.25932
# Poissons Ratio (y) = 0.51680 0.32898
# Poissons Ratio (z) = 0.47846 0.16841
#
# Static dielectric constant tensor:
#      x y z
#    x 4.099060 0.000000 -0.077190 
#    y 0.000000 3.159560 0.000000 
#    z -0.077190 0.000000 3.206130 
# 
# 
# High freq. dielectric constant tensor:
#      x y z
#    x 1.744490 0.000000 -0.004350 
#    y 0.000000 1.690470 0.000000 
#    z -0.004350 0.000000 1.669470 
# 
# From -- ./inp_files/320147.got.cif
#   From: 2010.06.25/outbox.cif.g09.slc.cpg/sg12_161_cif.got.tgz:320147.got - 2010.06.28 00:19:55.
