data_PCOD8088202
_publ_section_title
;
Structure prediction by ZEFSAII (Michael W. Deem and Ramdas Pophale) SiO2 
 PCOD8088202
Probable space group: C 2/M
;
_chemical_formula_sum "Si O2"
_cell_formula_units_Z 56
_cell_length_a 26.090615
_cell_length_b 9.623880
_cell_length_c 11.889424
_cell_angle_alpha 90.000000
_cell_angle_beta 75.154796
_cell_angle_gamma 90.000000
_cell_volume 2885.704152
_symmetry_space_group_name_H-M "C 2/M"
_symmetry_group_IT_number 12
_symmetry_cell_setting 'monoclinic'
loop_
_space_group_symop_operation_xyz
x,y,z
-x,y,-z
-x,-y,-z
x,-y,z
1/2+x,1/2+y,z
1/2-x,1/2+y,-z
1/2-x,1/2-y,-z
1/2+x,1/2-y,z
loop_
_atom_site_type_symbol
_atom_site_label
_atom_site_fract_x
_atom_site_fract_y
_atom_site_fract_z
Si Si1 0.874441 0.840887 0.222735
Si Si2 0.219935 0.853896 0.140487
Si Si3 0.833504 0.719280 0.019142
Si Si4 0.078788 0.650454 0.194065
Si Si5 0.837084 0.663520 0.669194
Si Si6 0.304968 0.333277 0.479486
Si Si7 0.506152 0.338071 0.868218
O O1 0.854855 0.755272 0.128612
O O2 0.838562 0.805140 0.349149
O O3 0.935691 0.803634 0.212438
O O4 0.869841 0.000000 0.190879
O O5 0.280038 0.867633 0.064789
O O6 0.211542 0.722004 0.227283
O O7 0.206325 0.000000 0.210412
O O8 0.181508 0.848671 0.053017
O O9 0.878439 0.632859 0.929638
O O10 0.050945 0.500000 0.222169
O O11 0.107977 0.687441 0.295261
O O12 0.035089 0.764717 0.191452
O O13 0.826492 0.500000 0.649112
O O14 0.839175 0.759152 0.557591
O O15 0.296516 0.500000 0.504116
O O16 0.250000 0.250000 0.500000
O O17 0.492523 0.500000 0.871554
O O18 0.500000 0.283917 0.000000
#
# Coordination Sequence:
#
# PCOD8088202 Si02
#       7
#     8   8   8   8   8   8   8
#     4  10  21  37  57  84 115 149 188 234 288 343
#     4  10  20  32  53  83 114 150 194 236 285 349
#     4  10  19  32  52  81 118 151 183 231 290 352
#     4  10  21  37  57  83 115 151 190 238 292 340
#     4  10  22  40  58  79 114 155 197 243 290 340
#     4  11  23  40  63  88 118 154 196 240 286 342
#     4  10  20  37  60  86 116 150 190 234 286 350
#
# _framework density 19.406009000000001
#
# number of rings (size 3 to 8) (size 9 to 14) (size 15 to 20)
#    0.000    1.857    1.429    2.571    0.000    8.286 
#    0.000    4.286    0.000    4.286    0.000    0.000 
#    0.000    0.000    0.000    0.000    0.000    0.000 
#
# Total GULP energy -346992.347819 kJ/mol
# GULP energy per Si atom -12392.583851 kJ/mol
# Density = 1.936184 g / cm^3
# Si number density = 19.406009 Si / 1000 Ang^3
#
#
#
# Elastic Constant Matrix: (Units=GPa)
#
#
# Indices 1 2 3 4 5 6 
#
# 1 99.9743 49.5887 36.7437 0.0000 11.3916 0.0000
# 2 49.5887 111.9431 35.9156 0.0000 16.6307 0.0000
# 3 36.7437 35.9156 74.6595 0.0000 21.1376 0.0000
# 4 0.0000 0.0000 0.0000 17.3044 0.0000 -29.3207
# 5 11.3916 16.6307 21.1376 0.0000 31.4485 0.0000
# 6 0.0000 0.0000 0.0000 -29.3207 0.0000 -206.0497
#
#
#
# Elastic Compliance Matrix: (Units=1/GPa)
#
#
# Indices 1 2 3 4 5 6 
#
# 1 0.014069 -0.004789 -0.004810 0.000000 0.000669 0.000000
# 2 -0.004789 0.012380 -0.002762 0.000000 -0.002956 0.000000
# 3 -0.004810 -0.002762 0.019987 0.000000 -0.010231 0.000000
# 4 0.000000 0.000000 0.000000 0.046562 0.000000 -0.006626
# 5 0.000669 -0.002956 -0.010231 0.000000 0.039995 0.000000
# 6 0.000000 0.000000 0.000000 -0.006626 0.000000 -0.003910
#
#
# Mechanical properties :
#
#
# Convention : Reuss Voigt Hill
#
# Bulk Modulus (GPa) = 46.05180 59.00809 52.52994
# Shear Modulus (GPa) = 31.04787 -20.50410 5.27188
#
# Velocity S-wave (km/s) = 4.00423 -3.25404 1.65001
# Velocity P-wave (km/s) = 6.72017 4.04410 5.54596
#
# Compressibility (1/GPa) = 0.02171468
#
# Stress axis : x y z
#
# Youngs Moduli (GPa) = 71.07617 80.77818 50.03377
#
# Poissons Ratio (x) = 0.38682 0.24066
# Poissons Ratio (y) = 0.34036 0.13818
# Poissons Ratio (z) = 0.34188 0.22309
#
# Static dielectric constant tensor:
#      x y z
#    x 3.546100 0.000000 0.033710 
#    y 0.000000 3.522160 0.000000 
#    z 0.033710 0.000000 3.528820 
# 
# 
# High freq. dielectric constant tensor:
#      x y z
#    x 1.754860 0.000000 0.009140 
#    y 0.000000 1.757460 0.000000 
#    z 0.009140 0.000000 1.742770 
# 
# From -- ./inp_files/180680.got.cif
#   From: 2010.06.25/outbox.cif.g09.slc.cpg/sg12_91_cif.got.tgz:180680.got - 2010.06.28 00:19:55.
