data_PCOD8088339
_publ_section_title
;
Structure prediction by ZEFSAII (Michael W. Deem and Ramdas Pophale) SiO2 
 PCOD8088339
Probable space group: C 2/M
;
_chemical_formula_sum "Si O2"
_cell_formula_units_Z 56
_cell_length_a 9.491932
_cell_length_b 18.400601
_cell_length_c 17.231141
_cell_angle_alpha 90.000000
_cell_angle_beta 63.922382
_cell_angle_gamma 90.000000
_cell_volume 2703.170295
_symmetry_space_group_name_H-M "C 2/M"
_symmetry_group_IT_number 12
_symmetry_cell_setting 'monoclinic'
loop_
_space_group_symop_operation_xyz
x,y,z
-x,y,-z
-x,-y,-z
x,-y,z
1/2+x,1/2+y,z
1/2-x,1/2+y,-z
1/2-x,1/2-y,-z
1/2+x,1/2-y,z
loop_
_atom_site_type_symbol
_atom_site_label
_atom_site_fract_x
_atom_site_fract_y
_atom_site_fract_z
Si Si1 0.375721 0.346333 0.921614
Si Si2 0.011786 0.920008 0.665891
Si Si3 0.175971 0.220074 0.595508
Si Si4 0.074894 0.681389 0.067323
Si Si5 0.164540 0.918182 0.798150
Si Si6 0.360427 0.209708 0.703863
Si Si7 0.770290 0.645390 0.202387
O O1 0.410607 0.261520 0.901052
O O2 0.539303 0.389905 0.893664
O O3 0.293450 0.378042 0.865683
O O4 0.247829 0.356229 0.022521
O O5 0.095028 0.857749 0.594567
O O6 0.079529 0.913672 0.735816
O O7 0.822666 0.904989 0.713156
O O8 0.042257 0.000000 0.622685
O O9 0.250000 0.250000 0.500000
O O10 0.312094 0.209636 0.625226
O O11 0.047056 0.276076 0.661679
O O12 0.959990 0.635948 0.153149
O O13 0.000000 0.688228 0.000000
O O14 0.317989 0.866576 0.756361
O O15 0.217710 0.000000 0.805485
O O16 0.266314 0.270506 0.773208
#
# Coordination Sequence:
#
# PCOD8088339 Si02
#       7
#     8   8   8   8   8   8   8
#     4   9  16  27  42  69  98 128 166 205 255 287
#     4   8  16  30  49  72  97 128 163 201 245 293
#     4  10  20  34  54  78 103 127 160 206 248 299
#     4   9  16  25  42  69  95 124 165 213 251 282
#     4   9  16  29  48  70  99 130 165 204 242 291
#     4  10  19  32  53  78  99 128 168 204 248 290
#     4   9  16  27  47  70  94 124 168 212 241 288
#
# _framework density 20.716415999999999
#
# number of rings (size 3 to 8) (size 9 to 14) (size 15 to 20)
#    0.000    2.857    1.429    1.286    0.000    0.000 
#    0.000    1.429    0.000   18.429    0.000    0.000 
#    0.000    0.000    0.000    0.000    0.000    0.000 
#
# Total GULP energy -346878.703702 kJ/mol
# GULP energy per Si atom -12388.525132 kJ/mol
# Density = 2.066926 g / cm^3
# Si number density = 20.716416 Si / 1000 Ang^3
#
#
#
# Elastic Constant Matrix: (Units=GPa)
#
#
# Indices 1 2 3 4 5 6 
#
# 1 30.9348 8.6076 9.9742 0.0000 -14.7323 0.0000
# 2 8.6076 124.8545 35.1943 0.0000 -26.8351 0.0000
# 3 9.9742 35.1943 78.3646 0.0000 -31.8495 0.0000
# 4 0.0000 0.0000 0.0000 24.9926 0.0000 -4.7149
# 5 -14.7323 -26.8351 -31.8495 0.0000 25.3320 0.0000
# 6 0.0000 0.0000 0.0000 -4.7149 0.0000 19.9223
#
#
#
# Elastic Compliance Matrix: (Units=1/GPa)
#
#
# Indices 1 2 3 4 5 6 
#
# 1 0.050006 0.003463 0.011024 0.000000 0.046610 0.000000
# 2 0.003463 0.010616 0.000369 0.000000 0.013725 0.000000
# 3 0.011024 0.000369 0.028541 0.000000 0.042686 0.000000
# 4 0.000000 0.000000 0.000000 0.041882 0.000000 0.009912
# 5 0.046610 0.013725 0.042686 0.000000 0.134790 0.000000
# 6 0.000000 0.000000 0.000000 0.009912 0.000000 0.052541
#
#
# Mechanical properties :
#
#
# Convention : Reuss Voigt Hill
#
# Bulk Modulus (GPa) = 8.41223 37.96733 23.18978
# Shear Modulus (GPa) = 15.23056 26.07456 20.65256
#
# Velocity S-wave (km/s) = 2.71439 3.55158 3.16083
# Velocity P-wave (km/s) = 3.72738 5.93172 4.95372
#
# Compressibility (1/GPa) = 0.11887460
#
# Stress axis : x y z
#
# Youngs Moduli (GPa) = 19.99778 94.19463 35.03793
#
# Poissons Ratio (x) = -0.32621 -0.38624
# Poissons Ratio (y) = -0.06926 -0.01295
# Poissons Ratio (z) = -0.22045 -0.03480
#
# Static dielectric constant tensor:
#      x y z
#    x 3.724740 0.000000 -0.363610 
#    y 0.000000 3.637440 0.000000 
#    z -0.363610 0.000000 3.697680 
# 
# 
# High freq. dielectric constant tensor:
#      x y z
#    x 1.792660 0.000000 -0.023200 
#    y 0.000000 1.776440 0.000000 
#    z -0.023200 0.000000 1.800340 
# 
# From -- ./inp_files/263659.got.cif
#   From: 2010.06.25/outbox.cif.g09.slc.cpg/sg12_132_cif.got.tgz:263659.got - 2010.06.28 00:19:55.
