data_PCOD8088222
_publ_section_title
;
Structure prediction by ZEFSAII (Michael W. Deem and Ramdas Pophale) SiO2 
 PCOD8088222
Probable space group: C 2/M
;
_chemical_formula_sum "Si O2"
_cell_formula_units_Z 64
_cell_length_a 24.856917
_cell_length_b 8.673955
_cell_length_c 15.261156
_cell_angle_alpha 90.000000
_cell_angle_beta 106.563332
_cell_angle_gamma 90.000000
_cell_volume 3153.888514
_symmetry_space_group_name_H-M "C 2/M"
_symmetry_group_IT_number 12
_symmetry_cell_setting 'monoclinic'
loop_
_space_group_symop_operation_xyz
x,y,z
-x,y,-z
-x,-y,-z
x,-y,z
1/2+x,1/2+y,z
1/2-x,1/2+y,-z
1/2-x,1/2-y,-z
1/2+x,1/2-y,z
loop_
_atom_site_type_symbol
_atom_site_label
_atom_site_fract_x
_atom_site_fract_y
_atom_site_fract_z
Si Si1 0.524970 0.823922 0.654670
Si Si2 0.118854 0.178220 0.593608
Si Si3 0.137335 0.679986 0.925437
Si Si4 0.814774 0.180403 0.882241
Si Si5 0.698142 0.321093 0.790497
Si Si6 0.972662 0.821168 0.163541
Si Si7 0.395150 0.176323 0.586454
Si Si8 0.400983 0.318481 0.773354
O O1 0.564289 0.779278 0.592098
O O2 0.540626 0.709801 0.740976
O O3 0.460887 0.801528 0.597696
O O4 0.536385 0.000000 0.689145
O O5 0.169186 0.212074 0.683981
O O6 0.137726 0.230269 0.504798
O O7 0.102015 0.000000 0.586236
O O8 0.143081 0.500000 0.910052
O O9 0.156852 0.772351 0.849110
O O10 0.072567 0.727100 0.915470
O O11 0.176082 0.724731 0.024943
O O12 0.753700 0.218162 0.817149
O O13 0.860583 0.233521 0.832571
O O14 0.819883 0.000000 0.905099
O O15 0.713676 0.500000 0.808693
O O16 0.035907 0.763898 0.172057
O O17 0.965197 0.000000 0.137931
O O18 0.379182 0.239836 0.674536
O O19 0.376164 0.000000 0.573631
O O20 0.400436 0.500000 0.756933
#
# Coordination Sequence:
#
# PCOD8088222 Si02
#       8
#     8   8   8   8   8   8   8   8
#     4  10  19  32  52  83 121 156 191 235 293 351
#     4  11  22  35  56  84 117 156 197 240 291 353
#     4  12  24  39  62  91 122 155 192 242 298 356
#     4  11  24  43  65  87 114 155 201 247 296 352
#     4  11  24  42  62  88 120 154 197 248 297 349
#     4  10  19  35  59  88 121 156 193 239 292 350
#     4  10  21  35  56  86 120 155 194 242 291 346
#     4   9  21  41  63  86 118 158 200 242 291 350
#
# _framework density 20.292408999999999
#
# number of rings (size 3 to 8) (size 9 to 14) (size 15 to 20)
#    0.000    1.500    1.250    4.125    0.000    6.500 
#    0.000    3.125    0.000    0.000    0.000    0.000 
#    0.000    0.000    0.000    0.000    0.000    0.000 
#
# Total GULP energy -396943.644196 kJ/mol
# GULP energy per Si atom -12404.488881 kJ/mol
# Density = 2.024622 g / cm^3
# Si number density = 20.292409 Si / 1000 Ang^3
#
#
#
# Elastic Constant Matrix: (Units=GPa)
#
#
# Indices 1 2 3 4 5 6 
#
# 1 80.4965 19.7382 33.8405 0.0000 1.0289 0.0000
# 2 19.7382 57.8413 39.5984 0.0000 3.4112 0.0000
# 3 33.8405 39.5984 94.0812 0.0000 13.6725 0.0000
# 4 0.0000 0.0000 0.0000 30.0868 0.0000 4.9282
# 5 1.0289 3.4112 13.6725 0.0000 17.3324 0.0000
# 6 0.0000 0.0000 0.0000 4.9282 0.0000 27.9037
#
#
#
# Elastic Compliance Matrix: (Units=1/GPa)
#
#
# Indices 1 2 3 4 5 6 
#
# 1 0.014981 -0.001799 -0.005143 0.000000 0.003522 0.000000
# 2 -0.001799 0.024716 -0.010238 0.000000 0.003319 0.000000
# 3 -0.005143 -0.010238 0.018581 0.000000 -0.012337 0.000000
# 4 0.000000 0.000000 0.000000 0.034227 0.000000 -0.006045
# 5 0.003522 0.003319 -0.012337 0.000000 0.066565 0.000000
# 6 0.000000 0.000000 0.000000 -0.006045 0.000000 0.036905
#
#
# Mechanical properties :
#
#
# Convention : Reuss Voigt Hill
#
# Bulk Modulus (GPa) = 41.80986 46.53035 44.17010
# Shear Modulus (GPa) = 20.98111 24.34737 22.66424
#
# Velocity S-wave (km/s) = 3.21898 3.46761 3.34560
# Velocity P-wave (km/s) = 5.87062 6.24597 6.06120
#
# Compressibility (1/GPa) = 0.02391780
#
# Stress axis : x y z
#
# Youngs Moduli (GPa) = 66.75018 40.45989 53.81756
#
# Poissons Ratio (x) = 0.07278 0.27681
# Poissons Ratio (y) = 0.12007 0.55099
# Poissons Ratio (z) = 0.34332 0.41423
#
# Static dielectric constant tensor:
#      x y z
#    x 3.594260 0.000000 0.084600 
#    y 0.000000 3.648220 0.000000 
#    z 0.084600 0.000000 3.649970 
# 
# 
# High freq. dielectric constant tensor:
#      x y z
#    x 1.774980 0.000000 0.006940 
#    y 0.000000 1.799150 0.000000 
#    z 0.006940 0.000000 1.796810 
# 
# From -- ./inp_files/244272.got.cif
#   From: 2010.06.25/outbox.cif.g09.slc.cpg/sg12_123_cif.got.tgz:244272.got - 2010.06.28 00:19:55.
