data_PCOD8088057
_publ_section_title
;
Structure prediction by ZEFSAII (Michael W. Deem and Ramdas Pophale) SiO2 
 PCOD8088057
Probable space group: C 2/M
;
_chemical_formula_sum "Si O2"
_cell_formula_units_Z 56
_cell_length_a 19.029264
_cell_length_b 8.966146
_cell_length_c 31.648931
_cell_angle_alpha 90.000000
_cell_angle_beta 35.137193
_cell_angle_gamma 90.000000
_cell_volume 3107.846118
_symmetry_space_group_name_H-M "C 2/M"
_symmetry_group_IT_number 12
_symmetry_cell_setting 'monoclinic'
loop_
_space_group_symop_operation_xyz
x,y,z
-x,y,-z
-x,-y,-z
x,-y,z
1/2+x,1/2+y,z
1/2-x,1/2+y,-z
1/2-x,1/2-y,-z
1/2+x,1/2-y,z
loop_
_atom_site_type_symbol
_atom_site_label
_atom_site_fract_x
_atom_site_fract_y
_atom_site_fract_z
Si Si1 0.437707 0.825310 0.898625
Si Si2 0.863902 0.171983 0.079791
Si Si3 0.747362 0.173970 0.939128
Si Si4 0.145210 0.666325 0.430878
Si Si5 0.659707 0.678192 0.509552
Si Si6 0.601483 0.175010 0.361497
Si Si7 0.825492 0.828521 0.195349
O O1 0.371439 0.753304 0.891446
O O2 0.576357 0.772000 0.829176
O O3 0.433639 0.000000 0.895570
O O4 0.367492 0.772786 0.975730
O O5 0.774022 0.277295 0.098091
O O6 0.832481 0.210761 0.142957
O O7 0.839126 0.000000 0.080985
O O8 0.000000 0.217423 0.000000
O O9 0.767673 0.000000 0.932785
O O10 0.196438 0.500000 0.414544
O O11 0.195900 0.771662 0.443682
O O12 0.176848 0.720717 0.367424
O O13 0.000000 0.665049 0.500000
O O14 0.668658 0.500000 0.508178
O O15 0.750000 0.750000 0.500000
O O16 0.521268 0.731106 0.586246
O O17 0.690592 0.208922 0.278551
O O18 0.565328 0.000000 0.382013
O O19 0.859201 0.000000 0.187145
#
# Coordination Sequence:
#
# PCOD8088057 Si02
#       7
#     8   8   8   8   8   8   8
#     4  10  20  33  51  74 100 131 171 220 268 316
#     4  10  19  32  52  77 105 138 178 224 271 320
#     4  10  20  33  51  73  99 131 173 222 268 317
#     4   8  15  31  54  78 105 136 171 210 252 303
#     4  11  21  34  56  84 112 141 176 216 257 307
#     4   9  19  36  56  79 109 143 177 215 262 316
#     4  10  20  35  55  78 107 142 177 217 269 322
#
# _framework density 18.018910000000002
#
# number of rings (size 3 to 8) (size 9 to 14) (size 15 to 20)
#    0.000    2.286    1.429    3.000    0.000    5.143 
#    0.000    1.429    0.000    0.000    0.000    0.000 
#    0.000    0.000    0.000    0.000    0.000    0.000 
#
# Total GULP energy -347094.000141 kJ/mol
# GULP energy per Si atom -12396.214291 kJ/mol
# Density = 1.797790 g / cm^3
# Si number density = 18.018910 Si / 1000 Ang^3
#
#
#
# Elastic Constant Matrix: (Units=GPa)
#
#
# Indices 1 2 3 4 5 6 
#
# 1 129.0914 63.9157 53.5553 0.0063 3.9524 0.0505
# 2 63.9157 85.9477 41.0840 0.0084 -3.3729 0.0146
# 3 53.5553 41.0840 88.1877 -0.0053 13.5924 0.0028
# 4 0.0063 0.0084 -0.0053 20.9228 -0.0018 -2.1863
# 5 3.9524 -3.3729 13.5924 -0.0018 22.6249 0.0033
# 6 0.0505 0.0146 0.0028 -2.1863 0.0033 36.3584
#
#
#
# Elastic Compliance Matrix: (Units=1/GPa)
#
#
# Indices 1 2 3 4 5 6 
#
# 1 0.013560 -0.008049 -0.004337 -0.000004 -0.000963 -0.000015
# 2 -0.008049 0.020850 -0.006084 -0.000007 0.008170 0.000002
# 3 -0.004337 -0.006084 0.018548 0.000008 -0.011293 0.000009
# 4 -0.000004 -0.000007 0.000008 0.048097 -0.000002 0.002892
# 5 -0.000963 0.008170 -0.011293 -0.000002 0.052369 -0.000006
# 6 -0.000015 0.000002 0.000009 0.002892 -0.000006 0.027678
#
#
# Mechanical properties :
#
#
# Convention : Reuss Voigt Hill
#
# Bulk Modulus (GPa) = 62.43000 68.92630 65.67815
# Shear Modulus (GPa) = 22.38318 25.62603 24.00460
#
# Velocity S-wave (km/s) = 3.52832 3.77526 3.65388
# Velocity P-wave (km/s) = 7.16386 7.57223 7.37087
#
# Compressibility (1/GPa) = 0.01601794
#
# Stress axis : x y z
#
# Youngs Moduli (GPa) = 73.74445 47.96226 53.91381
#
# Poissons Ratio (x) = 0.38605 0.23381
# Poissons Ratio (y) = 0.59357 0.32803
# Poissons Ratio (z) = 0.31981 0.29182
#
# Static dielectric constant tensor:
#      x y z
#    x 3.665550 -0.000100 0.251510 
#    y -0.000100 3.257410 0.000020 
#    z 0.251510 0.000020 3.419270 
# 
# 
# High freq. dielectric constant tensor:
#      x y z
#    x 1.698950 0.000000 0.012610 
#    y 0.000000 1.695810 0.000000 
#    z 0.012610 0.000000 1.675150 
# 
# From -- ./inp_files/314444.got.cif
#   From: 2010.06.25/outbox.cif.g09.slc.cpg/sg12_158_cif.got.tgz:314444.got - 2010.06.28 00:19:55.
