data_PCOD8088003
_publ_section_title
;
Structure prediction by ZEFSAII (Michael W. Deem and Ramdas Pophale) SiO2 
 PCOD8088003
Probable space group: C 2/M
;
_chemical_formula_sum "Si O2"
_cell_formula_units_Z 40
_cell_length_a 20.603843
_cell_length_b 8.869764
_cell_length_c 17.912110
_cell_angle_alpha 90.000000
_cell_angle_beta 43.012874
_cell_angle_gamma 90.000000
_cell_volume 2233.032254
_symmetry_space_group_name_H-M "C 2/M"
_symmetry_group_IT_number 12
_symmetry_cell_setting 'monoclinic'
loop_
_space_group_symop_operation_xyz
x,y,z
-x,y,-z
-x,-y,-z
x,-y,z
1/2+x,1/2+y,z
1/2-x,1/2+y,-z
1/2-x,1/2-y,-z
1/2+x,1/2-y,z
loop_
_atom_site_type_symbol
_atom_site_label
_atom_site_fract_x
_atom_site_fract_y
_atom_site_fract_z
Si Si1 0.396493 0.324570 0.059992
Si Si2 0.074352 0.833804 0.504345
Si Si3 0.851562 0.823249 0.928359
Si Si4 0.065393 0.677343 0.278736
Si Si5 0.712811 0.322311 0.266523
O O1 0.377838 0.500000 0.091358
O O2 0.321630 0.228759 0.171174
O O3 0.500000 0.274074 0.000000
O O4 0.387215 0.285479 0.980945
O O5 0.173716 0.781443 0.382726
O O6 0.000000 0.840935 0.500000
O O7 0.036790 0.719188 0.598874
O O8 0.084542 0.000000 0.532083
O O9 0.928979 0.752503 0.807278
O O10 0.843155 0.000000 0.920945
O O11 0.750000 0.750000 0.000000
O O12 0.073703 0.500000 0.263798
O O13 0.153726 0.735111 0.253183
O O14 0.701837 0.500000 0.260742
#
# Coordination Sequence:
#
# PCOD8088003 Si02
#       5
#     8   8   8   8   8
#     4  10  22  38  55  77 106 141 178 216 263 317
#     4   8  16  30  47  72 104 136 170 213 265 314
#     4  11  21  34  54  78 107 140 174 217 265 315
#     4  11  20  30  49  78 108 138 173 217 263 310
#     4  10  19  32  52  76 105 139 175 217 263 312
#
# _framework density 17.912863000000002
#
# number of rings (size 3 to 8) (size 9 to 14) (size 15 to 20)
#    0.000    2.000    2.000    4.200    0.000    5.600 
#    0.000    0.000    0.000    1.200    0.000    0.000 
#    0.000    0.000    0.000    0.000    0.000    0.000 
#
# Total GULP energy -247988.876053 kJ/mol
# GULP energy per Si atom -12399.443803 kJ/mol
# Density = 1.787209 g / cm^3
# Si number density = 17.912863 Si / 1000 Ang^3
#
#
#
# Elastic Constant Matrix: (Units=GPa)
#
#
# Indices 1 2 3 4 5 6 
#
# 1 77.4822 41.1091 54.7661 0.0000 -3.5260 0.0000
# 2 41.1091 106.6149 72.0518 -0.0001 1.5928 0.0001
# 3 54.7661 72.0518 171.6739 -0.0001 -0.1677 0.0000
# 4 0.0000 -0.0001 -0.0001 34.6628 0.0000 -0.9406
# 5 -3.5260 1.5928 -0.1677 0.0000 17.6074 0.0000
# 6 0.0000 0.0001 0.0000 -0.9406 0.0000 17.3078
#
#
#
# Elastic Compliance Matrix: (Units=1/GPa)
#
#
# Indices 1 2 3 4 5 6 
#
# 1 0.018228 -0.004413 -0.003959 0.000000 0.004012 0.000000
# 2 -0.004413 0.014189 -0.004549 0.000000 -0.002211 0.000000
# 3 -0.003959 -0.004549 0.008997 0.000000 -0.000296 0.000000
# 4 0.000000 0.000000 0.000000 0.028892 0.000000 0.001570
# 5 0.004012 -0.002211 -0.000296 0.000000 0.057795 0.000000
# 6 0.000000 0.000000 0.000000 0.001570 0.000000 0.057863
#
#
# Mechanical properties :
#
#
# Convention : Reuss Voigt Hill
#
# Bulk Modulus (GPa) = 64.22027 76.84722 70.53375
# Shear Modulus (GPa) = 23.04177 26.43854 24.74015
#
# Velocity S-wave (km/s) = 3.59043 3.84598 3.72040
# Velocity P-wave (km/s) = 7.28818 7.91933 7.61030
#
# Compressibility (1/GPa) = 0.01557141
#
# Stress axis : x y z
#
# Youngs Moduli (GPa) = 54.85927 70.47871 111.14725
#
# Poissons Ratio (x) = 0.31102 0.44004
# Poissons Ratio (y) = 0.24209 0.50565
# Poissons Ratio (z) = 0.21719 0.32063
#
# Static dielectric constant tensor:
#      x y z
#    x 2.968690 0.000000 0.100020 
#    y 0.000000 3.335880 0.000000 
#    z 0.100020 0.000000 3.917110 
# 
# 
# High freq. dielectric constant tensor:
#      x y z
#    x 1.636620 0.000000 0.006800 
#    y 0.000000 1.700340 0.000000 
#    z 0.006800 0.000000 1.716460 
# 
# From -- ./inp_files/220584.got.cif
#   From: 2010.06.25/outbox.cif.g09.slc.cpg/sg12_111_cif.got.tgz:220584.got - 2010.06.28 00:19:55.
