data_PCOD8088611
_publ_section_title
;
Structure prediction by ZEFSAII (Michael W. Deem and Ramdas Pophale) SiO2 
 PCOD8088611
Probable space group: C 2/M
;
_chemical_formula_sum "Si O2"
_cell_formula_units_Z 64
_cell_length_a 32.037542
_cell_length_b 13.579861
_cell_length_c 9.463739
_cell_angle_alpha 90.000000
_cell_angle_beta 124.448048
_cell_angle_gamma 90.000000
_cell_volume 3395.325099
_symmetry_space_group_name_H-M "C 2/M"
_symmetry_group_IT_number 12
_symmetry_cell_setting 'monoclinic'
loop_
_space_group_symop_operation_xyz
x,y,z
-x,y,-z
-x,-y,-z
x,-y,z
1/2+x,1/2+y,z
1/2-x,1/2+y,-z
1/2-x,1/2-y,-z
1/2+x,1/2-y,z
loop_
_atom_site_type_symbol
_atom_site_label
_atom_site_fract_x
_atom_site_fract_y
_atom_site_fract_z
Si Si1 0.949434 0.114975 0.316954
Si Si2 0.298808 0.279937 0.289015
Si Si3 0.010943 0.115392 0.171098
Si Si4 0.288576 0.111326 0.488272
Si Si5 0.326669 0.611458 0.782424
Si Si6 0.879344 0.884201 0.611296
Si Si7 0.194643 0.384497 0.160104
Si Si8 0.649658 0.732644 0.901562
O O1 0.903730 0.190661 0.260847
O O2 0.000000 0.141427 0.500000
O O3 0.963836 0.135942 0.182330
O O4 0.934157 0.000000 0.315401
O O5 0.307715 0.182704 0.401509
O O6 0.340317 0.358712 0.414838
O O7 0.243827 0.326757 0.198958
O O8 0.310034 0.256199 0.147331
O O9 0.065255 0.155629 0.330402
O O10 0.018096 0.000000 0.165115
O O11 0.000000 0.166224 0.000000
O O12 0.228501 0.121291 0.392968
O O13 0.313010 0.137530 0.687729
O O14 0.303406 0.000000 0.472887
O O15 0.342113 0.500000 0.842124
O O16 0.364206 0.659153 0.737271
O O17 0.328009 0.660096 0.937797
O O18 0.878028 0.000000 0.624879
O O19 0.199672 0.500000 0.139614
O O20 0.147517 0.339088 0.978721
#
# Coordination Sequence:
#
# PCOD8088611 Si02
#       8
#     8   8   8   8   8   8   8   8
#     4  10  21  38  56  78 113 150 181 221 275 333
#     4  12  22  36  53  81 112 147 187 225 269 324
#     4   9  17  30  49  76 106 136 177 226 270 314
#     4  10  21  38  57  76 107 151 189 227 271 316
#     4  10  19  33  53  79 111 149 187 222 267 323
#     4  10  19  32  54  80 109 148 188 224 268 326
#     4  11  23  39  56  78 110 147 187 230 272 320
#     4  12  24  35  53  84 113 150 184 226 277 334
#
# _framework density 18.849446
#
# number of rings (size 3 to 8) (size 9 to 14) (size 15 to 20)
#    0.000    1.500    2.500    3.750    0.000    5.500 
#    0.000    0.000    0.000    0.375    0.000    0.875 
#    0.000   10.000    0.000    0.000    0.000    0.000 
#
# Total GULP energy -396566.989580 kJ/mol
# GULP energy per Si atom -12392.718424 kJ/mol
# Density = 1.880654 g / cm^3
# Si number density = 18.849446 Si / 1000 Ang^3
#
#
#
# Elastic Constant Matrix: (Units=GPa)
#
#
# Indices 1 2 3 4 5 6 
#
# 1 60.7328 38.9098 18.2713 0.0000 -5.6744 0.0000
# 2 38.9098 78.0544 38.8804 0.0000 -7.7279 0.0000
# 3 18.2713 38.8804 81.1330 0.0000 -4.6679 0.0000
# 4 0.0000 0.0000 0.0000 31.0220 0.0000 2.6188
# 5 -5.6744 -7.7279 -4.6679 0.0000 32.9286 0.0000
# 6 0.0000 0.0000 0.0000 2.6188 0.0000 16.7310
#
#
#
# Elastic Compliance Matrix: (Units=1/GPa)
#
#
# Indices 1 2 3 4 5 6 
#
# 1 0.024265 -0.012185 0.000455 0.000000 0.001386 0.000000
# 2 -0.012185 0.023213 -0.008255 0.000000 0.002178 0.000000
# 3 0.000455 -0.008255 0.016204 0.000000 0.000438 0.000000
# 4 0.000000 0.000000 0.000000 0.032667 0.000000 -0.005113
# 5 0.001386 0.002178 0.000438 0.000000 0.031181 0.000000
# 6 0.000000 0.000000 0.000000 -0.005113 0.000000 0.060570
#
#
# Mechanical properties :
#
#
# Convention : Reuss Voigt Hill
#
# Bulk Modulus (GPa) = 42.17337 45.78257 43.97797
# Shear Modulus (GPa) = 21.18871 24.39356 22.79114
#
# Velocity S-wave (km/s) = 3.35640 3.60130 3.48100
# Velocity P-wave (km/s) = 6.11906 6.45242 6.28795
#
# Compressibility (1/GPa) = 0.02371164
#
# Stress axis : x y z
#
# Youngs Moduli (GPa) = 41.21155 43.07858 61.71260
#
# Poissons Ratio (x) = 0.52492 -0.02805
# Poissons Ratio (y) = 0.50217 0.50943
# Poissons Ratio (z) = -0.01873 0.35561
#
# Static dielectric constant tensor:
#      x y z
#    x 3.571710 0.000000 -0.026390 
#    y 0.000000 3.409360 0.000000 
#    z -0.026390 0.000000 3.666820 
# 
# 
# High freq. dielectric constant tensor:
#      x y z
#    x 1.722750 0.000000 -0.014440 
#    y 0.000000 1.697060 0.000000 
#    z -0.014440 0.000000 1.744420 
# 
# From -- ./inp_files/111690.got.cif
#   From: 2010.06.25/outbox.cif.g09.slc.cpg/sg12_56_cif.got.tgz:111690.got - 2010.06.28 00:19:55.
