data_PCOD8088483
_publ_section_title
;
Structure prediction by ZEFSAII (Michael W. Deem and Ramdas Pophale) SiO2 
 PCOD8088483
Probable space group: C 2/M
;
_chemical_formula_sum "Si O2"
_cell_formula_units_Z 56
_cell_length_a 29.637607
_cell_length_b 8.991121
_cell_length_c 21.810398
_cell_angle_alpha 90.000000
_cell_angle_beta 146.504786
_cell_angle_gamma 90.000000
_cell_volume 3207.415703
_symmetry_space_group_name_H-M "C 2/M"
_symmetry_group_IT_number 12
_symmetry_cell_setting 'monoclinic'
loop_
_space_group_symop_operation_xyz
x,y,z
-x,y,-z
-x,-y,-z
x,-y,z
1/2+x,1/2+y,z
1/2-x,1/2+y,-z
1/2-x,1/2-y,-z
1/2+x,1/2-y,z
loop_
_atom_site_type_symbol
_atom_site_label
_atom_site_fract_x
_atom_site_fract_y
_atom_site_fract_z
Si Si1 0.849222 0.674990 0.397964
Si Si2 0.873814 0.674273 0.660096
Si Si3 0.681830 0.325721 0.762275
Si Si4 0.491982 0.673273 0.374759
Si Si5 0.758433 0.672981 0.418582
Si Si6 0.287180 0.674387 0.982621
Si Si7 0.025902 0.172352 0.785575
O O1 0.852097 0.500000 0.388247
O O2 0.811331 0.760858 0.297849
O O3 0.790398 0.714800 0.387846
O O4 0.940543 0.729868 0.514598
O O5 0.879749 0.500000 0.674852
O O6 0.827438 0.722632 0.545363
O O7 0.825571 0.739538 0.663900
O O8 0.964970 0.738899 0.760796
O O9 0.701030 0.500000 0.783628
O O10 0.592861 0.292464 0.688327
O O11 0.749464 0.243531 0.879048
O O12 0.515247 0.500000 0.406382
O O13 0.484082 0.726029 0.295774
O O14 0.739469 0.500000 0.403972
O O15 0.268313 0.500000 0.964961
O O16 0.250000 0.750000 0.000000
O O17 0.383335 0.706318 0.088758
O O18 0.004326 0.000000 0.766110
#
# Coordination Sequence:
#
# PCOD8088483 Si02
#       7
#     8   8   8   8   8   8   8
#     4  11  22  36  54  81 112 146 185 224 271 325
#     4  10  19  32  53  82 108 138 180 222 269 321
#     4  11  23  39  55  78 110 149 190 226 271 323
#     4  10  20  35  53  77 111 149 182 218 268 326
#     4   9  19  34  51  76 111 143 175 218 270 327
#     4  11  22  38  58  81 108 145 187 229 272 318
#     4  10  20  35  55  79 111 145 178 218 274 325
#
# _framework density 17.459538999999999
#
# number of rings (size 3 to 8) (size 9 to 14) (size 15 to 20)
#    0.000    1.714    2.857    2.143    0.000    5.714 
#    0.000    0.000    0.000    0.857    0.000    6.000 
#    0.000    0.000    0.000    0.000    0.000    0.000 
#
# Total GULP energy -347335.681276 kJ/mol
# GULP energy per Si atom -12404.845760 kJ/mol
# Density = 1.741980 g / cm^3
# Si number density = 17.459539 Si / 1000 Ang^3
#
#
#
# Elastic Constant Matrix: (Units=GPa)
#
#
# Indices 1 2 3 4 5 6 
#
# 1 99.1673 49.7578 60.1275 0.0000 13.0313 0.0000
# 2 49.7578 77.8992 59.6075 0.0000 12.3990 0.0000
# 3 60.1275 59.6075 112.4846 0.0000 -5.4993 0.0000
# 4 0.0000 0.0000 0.0000 31.3858 0.0000 0.3571
# 5 13.0313 12.3990 -5.4993 0.0000 22.9761 0.0000
# 6 0.0000 0.0000 0.0000 0.3571 0.0000 32.6987
#
#
#
# Elastic Compliance Matrix: (Units=1/GPa)
#
#
# Indices 1 2 3 4 5 6 
#
# 1 0.018388 -0.003641 -0.008412 0.000000 -0.010478 0.000000
# 2 -0.003641 0.028510 -0.013977 0.000000 -0.016666 0.000000
# 3 -0.008412 -0.013977 0.021648 0.000000 0.017495 0.000000
# 4 0.000000 0.000000 0.000000 0.031866 0.000000 -0.000348
# 5 -0.010478 -0.016666 0.017495 0.000000 0.062647 0.000000
# 6 0.000000 0.000000 0.000000 -0.000348 0.000000 0.030586
#
#
# Mechanical properties :
#
#
# Convention : Reuss Voigt Hill
#
# Bulk Modulus (GPa) = 60.65144 69.83741 65.24442
# Shear Modulus (GPa) = 19.90446 25.41600 22.66023
#
# Velocity S-wave (km/s) = 3.38010 3.81951 3.60651
# Velocity P-wave (km/s) = 7.07440 7.71609 7.40220
#
# Compressibility (1/GPa) = 0.01648765
#
# Stress axis : x y z
#
# Youngs Moduli (GPa) = 54.38305 35.07550 46.19262
#
# Poissons Ratio (x) = 0.12770 0.38858
# Poissons Ratio (y) = 0.19799 0.64561
# Poissons Ratio (z) = 0.45748 0.49024
#
# Static dielectric constant tensor:
#      x y z
#    x 3.355570 0.000000 -0.142040 
#    y 0.000000 3.330600 0.000000 
#    z -0.142040 0.000000 3.606980 
# 
# 
# High freq. dielectric constant tensor:
#      x y z
#    x 1.675560 0.000000 0.006520 
#    y 0.000000 1.684530 0.000000 
#    z 0.006520 0.000000 1.659350 
# 
# From -- ./inp_files/238890.got.cif
#   From: 2010.06.25/outbox.cif.g09.slc.cpg/sg12_120_cif.got.tgz:238890.got - 2010.06.28 00:19:55.
