data_PCOD8088044
_publ_section_title
;
Structure prediction by ZEFSAII (Michael W. Deem and Ramdas Pophale) SiO2 
 PCOD8088044
Probable space group: C 2/M
;
_chemical_formula_sum "Si O2"
_cell_formula_units_Z 64
_cell_length_a 24.309817
_cell_length_b 9.241604
_cell_length_c 19.760172
_cell_angle_alpha 90.000000
_cell_angle_beta 125.070815
_cell_angle_gamma 90.000000
_cell_volume 3633.355902
_symmetry_space_group_name_H-M "C 2/M"
_symmetry_group_IT_number 12
_symmetry_cell_setting 'monoclinic'
loop_
_space_group_symop_operation_xyz
x,y,z
-x,y,-z
-x,-y,-z
x,-y,z
1/2+x,1/2+y,z
1/2-x,1/2+y,-z
1/2-x,1/2-y,-z
1/2+x,1/2-y,z
loop_
_atom_site_type_symbol
_atom_site_label
_atom_site_fract_x
_atom_site_fract_y
_atom_site_fract_z
Si Si1 0.073068 0.834151 0.032340
Si Si2 0.579070 0.833851 0.249669
Si Si3 0.405324 0.830004 0.232307
Si Si4 0.173412 0.333487 0.196693
Si Si5 0.944264 0.665103 0.618070
Si Si6 0.553412 0.333262 0.865588
Si Si7 0.928284 0.829821 0.475610
Si Si8 0.326143 0.670326 0.287596
O O1 0.132171 0.752389 0.111875
O O2 0.074851 0.000000 0.057466
O O3 0.087628 0.818767 0.962949
O O4 0.000000 0.768095 0.000000
O O5 0.645586 0.805962 0.252713
O O6 0.595122 0.801692 0.339788
O O7 0.521762 0.728413 0.181572
O O8 0.553262 0.000000 0.225003
O O9 0.477446 0.796261 0.316378
O O10 0.402319 0.757971 0.156048
O O11 0.347856 0.757915 0.236768
O O12 0.391775 0.000000 0.215570
O O13 0.167131 0.500000 0.171974
O O14 0.250415 0.283626 0.251051
O O15 0.935780 0.500000 0.589803
O O16 0.911864 0.761950 0.536791
O O17 0.549672 0.500000 0.839550
O O18 0.871228 0.781158 0.382954
O O19 0.000000 0.771448 0.500000
O O20 0.930043 0.000000 0.486815
O O21 0.334250 0.500000 0.279170
#
# Coordination Sequence:
#
# PCOD8088044 Si02
#       8
#     8   8   8   8   8   8   8   8
#     4  10  20  35  54  81 111 137 174 221 265 311
#     4   9  18  33  51  77 108 139 174 214 264 313
#     4  10  20  34  53  79 108 139 175 219 266 315
#     4  10  21  36  56  78 107 145 179 218 263 315
#     4   9  18  31  50  76 105 133 170 218 263 311
#     4  10  19  32  54  80 107 138 171 217 266 310
#     4  10  19  32  52  77 104 137 176 220 264 311
#     4  10  21  37  54  77 108 142 181 219 264 318
#
# _framework density 17.614571000000002
#
# number of rings (size 3 to 8) (size 9 to 14) (size 15 to 20)
#    0.000    2.250    2.500    1.500    0.000    4.500 
#    0.000    1.250    0.000    0.000    0.000    0.000 
#    0.000    0.000    0.000    0.000    0.000    0.000 
#
# Total GULP energy -396859.447147 kJ/mol
# GULP energy per Si atom -12401.857723 kJ/mol
# Density = 1.757448 g / cm^3
# Si number density = 17.614571 Si / 1000 Ang^3
#
#
#
# Elastic Constant Matrix: (Units=GPa)
#
#
# Indices 1 2 3 4 5 6 
#
# 1 137.9219 54.2218 69.2636 0.0000 -5.7154 0.0000
# 2 54.2218 66.0242 48.2318 0.0000 -4.2415 0.0000
# 3 69.2636 48.2318 109.8624 0.0000 -2.0387 0.0000
# 4 0.0000 0.0000 0.0000 30.2356 0.0000 -7.0750
# 5 -5.7154 -4.2415 -2.0387 0.0000 28.0992 0.0000
# 6 0.0000 0.0000 0.0000 -7.0750 0.0000 25.3442
#
#
#
# Elastic Compliance Matrix: (Units=1/GPa)
#
#
# Indices 1 2 3 4 5 6 
#
# 1 0.012292 -0.006439 -0.004901 0.000000 0.001173 0.000000
# 2 -0.006439 0.025870 -0.007260 0.000000 0.002069 0.000000
# 3 -0.004901 -0.007260 0.015361 0.000000 -0.000978 0.000000
# 4 0.000000 0.000000 0.000000 0.035385 0.000000 0.009878
# 5 0.001173 0.002069 -0.000978 0.000000 0.036068 0.000000
# 6 0.000000 0.000000 0.000000 0.009878 0.000000 0.042214
#
#
# Mechanical properties :
#
#
# Convention : Reuss Voigt Hill
#
# Bulk Modulus (GPa) = 61.25943 73.02700 67.14322
# Shear Modulus (GPa) = 23.82885 26.20856 25.01870
#
# Velocity S-wave (km/s) = 3.68202 3.86150 3.77283
# Velocity P-wave (km/s) = 7.27527 7.83772 7.56173
#
# Compressibility (1/GPa) = 0.01632402
#
# Stress axis : x y z
#
# Youngs Moduli (GPa) = 81.35674 38.65474 65.10015
#
# Poissons Ratio (x) = 0.24890 0.31904
# Poissons Ratio (y) = 0.52385 0.47260
# Poissons Ratio (z) = 0.39871 0.28062
#
# Static dielectric constant tensor:
#      x y z
#    x 3.324060 0.000000 -0.164290 
#    y 0.000000 3.246680 0.000000 
#    z -0.164290 0.000000 3.114860 
# 
# 
# High freq. dielectric constant tensor:
#      x y z
#    x 1.678040 0.000000 -0.022160 
#    y 0.000000 1.682130 0.000000 
#    z -0.022160 0.000000 1.665870 
# 
# From -- ./inp_files/324345.got.cif
#   From: 2010.06.25/outbox.cif.g09.slc.cpg/sg12_163_cif.got.tgz:324345.got - 2010.06.28 00:19:55.
