data_PCOD8088385
_publ_section_title
;
Structure prediction by ZEFSAII (Michael W. Deem and Ramdas Pophale) SiO2 
 PCOD8088385
Probable space group: C 2/M
;
_chemical_formula_sum "Si O2"
_cell_formula_units_Z 40
_cell_length_a 18.832633
_cell_length_b 10.465379
_cell_length_c 23.676730
_cell_angle_alpha 90.000000
_cell_angle_beta 26.045508
_cell_angle_gamma 90.000000
_cell_volume 2048.972910
_symmetry_space_group_name_H-M "C 2/M"
_symmetry_group_IT_number 12
_symmetry_cell_setting 'monoclinic'
loop_
_space_group_symop_operation_xyz
x,y,z
-x,y,-z
-x,-y,-z
x,-y,z
1/2+x,1/2+y,z
1/2-x,1/2+y,-z
1/2-x,1/2-y,-z
1/2+x,1/2-y,z
loop_
_atom_site_type_symbol
_atom_site_label
_atom_site_fract_x
_atom_site_fract_y
_atom_site_fract_z
Si Si1 0.857386 0.352213 0.203724
Si Si2 0.392797 0.639950 0.945997
Si Si3 0.749291 0.646026 0.406534
Si Si4 0.076940 0.230758 0.196980
Si Si5 0.088573 0.854021 0.312222
O O1 0.914712 0.500000 0.152727
O O2 0.760106 0.341375 0.331479
O O3 0.741399 0.297739 0.237254
O O4 0.010980 0.257816 0.094700
O O5 0.450901 0.500000 0.926291
O O6 0.411630 0.637160 0.864744
O O7 0.204236 0.654353 0.096704
O O8 0.756345 0.500000 0.421407
O O9 0.580799 0.710806 0.547416
O O10 0.896405 0.716104 0.332212
O O11 0.119998 0.156744 0.223338
O O12 0.078529 0.000000 0.338532
#
# Coordination Sequence:
#
# PCOD8088385 Si02
#       5
#     8   8   8   8   8
#     4   9  19  35  56  80 106 138 174 212 257 310
#     4  10  21  37  55  75 105 143 178 214 260 311
#     4   9  17  32  54  78 105 136 171 212 260 313
#     4  10  20  33  53  77 105 136 176 218 260 306
#     4  10  19  32  53  80 105 133 174 219 259 306
#
# _framework density 19.521975000000001
#
# number of rings (size 3 to 8) (size 9 to 14) (size 15 to 20)
#    0.000    2.400    0.000    2.400    0.000    8.800 
#    0.000    5.000    0.000   12.000    0.000    0.000 
#    0.000    0.000    0.000    0.000    0.000    0.000 
#
# Total GULP energy -247931.097946 kJ/mol
# GULP energy per Si atom -12396.554897 kJ/mol
# Density = 1.947754 g / cm^3
# Si number density = 19.521975 Si / 1000 Ang^3
#
#
#
# Elastic Constant Matrix: (Units=GPa)
#
#
# Indices 1 2 3 4 5 6 
#
# 1 125.2527 32.0542 37.2866 0.0001 -15.4032 -0.0001
# 2 32.0542 88.1109 30.9966 0.0072 -19.1534 -0.0018
# 3 37.2866 30.9966 75.7337 0.0053 -20.1601 -0.0021
# 4 0.0001 0.0072 0.0053 11.3837 -0.0035 -3.9466
# 5 -15.4032 -19.1534 -20.1601 -0.0035 22.3546 0.0003
# 6 -0.0001 -0.0018 -0.0021 -3.9466 0.0003 23.1050
#
#
#
# Elastic Compliance Matrix: (Units=1/GPa)
#
#
# Indices 1 2 3 4 5 6 
#
# 1 0.009751 -0.001892 -0.003513 0.000003 0.001930 0.000000
# 2 -0.001892 0.014981 -0.002803 -0.000005 0.009004 0.000000
# 3 -0.003513 -0.002803 0.019472 -0.000003 0.012738 0.000001
# 4 0.000003 -0.000005 -0.000003 0.093374 0.000009 0.015949
# 5 0.001930 0.009004 0.012738 0.000009 0.065266 0.000003
# 6 0.000000 0.000000 0.000001 0.015949 0.000003 0.046005
#
#
# Mechanical properties :
#
#
# Convention : Reuss Voigt Hill
#
# Bulk Modulus (GPa) = 35.98663 54.41912 45.20287
# Shear Modulus (GPa) = 18.21310 23.95265 21.08287
#
# Velocity S-wave (km/s) = 3.05774 3.50660 3.28983
# Velocity P-wave (km/s) = 5.56240 6.65818 6.13480
#
# Compressibility (1/GPa) = 0.02778810
#
# Stress axis : x y z
#
# Youngs Moduli (GPa) = 102.55232 66.75081 51.35653
#
# Poissons Ratio (x) = 0.12630 0.18040
# Poissons Ratio (y) = 0.19404 0.14396
# Poissons Ratio (z) = 0.36024 0.18711
#
# Static dielectric constant tensor:
#      x y z
#    x 3.559830 0.000000 -0.160500 
#    y 0.000000 3.210690 0.000000 
#    z -0.160500 0.000000 3.572700 
# 
# 
# High freq. dielectric constant tensor:
#      x y z
#    x 1.761320 0.000000 -0.006600 
#    y 0.000000 1.726690 0.000000 
#    z -0.006600 0.000000 1.766310 
# 
# From -- ./inp_files/83465.got.cif
#   From: 2010.06.25/outbox.cif.g09.slc.cpg/sg12_42_cif.got.tgz:83465.got - 2010.06.28 00:19:55.
