data_PCOD8088888
_publ_section_title
;
Structure prediction by ZEFSAII (Michael W. Deem and Ramdas Pophale) SiO2 
 PCOD8088888
Probable space group: C 2/M
;
_chemical_formula_sum "Si O2"
_cell_formula_units_Z 52
_cell_length_a 25.721893
_cell_length_b 17.517580
_cell_length_c 11.306999
_cell_angle_alpha 90.000000
_cell_angle_beta 31.703066
_cell_angle_gamma 90.000000
_cell_volume 2677.387971
_symmetry_space_group_name_H-M "C 2/M"
_symmetry_group_IT_number 12
_symmetry_cell_setting 'monoclinic'
loop_
_space_group_symop_operation_xyz
x,y,z
-x,y,-z
-x,-y,-z
x,-y,z
1/2+x,1/2+y,z
1/2-x,1/2+y,-z
1/2-x,1/2-y,-z
1/2+x,1/2-y,z
loop_
_atom_site_type_symbol
_atom_site_label
_atom_site_fract_x
_atom_site_fract_y
_atom_site_fract_z
Si Si1 0.414025 0.413366 0.985911
Si Si2 0.616900 0.821862 0.288908
Si Si3 0.276365 0.314551 0.793598
Si Si4 0.450309 0.588889 0.480522
Si Si5 0.500000 0.692708 0.000000
Si Si6 0.307268 0.912889 0.641665
Si Si7 0.677234 0.765574 0.533168
O O1 0.436749 0.500000 0.981363
O O2 0.418653 0.359997 0.091813
O O3 0.310659 0.408513 0.117485
O O4 0.494994 0.378539 0.740537
O O5 0.500000 0.823015 0.500000
O O6 0.653526 0.742427 0.269711
O O7 0.646957 0.889874 0.320276
O O8 0.668801 0.829381 0.059286
O O9 0.334131 0.394613 0.690849
O O10 0.270748 0.283881 0.671231
O O11 0.500000 0.627084 0.500000
O O12 0.469350 0.500000 0.448674
O O13 0.564847 0.742432 0.783346
O O14 0.335539 0.854231 0.481510
O O15 0.340792 0.000000 0.545308
O O16 0.750000 0.750000 0.500000
#
# Coordination Sequence:
#
# PCOD8088888 Si02
#       7
#     8   8   8   8   4   8   8
#     4  10  20  35  60  91 121 155 196 250 317 368
#     4  10  22  38  62  90 116 162 207 250 305 367
#     4  10  21  38  58  87 122 154 202 261 304 359
#     4  10  19  32  55  88 123 154 187 243 316 372
#     4  12  21  38  63  86 118 160 210 258 295 362
#     4  10  22  41  62  89 127 163 202 254 313 371
#     4  11  23  39  61  90 120 165 211 254 300 361
#
# _framework density 19.421914000000001
#
# number of rings (size 3 to 8) (size 9 to 14) (size 15 to 20)
#    0.000    1.692    3.077    1.615    0.000    7.077 
#    0.000    1.154    0.000    0.000    0.000    0.000 
#    0.000    0.000    0.000    0.000    0.000    0.000 
#
# Total GULP energy -322280.664669 kJ/mol
# GULP energy per Si atom -12395.410180 kJ/mol
# Density = 1.937771 g / cm^3
# Si number density = 19.421914 Si / 1000 Ang^3
#
#
#
# Elastic Constant Matrix: (Units=GPa)
#
#
# Indices 1 2 3 4 5 6 
#
# 1 106.0979 40.5802 54.4754 0.0000 3.8828 0.0000
# 2 40.5802 84.5302 45.1509 0.0000 7.1101 0.0000
# 3 54.4754 45.1509 145.8405 0.0000 2.3995 0.0000
# 4 0.0000 0.0000 0.0000 27.1368 0.0000 -2.6580
# 5 3.8828 7.1101 2.3995 0.0000 35.1539 0.0000
# 6 0.0000 0.0000 0.0000 -2.6580 0.0000 24.1167
#
#
#
# Elastic Compliance Matrix: (Units=1/GPa)
#
#
# Indices 1 2 3 4 5 6 
#
# 1 0.012860 -0.004294 -0.003469 0.000000 -0.000315 0.000000
# 2 -0.004294 0.015844 -0.003260 0.000000 -0.002508 0.000000
# 3 -0.003469 -0.003260 0.009155 0.000000 0.000418 0.000000
# 4 0.000000 0.000000 0.000000 0.037252 0.000000 0.004106
# 5 -0.000315 -0.002508 0.000418 0.000000 0.028960 0.000000
# 6 0.000000 0.000000 0.000000 0.004106 0.000000 0.041917
#
#
# Mechanical properties :
#
#
# Convention : Reuss Voigt Hill
#
# Bulk Modulus (GPa) = 63.24018 68.54239 65.89129
# Shear Modulus (GPa) = 28.85066 30.36564 29.60815
#
# Velocity S-wave (km/s) = 3.85836 3.95837 3.90868
# Velocity P-wave (km/s) = 7.24439 7.50063 7.37362
#
# Compressibility (1/GPa) = 0.01581273
#
# Stress axis : x y z
#
# Youngs Moduli (GPa) = 77.75758 63.11621 109.23106
#
# Poissons Ratio (x) = 0.27105 0.37893
# Poissons Ratio (y) = 0.33393 0.35606
# Poissons Ratio (z) = 0.26974 0.20574
#
# Static dielectric constant tensor:
#      x y z
#    x 3.521210 0.000000 0.191130 
#    y 0.000000 3.573490 0.000000 
#    z 0.191130 0.000000 3.588560 
# 
# 
# High freq. dielectric constant tensor:
#      x y z
#    x 1.755350 0.000000 0.005870 
#    y 0.000000 1.749780 0.000000 
#    z 0.005870 0.000000 1.752620 
# 
# From -- ./inp_files/184314.got.cif
#   From: 2010.06.25/outbox.cif.g09.slc.cpg/sg12_93_cif.got.tgz:184314.got - 2010.06.28 00:19:55.
