data_PCOD8088765
_publ_section_title
;
Structure prediction by ZEFSAII (Michael W. Deem and Ramdas Pophale) SiO2 
 PCOD8088765
Probable space group: C 2/M
;
_chemical_formula_sum "Si O2"
_cell_formula_units_Z 56
_cell_length_a 18.672133
_cell_length_b 9.181595
_cell_length_c 29.489124
_cell_angle_alpha 90.000000
_cell_angle_beta 142.846203
_cell_angle_gamma 90.000000
_cell_volume 3053.371645
_symmetry_space_group_name_H-M "C 2/M"
_symmetry_group_IT_number 12
_symmetry_cell_setting 'monoclinic'
loop_
_space_group_symop_operation_xyz
x,y,z
-x,y,-z
-x,-y,-z
x,-y,z
1/2+x,1/2+y,z
1/2-x,1/2+y,-z
1/2-x,1/2-y,-z
1/2+x,1/2-y,z
loop_
_atom_site_type_symbol
_atom_site_label
_atom_site_fract_x
_atom_site_fract_y
_atom_site_fract_z
Si Si1 0.448305 0.667936 0.701874
Si Si2 0.585075 0.327723 0.003320
Si Si3 0.625711 0.670625 0.435603
Si Si4 0.043017 0.827273 0.569941
Si Si5 0.173754 0.834429 0.871309
Si Si6 0.812789 0.672760 0.709758
Si Si7 0.997513 0.169674 0.862131
O O1 0.416483 0.500000 0.696583
O O2 0.438545 0.705188 0.644185
O O3 0.583208 0.699800 0.784719
O O4 0.358107 0.767842 0.684428
O O5 0.593517 0.500000 0.007148
O O6 0.715665 0.270027 0.078411
O O7 0.500000 0.269935 0.000000
O O8 0.532478 0.271192 0.929227
O O9 0.648676 0.500000 0.453351
O O10 0.750000 0.750000 0.500000
O O11 0.541813 0.733016 0.433086
O O12 0.177054 0.777964 0.647339
O O13 0.000000 0.762653 0.500000
O O14 0.035199 0.000000 0.564901
O O15 0.109701 0.802119 0.886551
O O16 0.218760 0.000000 0.892060
O O17 0.827767 0.500000 0.717584
O O18 0.884778 0.740062 0.788008
O O19 0.962436 0.000000 0.844714
#
# Coordination Sequence:
#
# PCOD8088765 Si02
#       7
#     8   8   8   8   8   8   8
#     4   9  19  35  53  75 105 136 164 205 261 306
#     4  10  21  35  51  74 104 136 168 207 257 303
#     4  10  20  35  54  75 103 138 173 209 251 300
#     4   9  18  32  50  74 104 134 165 207 253 292
#     4   9  18  33  53  74  97 132 173 209 250 300
#     4  10  19  32  55  81 100 128 172 212 248 300
#     4   9  19  36  54  73 103 137 166 205 257 304
#
# _framework density 18.340382999999999
#
# number of rings (size 3 to 8) (size 9 to 14) (size 15 to 20)
#    0.000    2.571    0.000    2.571    0.000    6.000 
#    0.000    2.857    0.000    3.857    0.000    0.000 
#    0.000    0.000    0.000    0.000    0.000    0.000 
#
# Total GULP energy -347248.071751 kJ/mol
# GULP energy per Si atom -12401.716848 kJ/mol
# Density = 1.829864 g / cm^3
# Si number density = 18.340383 Si / 1000 Ang^3
#
#
#
# Elastic Constant Matrix: (Units=GPa)
#
#
# Indices 1 2 3 4 5 6 
#
# 1 142.0775 39.2517 101.3594 0.0000 -0.8297 0.0000
# 2 39.2517 42.7123 45.9228 0.0000 5.5830 0.0000
# 3 101.3594 45.9228 152.6064 0.0000 -3.4782 0.0000
# 4 0.0000 0.0000 0.0000 30.6597 0.0000 5.9926
# 5 -0.8297 5.5830 -3.4782 0.0000 36.5537 0.0000
# 6 0.0000 0.0000 0.0000 5.9926 0.0000 21.5354
#
#
#
# Elastic Compliance Matrix: (Units=1/GPa)
#
#
# Indices 1 2 3 4 5 6 
#
# 1 0.013870 -0.004249 -0.007929 0.000000 0.000209 0.000000
# 2 -0.004249 0.037418 -0.008589 0.000000 -0.006629 0.000000
# 3 -0.007929 -0.008589 0.014461 0.000000 0.002508 0.000000
# 4 0.000000 0.000000 0.000000 0.034492 0.000000 -0.009598
# 5 0.000209 -0.006629 0.002508 0.000000 0.028613 0.000000
# 6 0.000000 0.000000 0.000000 -0.009598 0.000000 0.049106
#
#
# Mechanical properties :
#
#
# Convention : Reuss Voigt Hill
#
# Bulk Modulus (GPa) = 41.29589 78.94044 60.11816
# Shear Modulus (GPa) = 21.97168 27.80724 24.88946
#
# Velocity S-wave (km/s) = 3.46496 3.89803 3.68786
# Velocity P-wave (km/s) = 6.21073 7.96209 7.14031
#
# Compressibility (1/GPa) = 0.02421549
#
# Stress axis : x y z
#
# Youngs Moduli (GPa) = 72.09778 26.72507 69.15133
#
# Poissons Ratio (x) = 0.11354 0.54831
# Poissons Ratio (y) = 0.30631 0.59395
# Poissons Ratio (z) = 0.57167 0.22955
#
# Static dielectric constant tensor:
#      x y z
#    x 3.501230 0.000000 -0.175750 
#    y 0.000000 3.181920 0.000000 
#    z -0.175750 0.000000 3.591800 
# 
# 
# High freq. dielectric constant tensor:
#      x y z
#    x 1.710790 0.000000 -0.004280 
#    y 0.000000 1.691670 0.000000 
#    z -0.004280 0.000000 1.724790 
# 
# From -- ./inp_files/363253.got.cif
#   From: 2010.06.25/outbox.cif.g09.slc.cpg/sg12_182_cif.got.tgz:363253.got - 2010.06.28 00:19:55.
