data_PCOD8088076
_publ_section_title
;
Structure prediction by ZEFSAII (Michael W. Deem and Ramdas Pophale) SiO2 
 PCOD8088076
Probable space group: C 2/M
;
_chemical_formula_sum "Si O2"
_cell_formula_units_Z 48
_cell_length_a 26.136019
_cell_length_b 11.129818
_cell_length_c 9.506724
_cell_angle_alpha 90.000000
_cell_angle_beta 67.668486
_cell_angle_gamma 90.000000
_cell_volume 2557.999917
_symmetry_space_group_name_H-M "C 2/M"
_symmetry_group_IT_number 12
_symmetry_cell_setting 'monoclinic'
loop_
_space_group_symop_operation_xyz
x,y,z
-x,y,-z
-x,-y,-z
x,-y,z
1/2+x,1/2+y,z
1/2-x,1/2+y,-z
1/2-x,1/2-y,-z
1/2+x,1/2-y,z
loop_
_atom_site_type_symbol
_atom_site_label
_atom_site_fract_x
_atom_site_fract_y
_atom_site_fract_z
Si Si1 0.422217 0.500000 0.964950
Si Si2 0.090787 0.750901 0.148307
Si Si3 0.608307 0.864244 0.845136
Si Si4 0.120224 0.636180 0.394026
Si Si5 0.961262 0.253370 0.308165
Si Si6 0.792114 0.361385 0.460424
Si Si7 0.049572 0.000000 0.758795
O O1 0.395330 0.384907 0.917886
O O2 0.487398 0.500000 0.879161
O O3 0.409927 0.500000 0.146221
O O4 0.124688 0.722928 0.254532
O O5 0.026533 0.730122 0.249344
O O6 0.111699 0.660660 0.006655
O O7 0.559182 0.786634 0.827344
O O8 0.667329 0.837920 0.712682
O O9 0.591178 0.000000 0.834495
O O10 0.113171 0.500000 0.348864
O O11 0.066633 0.666371 0.543742
O O12 0.175476 0.651572 0.426874
O O13 0.941691 0.115305 0.349892
O O14 0.767479 0.500000 0.476773
O O15 0.750000 0.250000 0.500000
#
# Coordination Sequence:
#
# PCOD8088076 Si02
#       7
#     4   8   8   8   8   8   4
#     4   9  18  31  47  71 115 149 187 233 255 295
#     4  11  20  33  52  80 118 153 181 218 269 322
#     4  10  20  33  54  82 110 144 185 227 267 319
#     4  10  22  37  54  81 116 145 178 228 277 324
#     4  10  19  32  52  77 114 157 190 217 256 318
#     4   9  20  43  63  81 107 136 182 238 288 337
#     4   9  16  31  49  69 105 159 193 225 259 291
#
# _framework density 18.764659999999999
#
# number of rings (size 3 to 8) (size 9 to 14) (size 15 to 20)
#    0.000    2.167    1.667    3.000    0.000    4.667 
#    9.000    3.333    0.000    0.000    0.000    0.000 
#    0.000    0.000    0.000    0.000    0.000    0.000 
#
# Total GULP energy -297523.910163 kJ/mol
# GULP energy per Si atom -12396.829590 kJ/mol
# Density = 1.872195 g / cm^3
# Si number density = 18.764660 Si / 1000 Ang^3
#
#
#
# Elastic Constant Matrix: (Units=GPa)
#
#
# Indices 1 2 3 4 5 6 
#
# 1 62.5335 51.3058 32.3299 0.0000 8.4601 0.0000
# 2 51.3058 121.8841 25.5452 0.0000 -1.2973 0.0000
# 3 32.3299 25.5452 68.8062 0.0000 26.1813 0.0000
# 4 0.0000 0.0000 0.0000 28.4461 0.0000 0.2583
# 5 8.4601 -1.2973 26.1813 0.0000 18.3329 0.0000
# 6 0.0000 0.0000 0.0000 0.2583 0.0000 29.3487
#
#
#
# Elastic Compliance Matrix: (Units=1/GPa)
#
#
# Indices 1 2 3 4 5 6 
#
# 1 0.029762 -0.010411 -0.010102 0.000000 -0.000044 0.000000
# 2 -0.010411 0.013857 -0.005374 0.000000 0.013460 0.000000
# 3 -0.010102 -0.005374 0.043028 0.000000 -0.057167 0.000000
# 4 0.000000 0.000000 0.000000 0.035157 0.000000 -0.000309
# 5 -0.000044 0.013460 -0.057167 0.000000 0.137159 0.000000
# 6 0.000000 0.000000 0.000000 -0.000309 0.000000 0.034076
#
#
# Mechanical properties :
#
#
# Convention : Reuss Voigt Hill
#
# Bulk Modulus (GPa) = 28.67675 52.39839 40.53757
# Shear Modulus (GPa) = 14.02770 24.82841 19.42806
#
# Velocity S-wave (km/s) = 2.73712 3.64146 3.22118
# Velocity P-wave (km/s) = 5.03037 6.75758 5.95691
#
# Compressibility (1/GPa) = 0.03487145
#
# Stress axis : x y z
#
# Youngs Moduli (GPa) = 33.59965 72.16786 23.24075
#
# Poissons Ratio (x) = 0.75136 0.23479
# Poissons Ratio (y) = 0.34981 0.12490
# Poissons Ratio (z) = 0.33944 0.38783
#
# Static dielectric constant tensor:
#      x y z
#    x 3.073270 0.000000 0.159020 
#    y 0.000000 3.895660 0.000000 
#    z 0.159020 0.000000 3.370410 
# 
# 
# High freq. dielectric constant tensor:
#      x y z
#    x 1.687840 0.000000 0.017760 
#    y 0.000000 1.748990 0.000000 
#    z 0.017760 0.000000 1.721810 
# 
# From -- ./inp_files/94950.got.cif
#   From: 2010.06.25/outbox.cif.g09.slc.cpg/sg12_48_cif.got.tgz:94950.got - 2010.06.28 00:19:55.
