data_PCOD8088112
_publ_section_title
;
Structure prediction by ZEFSAII (Michael W. Deem and Ramdas Pophale) SiO2 
 PCOD8088112
Probable space group: C 2/M
;
_chemical_formula_sum "Si O2"
_cell_formula_units_Z 56
_cell_length_a 17.684893
_cell_length_b 9.936230
_cell_length_c 23.655948
_cell_angle_alpha 90.000000
_cell_angle_beta 40.205631
_cell_angle_gamma 90.000000
_cell_volume 2683.383281
_symmetry_space_group_name_H-M "C 2/M"
_symmetry_group_IT_number 12
_symmetry_cell_setting 'monoclinic'
loop_
_space_group_symop_operation_xyz
x,y,z
-x,y,-z
-x,-y,-z
x,-y,z
1/2+x,1/2+y,z
1/2-x,1/2+y,-z
1/2-x,1/2-y,-z
1/2+x,1/2-y,z
loop_
_atom_site_type_symbol
_atom_site_label
_atom_site_fract_x
_atom_site_fract_y
_atom_site_fract_z
Si Si1 0.199996 0.215081 0.284614
Si Si2 0.168237 0.848146 0.948254
Si Si3 0.577806 0.648489 0.873139
Si Si4 0.531241 0.851941 0.568816
Si Si5 0.638130 0.346836 0.195673
Si Si6 0.423048 0.844588 0.331549
Si Si7 0.178723 0.146351 0.419414
O O1 0.335591 0.260062 0.213121
O O2 0.178355 0.138257 0.238074
O O3 0.176774 0.125277 0.352899
O O4 0.107964 0.338736 0.339757
O O5 0.129686 0.857577 0.905902
O O6 0.268248 0.734667 0.896360
O O7 0.209096 0.000000 0.943327
O O8 0.056606 0.798533 0.049385
O O9 0.577460 0.500000 0.846728
O O10 0.599140 0.829774 0.588881
O O11 0.577291 0.747266 0.496340
O O12 0.555393 0.000000 0.530620
O O13 0.623534 0.500000 0.180872
O O14 0.519515 0.262335 0.256207
O O15 0.304468 0.800979 0.368164
O O16 0.459584 0.000000 0.296472
O O17 0.152516 0.000000 0.461402
#
# Coordination Sequence:
#
# PCOD8088112 Si02
#       7
#     8   8   8   8   8   8   8
#     4  10  20  33  51  77 108 136 166 206 255 305
#     4   8  14  27  49  75 102 134 170 206 245 294
#     4   8  14  27  48  74 103 135 170 206 246 294
#     4  10  21  36  55  77 100 131 173 217 256 296
#     4  10  19  32  52  79 107 134 166 207 254 302
#     4   9  20  38  56  73  97 134 176 214 251 297
#     4  11  23  37  53  74 103 137 171 209 257 308
#
# _framework density 20.869176
#
# number of rings (size 3 to 8) (size 9 to 14) (size 15 to 20)
#    0.000    2.571    0.000    3.000    0.000    9.143 
#    0.000    6.429    0.000    0.857    0.000    0.000 
#    0.000    0.000    0.000    0.000    0.000    0.000 
#
# Total GULP energy -346966.360001 kJ/mol
# GULP energy per Si atom -12391.655714 kJ/mol
# Density = 2.082168 g / cm^3
# Si number density = 20.869176 Si / 1000 Ang^3
#
#
#
# Elastic Constant Matrix: (Units=GPa)
#
#
# Indices 1 2 3 4 5 6 
#
# 1 47.9747 10.0887 19.2111 0.0000 -10.2601 0.0000
# 2 10.0887 134.5630 65.4637 0.0000 -22.5411 0.0000
# 3 19.2111 65.4637 115.3291 0.0000 -26.5936 0.0000
# 4 0.0000 0.0000 0.0000 22.9231 0.0000 -3.0174
# 5 -10.2601 -22.5411 -26.5936 0.0000 18.5547 0.0000
# 6 0.0000 0.0000 0.0000 -3.0174 0.0000 13.1032
#
#
#
# Elastic Compliance Matrix: (Units=1/GPa)
#
#
# Indices 1 2 3 4 5 6 
#
# 1 0.023902 0.001109 -0.001871 0.000000 0.011882 0.000000
# 2 0.001109 0.010811 -0.004707 0.000000 0.007000 0.000000
# 3 -0.001871 -0.004707 0.015081 0.000000 0.014863 0.000000
# 4 0.000000 0.000000 0.000000 0.044988 0.000000 0.010360
# 5 0.011882 0.007000 0.014863 0.000000 0.090271 0.000000
# 6 0.000000 0.000000 0.000000 0.010360 0.000000 0.078703
#
#
# Mechanical properties :
#
#
# Convention : Reuss Voigt Hill
#
# Bulk Modulus (GPa) = 25.73645 54.15487 39.94566
# Shear Modulus (GPa) = 17.38246 24.45642 20.91944
#
# Velocity S-wave (km/s) = 2.88917 3.42700 3.16952
# Velocity P-wave (km/s) = 4.84653 6.45486 5.70763
#
# Compressibility (1/GPa) = 0.03885540
#
# Stress axis : x y z
#
# Youngs Moduli (GPa) = 41.83831 92.49909 66.30652
#
# Poissons Ratio (x) = -0.10254 0.12405
# Poissons Ratio (y) = -0.04638 0.31211
# Poissons Ratio (z) = 0.07827 0.43540
#
# Static dielectric constant tensor:
#      x y z
#    x 3.470690 0.000000 -0.172550 
#    y 0.000000 3.630480 0.000000 
#    z -0.172550 0.000000 3.914960 
# 
# 
# High freq. dielectric constant tensor:
#      x y z
#    x 1.790630 0.000000 -0.015050 
#    y 0.000000 1.806220 0.000000 
#    z -0.015050 0.000000 1.813940 
# 
# From -- ./inp_files/365826.got.cif
#   From: 2010.06.25/outbox.cif.g09.slc.cpg/sg12_183_cif.got.tgz:365826.got - 2010.06.28 00:19:55.
