data_PCOD8088093
_publ_section_title
;
Structure prediction by ZEFSAII (Michael W. Deem and Ramdas Pophale) SiO2 
 PCOD8088093
Probable space group: C 2/M
;
_chemical_formula_sum "Si O2"
_cell_formula_units_Z 64
_cell_length_a 24.590347
_cell_length_b 8.533939
_cell_length_c 15.389187
_cell_angle_alpha 90.000000
_cell_angle_beta 86.754286
_cell_angle_gamma 90.000000
_cell_volume 3224.279344
_symmetry_space_group_name_H-M "C 2/M"
_symmetry_group_IT_number 12
_symmetry_cell_setting 'monoclinic'
loop_
_space_group_symop_operation_xyz
x,y,z
-x,y,-z
-x,-y,-z
x,-y,z
1/2+x,1/2+y,z
1/2-x,1/2+y,-z
1/2-x,1/2-y,-z
1/2+x,1/2-y,z
loop_
_atom_site_type_symbol
_atom_site_label
_atom_site_fract_x
_atom_site_fract_y
_atom_site_fract_z
Si Si1 0.727032 0.817616 0.622692
Si Si2 0.346845 0.814261 0.864943
Si Si3 0.162589 0.817635 0.476313
Si Si4 0.474582 0.817167 0.090191
Si Si5 0.852887 0.317200 0.061060
Si Si6 0.953395 0.686925 0.761194
Si Si7 0.267412 0.682773 0.194654
Si Si8 0.952781 0.685358 0.566999
O O1 0.788906 0.765373 0.593734
O O2 0.682611 0.722949 0.571259
O O3 0.714423 0.780470 0.723379
O O4 0.718908 0.000000 0.603580
O O5 0.395155 0.750072 0.800050
O O6 0.290565 0.750588 0.831495
O O7 0.347336 0.000000 0.866207
O O8 0.355062 0.754947 0.962390
O O9 0.107380 0.727002 0.460169
O O10 0.149986 0.000000 0.469916
O O11 0.410657 0.786169 0.100951
O O12 0.501214 0.746883 0.175779
O O13 0.489028 0.000000 0.086182
O O14 0.500000 0.740971 0.000000
O O15 0.836615 0.500000 0.067444
O O16 0.809589 0.211143 0.114024
O O17 0.954180 0.500000 0.758641
O O18 0.963123 0.753315 0.663220
O O19 0.264515 0.500000 0.218210
O O20 0.957333 0.500000 0.567968
O O21 0.000000 0.755455 0.500000
#
# Coordination Sequence:
#
# PCOD8088093 Si02
#       8
#     8   8   8   8   8   8   8   8
#     4  10  21  38  60  84 109 141 185 233 282 342
#     4   9  17  30  50  75 104 140 183 230 276 325
#     4  10  21  38  61  85 110 143 183 232 288 338
#     4   9  15  27  50  78 103 130 179 240 282 317
#     4  10  19  32  52  78 106 140 183 231 281 327
#     4   9  16  29  51  78 105 137 182 235 281 318
#     4  11  22  34  50  77 113 148 181 219 275 338
#     4  10  21  35  53  81 118 157 193 232 278 334
#
# _framework density 19.849397
#
# number of rings (size 3 to 8) (size 9 to 14) (size 15 to 20)
#    0.000    2.250    1.250    2.250    0.000    3.750 
#    0.000    3.125    0.000    1.875    0.000    0.000 
#    0.000    0.000    0.000    0.000    0.000    0.000 
#
# Total GULP energy -396801.414414 kJ/mol
# GULP energy per Si atom -12400.044200 kJ/mol
# Density = 1.980422 g / cm^3
# Si number density = 19.849397 Si / 1000 Ang^3
#
#
#
# Elastic Constant Matrix: (Units=GPa)
#
#
# Indices 1 2 3 4 5 6 
#
# 1 104.4065 11.3209 74.8458 0.0000 8.1407 0.0000
# 2 11.3209 16.9910 9.3076 0.0000 -2.8514 0.0000
# 3 74.8458 9.3076 166.9648 0.0000 -1.2086 0.0000
# 4 0.0000 0.0000 0.0000 18.4790 0.0000 -2.5903
# 5 8.1407 -2.8514 -1.2086 0.0000 31.5015 0.0000
# 6 0.0000 0.0000 0.0000 -2.5903 0.0000 23.5570
#
#
#
# Elastic Compliance Matrix: (Units=1/GPa)
#
#
# Indices 1 2 3 4 5 6 
#
# 1 0.015480 -0.007552 -0.006554 0.000000 -0.004935 0.000000
# 2 -0.007552 0.065314 -0.000199 0.000000 0.007856 0.000000
# 3 -0.006554 -0.000199 0.008953 0.000000 0.002019 0.000000
# 4 0.000000 0.000000 0.000000 0.054963 0.000000 0.006044
# 5 -0.004935 0.007856 0.002019 0.000000 0.033809 0.000000
# 6 0.000000 0.000000 0.000000 0.006044 0.000000 0.043115
#
#
# Mechanical properties :
#
#
# Convention : Reuss Voigt Hill
#
# Bulk Modulus (GPa) = 16.35672 53.25678 34.80675
# Shear Modulus (GPa) = 18.47600 27.56668 23.02134
#
# Velocity S-wave (km/s) = 3.05423 3.73069 3.40928
# Velocity P-wave (km/s) = 4.54929 6.74137 5.75074
#
# Compressibility (1/GPa) = 0.06113696
#
# Stress axis : x y z
#
# Youngs Moduli (GPa) = 64.59940 15.31074 111.69488
#
# Poissons Ratio (x) = 0.11563 0.73205
# Poissons Ratio (y) = 0.48786 0.02219
# Poissons Ratio (z) = 0.42338 0.00304
#
# Static dielectric constant tensor:
#      x y z
#    x 3.678100 0.000000 0.063180 
#    y 0.000000 3.099060 0.000000 
#    z 0.063180 0.000000 3.876880 
# 
# 
# High freq. dielectric constant tensor:
#      x y z
#    x 1.779290 0.000000 0.006130 
#    y 0.000000 1.728380 0.000000 
#    z 0.006130 0.000000 1.786100 
# 
# From -- ./inp_files/238669.got.cif
#   From: 2010.06.25/outbox.cif.g09.slc.cpg/sg12_120_cif.got.tgz:238669.got - 2010.06.28 00:19:55.
