data_PCOD8088586
_publ_section_title
;
Structure prediction by ZEFSAII (Michael W. Deem and Ramdas Pophale) SiO2 
 PCOD8088586
Probable space group: C 2/M
;
_chemical_formula_sum "Si O2"
_cell_formula_units_Z 64
_cell_length_a 11.164548
_cell_length_b 21.718453
_cell_length_c 14.952213
_cell_angle_alpha 90.000000
_cell_angle_beta 70.409811
_cell_angle_gamma 90.000000
_cell_volume 3415.697255
_symmetry_space_group_name_H-M "C 2/M"
_symmetry_group_IT_number 12
_symmetry_cell_setting 'monoclinic'
loop_
_space_group_symop_operation_xyz
x,y,z
-x,y,-z
-x,-y,-z
x,-y,z
1/2+x,1/2+y,z
1/2-x,1/2+y,-z
1/2-x,1/2-y,-z
1/2+x,1/2-y,z
loop_
_atom_site_type_symbol
_atom_site_label
_atom_site_fract_x
_atom_site_fract_y
_atom_site_fract_z
Si Si1 0.044480 0.787007 0.389345
Si Si2 0.775365 0.428623 0.694684
Si Si3 0.312289 0.209989 0.241615
Si Si4 0.490164 0.155059 0.333197
Si Si5 0.573480 0.335186 0.754762
Si Si6 0.365770 0.933580 0.485015
Si Si7 0.363318 0.815850 0.029588
Si Si8 0.398720 0.321597 0.956486
O O1 0.189585 0.806651 0.332413
O O2 0.031065 0.713426 0.382278
O O3 0.000000 0.806160 0.500000
O O4 0.955844 0.823915 0.342260
O O5 0.785673 0.500000 0.720433
O O6 0.893381 0.392071 0.709536
O O7 0.641391 0.400179 0.758701
O O8 0.767954 0.419328 0.589076
O O9 0.438377 0.177827 0.250779
O O10 0.328386 0.283377 0.236232
O O11 0.300159 0.189349 0.142773
O O12 0.371341 0.120298 0.410646
O O13 0.445013 0.332977 0.844069
O O14 0.500000 0.938343 0.500000
O O15 0.334143 0.000000 0.447598
O O16 0.247896 0.847428 0.000492
O O17 0.500000 0.852311 0.000000
O O18 0.396050 0.751255 0.974722
O O19 0.500000 0.352981 0.000000
#
# Coordination Sequence:
#
# PCOD8088586 Si02
#       8
#     8   8   8   8   8   8   8   8
#     4  11  23  34  49  79 124 162 180 217 287 358
#     4  10  20  35  56  78 107 147 199 245 278 320
#     4  11  21  33  51  84 116 150 182 227 285 358
#     4  10  20  30  52  76 113 145 193 230 281 331
#     4  11  21  34  55  80 115 149 188 232 282 350
#     4   8  15  30  49  71  99 143 197 245 272 305
#     4  10  19  33  53  79 114 150 185 224 289 347
#     4  10  19  32  54  79 111 149 182 232 289 337
#
# _framework density 18.737023000000001
#
# number of rings (size 3 to 8) (size 9 to 14) (size 15 to 20)
#    0.000    1.875    5.000    2.250    1.750    2.000 
#    0.000    0.000    0.000    2.250    0.000    0.000 
#    0.000    3.500    0.000    0.000    0.000    0.000 
#
# Total GULP energy -396442.337218 kJ/mol
# GULP energy per Si atom -12388.823038 kJ/mol
# Density = 1.869438 g / cm^3
# Si number density = 18.737023 Si / 1000 Ang^3
#
#
#
# Elastic Constant Matrix: (Units=GPa)
#
#
# Indices 1 2 3 4 5 6 
#
# 1 128.1054 32.4818 35.9455 0.0000 -11.0448 0.0000
# 2 32.4818 72.1232 20.8420 0.0000 1.3765 0.0000
# 3 35.9455 20.8420 88.8991 0.0000 -9.9911 0.0000
# 4 0.0000 0.0000 0.0000 -106.1243 0.0000 16.7295
# 5 -11.0448 1.3765 -9.9911 0.0000 28.8416 0.0000
# 6 0.0000 0.0000 0.0000 16.7295 0.0000 10.6118
#
#
#
# Elastic Compliance Matrix: (Units=1/GPa)
#
#
# Indices 1 2 3 4 5 6 
#
# 1 0.009762 -0.003656 -0.002758 0.000000 0.002957 0.000000
# 2 -0.003656 0.016353 -0.002706 0.000000 -0.003118 0.000000
# 3 -0.002758 -0.002706 0.013416 0.000000 0.003721 0.000000
# 4 0.000000 0.000000 0.000000 -0.007547 0.000000 0.011898
# 5 0.002957 -0.003118 0.003721 0.000000 0.037242 0.000000
# 6 0.000000 0.000000 0.000000 0.011898 0.000000 0.075477
#
#
# Mechanical properties :
#
#
# Convention : Reuss Voigt Hill
#
# Bulk Modulus (GPa) = 46.96594 51.96293 49.46444
# Shear Modulus (GPa) = 29.40485 -0.01028 14.69729
#
# Velocity S-wave (km/s) = 3.96579 -0.07415 2.80375
# Velocity P-wave (km/s) = 6.78898 5.27121 6.07766
#
# Compressibility (1/GPa) = 0.02129202
#
# Stress axis : x y z
#
# Youngs Moduli (GPa) = 102.44007 61.15015 74.53620
#
# Poissons Ratio (x) = 0.22356 0.20554
# Poissons Ratio (y) = 0.37452 0.20170
# Poissons Ratio (z) = 0.28249 0.16548
#
# Static dielectric constant tensor:
#      x y z
#    x 3.665310 0.000000 -0.113460 
#    y 0.000000 3.114910 0.000000 
#    z -0.113460 0.000000 3.514580 
# 
# 
# High freq. dielectric constant tensor:
#      x y z
#    x 1.730890 0.000000 -0.008550 
#    y 0.000000 1.669640 0.000000 
#    z -0.008550 0.000000 1.723670 
# 
# From -- ./inp_files/207681.got.cif
#   From: 2010.06.25/outbox.cif.g09.slc.cpg/sg12_104_cif.got.tgz:207681.got - 2010.06.28 00:19:55.
