data_PCOD8088958
_publ_section_title
;
Structure prediction by ZEFSAII (Michael W. Deem and Ramdas Pophale) SiO2 
 PCOD8088958
Probable space group: C 2/M
;
_chemical_formula_sum "Si O2"
_cell_formula_units_Z 56
_cell_length_a 26.368957
_cell_length_b 13.856346
_cell_length_c 8.967023
_cell_angle_alpha 90.000000
_cell_angle_beta 132.611793
_cell_angle_gamma 90.000000
_cell_volume 2411.253325
_symmetry_space_group_name_H-M "C 2/M"
_symmetry_group_IT_number 12
_symmetry_cell_setting 'monoclinic'
loop_
_space_group_symop_operation_xyz
x,y,z
-x,y,-z
-x,-y,-z
x,-y,z
1/2+x,1/2+y,z
1/2-x,1/2+y,-z
1/2-x,1/2-y,-z
1/2+x,1/2-y,z
loop_
_atom_site_type_symbol
_atom_site_label
_atom_site_fract_x
_atom_site_fract_y
_atom_site_fract_z
Si Si1 0.145140 0.309637 0.121321
Si Si2 0.109479 0.890766 0.013485
Si Si3 0.042819 0.108386 0.255232
Si Si4 0.401981 0.392446 0.333612
Si Si5 0.275457 0.703057 0.202364
Si Si6 0.117005 0.296613 0.384039
Si Si7 0.490490 0.114050 0.308775
O O1 0.213039 0.346194 0.170406
O O2 0.138740 0.353459 0.275915
O O3 0.157662 0.193272 0.173894
O O4 0.076486 0.334410 0.892775
O O5 0.096022 0.842100 0.822779
O O6 0.036586 0.893850 0.959384
O O7 0.141893 0.000000 0.080927
O O8 0.040532 0.137523 0.429364
O O9 0.088362 0.191454 0.270364
O O10 0.075614 0.000000 0.303235
O O11 0.415835 0.500000 0.311373
O O12 0.327996 0.381988 0.266673
O O13 0.316323 0.784770 0.378146
O O14 0.250000 0.750000 0.000000
O O15 0.058282 0.355831 0.352456
O O16 0.500000 0.145204 0.500000
O O17 0.479984 0.000000 0.273947
#
# Coordination Sequence:
#
# PCOD8088958 Si02
#       7
#     8   8   8   8   8   8   8
#     4  12  24  40  64  97 131 171 211 267 335 385
#     4  10  19  32  56  93 131 161 198 245 304 373
#     4   9  18  32  57  91 127 162 196 242 306 377
#     4   9  18  33  55  86 119 160 208 254 303 361
#     4  11  22  40  63  89 125 172 220 269 316 379
#     4  11  24  41  65  95 132 168 211 268 328 394
#     4  11  26  47  71  96 124 169 228 282 331 392
#
# _framework density 23.224437000000002
#
# number of rings (size 3 to 8) (size 9 to 14) (size 15 to 20)
#    0.000    1.571    2.857    2.143    2.000    4.000 
#    0.000    2.857    0.000    3.429    0.000    0.000 
#    0.000    0.000    0.000    0.000    0.000    0.000 
#
# Total GULP energy -346870.802917 kJ/mol
# GULP energy per Si atom -12388.242961 kJ/mol
# Density = 2.317158 g / cm^3
# Si number density = 23.224437 Si / 1000 Ang^3
#
#
#
# Elastic Constant Matrix: (Units=GPa)
#
#
# Indices 1 2 3 4 5 6 
#
# 1 145.1246 2.4799 30.9056 0.0000 -7.2530 0.0000
# 2 2.4799 55.5920 6.8180 0.0000 -2.6623 0.0000
# 3 30.9056 6.8180 105.4667 0.0000 -2.1721 0.0000
# 4 0.0000 0.0000 0.0000 17.9674 0.0000 1.4321
# 5 -7.2530 -2.6623 -2.1721 0.0000 34.8331 0.0000
# 6 0.0000 0.0000 0.0000 1.4321 0.0000 20.3665
#
#
#
# Elastic Compliance Matrix: (Units=1/GPa)
#
#
# Indices 1 2 3 4 5 6 
#
# 1 0.007418 0.000000 -0.002145 0.000000 0.001411 0.000000
# 2 0.000000 0.018192 -0.001149 0.000000 0.001319 0.000000
# 3 -0.002145 -0.001149 0.010186 0.000000 0.000101 0.000000
# 4 0.000000 0.000000 0.000000 0.055970 0.000000 -0.003936
# 5 0.001411 0.001319 0.000101 0.000000 0.029109 0.000000
# 6 0.000000 0.000000 0.000000 -0.003936 0.000000 0.049377
#
#
# Mechanical properties :
#
#
# Convention : Reuss Voigt Hill
#
# Bulk Modulus (GPa) = 34.23591 42.95447 38.59519
# Shear Modulus (GPa) = 26.79861 32.36538 29.58199
#
# Velocity S-wave (km/s) = 3.40059 3.73713 3.57283
# Velocity P-wave (km/s) = 5.49473 6.09566 5.80298
#
# Compressibility (1/GPa) = 0.02920909
#
# Stress axis : x y z
#
# Youngs Moduli (GPa) = 134.80977 54.96844 98.16954
#
# Poissons Ratio (x) = 0.00002 0.21054
# Poissons Ratio (y) = 0.00004 0.11278
# Poissons Ratio (z) = 0.28912 0.06315
#
# Static dielectric constant tensor:
#      x y z
#    x 4.373830 0.000000 -0.280330 
#    y 0.000000 3.982400 0.000000 
#    z -0.280330 0.000000 4.387040 
# 
# 
# High freq. dielectric constant tensor:
#      x y z
#    x 1.927500 0.000000 -0.031220 
#    y 0.000000 1.890060 0.000000 
#    z -0.031220 0.000000 1.929630 
# 
# From -- ./inp_files/96970.got.cif
#   From: 2010.06.25/outbox.cif.g09.slc.cpg/sg12_49_cif.got.tgz:96970.got - 2010.06.28 00:19:55.
