data_PCOD8088636
_publ_section_title
;
Structure prediction by ZEFSAII (Michael W. Deem and Ramdas Pophale) SiO2 
 PCOD8088636
Probable space group: C 2/M
;
_chemical_formula_sum "Si O2"
_cell_formula_units_Z 56
_cell_length_a 31.507449
_cell_length_b 8.900301
_cell_length_c 11.895863
_cell_angle_alpha 90.000000
_cell_angle_beta 116.982782
_cell_angle_gamma 90.000000
_cell_volume 2972.769577
_symmetry_space_group_name_H-M "C 2/M"
_symmetry_group_IT_number 12
_symmetry_cell_setting 'monoclinic'
loop_
_space_group_symop_operation_xyz
x,y,z
-x,y,-z
-x,-y,-z
x,-y,z
1/2+x,1/2+y,z
1/2-x,1/2+y,-z
1/2-x,1/2-y,-z
1/2+x,1/2-y,z
loop_
_atom_site_type_symbol
_atom_site_label
_atom_site_fract_x
_atom_site_fract_y
_atom_site_fract_z
Si Si1 0.519589 0.322681 0.310001
Si Si2 0.412459 0.321254 0.202405
Si Si3 0.451491 0.171065 0.875426
Si Si4 0.398184 0.678001 0.436133
Si Si5 0.632180 0.822294 0.062463
Si Si6 0.307496 0.676344 0.465007
Si Si7 0.290397 0.675338 0.698573
O O1 0.515857 0.500000 0.309365
O O2 0.466158 0.256396 0.251238
O O3 0.547010 0.275713 0.230832
O O4 0.551659 0.263171 0.452437
O O5 0.411447 0.500000 0.187891
O O6 0.393979 0.268968 0.302472
O O7 0.376934 0.248664 0.070268
O O8 0.409566 0.230904 0.904390
O O9 0.442516 0.000000 0.826796
O O10 0.500000 0.187580 0.000000
O O11 0.398070 0.500000 0.443131
O O12 0.353907 0.738446 0.456138
O O13 0.681714 0.763044 0.170760
O O14 0.633783 0.000000 0.051430
O O15 0.298484 0.500000 0.433931
O O16 0.313675 0.710386 0.604955
O O17 0.263536 0.768122 0.362280
O O18 0.291739 0.500000 0.727702
#
# Coordination Sequence:
#
# PCOD8088636 Si02
#       7
#     8   8   8   8   8   8   8
#     4  10  19  32  54  81 107 139 180 222 263 309
#     4  10  20  34  53  77 108 144 181 219 259 308
#     4  10  20  34  50  72 107 143 173 212 261 310
#     4   9  18  34  55  79 107 140 178 220 263 310
#     4  11  22  36  54  76 108 145 180 216 263 316
#     4   9  18  35  58  82 109 138 171 214 266 319
#     4  10  20  35  58  85 110 133 169 219 269 320
#
# _framework density 18.837651999999999
#
# number of rings (size 3 to 8) (size 9 to 14) (size 15 to 20)
#    0.000    2.143    1.429    2.143    0.000    4.857 
#    0.000    2.857    0.000    1.714    0.000    0.000 
#    0.000    0.000    0.000    0.000    0.000    0.000 
#
# Total GULP energy -347239.539064 kJ/mol
# GULP energy per Si atom -12401.412109 kJ/mol
# Density = 1.879478 g / cm^3
# Si number density = 18.837652 Si / 1000 Ang^3
#
#
#
# Elastic Constant Matrix: (Units=GPa)
#
#
# Indices 1 2 3 4 5 6 
#
# 1 76.4275 22.1637 58.0710 0.0000 -3.6235 0.0000
# 2 22.1637 36.6526 33.2324 0.0000 0.6748 0.0000
# 3 58.0710 33.2324 139.9679 0.0000 -2.0118 0.0000
# 4 0.0000 0.0000 0.0000 13.2589 0.0000 0.9002
# 5 -3.6235 0.6748 -2.0118 0.0000 25.3290 0.0000
# 6 0.0000 0.0000 0.0000 0.9002 0.0000 21.0682
#
#
#
# Elastic Compliance Matrix: (Units=1/GPa)
#
#
# Indices 1 2 3 4 5 6 
#
# 1 0.020198 -0.005982 -0.006924 0.000000 0.002499 0.000000
# 2 -0.005982 0.036603 -0.006242 0.000000 -0.002327 0.000000
# 3 -0.006924 -0.006242 0.011500 0.000000 0.000089 0.000000
# 4 0.000000 0.000000 0.000000 0.075641 0.000000 -0.003232
# 5 0.002499 -0.002327 0.000089 0.000000 0.039907 0.000000
# 6 0.000000 0.000000 0.000000 -0.003232 0.000000 0.047603
#
#
# Mechanical properties :
#
#
# Convention : Reuss Voigt Hill
#
# Bulk Modulus (GPa) = 33.32701 53.33137 43.32919
# Shear Modulus (GPa) = 17.87304 21.23660 19.55482
#
# Velocity S-wave (km/s) = 3.08359 3.36124 3.22541
# Velocity P-wave (km/s) = 5.51436 6.59063 6.07637
#
# Compressibility (1/GPa) = 0.03000569
#
# Stress axis : x y z
#
# Youngs Moduli (GPa) = 49.50876 27.32004 86.95311
#
# Poissons Ratio (x) = 0.16343 0.60205
# Poissons Ratio (y) = 0.29617 0.54277
# Poissons Ratio (z) = 0.34279 0.17054
#
# Static dielectric constant tensor:
#      x y z
#    x 3.536630 0.000000 0.009610 
#    y 0.000000 3.214660 0.000000 
#    z 0.009610 0.000000 3.522190 
# 
# 
# High freq. dielectric constant tensor:
#      x y z
#    x 1.726320 0.000000 0.004380 
#    y 0.000000 1.710680 0.000000 
#    z 0.004380 0.000000 1.739040 
# 
# From -- ./inp_files/187232.got.cif
#   From: 2010.06.25/outbox.cif.g09.slc.cpg/sg12_94_cif.got.tgz:187232.got - 2010.06.28 00:19:55.
