data_PCOD8088113
_publ_section_title
;
Structure prediction by ZEFSAII (Michael W. Deem and Ramdas Pophale) SiO2 
 PCOD8088113
Probable space group: C 2/M
;
_chemical_formula_sum "Si O2"
_cell_formula_units_Z 56
_cell_length_a 9.688932
_cell_length_b 18.411507
_cell_length_c 21.863611
_cell_angle_alpha 90.000000
_cell_angle_beta 130.985095
_cell_angle_gamma 90.000000
_cell_volume 2944.185601
_symmetry_space_group_name_H-M "C 2/M"
_symmetry_group_IT_number 12
_symmetry_cell_setting 'monoclinic'
loop_
_space_group_symop_operation_xyz
x,y,z
-x,y,-z
-x,-y,-z
x,-y,z
1/2+x,1/2+y,z
1/2-x,1/2+y,-z
1/2-x,1/2-y,-z
1/2+x,1/2-y,z
loop_
_atom_site_type_symbol
_atom_site_label
_atom_site_fract_x
_atom_site_fract_y
_atom_site_fract_z
Si Si1 0.766962 0.666338 0.190935
Si Si2 0.627029 0.663106 0.906343
Si Si3 0.056869 0.085957 0.644912
Si Si4 0.111507 0.586042 0.345319
Si Si5 0.257877 0.333613 0.195845
Si Si6 0.143697 0.330446 0.917112
Si Si7 0.849311 0.586260 0.504703
O O1 0.578002 0.630966 0.160212
O O2 0.792808 0.749003 0.221278
O O3 0.739630 0.662420 0.110137
O O4 0.938078 0.619991 0.261827
O O5 0.722992 0.650611 0.870172
O O6 0.604277 0.746380 0.920965
O O7 0.751342 0.628512 0.996680
O O8 0.201387 0.110722 0.634469
O O9 0.101114 0.120635 0.723193
O O10 0.854122 0.114253 0.569914
O O11 0.059914 0.000000 0.652792
O O12 0.093108 0.500000 0.337114
O O13 0.108902 0.613920 0.414555
O O14 0.056578 0.363822 0.153269
O O15 0.853611 0.500000 0.504164
O O16 0.000000 0.617036 0.500000
#
# Coordination Sequence:
#
# PCOD8088113 Si02
#       7
#     8   8   8   8   8   8   8
#     4  10  19  32  52  79 107 137 175 218 261 304
#     4   9  18  28  51  76 103 140 176 223 255 295
#     4  10  20  36  57  78 105 140 175 209 255 316
#     4  10  20  36  57  78 105 140 175 209 255 316
#     4  10  19  32  52  79 107 137 175 218 261 304
#     4   9  16  32  49  74 105 138 182 215 255 303
#     4   9  19  35  56  81 104 131 173 219 256 303
#
# _framework density 19.020538999999999
#
# number of rings (size 3 to 8) (size 9 to 14) (size 15 to 20)
#    0.000    2.429    1.429    1.286    2.000    5.143 
#    0.000    0.714    0.000    5.143    0.000    0.000 
#    0.000    0.000    0.000    0.000    0.000    0.000 
#
# Total GULP energy -347072.592791 kJ/mol
# GULP energy per Si atom -12395.449743 kJ/mol
# Density = 1.897725 g / cm^3
# Si number density = 19.020539 Si / 1000 Ang^3
#
#
#
# Elastic Constant Matrix: (Units=GPa)
#
#
# Indices 1 2 3 4 5 6 
#
# 1 100.1120 14.4767 41.6791 0.0001 6.0613 0.0000
# 2 14.4767 14.5354 22.0707 0.0000 0.5969 0.0000
# 3 41.6791 22.0707 126.1319 0.0001 1.5249 0.0000
# 4 0.0001 0.0000 0.0001 27.9322 0.0001 2.2401
# 5 6.0613 0.5969 1.5249 0.0001 37.9503 0.0000
# 6 0.0000 0.0000 0.0000 2.2401 0.0000 17.1628
#
#
#
# Elastic Compliance Matrix: (Units=1/GPa)
#
#
# Indices 1 2 3 4 5 6 
#
# 1 0.012383 -0.008281 -0.002622 0.000000 -0.001742 0.000000
# 2 -0.008281 0.099253 -0.014635 0.000000 0.000350 0.000000
# 3 -0.002622 -0.014635 0.011353 0.000000 0.000193 0.000000
# 4 0.000000 0.000000 0.000000 0.036180 0.000000 -0.004722
# 5 -0.001742 0.000350 0.000193 0.000000 0.026615 0.000000
# 6 0.000000 0.000000 0.000000 -0.004722 0.000000 0.058882
#
#
# Mechanical properties :
#
#
# Convention : Reuss Voigt Hill
#
# Bulk Modulus (GPa) = 13.90558 44.13693 29.02125
# Shear Modulus (GPa) = 15.63902 27.44590 21.54246
#
# Velocity S-wave (km/s) = 2.87054 3.80275 3.36905
# Velocity P-wave (km/s) = 4.27941 6.52200 5.51588
#
# Compressibility (1/GPa) = 0.07191360
#
# Stress axis : x y z
#
# Youngs Moduli (GPa) = 80.75394 10.07528 88.08116
#
# Poissons Ratio (x) = 0.08343 0.23094
# Poissons Ratio (y) = 0.66869 1.28909
# Poissons Ratio (z) = 0.21173 0.14745
#
# Static dielectric constant tensor:
#      x y z
#    x 3.707980 0.000000 0.097350 
#    y 0.000000 2.936730 0.000000 
#    z 0.097350 0.000000 3.568610 
# 
# 
# High freq. dielectric constant tensor:
#      x y z
#    x 1.758260 0.000000 0.003540 
#    y 0.000000 1.674250 0.000000 
#    z 0.003540 0.000000 1.753470 
# 
# From -- ./inp_files/301802.got.cif
#   From: 2010.06.25/outbox.cif.g09.slc.cpg/sg12_151_cif.got.tgz:301802.got - 2010.06.28 00:19:55.
