data_PCOD8088889
_publ_section_title
;
Structure prediction by ZEFSAII (Michael W. Deem and Ramdas Pophale) SiO2 
 PCOD8088889
Probable space group: C 2/M
;
_chemical_formula_sum "Si O2"
_cell_formula_units_Z 48
_cell_length_a 21.061644
_cell_length_b 20.334965
_cell_length_c 5.265890
_cell_angle_alpha 90.000000
_cell_angle_beta 93.207632
_cell_angle_gamma 90.000000
_cell_volume 2251.783050
_symmetry_space_group_name_H-M "C 2/M"
_symmetry_group_IT_number 12
_symmetry_cell_setting 'monoclinic'
loop_
_space_group_symop_operation_xyz
x,y,z
-x,y,-z
-x,-y,-z
x,-y,z
1/2+x,1/2+y,z
1/2-x,1/2+y,-z
1/2-x,1/2-y,-z
1/2+x,1/2-y,z
loop_
_atom_site_type_symbol
_atom_site_label
_atom_site_fract_x
_atom_site_fract_y
_atom_site_fract_z
Si Si1 0.962592 0.709328 0.242596
Si Si2 0.680117 0.176012 0.811796
Si Si3 0.905210 0.153303 0.207489
Si Si4 0.243470 0.927395 0.379111
Si Si5 0.267069 0.697024 0.275900
Si Si6 0.399683 0.426711 0.723047
O O1 0.894978 0.672818 0.223828
O O2 0.954709 0.787510 0.250396
O O3 0.000000 0.685074 0.500000
O O4 0.000000 0.687157 0.000000
O O5 0.704679 0.100656 0.808132
O O6 0.713131 0.227502 0.603578
O O7 0.706864 0.208048 0.076935
O O8 0.834854 0.182971 0.147885
O O9 0.911956 0.108281 0.458161
O O10 0.928707 0.112860 0.966048
O O11 0.244569 0.871437 0.588618
O O12 0.175213 0.932235 0.233857
O O13 0.263893 0.000000 0.484258
O O14 0.429310 0.500000 0.717725
#
# Coordination Sequence:
#
# PCOD8088889 Si02
#       6
#     8   8   8   8   8   8
#     4  11  25  41  61  85 110 153 204 255 298 338
#     4  10  20  36  60  83 120 151 195 248 297 357
#     4  10  19  36  57  82 120 151 192 243 292 353
#     4  10  20  32  54  90 129 157 185 232 298 374
#     4   9  19  33  56  90 115 154 189 241 309 354
#     4  10  19  32  55  88 123 156 185 225 294 367
#
# _framework density 21.316443
#
# number of rings (size 3 to 8) (size 9 to 14) (size 15 to 20)
#    0.000    2.000    1.667    2.000    2.333    1.333 
#    0.000    0.000    0.000   11.000    0.000    0.000 
#    0.000    0.000    0.000    0.000    0.000    0.000 
#
# Total GULP energy -297315.429224 kJ/mol
# GULP energy per Si atom -12388.142884 kJ/mol
# Density = 2.126793 g / cm^3
# Si number density = 21.316443 Si / 1000 Ang^3
#
#
#
# Elastic Constant Matrix: (Units=GPa)
#
#
# Indices 1 2 3 4 5 6 
#
# 1 63.4503 -5.4630 27.7608 0.0000 3.8035 0.0000
# 2 -5.4630 96.6987 28.6068 0.0000 -10.2909 0.0000
# 3 27.7608 28.6068 100.3756 0.0000 8.3025 0.0000
# 4 0.0000 0.0000 0.0000 17.7786 0.0000 2.1900
# 5 3.8035 -10.2909 8.3025 0.0000 18.9313 0.0000
# 6 0.0000 0.0000 0.0000 2.1900 0.0000 21.5035
#
#
#
# Elastic Compliance Matrix: (Units=1/GPa)
#
#
# Indices 1 2 3 4 5 6 
#
# 1 0.018607 0.002876 -0.006004 0.000000 0.000458 0.000000
# 2 0.002876 0.012981 -0.005220 0.000000 0.008768 0.000000
# 3 -0.006004 -0.005220 0.013744 0.000000 -0.007659 0.000000
# 4 0.000000 0.000000 0.000000 0.056962 0.000000 -0.005801
# 5 0.000458 0.008768 -0.007659 0.000000 0.060856 0.000000
# 6 0.000000 0.000000 0.000000 -0.005801 0.000000 0.047095
#
#
# Mechanical properties :
#
#
# Convention : Reuss Voigt Hill
#
# Bulk Modulus (GPa) = 34.91991 40.25931 37.58961
# Shear Modulus (GPa) = 21.14279 25.61736 23.38008
#
# Velocity S-wave (km/s) = 3.15279 3.47041 3.31540
# Velocity P-wave (km/s) = 5.44708 5.91488 5.68579
#
# Compressibility (1/GPa) = 0.02863696
#
# Stress axis : x y z
#
# Youngs Moduli (GPa) = 53.74238 77.03346 72.75723
#
# Poissons Ratio (x) = -0.22155 0.43682
# Poissons Ratio (y) = -0.15457 0.37982
# Poissons Ratio (z) = 0.32266 0.40214
#
# Static dielectric constant tensor:
#      x y z
#    x 3.881000 0.000000 -0.201760 
#    y 0.000000 4.358410 0.000000 
#    z -0.201760 0.000000 3.804910 
# 
# 
# High freq. dielectric constant tensor:
#      x y z
#    x 1.826010 0.000000 -0.006870 
#    y 0.000000 1.835330 0.000000 
#    z -0.006870 0.000000 1.832110 
# 
# From -- ./inp_files/20963.got.cif
#   From: 2010.06.25/outbox.cif.g09.slc.cpg/sg12_11_cif.got.tgz:20963.got - 2010.06.28 00:19:55.
