data_PCOD8088911
_publ_section_title
;
Structure prediction by ZEFSAII (Michael W. Deem and Ramdas Pophale) SiO2 
 PCOD8088911
Probable space group: C 2/M
;
_chemical_formula_sum "Si O2"
_cell_formula_units_Z 56
_cell_length_a 14.733075
_cell_length_b 8.668398
_cell_length_c 22.878760
_cell_angle_alpha 90.000000
_cell_angle_beta 112.744702
_cell_angle_gamma 90.000000
_cell_volume 2694.679624
_symmetry_space_group_name_H-M "C 2/M"
_symmetry_group_IT_number 12
_symmetry_cell_setting 'monoclinic'
loop_
_space_group_symop_operation_xyz
x,y,z
-x,y,-z
-x,-y,-z
x,-y,z
1/2+x,1/2+y,z
1/2-x,1/2+y,-z
1/2-x,1/2-y,-z
1/2+x,1/2-y,z
loop_
_atom_site_type_symbol
_atom_site_label
_atom_site_fract_x
_atom_site_fract_y
_atom_site_fract_z
Si Si1 0.902069 0.822056 0.279641
Si Si2 0.385994 0.320346 0.078221
Si Si3 0.181272 0.179465 0.059574
Si Si4 0.352205 0.315397 0.499466
Si Si5 0.692029 0.176932 0.179894
Si Si6 0.946334 0.318405 0.410152
Si Si7 0.963496 0.181245 0.791249
O O1 0.807341 0.789579 0.215936
O O2 0.901524 0.711955 0.335383
O O3 0.995248 0.780357 0.262550
O O4 0.904140 0.000000 0.300752
O O5 0.394893 0.500000 0.091534
O O6 0.279315 0.273837 0.073311
O O7 0.468230 0.244890 0.140191
O O8 0.397465 0.280099 0.011725
O O9 0.143226 0.226780 0.114154
O O10 0.205902 0.000000 0.063665
O O11 0.347825 0.500000 0.499114
O O12 0.250000 0.250000 0.500000
O O13 0.445203 0.257906 0.560762
O O14 0.371059 0.255207 0.438336
O O15 0.640453 0.232632 0.227071
O O16 0.671149 0.000000 0.162316
O O17 0.955139 0.500000 0.424408
O O18 0.948395 0.000000 0.794612
#
# Coordination Sequence:
#
# PCOD8088911 Si02
#       7
#     8   8   8   8   8   8   8
#     4  10  22  42  62  81 118 165 201 245 297 351
#     4   9  18  35  56  80 110 147 187 240 304 362
#     4  10  19  32  56  83 109 144 191 241 299 365
#     4  11  22  41  68  98 132 167 205 247 292 345
#     4  11  23  39  58  82 115 152 196 247 301 355
#     4  11  23  40  64  96 130 165 204 247 297 354
#     4  10  21  39  60  81 111 152 198 244 298 359
#
# _framework density 20.781690999999999
#
# number of rings (size 3 to 8) (size 9 to 14) (size 15 to 20)
#    0.000    1.714    1.429    4.286    0.000    4.571 
#    0.000    5.714    0.000    0.000    0.000    0.000 
#    0.000    0.000    0.000    0.000    0.000    0.000 
#
# Total GULP energy -347117.935786 kJ/mol
# GULP energy per Si atom -12397.069135 kJ/mol
# Density = 2.073439 g / cm^3
# Si number density = 20.781691 Si / 1000 Ang^3
#
#
#
# Elastic Constant Matrix: (Units=GPa)
#
#
# Indices 1 2 3 4 5 6 
#
# 1 99.4105 31.6240 17.8021 0.0000 -19.8005 0.0000
# 2 31.6240 66.4372 39.8574 0.0000 -5.0381 0.0000
# 3 17.8021 39.8574 97.8691 0.0000 -19.8662 0.0000
# 4 0.0000 0.0000 0.0000 29.2816 0.0000 -3.4409
# 5 -19.8005 -5.0381 -19.8662 0.0000 18.6344 0.0000
# 6 0.0000 0.0000 0.0000 -3.4409 0.0000 32.9249
#
#
#
# Elastic Compliance Matrix: (Units=1/GPa)
#
#
# Indices 1 2 3 4 5 6 
#
# 1 0.015953 -0.008934 0.004705 0.000000 0.019552 0.000000
# 2 -0.008934 0.025178 -0.011707 0.000000 -0.015167 0.000000
# 3 0.004705 -0.011707 0.018507 0.000000 0.021565 0.000000
# 4 0.000000 0.000000 0.000000 0.034576 0.000000 0.003613
# 5 0.019552 -0.015167 0.021565 0.000000 0.093330 0.000000
# 6 0.000000 0.000000 0.000000 0.003613 0.000000 0.030750
#
#
# Mechanical properties :
#
#
# Convention : Reuss Voigt Hill
#
# Bulk Modulus (GPa) = 36.01479 49.14264 42.57872
# Shear Modulus (GPa) = 19.27375 27.79707 23.53541
#
# Velocity S-wave (km/s) = 3.04869 3.66126 3.36892
# Velocity P-wave (km/s) = 5.45531 6.44759 5.97210
#
# Compressibility (1/GPa) = 0.02776637
#
# Stress axis : x y z
#
# Youngs Moduli (GPa) = 62.68371 39.71777 54.03344
#
# Poissons Ratio (x) = 0.35483 -0.25425
# Poissons Ratio (y) = 0.56000 0.63258
# Poissons Ratio (z) = -0.29495 0.46499
#
# Static dielectric constant tensor:
#      x y z
#    x 3.854370 0.000000 -0.036860 
#    y 0.000000 3.672100 0.000000 
#    z -0.036860 0.000000 3.881630 
# 
# 
# High freq. dielectric constant tensor:
#      x y z
#    x 1.813000 0.000000 -0.010470 
#    y 0.000000 1.809860 0.000000 
#    z -0.010470 0.000000 1.812990 
# 
# From -- ./inp_files/338153.got.cif
#   From: 2010.06.25/outbox.cif.g09.slc.cpg/sg12_170_cif.got.tgz:338153.got - 2010.06.28 00:19:55.
