data_PCOD8088097
_publ_section_title
;
Structure prediction by ZEFSAII (Michael W. Deem and Ramdas Pophale) SiO2 
 PCOD8088097
Probable space group: C 2/M
;
_chemical_formula_sum "Si O2"
_cell_formula_units_Z 56
_cell_length_a 30.641469
_cell_length_b 9.095180
_cell_length_c 14.846665
_cell_angle_alpha 90.000000
_cell_angle_beta 45.065285
_cell_angle_gamma 90.000000
_cell_volume 2929.065479
_symmetry_space_group_name_H-M "C 2/M"
_symmetry_group_IT_number 12
_symmetry_cell_setting 'monoclinic'
loop_
_space_group_symop_operation_xyz
x,y,z
-x,y,-z
-x,-y,-z
x,-y,z
1/2+x,1/2+y,z
1/2-x,1/2+y,-z
1/2-x,1/2-y,-z
1/2+x,1/2-y,z
loop_
_atom_site_type_symbol
_atom_site_label
_atom_site_fract_x
_atom_site_fract_y
_atom_site_fract_z
Si Si1 0.078794 0.170143 0.537444
Si Si2 0.101168 0.669740 0.329138
Si Si3 0.350530 0.673193 0.067301
Si Si4 0.241684 0.330844 0.104785
Si Si5 0.826539 0.329786 0.474767
Si Si6 0.682488 0.670567 0.692416
Si Si7 0.556937 0.669217 0.217797
O O1 0.065847 0.241083 0.458425
O O2 0.134441 0.250264 0.505585
O O3 0.016202 0.190677 0.685941
O O4 0.095722 0.000000 0.500261
O O5 0.081142 0.500000 0.362630
O O6 0.173536 0.689604 0.243170
O O7 0.084792 0.731101 0.255362
O O8 0.342335 0.500000 0.087077
O O9 0.290210 0.737305 0.104945
O O10 0.352424 0.731553 0.167375
O O11 0.412035 0.716882 0.922383
O O12 0.257077 0.500000 0.063780
O O13 0.250000 0.250000 0.000000
O O14 0.844381 0.500000 0.449203
O O15 0.755134 0.304090 0.601058
O O16 0.843382 0.263535 0.353012
O O17 0.668397 0.500000 0.693034
O O18 0.573353 0.500000 0.216327
#
# Coordination Sequence:
#
# PCOD8088097 Si02
#       7
#     8   8   8   8   8   8   8
#     4  11  23  37  55  78 105 144 190 227 264 320
#     4  11  22  35  54  81 110 143 182 226 277 324
#     4   9  17  33  56  78 106 141 177 221 266 312
#     4  10  19  32  52  78 108 140 175 216 265 316
#     4  10  20  36  58  84 112 137 170 222 276 324
#     4   9  18  35  60  85 108 137 173 216 271 331
#     4  10  21  37  55  76 106 146 189 226 264 317
#
# _framework density 19.118725999999999
#
# number of rings (size 3 to 8) (size 9 to 14) (size 15 to 20)
#    0.000    2.000    1.429    2.571    0.000    6.286 
#    0.000    2.143    0.000    4.286    0.000    0.000 
#    0.000    0.000    0.000    0.000    0.000    0.000 
#
# Total GULP energy -347234.803266 kJ/mol
# GULP energy per Si atom -12401.242974 kJ/mol
# Density = 1.907521 g / cm^3
# Si number density = 19.118726 Si / 1000 Ang^3
#
#
#
# Elastic Constant Matrix: (Units=GPa)
#
#
# Indices 1 2 3 4 5 6 
#
# 1 48.9629 33.6160 26.3904 0.0000 15.7980 0.0000
# 2 33.6160 92.6746 43.1133 0.0000 9.6900 -0.0001
# 3 26.3904 43.1133 121.0793 0.0000 24.0036 0.0000
# 4 0.0000 0.0000 0.0000 22.8519 0.0000 6.6116
# 5 15.7980 9.6900 24.0036 0.0000 34.2685 0.0000
# 6 0.0000 -0.0001 0.0000 6.6116 0.0000 31.0967
#
#
#
# Elastic Compliance Matrix: (Units=1/GPa)
#
#
# Indices 1 2 3 4 5 6 
#
# 1 0.031161 -0.009601 -0.001235 0.000000 -0.010785 0.000000
# 2 -0.009601 0.015898 -0.004128 0.000000 0.002822 0.000000
# 3 -0.001235 -0.004128 0.011211 0.000000 -0.006116 0.000000
# 4 0.000000 0.000000 0.000000 0.046628 0.000000 -0.009914
# 5 -0.010785 0.002822 -0.006116 0.000000 0.037639 0.000000
# 6 0.000000 0.000000 0.000000 -0.009914 0.000000 0.034266
#
#
# Mechanical properties :
#
#
# Convention : Reuss Voigt Hill
#
# Bulk Modulus (GPa) = 35.28292 52.10626 43.69459
# Shear Modulus (GPa) = 23.12917 28.28323 25.70620
#
# Velocity S-wave (km/s) = 3.48194 3.85040 3.67080
# Velocity P-wave (km/s) = 5.88727 6.86153 6.39299
#
# Compressibility (1/GPa) = 0.02834233
#
# Stress axis : x y z
#
# Youngs Moduli (GPa) = 32.09169 62.90033 89.20207
#
# Poissons Ratio (x) = 0.60389 0.11017
# Poissons Ratio (y) = 0.30810 0.36821
# Poissons Ratio (z) = 0.03963 0.25964
#
# Static dielectric constant tensor:
#      x y z
#    x 3.409890 0.000000 0.027460 
#    y 0.000000 3.442320 0.000000 
#    z 0.027460 0.000000 3.758330 
# 
# 
# High freq. dielectric constant tensor:
#      x y z
#    x 1.732580 0.000000 0.004780 
#    y 0.000000 1.730950 0.000000 
#    z 0.004780 0.000000 1.752020 
# 
# From -- ./inp_files/237427.got.cif
#   From: 2010.06.25/outbox.cif.g09.slc.cpg/sg12_119_cif.got.tgz:237427.got - 2010.06.28 00:19:55.
