data_PCOD8088014
_publ_section_title
;
Structure prediction by ZEFSAII (Michael W. Deem and Ramdas Pophale) SiO2 
 PCOD8088014
Probable space group: C 2/M
;
_chemical_formula_sum "Si O2"
_cell_formula_units_Z 48
_cell_length_a 28.781379
_cell_length_b 9.647448
_cell_length_c 10.178235
_cell_angle_alpha 90.000000
_cell_angle_beta 80.339413
_cell_angle_gamma 90.000000
_cell_volume 2786.081159
_symmetry_space_group_name_H-M "C 2/M"
_symmetry_group_IT_number 12
_symmetry_cell_setting 'monoclinic'
loop_
_space_group_symop_operation_xyz
x,y,z
-x,y,-z
-x,-y,-z
x,-y,z
1/2+x,1/2+y,z
1/2-x,1/2+y,-z
1/2-x,1/2-y,-z
1/2+x,1/2-y,z
loop_
_atom_site_type_symbol
_atom_site_label
_atom_site_fract_x
_atom_site_fract_y
_atom_site_fract_z
Si Si1 0.889440 0.160029 0.832521
Si Si2 0.888520 0.841333 0.531234
Si Si3 0.281069 0.661386 0.886622
Si Si4 0.032168 0.661194 0.607113
Si Si5 0.779833 0.840093 0.585737
Si Si6 0.471379 0.838740 0.884549
O O1 0.898327 0.199770 0.677064
O O2 0.835465 0.190593 0.895436
O O3 0.922755 0.253807 0.907414
O O4 0.901629 0.000000 0.851832
O O5 0.919167 0.745266 0.421288
O O6 0.834147 0.816848 0.523101
O O7 0.902737 0.000000 0.499684
O O8 0.269324 0.500000 0.911723
O O9 0.270427 0.705190 0.741045
O O10 0.250000 0.750000 0.000000
O O11 0.045272 0.500000 0.601853
O O12 0.000000 0.702088 0.500000
O O13 0.004377 0.706700 0.749247
O O14 0.750000 0.750000 0.500000
O O15 0.765819 0.000000 0.574319
O O16 0.458025 0.000000 0.883709
O O17 0.500000 0.800417 0.000000
#
# Coordination Sequence:
#
# PCOD8088014 Si02
#       6
#     8   8   8   8   8   8
#     4   9  18  34  55  76 101 133 171 212 252 301
#     4   9  18  33  54  78 102 132 170 211 254 299
#     4   9  19  36  56  79 105 135 175 218 259 309
#     4  10  19  32  52  77 101 129 171 212 244 298
#     4   9  19  36  55  78 108 138 171 214 262 311
#     4  10  21  36  51  72 105 138 167 206 256 302
#
# _framework density 17.2285
#
# number of rings (size 3 to 8) (size 9 to 14) (size 15 to 20)
#    0.000    2.667    1.667    2.000    0.000    3.333 
#    3.000    3.333    0.000    0.000    0.000    0.000 
#    0.000    0.000    0.000    0.000    0.000    0.000 
#
# Total GULP energy -297617.621869 kJ/mol
# GULP energy per Si atom -12400.734245 kJ/mol
# Density = 1.718929 g / cm^3
# Si number density = 17.228500 Si / 1000 Ang^3
#
#
#
# Elastic Constant Matrix: (Units=GPa)
#
#
# Indices 1 2 3 4 5 6 
#
# 1 108.8710 68.8718 63.7142 0.0000 1.9881 0.0000
# 2 68.8718 75.0032 52.3729 0.0000 -1.1211 0.0000
# 3 63.7142 52.3729 107.7612 0.0000 -1.4212 0.0000
# 4 0.0000 0.0000 0.0000 24.5788 0.0000 -5.4567
# 5 1.9881 -1.1211 -1.4212 0.0000 26.4382 0.0000
# 6 0.0000 0.0000 0.0000 -5.4567 0.0000 39.5461
#
#
#
# Elastic Compliance Matrix: (Units=1/GPa)
#
#
# Indices 1 2 3 4 5 6 
#
# 1 0.023910 -0.018316 -0.005273 0.000000 -0.002858 0.000000
# 2 -0.018316 0.034216 -0.005766 0.000000 0.002518 0.000000
# 3 -0.005273 -0.005766 0.015213 0.000000 0.000970 0.000000
# 4 0.000000 0.000000 0.000000 0.041971 0.000000 0.005791
# 5 -0.002858 0.002518 0.000970 0.000000 0.038198 0.000000
# 6 0.000000 0.000000 0.000000 0.005791 0.000000 0.026086
#
#
# Mechanical properties :
#
#
# Convention : Reuss Voigt Hill
#
# Bulk Modulus (GPa) = 68.36362 73.50592 70.93477
# Shear Modulus (GPa) = 20.56083 25.22438 22.89261
#
# Velocity S-wave (km/s) = 3.45834 3.83052 3.64918
# Velocity P-wave (km/s) = 7.46415 7.89441 7.68229
#
# Compressibility (1/GPa) = 0.01462766
#
# Stress axis : x y z
#
# Youngs Moduli (GPa) = 41.82344 29.22601 65.73505
#
# Poissons Ratio (x) = 0.53532 0.34660
# Poissons Ratio (y) = 0.76606 0.37906
# Poissons Ratio (z) = 0.22052 0.16853
#
# Static dielectric constant tensor:
#      x y z
#    x 3.134550 0.000000 -0.032690 
#    y 0.000000 3.106330 0.000000 
#    z -0.032690 0.000000 3.181090 
# 
# 
# High freq. dielectric constant tensor:
#      x y z
#    x 1.666240 0.000000 -0.004550 
#    y 0.000000 1.663390 0.000000 
#    z -0.004550 0.000000 1.656430 
# 
# From -- ./inp_files/172081.got.cif
#   From: 2010.06.25/outbox.cif.g09.slc.cpg/sg12_87_cif.got.tgz:172081.got - 2010.06.28 00:19:55.
