data_PCOD8088610
_publ_section_title
;
Structure prediction by ZEFSAII (Michael W. Deem and Ramdas Pophale) SiO2 
 PCOD8088610
Probable space group: C 2/M
;
_chemical_formula_sum "Si O2"
_cell_formula_units_Z 52
_cell_length_a 29.135776
_cell_length_b 18.472230
_cell_length_c 6.284782
_cell_angle_alpha 90.000000
_cell_angle_beta 52.349116
_cell_angle_gamma 90.000000
_cell_volume 2678.075500
_symmetry_space_group_name_H-M "C 2/M"
_symmetry_group_IT_number 12
_symmetry_cell_setting 'monoclinic'
loop_
_space_group_symop_operation_xyz
x,y,z
-x,y,-z
-x,-y,-z
x,-y,z
1/2+x,1/2+y,z
1/2-x,1/2+y,-z
1/2-x,1/2-y,-z
1/2+x,1/2-y,z
loop_
_atom_site_type_symbol
_atom_site_label
_atom_site_fract_x
_atom_site_fract_y
_atom_site_fract_z
Si Si1 0.000000 0.634060 0.500000
Si Si2 0.744628 0.837530 0.179580
Si Si3 0.294037 0.579271 0.422679
Si Si4 0.329664 0.293255 0.581229
Si Si5 0.316266 0.079413 0.990639
Si Si6 0.441545 0.797770 0.288812
Si Si7 0.591432 0.917983 0.936621
O O1 0.955192 0.684119 0.495800
O O2 0.967972 0.583685 0.761547
O O3 0.762905 0.898807 0.292661
O O4 0.716126 0.767412 0.375270
O O5 0.802708 0.818502 0.883067
O O6 0.690544 0.867375 0.190592
O O7 0.324549 0.500000 0.304443
O O8 0.336393 0.642507 0.387261
O O9 0.247383 0.570097 0.738077
O O10 0.395276 0.266695 0.423273
O O11 0.357948 0.112786 0.053450
O O12 0.340272 0.000000 0.853019
O O13 0.413381 0.868088 0.256384
O O14 0.500000 0.772883 0.000000
O O15 0.604204 0.000000 0.826250
#
# Coordination Sequence:
#
# PCOD8088610 Si02
#       7
#     4   8   8   8   8   8   8
#     4  10  21  34  50  72  99 136 184 222 253 292
#     4  10  19  32  54  80 109 140 169 209 252 301
#     4  10  20  34  54  79 107 137 168 207 258 312
#     4  10  21  35  53  79 106 135 172 212 257 308
#     4   9  18  31  48  75 109 142 175 205 242 299
#     4  10  22  37  54  74 101 136 176 220 262 306
#     4  10  20  33  50  73 105 143 179 214 250 293
#
# _framework density 19.416927999999999
#
# number of rings (size 3 to 8) (size 9 to 14) (size 15 to 20)
#    0.000    2.154    0.000    3.000    0.000    8.923 
#    0.000    3.846    0.000    1.385    0.000    1.615 
#    0.000    0.000    0.000    0.000    0.000    0.000 
#
# Total GULP energy -322281.606359 kJ/mol
# GULP energy per Si atom -12395.446398 kJ/mol
# Density = 1.937273 g / cm^3
# Si number density = 19.416928 Si / 1000 Ang^3
#
#
#
# Elastic Constant Matrix: (Units=GPa)
#
#
# Indices 1 2 3 4 5 6 
#
# 1 126.3819 70.3036 22.5468 0.0000 10.1088 0.0000
# 2 70.3036 124.6984 29.5428 0.0000 9.3649 0.0000
# 3 22.5468 29.5428 43.2461 0.0000 0.1401 0.0000
# 4 0.0000 0.0000 0.0000 15.4619 0.0000 -6.6508
# 5 10.1088 9.3649 0.1401 0.0000 29.4439 0.0000
# 6 0.0000 0.0000 0.0000 -6.6508 0.0000 28.6029
#
#
#
# Elastic Compliance Matrix: (Units=1/GPa)
#
#
# Indices 1 2 3 4 5 6 
#
# 1 0.011785 -0.006002 -0.002037 0.000000 -0.002127 0.000000
# 2 -0.006002 0.012899 -0.005676 0.000000 -0.002015 0.000000
# 3 -0.002037 -0.005676 0.028056 0.000000 0.002371 0.000000
# 4 0.000000 0.000000 0.000000 0.071863 0.000000 0.016710
# 5 -0.002127 -0.002015 0.002371 0.000000 0.035323 0.000000
# 6 0.000000 0.000000 0.000000 0.016710 0.000000 0.038847
#
#
# Mechanical properties :
#
#
# Convention : Reuss Voigt Hill
#
# Bulk Modulus (GPa) = 39.51151 59.90141 49.70646
# Shear Modulus (GPa) = 21.30935 26.16396 23.73665
#
# Velocity S-wave (km/s) = 3.31639 3.67479 3.50018
# Velocity P-wave (km/s) = 5.92096 6.99446 6.47998
#
# Compressibility (1/GPa) = 0.02530908
#
# Stress axis : x y z
#
# Youngs Moduli (GPa) = 84.85539 77.52438 35.64351
#
# Poissons Ratio (x) = 0.46528 0.07261
# Poissons Ratio (y) = 0.50928 0.20232
# Poissons Ratio (z) = 0.17287 0.44005
#
# Static dielectric constant tensor:
#      x y z
#    x 3.501430 0.000000 0.068810 
#    y 0.000000 3.876340 0.000000 
#    z 0.068810 0.000000 3.409570 
# 
# 
# High freq. dielectric constant tensor:
#      x y z
#    x 1.746600 0.000000 0.014110 
#    y 0.000000 1.743340 0.000000 
#    z 0.014110 0.000000 1.743610 
# 
# From -- ./inp_files/29291.got.cif
#   From: 2010.06.25/outbox.cif.g09.slc.cpg/sg12_15_cif.got.tgz:29291.got - 2010.06.28 00:19:55.
