data_PCOD8088217
_publ_section_title
;
Structure prediction by ZEFSAII (Michael W. Deem and Ramdas Pophale) SiO2 
 PCOD8088217
Probable space group: C 2/M
;
_chemical_formula_sum "Si O2"
_cell_formula_units_Z 64
_cell_length_a 9.067475
_cell_length_b 28.971769
_cell_length_c 18.126605
_cell_angle_alpha 90.000000
_cell_angle_beta 41.260230
_cell_angle_gamma 90.000000
_cell_volume 3140.360525
_symmetry_space_group_name_H-M "C 2/M"
_symmetry_group_IT_number 12
_symmetry_cell_setting 'monoclinic'
loop_
_space_group_symop_operation_xyz
x,y,z
-x,y,-z
-x,-y,-z
x,-y,z
1/2+x,1/2+y,z
1/2-x,1/2+y,-z
1/2-x,1/2-y,-z
1/2+x,1/2-y,z
loop_
_atom_site_type_symbol
_atom_site_label
_atom_site_fract_x
_atom_site_fract_y
_atom_site_fract_z
Si Si1 0.889165 0.194791 0.683734
Si Si2 0.206259 0.397054 0.310091
Si Si3 0.305717 0.052029 0.419546
Si Si4 0.027851 0.948049 0.670803
Si Si5 0.663263 0.900081 0.741048
Si Si6 0.509519 0.228141 0.727347
Si Si7 0.277211 0.358952 0.130208
Si Si8 0.901041 0.311954 0.462498
O O1 0.760700 0.146987 0.736601
O O2 0.741009 0.227527 0.684973
O O3 0.905753 0.219835 0.759120
O O4 0.135237 0.181831 0.563139
O O5 0.388805 0.410422 0.301909
O O6 0.334214 0.376294 0.191077
O O7 0.065440 0.443225 0.344983
O O8 0.023111 0.361067 0.408495
O O9 0.148283 0.061940 0.548108
O O10 0.256804 0.089249 0.373262
O O11 0.266352 0.000000 0.404572
O O12 0.761383 0.939985 0.757498
O O13 0.069003 0.000000 0.683434
O O14 0.394163 0.895616 0.843118
O O15 0.332947 0.191831 0.826631
O O16 0.553385 0.220502 0.623896
O O17 0.500000 0.356543 0.000000
O O18 0.000000 0.288751 0.500000
#
# Coordination Sequence:
#
# PCOD8088217 Si02
#       8
#     8   8   8   8   8   8   8   8
#     4  11  21  35  53  79 115 145 180 225 274 336
#     4  10  20  33  56  85 114 152 192 231 279 333
#     4  10  19  32  52  82 121 159 189 217 264 336
#     4  11  21  34  56  89 126 154 183 231 283 336
#     4  10  21  35  56  82 110 151 192 228 276 337
#     4  10  22  36  55  82 109 146 186 227 281 337
#     4   9  21  43  64  79 104 145 196 247 288 338
#     4  11  20  32  52  79 117 154 181 212 264 337
#
# _framework density 20.379826000000001
#
# number of rings (size 3 to 8) (size 9 to 14) (size 15 to 20)
#    0.000    1.750    0.000    6.000    0.000    6.000 
#    0.000    3.125    0.000   14.250    0.000    0.000 
#    0.000    0.000    0.000    0.000    0.000    0.000 
#
# Total GULP energy -396513.173409 kJ/mol
# GULP energy per Si atom -12391.036669 kJ/mol
# Density = 2.033344 g / cm^3
# Si number density = 20.379826 Si / 1000 Ang^3
#
#
#
# Elastic Constant Matrix: (Units=GPa)
#
#
# Indices 1 2 3 4 5 6 
#
# 1 129.0348 29.2278 43.4289 0.0000 -16.8976 0.0000
# 2 29.2278 66.4344 25.8346 0.0000 -0.1079 0.0000
# 3 43.4289 25.8346 106.9665 0.0000 -14.8644 0.0000
# 4 0.0000 0.0000 0.0000 13.7046 0.0000 1.4767
# 5 -16.8976 -0.1079 -14.8644 0.0000 11.6096 0.0000
# 6 0.0000 0.0000 0.0000 1.4767 0.0000 41.6577
#
#
#
# Elastic Compliance Matrix: (Units=1/GPa)
#
#
# Indices 1 2 3 4 5 6 
#
# 1 0.011075 -0.004267 -0.001498 0.000000 0.014162 0.000000
# 2 -0.004267 0.018615 -0.004382 0.000000 -0.011648 0.000000
# 3 -0.001498 -0.004382 0.013024 0.000000 0.014454 0.000000
# 4 0.000000 0.000000 0.000000 0.073248 0.000000 -0.002596
# 5 0.014162 -0.011648 0.014454 0.000000 0.125146 0.000000
# 6 0.000000 0.000000 0.000000 -0.002596 0.000000 0.024097
#
#
# Mechanical properties :
#
#
# Convention : Reuss Voigt Hill
#
# Bulk Modulus (GPa) = 44.60368 55.49094 50.04731
# Shear Modulus (GPa) = 17.06644 26.99067 22.02856
#
# Velocity S-wave (km/s) = 2.89696 3.64315 3.29127
# Velocity P-wave (km/s) = 5.75530 6.70703 6.24931
#
# Compressibility (1/GPa) = 0.02241968
#
# Stress axis : x y z
#
# Youngs Moduli (GPa) = 90.29250 53.72049 76.78198
#
# Poissons Ratio (x) = 0.22922 0.11502
# Poissons Ratio (y) = 0.38528 0.33647
# Poissons Ratio (z) = 0.13526 0.23541
#
# Static dielectric constant tensor:
#      x y z
#    x 4.158810 0.000000 -0.115690 
#    y 0.000000 3.888170 0.000000 
#    z -0.115690 0.000000 3.096870 
# 
# 
# High freq. dielectric constant tensor:
#      x y z
#    x 1.822600 0.000000 -0.014020 
#    y 0.000000 1.806790 0.000000 
#    z -0.014020 0.000000 1.725720 
# 
# From -- ./inp_files/260329.got.cif
#   From: 2010.06.25/outbox.cif.g09.slc.cpg/sg12_131_cif.got.tgz:260329.got - 2010.06.28 00:19:55.
