data_PCOD8088017
_publ_section_title
;
Structure prediction by ZEFSAII (Michael W. Deem and Ramdas Pophale) SiO2 
 PCOD8088017
Probable space group: C 2/M
;
_chemical_formula_sum "Si O2"
_cell_formula_units_Z 48
_cell_length_a 25.257595
_cell_length_b 9.182234
_cell_length_c 11.783938
_cell_angle_alpha 90.000000
_cell_angle_beta 89.533744
_cell_angle_gamma 90.000000
_cell_volume 2732.853934
_symmetry_space_group_name_H-M "C 2/M"
_symmetry_group_IT_number 12
_symmetry_cell_setting 'monoclinic'
loop_
_space_group_symop_operation_xyz
x,y,z
-x,y,-z
-x,-y,-z
x,-y,z
1/2+x,1/2+y,z
1/2-x,1/2+y,-z
1/2-x,1/2-y,-z
1/2+x,1/2-y,z
loop_
_atom_site_type_symbol
_atom_site_label
_atom_site_fract_x
_atom_site_fract_y
_atom_site_fract_z
Si Si1 0.938379 0.328743 0.510433
Si Si2 0.691750 0.667746 0.113336
Si Si3 0.594376 0.669616 0.265668
Si Si4 0.188787 0.328625 0.886434
Si Si5 0.404159 0.827460 0.267294
Si Si6 0.993606 0.330802 0.867670
O O1 0.931718 0.500000 0.531751
O O2 0.910989 0.244579 0.612984
O O3 0.908679 0.274888 0.397102
O O4 0.000000 0.287547 0.500000
O O5 0.690596 0.500000 0.075948
O O6 0.654172 0.696471 0.221387
O O7 0.751253 0.714598 0.147782
O O8 0.671889 0.759405 0.006203
O O9 0.581298 0.500000 0.277965
O O10 0.555810 0.738814 0.173894
O O11 0.181383 0.500000 0.900520
O O12 0.149994 0.268310 0.788357
O O13 0.454272 0.769759 0.195497
O O14 0.405183 0.000000 0.264053
O O15 0.983725 0.500000 0.838462
O O16 0.000000 0.304953 0.000000
#
# Coordination Sequence:
#
# PCOD8088017 Si02
#       6
#     8   8   8   8   8   8
#     4  10  19  35  55  72  98 133 173 218 253 290
#     4   9  19  34  51  75 107 136 162 203 253 300
#     4  11  22  34  49  73 107 139 168 201 251 311
#     4   9  17  33  57  78  98 130 171 208 249 301
#     4   9  17  31  52  77  98 124 167 216 257 287
#     4  10  19  32  52  77 102 128 166 213 255 299
#
# _framework density 17.564056000000001
#
# number of rings (size 3 to 8) (size 9 to 14) (size 15 to 20)
#    0.000    2.333    1.667    1.500    0.000    3.333 
#    0.000    2.500    0.000    0.000    0.000    0.000 
#    0.000    0.000    0.000    0.000    0.000    0.000 
#
# Total GULP energy -297609.797647 kJ/mol
# GULP energy per Si atom -12400.408235 kJ/mol
# Density = 1.752408 g / cm^3
# Si number density = 17.564056 Si / 1000 Ang^3
#
#
#
# Elastic Constant Matrix: (Units=GPa)
#
#
# Indices 1 2 3 4 5 6 
#
# 1 105.8061 36.8572 69.2030 0.0000 1.8135 0.0000
# 2 36.8572 46.5411 46.2132 0.0000 -4.7129 0.0000
# 3 69.2030 46.2132 135.2694 0.0000 -2.4311 0.0000
# 4 0.0000 0.0000 0.0000 25.4306 0.0000 -2.6776
# 5 1.8135 -4.7129 -2.4311 0.0000 31.8544 0.0000
# 6 0.0000 0.0000 0.0000 -2.6776 0.0000 21.1018
#
#
#
# Elastic Compliance Matrix: (Units=1/GPa)
#
#
# Indices 1 2 3 4 5 6 
#
# 1 0.015622 -0.007011 -0.005640 0.000000 -0.002357 0.000000
# 2 -0.007011 0.036172 -0.008680 0.000000 0.005088 0.000000
# 3 -0.005640 -0.008680 0.013244 0.000000 0.000048 0.000000
# 4 0.000000 0.000000 0.000000 0.039855 0.000000 0.005057
# 5 -0.002357 0.005088 0.000048 0.000000 0.032284 0.000000
# 6 0.000000 0.000000 0.000000 0.005057 0.000000 0.048031
#
#
# Mechanical properties :
#
#
# Convention : Reuss Voigt Hill
#
# Bulk Modulus (GPa) = 44.68545 65.79593 55.24069
# Shear Modulus (GPa) = 21.24696 24.70024 22.97360
#
# Velocity S-wave (km/s) = 3.48182 3.75413 3.62054
# Velocity P-wave (km/s) = 6.45452 7.50554 6.99978
#
# Compressibility (1/GPa) = 0.02237865
#
# Stress axis : x y z
#
# Youngs Moduli (GPa) = 64.01077 27.64556 75.50580
#
# Poissons Ratio (x) = 0.19381 0.42582
# Poissons Ratio (y) = 0.44876 0.65537
# Poissons Ratio (z) = 0.36099 0.23996
#
# Static dielectric constant tensor:
#      x y z
#    x 3.460930 0.000000 0.097260 
#    y 0.000000 3.095210 0.000000 
#    z 0.097260 0.000000 3.380300 
# 
# 
# High freq. dielectric constant tensor:
#      x y z
#    x 1.682190 0.000000 0.000730 
#    y 0.000000 1.658960 0.000000 
#    z 0.000730 0.000000 1.681260 
# 
# From -- ./inp_files/172273.got.cif
#   From: 2010.06.25/outbox.cif.g09.slc.cpg/sg12_87_cif.got.tgz:172273.got - 2010.06.28 00:19:55.
