data_PCOD8088969
_publ_section_title
;
Structure prediction by ZEFSAII (Michael W. Deem and Ramdas Pophale) SiO2 
 PCOD8088969
Probable space group: C 2/M
;
_chemical_formula_sum "Si O2"
_cell_formula_units_Z 48
_cell_length_a 18.525740
_cell_length_b 13.159787
_cell_length_c 20.292400
_cell_angle_alpha 90.000000
_cell_angle_beta 153.060865
_cell_angle_gamma 90.000000
_cell_volume 2241.289546
_symmetry_space_group_name_H-M "C 2/M"
_symmetry_group_IT_number 12
_symmetry_cell_setting 'monoclinic'
loop_
_space_group_symop_operation_xyz
x,y,z
-x,y,-z
-x,-y,-z
x,-y,z
1/2+x,1/2+y,z
1/2-x,1/2+y,-z
1/2-x,1/2-y,-z
1/2+x,1/2-y,z
loop_
_atom_site_type_symbol
_atom_site_label
_atom_site_fract_x
_atom_site_fract_y
_atom_site_fract_z
Si Si1 0.187865 0.112500 0.828452
Si Si2 0.921624 0.300243 0.336028
Si Si3 0.462072 0.885555 0.893934
Si Si4 0.870371 0.382716 0.155797
Si Si5 0.043285 0.184850 0.838141
Si Si6 0.747432 0.791323 0.672904
O O1 0.064608 0.121680 0.788378
O O2 0.148359 0.190180 0.738596
O O3 0.177540 0.000000 0.789009
O O4 0.366667 0.131045 0.003447
O O5 0.102508 0.281132 0.504641
O O6 0.917886 0.377474 0.271700
O O7 0.814975 0.343636 0.310109
O O8 0.324209 0.817736 0.750971
O O9 0.400339 0.000000 0.837302
O O10 0.500000 0.856151 0.000000
O O11 0.887838 0.500000 0.145914
O O12 0.976800 0.304981 0.198610
O O13 0.691171 0.338675 0.006545
O O14 0.886574 0.145184 0.749266
#
# Coordination Sequence:
#
# PCOD8088969 Si02
#       6
#     8   8   8   8   8   8
#     4  10  20  38  60  89 121 150 192 242 289 345
#     4  10  23  39  58  83 118 160 194 237 287 346
#     4  10  19  32  57  87 114 150 192 235 286 341
#     4  10  21  41  63  86 114 151 195 242 289 343
#     4  10  22  37  62  89 116 150 192 241 292 341
#     4  11  22  38  56  84 122 154 193 239 289 343
#
# _framework density 21.416242
#
# number of rings (size 3 to 8) (size 9 to 14) (size 15 to 20)
#    0.000    1.833    1.667    3.500    0.000    5.333 
#    0.000    9.167    0.000    0.000    0.000    0.000 
#    0.000    0.000    0.000    0.000    0.000    0.000 
#
# Total GULP energy -297433.772419 kJ/mol
# GULP energy per Si atom -12393.073851 kJ/mol
# Density = 2.136750 g / cm^3
# Si number density = 21.416242 Si / 1000 Ang^3
#
#
#
# Elastic Constant Matrix: (Units=GPa)
#
#
# Indices 1 2 3 4 5 6 
#
# 1 102.8753 -0.3633 37.1481 0.0020 13.0516 0.0000
# 2 -0.3633 76.6736 7.4786 0.0004 -5.4713 -0.0001
# 3 37.1481 7.4786 98.1495 -0.0013 2.9480 0.0009
# 4 0.0020 0.0004 -0.0013 16.1107 0.0005 -4.8226
# 5 13.0516 -5.4713 2.9480 0.0005 38.4437 0.0006
# 6 0.0000 -0.0001 0.0009 -4.8226 0.0006 17.8029
#
#
#
# Elastic Compliance Matrix: (Units=1/GPa)
#
#
# Indices 1 2 3 4 5 6 
#
# 1 0.011754 0.000222 -0.004357 -0.000002 -0.003625 0.000000
# 2 0.000222 0.013292 -0.001154 -0.000001 0.001905 0.000000
# 3 -0.004357 -0.001154 0.011913 0.000001 0.000401 0.000000
# 4 -0.000002 -0.000001 0.000001 0.067548 -0.000001 0.018298
# 5 -0.003625 0.001905 0.000401 -0.000001 0.027483 -0.000001
# 6 0.000000 0.000000 0.000000 0.018298 -0.000001 0.061128
#
#
# Mechanical properties :
#
#
# Convention : Reuss Voigt Hill
#
# Bulk Modulus (GPa) = 37.90487 40.69170 39.29828
# Shear Modulus (GPa) = 23.53049 30.03378 26.78214
#
# Velocity S-wave (km/s) = 3.31829 3.74890 3.54015
# Velocity P-wave (km/s) = 5.69377 6.14660 5.92451
#
# Compressibility (1/GPa) = 0.02638184
#
# Stress axis : x y z
#
# Youngs Moduli (GPa) = 85.07416 75.23416 83.93879
#
# Poissons Ratio (x) = -0.01670 0.36571
# Poissons Ratio (y) = -0.01889 0.09687
# Poissons Ratio (z) = 0.37066 0.08682
#
# Static dielectric constant tensor:
#      x y z
#    x 4.212170 0.000000 0.075690 
#    y 0.000000 3.563890 0.000000 
#    z 0.075690 0.000000 3.694670 
# 
# 
# High freq. dielectric constant tensor:
#      x y z
#    x 1.865520 0.000000 -0.005150 
#    y 0.000000 1.814300 0.000000 
#    z -0.005150 0.000000 1.820100 
# 
# From -- ./inp_files/316345.got.cif
#   From: 2010.06.25/outbox.cif.g09.slc.cpg/sg12_159_cif.got.tgz:316345.got - 2010.06.28 00:19:55.
