data_PCOD8088696
_publ_section_title
;
Structure prediction by ZEFSAII (Michael W. Deem and Ramdas Pophale) SiO2 
 PCOD8088696
Probable space group: C 2/M
;
_chemical_formula_sum "Si O2"
_cell_formula_units_Z 56
_cell_length_a 17.896563
_cell_length_b 8.808089
_cell_length_c 18.756695
_cell_angle_alpha 90.000000
_cell_angle_beta 76.295759
_cell_angle_gamma 90.000000
_cell_volume 2872.529976
_symmetry_space_group_name_H-M "C 2/M"
_symmetry_group_IT_number 12
_symmetry_cell_setting 'monoclinic'
loop_
_space_group_symop_operation_xyz
x,y,z
-x,y,-z
-x,-y,-z
x,-y,z
1/2+x,1/2+y,z
1/2-x,1/2+y,-z
1/2-x,1/2-y,-z
1/2+x,1/2-y,z
loop_
_atom_site_type_symbol
_atom_site_label
_atom_site_fract_x
_atom_site_fract_y
_atom_site_fract_z
Si Si1 0.876173 0.178665 0.839713
Si Si2 0.329249 0.674820 0.998057
Si Si3 0.431385 0.825535 0.569408
Si Si4 0.774687 0.822073 0.568196
Si Si5 0.842558 0.821977 0.297904
Si Si6 0.713605 0.677115 0.843203
Si Si7 0.996405 0.676810 0.709107
O O1 0.888709 0.222083 0.921615
O O2 0.791143 0.225031 0.832605
O O3 0.939957 0.273461 0.784463
O O4 0.888179 0.000000 0.822532
O O5 0.314401 0.500000 0.990335
O O6 0.250000 0.750000 0.000000
O O7 0.347203 0.710640 0.077455
O O8 0.500000 0.791853 0.500000
O O9 0.362741 0.715179 0.564190
O O10 0.457117 0.785567 0.643099
O O11 0.403988 0.000000 0.569785
O O12 0.750000 0.750000 0.500000
O O13 0.723308 0.760730 0.643600
O O14 0.763118 0.000000 0.564822
O O15 0.831500 0.777588 0.217753
O O16 0.925406 0.769963 0.305072
O O17 0.834288 0.000000 0.312613
O O18 0.737586 0.500000 0.836997
O O19 0.015673 0.500000 0.712096
#
# Coordination Sequence:
#
# PCOD8088696 Si02
#       7
#     8   8   8   8   8   8   8
#     4  10  19  32  54  82 111 145 187 234 280 334
#     4   8  15  29  50  77 107 141 183 229 279 333
#     4  10  22  41  63  86 113 146 185 229 278 329
#     4  12  25  41  63  89 118 150 185 226 272 326
#     4  11  23  39  59  83 113 148 188 233 280 332
#     4   9  18  34  56  81 110 145 185 232 285 337
#     4  11  23  38  57  81 113 151 188 231 282 334
#
# _framework density 19.495011000000002
#
# number of rings (size 3 to 8) (size 9 to 14) (size 15 to 20)
#    0.000    1.857    0.000    4.286    0.000    7.714 
#    0.000    0.714    0.000    4.286    0.000    0.000 
#    0.000    0.000    0.000    0.000    0.000    0.000 
#
# Total GULP energy -347075.796333 kJ/mol
# GULP energy per Si atom -12395.564155 kJ/mol
# Density = 1.945064 g / cm^3
# Si number density = 19.495011 Si / 1000 Ang^3
#
#
#
# Elastic Constant Matrix: (Units=GPa)
#
#
# Indices 1 2 3 4 5 6 
#
# 1 87.7315 42.6390 51.0356 0.0000 2.3877 0.0000
# 2 42.6390 85.4991 59.4929 0.0000 8.5291 0.0000
# 3 51.0356 59.4929 165.7436 0.0000 5.0847 0.0000
# 4 0.0000 0.0000 0.0000 23.0331 0.0000 -1.9297
# 5 2.3877 8.5291 5.0847 0.0000 26.1504 0.0000
# 6 0.0000 0.0000 0.0000 -1.9297 0.0000 31.2816
#
#
#
# Elastic Compliance Matrix: (Units=1/GPa)
#
#
# Indices 1 2 3 4 5 6 
#
# 1 0.015954 -0.006162 -0.002734 0.000000 0.001085 0.000000
# 2 -0.006162 0.018402 -0.004568 0.000000 -0.004551 0.000000
# 3 -0.002734 -0.004568 0.008512 0.000000 0.000084 0.000000
# 4 0.000000 0.000000 0.000000 0.043641 0.000000 0.002692
# 5 0.001085 -0.004551 0.000084 0.000000 0.039609 0.000000
# 6 0.000000 0.000000 0.000000 0.002692 0.000000 0.032134
#
#
# Mechanical properties :
#
#
# Convention : Reuss Voigt Hill
#
# Bulk Modulus (GPa) = 62.73667 71.70102 67.21885
# Shear Modulus (GPa) = 26.24741 28.48014 27.36378
#
# Velocity S-wave (km/s) = 3.67327 3.82631 3.75057
# Velocity P-wave (km/s) = 7.08811 7.50865 7.30141
#
# Compressibility (1/GPa) = 0.01593964
#
# Stress axis : x y z
#
# Youngs Moduli (GPa) = 62.67899 54.34225 117.47604
#
# Poissons Ratio (x) = 0.33488 0.32117
# Poissons Ratio (y) = 0.38625 0.53665
# Poissons Ratio (z) = 0.17136 0.24824
#
# Static dielectric constant tensor:
#      x y z
#    x 3.339080 0.000000 0.138090 
#    y 0.000000 3.516410 0.000000 
#    z 0.138090 0.000000 4.308620 
# 
# 
# High freq. dielectric constant tensor:
#      x y z
#    x 1.736170 0.000000 0.001680 
#    y 0.000000 1.764400 0.000000 
#    z 0.001680 0.000000 1.790780 
# 
# From -- ./inp_files/275182.got.cif
#   From: 2010.06.25/outbox.cif.g09.slc.cpg/sg12_138_cif.got.tgz:275182.got - 2010.06.28 00:19:55.
