data_PCOD8088485
_publ_section_title
;
Structure prediction by ZEFSAII (Michael W. Deem and Ramdas Pophale) SiO2 
 PCOD8088485
Probable space group: C 2/M
;
_chemical_formula_sum "Si O2"
_cell_formula_units_Z 64
_cell_length_a 18.785904
_cell_length_b 8.798962
_cell_length_c 37.724802
_cell_angle_alpha 90.000000
_cell_angle_beta 147.516828
_cell_angle_gamma 90.000000
_cell_volume 3348.935238
_symmetry_space_group_name_H-M "C 2/M"
_symmetry_group_IT_number 12
_symmetry_cell_setting 'monoclinic'
loop_
_space_group_symop_operation_xyz
x,y,z
-x,y,-z
-x,-y,-z
x,-y,z
1/2+x,1/2+y,z
1/2-x,1/2+y,-z
1/2-x,1/2-y,-z
1/2+x,1/2-y,z
loop_
_atom_site_type_symbol
_atom_site_label
_atom_site_fract_x
_atom_site_fract_y
_atom_site_fract_z
Si Si1 0.213424 0.322805 0.181404
Si Si2 0.087755 0.328097 0.822902
Si Si3 0.362358 0.321426 0.522215
Si Si4 0.636728 0.179763 0.628114
Si Si5 0.124011 0.177115 0.073074
Si Si6 0.348674 0.174364 0.767644
Si Si7 0.272518 0.676523 0.405907
Si Si8 0.996202 0.825305 0.717085
O O1 0.187378 0.500000 0.165553
O O2 0.134225 0.241933 0.116834
O O3 0.161614 0.260277 0.197086
O O4 0.369549 0.285579 0.247227
O O5 0.077149 0.500000 0.802880
O O6 0.242357 0.286566 0.893246
O O7 0.005326 0.314819 0.824507
O O8 0.019377 0.209502 0.767926
O O9 0.364034 0.500000 0.530437
O O10 0.250000 0.250000 0.500000
O O11 0.505984 0.251494 0.591297
O O12 0.339736 0.284221 0.471417
O O13 0.762864 0.228957 0.704137
O O14 0.656498 0.232077 0.595772
O O15 0.623031 0.000000 0.622859
O O16 0.098979 0.000000 0.066833
O O17 0.000000 0.251420 0.000000
O O18 0.298553 0.000000 0.744839
O O19 0.285274 0.500000 0.401717
O O20 0.119252 0.720138 0.346504
O O21 0.953869 0.000000 0.694997
#
# Coordination Sequence:
#
# PCOD8088485 Si02
#       8
#     8   8   8   8   8   8   8   8
#     4   9  20  35  53  81 114 148 186 231 285 335
#     4   9  17  32  55  79 108 148 188 229 278 338
#     4  11  26  45  63  85 116 152 194 242 294 352
#     4  12  25  40  61  88 115 151 195 240 292 347
#     4   9  18  34  56  82 112 150 194 236 280 335
#     4  10  20  36  57  82 114 151 189 236 291 344
#     4  11  23  40  61  84 112 150 192 235 289 350
#     4  10  19  32  53  82 110 141 183 233 280 334
#
# _framework density 19.110551000000001
#
# number of rings (size 3 to 8) (size 9 to 14) (size 15 to 20)
#    0.000    1.875    1.250    2.625    1.750    4.750 
#    0.000    0.625    0.000    0.000    0.000    0.000 
#    0.000    0.000    0.000    0.000    0.000    0.000 
#
# Total GULP energy -396792.495340 kJ/mol
# GULP energy per Si atom -12399.765479 kJ/mol
# Density = 1.906705 g / cm^3
# Si number density = 19.110551 Si / 1000 Ang^3
#
#
#
# Elastic Constant Matrix: (Units=GPa)
#
#
# Indices 1 2 3 4 5 6 
#
# 1 140.2524 47.2740 60.7528 0.0005 -4.8000 -0.0005
# 2 47.2740 70.0678 38.2782 0.0018 -0.8606 -0.0018
# 3 60.7528 38.2782 94.3234 0.0004 13.4926 -0.0010
# 4 0.0005 0.0018 0.0004 23.2791 -0.0003 -0.8141
# 5 -4.8000 -0.8606 13.4926 -0.0003 26.3370 0.0005
# 6 -0.0005 -0.0018 -0.0010 -0.8141 0.0005 27.1747
#
#
#
# Elastic Compliance Matrix: (Units=1/GPa)
#
#
# Indices 1 2 3 4 5 6 
#
# 1 0.011527 -0.004166 -0.006490 0.000000 0.005289 0.000000
# 2 -0.004166 0.020414 -0.006029 -0.000001 0.002997 0.000001
# 3 -0.006490 -0.006029 0.018804 0.000000 -0.011013 0.000000
# 4 0.000000 -0.000001 0.000000 0.043002 0.000000 0.001288
# 5 0.005289 0.002997 -0.011013 0.000000 0.044673 -0.000001
# 6 0.000000 0.000001 0.000000 0.001288 -0.000001 0.036838
#
#
# Mechanical properties :
#
#
# Convention : Reuss Voigt Hill
#
# Bulk Modulus (GPa) = 57.56087 66.36152 61.96119
# Shear Modulus (GPa) = 23.31872 25.91407 24.61639
#
# Velocity S-wave (km/s) = 3.49693 3.68640 3.59291
# Velocity P-wave (km/s) = 6.81836 7.27460 7.05017
#
# Compressibility (1/GPa) = 0.01737291
#
# Stress axis : x y z
#
# Youngs Moduli (GPa) = 86.75539 48.98708 53.17959
#
# Poissons Ratio (x) = 0.20410 0.34514
# Poissons Ratio (y) = 0.36146 0.32063
# Poissons Ratio (z) = 0.56305 0.29536
#
# Static dielectric constant tensor:
#      x y z
#    x 3.745840 0.000000 0.150050 
#    y 0.000000 3.492170 0.000000 
#    z 0.150050 0.000000 3.479360 
# 
# 
# High freq. dielectric constant tensor:
#      x y z
#    x 1.753590 0.000000 0.009870 
#    y 0.000000 1.742010 0.000000 
#    z 0.009870 0.000000 1.727060 
# 
# From -- ./inp_files/378268.got.cif
#   From: 2010.06.25/outbox.cif.g09.slc.cpg/sg12_190_cif.got.tgz:378268.got - 2010.06.28 00:19:55.
