data_PCOD8088156
_publ_section_title
;
Structure prediction by ZEFSAII (Michael W. Deem and Ramdas Pophale) SiO2 
 PCOD8088156
Probable space group: C 2/M
;
_chemical_formula_sum "Si O2"
_cell_formula_units_Z 56
_cell_length_a 30.548382
_cell_length_b 9.127132
_cell_length_c 18.774408
_cell_angle_alpha 90.000000
_cell_angle_beta 38.091515
_cell_angle_gamma 90.000000
_cell_volume 3229.365299
_symmetry_space_group_name_H-M "C 2/M"
_symmetry_group_IT_number 12
_symmetry_cell_setting 'monoclinic'
loop_
_space_group_symop_operation_xyz
x,y,z
-x,y,-z
-x,-y,-z
x,-y,z
1/2+x,1/2+y,z
1/2-x,1/2+y,-z
1/2-x,1/2-y,-z
1/2+x,1/2-y,z
loop_
_atom_site_type_symbol
_atom_site_label
_atom_site_fract_x
_atom_site_fract_y
_atom_site_fract_z
Si Si1 0.697312 0.166692 0.116596
Si Si2 0.295853 0.668799 0.499816
Si Si3 0.305051 0.169369 0.244105
Si Si4 0.701736 0.327650 0.896046
Si Si5 0.046058 0.831568 0.725441
Si Si6 0.909770 0.671810 0.857534
Si Si7 0.937205 0.167690 0.132431
O O1 0.719509 0.202955 0.169943
O O2 0.617922 0.200474 0.189005
O O3 0.715225 0.000000 0.079006
O O4 0.750000 0.250000 0.000000
O O5 0.295840 0.500000 0.476522
O O6 0.250000 0.750000 0.500000
O O7 0.264687 0.691576 0.618492
O O8 0.376439 0.727408 0.396432
O O9 0.295420 0.261987 0.185609
O O10 0.371470 0.225909 0.204242
O O11 0.316890 0.000000 0.209498
O O12 0.684680 0.500000 0.912837
O O13 0.639495 0.253425 0.021737
O O14 0.034437 0.811767 0.824367
O O15 0.988924 0.733727 0.757567
O O16 0.035861 0.000000 0.715622
O O17 0.910145 0.500000 0.875699
O O18 0.913719 0.000000 0.148316
O O19 0.000000 0.215862 0.000000
#
# Coordination Sequence:
#
# PCOD8088156 Si02
#       7
#     8   8   8   8   8   8   8
#     4   8  16  30  49  74 103 134 167 203 246 302
#     4  10  21  37  55  73  97 133 176 218 255 298
#     4  11  22  34  51  76 102 129 170 219 257 292
#     4  10  19  33  53  76 105 140 171 201 251 313
#     4  10  20  34  51  73 103 137 172 207 251 309
#     4  10  19  32  52  80 109 133 165 211 256 298
#     4  10  20  33  50  72 100 135 169 201 248 308
#
# _framework density 17.340869999999999
#
# number of rings (size 3 to 8) (size 9 to 14) (size 15 to 20)
#    0.000    2.143    1.429    2.143    0.000    4.286 
#    0.000    0.000    0.000    0.857    0.000    6.000 
#    0.000    0.000    0.000    0.000    0.000    0.000 
#
# Total GULP energy -347039.632895 kJ/mol
# GULP energy per Si atom -12394.272603 kJ/mol
# Density = 1.730140 g / cm^3
# Si number density = 17.340870 Si / 1000 Ang^3
#
#
#
# Elastic Constant Matrix: (Units=GPa)
#
#
# Indices 1 2 3 4 5 6 
#
# 1 112.8296 49.7312 28.0020 -0.0031 -24.5483 0.0005
# 2 49.7312 78.0431 27.7763 0.0009 -13.0284 -0.0008
# 3 28.0020 27.7763 72.5134 0.0004 -23.4856 0.0003
# 4 -0.0031 0.0009 0.0004 21.7623 -0.0014 -4.2428
# 5 -24.5483 -13.0284 -23.4856 -0.0014 20.8646 -0.0003
# 6 0.0005 -0.0008 0.0003 -4.2428 -0.0003 28.5935
#
#
#
# Elastic Compliance Matrix: (Units=1/GPa)
#
#
# Indices 1 2 3 4 5 6 
#
# 1 0.015113 -0.007832 0.002107 0.000003 0.015262 0.000000
# 2 -0.007832 0.019170 -0.005392 -0.000002 -0.003314 0.000000
# 3 0.002107 -0.005392 0.023220 0.000002 0.025249 0.000000
# 4 0.000003 -0.000002 0.000002 0.047320 0.000008 0.007021
# 5 0.015262 -0.003314 0.025249 0.000008 0.092237 0.000002
# 6 0.000000 0.000000 0.000000 0.007021 0.000002 0.036015
#
#
# Mechanical properties :
#
#
# Convention : Reuss Voigt Hill
#
# Bulk Modulus (GPa) = 28.35361 52.71166 40.53263
# Shear Modulus (GPa) = 18.72204 24.76919 21.74561
#
# Velocity S-wave (km/s) = 3.28936 3.78348 3.54504
# Velocity P-wave (km/s) = 5.55093 7.03915 6.33887
#
# Compressibility (1/GPa) = 0.03526888
#
# Stress axis : x y z
#
# Youngs Moduli (GPa) = 66.16913 52.16410 43.06640
#
# Poissons Ratio (x) = 0.40857 -0.09076
# Poissons Ratio (y) = 0.51827 0.23221
# Poissons Ratio (z) = -0.13944 0.28127
#
# Static dielectric constant tensor:
#      x y z
#    x 3.834080 0.000000 -0.080240 
#    y 0.000000 3.315310 0.000020 
#    z -0.080240 0.000020 3.122550 
# 
# 
# High freq. dielectric constant tensor:
#      x y z
#    x 1.679710 0.000000 -0.005160 
#    y 0.000000 1.678320 0.000000 
#    z -0.005160 0.000000 1.642980 
# 
# From -- ./inp_files/287405.got.cif
#   From: 2010.06.25/outbox.cif.g09.slc.cpg/sg12_144_cif.got.tgz:287405.got - 2010.06.28 00:19:55.
