data_PCOD8088261
_publ_section_title
;
Structure prediction by ZEFSAII (Michael W. Deem and Ramdas Pophale) SiO2 
 PCOD8088261
Probable space group: C 2/M
;
_chemical_formula_sum "Si O2"
_cell_formula_units_Z 56
_cell_length_a 17.989119
_cell_length_b 8.833342
_cell_length_c 28.898951
_cell_angle_alpha 90.000000
_cell_angle_beta 141.037746
_cell_angle_gamma 90.000000
_cell_volume 2887.588266
_symmetry_space_group_name_H-M "C 2/M"
_symmetry_group_IT_number 12
_symmetry_cell_setting 'monoclinic'
loop_
_space_group_symop_operation_xyz
x,y,z
-x,y,-z
-x,-y,-z
x,-y,z
1/2+x,1/2+y,z
1/2-x,1/2+y,-z
1/2-x,1/2-y,-z
1/2+x,1/2-y,z
loop_
_atom_site_type_symbol
_atom_site_label
_atom_site_fract_x
_atom_site_fract_y
_atom_site_fract_z
Si Si1 0.368485 0.680251 0.428048
Si Si2 0.509910 0.179751 0.142053
Si Si3 0.226978 0.179961 0.715363
Si Si4 0.952890 0.176478 0.293253
Si Si5 0.297274 0.821069 0.569594
Si Si6 0.414273 0.819870 0.998285
Si Si7 0.352255 0.323765 0.143676
O O1 0.500000 0.744208 0.500000
O O2 0.370333 0.500000 0.427573
O O3 0.320072 0.745083 0.356109
O O4 0.284345 0.739206 0.428175
O O5 0.642208 0.244887 0.212029
O O6 0.431148 0.232125 0.146351
O O7 0.511767 0.000000 0.142286
O O8 0.456783 0.243325 0.068420
O O9 0.140619 0.234717 0.714178
O O10 0.231367 0.000000 0.716243
O O11 0.897954 0.209421 0.216941
O O12 0.069948 0.273196 0.355908
O O13 0.982711 0.000000 0.314774
O O14 0.250000 0.750000 0.500000
O O15 0.289557 0.000000 0.561552
O O16 0.281604 0.763362 0.924590
O O17 0.419622 0.000000 0.000034
O O18 0.500000 0.753859 0.000000
O O19 0.359503 0.500000 0.134660
#
# Coordination Sequence:
#
# PCOD8088261 Si02
#       7
#     8   8   8   8   8   8   8
#     4   9  17  30  50  74  98 127 166 210 249 292
#     4  10  19  32  53  77 102 137 180 222 262 312
#     4   9  17  31  52  76  99 130 177 222 256 299
#     4  10  20  35  55  77 103 136 173 214 261 311
#     4  11  22  36  56  81 108 137 171 212 258 308
#     4   9  17  31  52  77 103 135 180 227 265 307
#     4  10  20  33  51  77 108 138 169 214 271 320
#
# _framework density 19.393346999999999
#
# number of rings (size 3 to 8) (size 9 to 14) (size 15 to 20)
#    0.000    2.286    0.000    3.429    0.000    7.429 
#    0.000    0.714    0.000   12.857    0.000    0.000 
#    0.000    0.000    0.000    0.000    0.000    0.000 
#
# Total GULP energy -347257.183301 kJ/mol
# GULP energy per Si atom -12402.042261 kJ/mol
# Density = 1.934921 g / cm^3
# Si number density = 19.393347 Si / 1000 Ang^3
#
#
#
# Elastic Constant Matrix: (Units=GPa)
#
#
# Indices 1 2 3 4 5 6 
#
# 1 187.3500 24.7433 87.4149 0.0000 2.4804 0.0000
# 2 24.7433 21.7486 25.4717 0.0001 -0.7999 -0.0001
# 3 87.4149 25.4717 175.5908 0.0000 4.7584 0.0000
# 4 0.0000 0.0001 0.0000 18.1611 0.0000 1.3253
# 5 2.4804 -0.7999 4.7584 0.0000 46.6847 0.0000
# 6 0.0000 -0.0001 0.0000 1.3253 0.0000 29.2025
#
#
#
# Elastic Compliance Matrix: (Units=1/GPa)
#
#
# Indices 1 2 3 4 5 6 
#
# 1 0.007367 -0.004937 -0.002947 0.000000 -0.000176 0.000000
# 2 -0.004937 0.058845 -0.006130 0.000000 0.001895 0.000000
# 3 -0.002947 -0.006130 0.008072 0.000000 -0.000771 0.000000
# 4 0.000000 0.000000 0.000000 0.055246 0.000000 -0.002507
# 5 -0.000176 0.001895 -0.000771 0.000000 0.021541 0.000000
# 6 0.000000 0.000000 0.000000 -0.002507 0.000000 0.034357
#
#
# Mechanical properties :
#
#
# Convention : Reuss Voigt Hill
#
# Bulk Modulus (GPa) = 21.61793 73.32769 47.47281
# Shear Modulus (GPa) = 21.84612 35.28031 28.56322
#
# Velocity S-wave (km/s) = 3.35994 4.26983 3.84192
# Velocity P-wave (km/s) = 5.12089 7.88679 6.64925
#
# Compressibility (1/GPa) = 0.04625790
#
# Stress axis : x y z
#
# Youngs Moduli (GPa) = 135.74579 16.99366 123.88401
#
# Poissons Ratio (x) = 0.08389 0.36503
# Poissons Ratio (y) = 0.67013 0.75941
# Poissons Ratio (z) = 0.39998 0.10417
#
# Static dielectric constant tensor:
#      x y z
#    x 3.713770 0.000000 -0.087180 
#    y 0.000000 3.021490 0.000000 
#    z -0.087180 0.000000 3.669940 
# 
# 
# High freq. dielectric constant tensor:
#      x y z
#    x 1.775190 0.000000 -0.000360 
#    y 0.000000 1.700500 0.000000 
#    z -0.000360 0.000000 1.777890 
# 
# From -- ./inp_files/275098.got.cif
#   From: 2010.06.25/outbox.cif.g09.slc.cpg/sg12_138_cif.got.tgz:275098.got - 2010.06.28 00:19:55.
