data_PCOD8088800
_publ_section_title
;
Structure prediction by ZEFSAII (Michael W. Deem and Ramdas Pophale) SiO2 
 PCOD8088800
Probable space group: C 2/M
;
_chemical_formula_sum "Si O2"
_cell_formula_units_Z 48
_cell_length_a 16.344663
_cell_length_b 18.117700
_cell_length_c 9.587862
_cell_angle_alpha 90.000000
_cell_angle_beta 67.080927
_cell_angle_gamma 90.000000
_cell_volume 2615.090726
_symmetry_space_group_name_H-M "C 2/M"
_symmetry_group_IT_number 12
_symmetry_cell_setting 'monoclinic'
loop_
_space_group_symop_operation_xyz
x,y,z
-x,y,-z
-x,-y,-z
x,-y,z
1/2+x,1/2+y,z
1/2-x,1/2+y,-z
1/2-x,1/2-y,-z
1/2+x,1/2-y,z
loop_
_atom_site_type_symbol
_atom_site_label
_atom_site_fract_x
_atom_site_fract_y
_atom_site_fract_z
Si Si1 0.016628 0.916361 0.326421
Si Si2 0.406409 0.913308 0.518153
Si Si3 0.751921 0.085880 0.182421
Si Si4 0.195791 0.660841 0.647079
Si Si5 0.718984 0.414130 0.153070
Si Si6 0.853885 0.827166 0.329065
O O1 0.951838 0.855944 0.301300
O O2 0.000000 0.917616 0.500000
O O3 0.116585 0.889143 0.230197
O O4 0.001081 0.000000 0.277238
O O5 0.500000 0.877218 0.500000
O O6 0.338607 0.888300 0.683462
O O7 0.377845 0.886807 0.384164
O O8 0.414896 0.000000 0.504095
O O9 0.830750 0.131217 0.201328
O O10 0.771419 0.000000 0.195213
O O11 0.744947 0.104190 0.024428
O O12 0.216920 0.629664 0.785349
O O13 0.151368 0.740431 0.695252
O O14 0.287002 0.655571 0.499857
O O15 0.726500 0.500000 0.185760
#
# Coordination Sequence:
#
# PCOD8088800 Si02
#       6
#     8   8   8   8   8   8
#     4  10  19  32  55  83 108 138 182 224 259 310
#     4   9  18  35  58  80 101 135 182 224 261 310
#     4   9  19  35  56  79 107 139 174 220 269 315
#     4  10  20  34  53  79 107 141 179 217 265 317
#     4  10  20  35  57  83 108 139 177 223 271 314
#     4  10  20  34  51  77 108 145 179 213 262 316
#
# _framework density 18.355003
#
# number of rings (size 3 to 8) (size 9 to 14) (size 15 to 20)
#    0.000    2.333    1.667    1.000    0.000    3.333 
#    3.000    3.333    3.667    4.000    0.000    0.000 
#    0.000    0.000    0.000    0.000    0.000    0.000 
#
# Total GULP energy -297570.255426 kJ/mol
# GULP energy per Si atom -12398.760643 kJ/mol
# Density = 1.831323 g / cm^3
# Si number density = 18.355003 Si / 1000 Ang^3
#
#
#
# Elastic Constant Matrix: (Units=GPa)
#
#
# Indices 1 2 3 4 5 6 
#
# 1 148.2926 51.8148 51.4001 0.0000 15.3258 0.0000
# 2 51.8148 44.5398 33.0924 0.0000 9.2429 0.0000
# 3 51.4001 33.0924 86.1244 0.0000 18.3176 0.0000
# 4 0.0000 0.0000 0.0000 -288.7117 0.0000 37.4059
# 5 15.3258 9.2429 18.3176 0.0000 24.2200 0.0000
# 6 0.0000 0.0000 0.0000 37.4059 0.0000 17.9220
#
#
#
# Elastic Compliance Matrix: (Units=1/GPa)
#
#
# Indices 1 2 3 4 5 6 
#
# 1 0.011754 -0.011755 -0.002229 0.000000 -0.001266 0.000000
# 2 -0.011755 0.043417 -0.009206 0.000000 -0.002168 0.000000
# 3 -0.002229 -0.009206 0.018389 0.000000 -0.008985 0.000000
# 4 0.000000 0.000000 0.000000 -0.002726 0.000000 0.005690
# 5 -0.001266 -0.002168 -0.008985 0.000000 0.049712 0.000000
# 6 0.000000 0.000000 0.000000 0.005690 0.000000 0.043921
#
#
# Mechanical properties :
#
#
# Convention : Reuss Voigt Hill
#
# Bulk Modulus (GPa) = 36.79087 61.28571 49.03829
# Shear Modulus (GPa) = 22.73693 -39.80398 -8.53353
#
# Velocity S-wave (km/s) = 3.52338 -4.66184 -2.15853
# Velocity P-wave (km/s) = 6.05309 2.11770 4.53456
#
# Compressibility (1/GPa) = 0.02718066
#
# Stress axis : x y z
#
# Youngs Moduli (GPa) = 85.07533 23.03255 54.37904
#
# Poissons Ratio (x) = 0.27076 0.12121
# Poissons Ratio (y) = 1.00009 0.50059
# Poissons Ratio (z) = 0.18963 0.21203
#
# Static dielectric constant tensor:
#      x y z
#    x 3.937640 0.000000 -0.130050 
#    y 0.000000 3.310490 0.000000 
#    z -0.130050 0.000000 3.338810 
# 
# 
# High freq. dielectric constant tensor:
#      x y z
#    x 1.712970 0.000000 0.009920 
#    y 0.000000 1.704420 0.000000 
#    z 0.009920 0.000000 1.701290 
# 
# From -- ./inp_files/63358.got.cif
#   From: 2010.06.25/outbox.cif.g09.slc.cpg/sg12_32_cif.got.tgz:63358.got - 2010.06.28 00:19:55.
