data_PCOD8088585
_publ_section_title
;
Structure prediction by ZEFSAII (Michael W. Deem and Ramdas Pophale) SiO2 
 PCOD8088585
Probable space group: C 2/M
;
_chemical_formula_sum "Si O2"
_cell_formula_units_Z 40
_cell_length_a 28.122041
_cell_length_b 13.235605
_cell_length_c 17.105699
_cell_angle_alpha 90.000000
_cell_angle_beta 160.650592
_cell_angle_gamma 90.000000
_cell_volume 2109.549802
_symmetry_space_group_name_H-M "C 2/M"
_symmetry_group_IT_number 12
_symmetry_cell_setting 'monoclinic'
loop_
_space_group_symop_operation_xyz
x,y,z
-x,y,-z
-x,-y,-z
x,-y,z
1/2+x,1/2+y,z
1/2-x,1/2+y,-z
1/2-x,1/2-y,-z
1/2+x,1/2-y,z
loop_
_atom_site_type_symbol
_atom_site_label
_atom_site_fract_x
_atom_site_fract_y
_atom_site_fract_z
Si Si1 0.304631 0.194788 0.962584
Si Si2 0.220090 0.887590 0.990438
Si Si3 0.874207 0.118617 0.743486
Si Si4 0.890274 0.251105 0.617591
Si Si5 0.887023 0.113423 0.468979
O O1 0.249103 0.309884 0.891014
O O2 0.460945 0.191738 0.166551
O O3 0.314978 0.137740 0.061775
O O4 0.194317 0.138288 0.736495
O O5 0.054320 0.876057 0.709290
O O6 0.256863 0.000000 0.077559
O O7 0.914685 0.173220 0.725942
O O8 0.725798 0.163057 0.545462
O O9 0.854541 0.000000 0.697327
O O10 0.000000 0.140158 0.000000
O O11 0.837774 0.188371 0.461008
O O12 0.848661 0.000000 0.435972
#
# Coordination Sequence:
#
# PCOD8088585 Si02
#       5
#     8   8   8   8   8
#     4  10  19  32  54  79 106 135 173 217 253 295
#     4   9  19  34  52  76 107 142 175 206 248 304
#     4  10  21  38  57  75 101 137 172 211 263 316
#     4  10  21  36  54  79 105 131 172 219 258 303
#     4  10  19  33  55  79 105 140 174 206 251 305
#
# _framework density 18.961390999999999
#
# number of rings (size 3 to 8) (size 9 to 14) (size 15 to 20)
#    0.000    2.200    0.000    3.000    0.000    4.000 
#    0.000    1.000    0.000   23.400    0.000    0.000 
#    0.000    0.000    0.000    0.000    0.000    0.000 
#
# Total GULP energy -248043.307491 kJ/mol
# GULP energy per Si atom -12402.165375 kJ/mol
# Density = 1.891823 g / cm^3
# Si number density = 18.961391 Si / 1000 Ang^3
#
#
#
# Elastic Constant Matrix: (Units=GPa)
#
#
# Indices 1 2 3 4 5 6 
#
# 1 88.3512 15.0759 30.5806 0.0000 18.4749 0.0000
# 2 15.0759 84.7878 35.9751 0.0000 10.5819 0.0000
# 3 30.5806 35.9751 50.8290 0.0000 4.5363 0.0000
# 4 0.0000 0.0000 0.0000 30.5741 0.0000 -5.3797
# 5 18.4749 10.5819 4.5363 0.0000 26.9520 0.0000
# 6 0.0000 0.0000 0.0000 -5.3797 0.0000 24.5214
#
#
#
# Elastic Compliance Matrix: (Units=1/GPa)
#
#
# Indices 1 2 3 4 5 6 
#
# 1 0.017087 0.003264 -0.011605 0.000000 -0.011041 0.000000
# 2 0.003264 0.018082 -0.014140 0.000000 -0.006956 0.000000
# 3 -0.011605 -0.014140 0.035999 0.000000 0.007448 0.000000
# 4 0.000000 0.000000 0.000000 0.034021 0.000000 0.007464
# 5 -0.011041 -0.006956 0.007448 0.000000 0.046149 0.000000
# 6 0.000000 0.000000 0.000000 0.007464 0.000000 0.042418
#
#
# Mechanical properties :
#
#
# Convention : Reuss Voigt Hill
#
# Bulk Modulus (GPa) = 38.16081 43.02568 40.59325
# Shear Modulus (GPa) = 20.20584 25.89860 23.05222
#
# Velocity S-wave (km/s) = 3.26794 3.69976 3.49054
# Velocity P-wave (km/s) = 5.86587 6.40246 6.14003
#
# Compressibility (1/GPa) = 0.02620490
#
# Stress axis : x y z
#
# Youngs Moduli (GPa) = 58.52410 55.30440 27.77856
#
# Poissons Ratio (x) = -0.18049 0.32236
# Poissons Ratio (y) = -0.19100 0.39280
# Poissons Ratio (z) = 0.67915 0.78202
#
# Static dielectric constant tensor:
#      x y z
#    x 3.515290 0.000000 0.044420 
#    y 0.000000 3.710520 0.000000 
#    z 0.044420 0.000000 3.265900 
# 
# 
# High freq. dielectric constant tensor:
#      x y z
#    x 1.745330 0.000000 0.004750 
#    y 0.000000 1.748580 0.000000 
#    z 0.004750 0.000000 1.721320 
# 
# From -- ./inp_files/129129.got.cif
#   From: 2010.06.25/outbox.cif.g09.slc.cpg/sg12_65_cif.got.tgz:129129.got - 2010.06.28 00:19:55.
