data_PCOD8088642
_publ_section_title
;
Structure prediction by ZEFSAII (Michael W. Deem and Ramdas Pophale) SiO2 
 PCOD8088642
Probable space group: C 2/M
;
_chemical_formula_sum "Si O2"
_cell_formula_units_Z 64
_cell_length_a 19.937878
_cell_length_b 8.955261
_cell_length_c 20.694959
_cell_angle_alpha 90.000000
_cell_angle_beta 105.682879
_cell_angle_gamma 90.000000
_cell_volume 3557.504499
_symmetry_space_group_name_H-M "C 2/M"
_symmetry_group_IT_number 12
_symmetry_cell_setting 'monoclinic'
loop_
_space_group_symop_operation_xyz
x,y,z
-x,y,-z
-x,-y,-z
x,-y,z
1/2+x,1/2+y,z
1/2-x,1/2+y,-z
1/2-x,1/2-y,-z
1/2+x,1/2-y,z
loop_
_atom_site_type_symbol
_atom_site_label
_atom_site_fract_x
_atom_site_fract_y
_atom_site_fract_z
Si Si1 0.071555 0.329758 0.201850
Si Si2 0.422622 0.325404 0.664092
Si Si3 0.714493 0.171891 0.183872
Si Si4 0.421763 0.323376 0.298113
Si Si5 0.713087 0.323722 0.930098
Si Si6 0.795040 0.323898 0.319581
Si Si7 0.416182 0.823665 0.158971
Si Si8 0.717571 0.675263 0.429584
O O1 0.068611 0.500000 0.224053
O O2 0.093602 0.238239 0.270023
O O3 0.130507 0.304273 0.162632
O O4 0.994862 0.284501 0.155867
O O5 0.415878 0.500000 0.671769
O O6 0.499660 0.280849 0.659432
O O7 0.363205 0.271690 0.598471
O O8 0.741756 0.219251 0.120969
O O9 0.749220 0.274317 0.246873
O O10 0.733878 0.000000 0.203967
O O11 0.412219 0.500000 0.287414
O O12 0.369821 0.258835 0.338365
O O13 0.402638 0.245551 0.225757
O O14 0.707398 0.500000 0.938604
O O15 0.635989 0.254088 0.904691
O O16 0.750000 0.250000 0.000000
O O17 0.806496 0.500000 0.319138
O O18 0.758441 0.274029 0.376174
O O19 0.402027 0.000000 0.157597
O O20 0.722954 0.500000 0.440834
O O21 0.750000 0.750000 0.500000
#
# Coordination Sequence:
#
# PCOD8088642 Si02
#       8
#     8   8   8   8   8   8   8   8
#     4   9  18  32  54  83 109 137 177 224 271 319
#     4   9  18  34  53  77 109 142 179 221 268 321
#     4  10  20  35  56  82 109 140 183 225 268 322
#     4  10  19  32  54  81 109 141 178 223 270 320
#     4  11  23  38  56  79 110 148 187 225 273 329
#     4  11  21  34  55  82 111 140 180 229 274 319
#     4  10  19  33  54  81 112 142 176 221 272 323
#     4  10  22  38  55  79 109 146 184 223 273 327
#
# _framework density 17.990138999999999
#
# number of rings (size 3 to 8) (size 9 to 14) (size 15 to 20)
#    0.000    2.000    2.500    1.500    0.000    3.000 
#    0.000    1.250    0.000    7.500    0.000    0.000 
#    0.000    0.000    0.000    0.000    0.000    0.000 
#
# Total GULP energy -396766.652239 kJ/mol
# GULP energy per Si atom -12398.957882 kJ/mol
# Density = 1.794919 g / cm^3
# Si number density = 17.990139 Si / 1000 Ang^3
#
#
#
# Elastic Constant Matrix: (Units=GPa)
#
#
# Indices 1 2 3 4 5 6 
#
# 1 136.7543 45.2390 72.8210 0.0000 16.6581 0.0000
# 2 45.2390 63.4555 49.8215 0.0000 5.7325 0.0000
# 3 72.8210 49.8215 133.7967 0.0000 17.7891 0.0000
# 4 0.0000 0.0000 0.0000 31.3346 0.0000 2.0790
# 5 16.6581 5.7325 17.7891 0.0000 28.3656 0.0000
# 6 0.0000 0.0000 0.0000 2.0790 0.0000 27.1265
#
#
#
# Elastic Compliance Matrix: (Units=1/GPa)
#
#
# Indices 1 2 3 4 5 6 
#
# 1 0.011398 -0.004664 -0.004039 0.000000 -0.003218 0.000000
# 2 -0.004664 0.024194 -0.006747 0.000000 0.002081 0.000000
# 3 -0.004039 -0.006747 0.012751 0.000000 -0.004261 0.000000
# 4 0.000000 0.000000 0.000000 0.032077 0.000000 -0.002458
# 5 -0.003218 0.002081 -0.004261 0.000000 0.039396 0.000000
# 6 0.000000 0.000000 0.000000 -0.002458 0.000000 0.037053
#
#
# Mechanical properties :
#
#
# Convention : Reuss Voigt Hill
#
# Bulk Modulus (GPa) = 57.33068 74.41884 65.87476
# Shear Modulus (GPa) = 25.82878 28.44033 27.13456
#
# Velocity S-wave (km/s) = 3.79320 3.98035 3.88790
# Velocity P-wave (km/s) = 7.14993 7.91078 7.53996
#
# Compressibility (1/GPa) = 0.01744267
#
# Stress axis : x y z
#
# Youngs Moduli (GPa) = 87.73483 41.33315 78.42367
#
# Poissons Ratio (x) = 0.19278 0.31675
# Poissons Ratio (y) = 0.40920 0.52913
# Poissons Ratio (z) = 0.35435 0.27888
#
# Static dielectric constant tensor:
#      x y z
#    x 3.850330 0.000000 0.229890 
#    y 0.000000 3.368710 0.000000 
#    z 0.229890 0.000000 3.155700 
# 
# 
# High freq. dielectric constant tensor:
#      x y z
#    x 1.714740 0.000000 0.016970 
#    y 0.000000 1.702920 0.000000 
#    z 0.016970 0.000000 1.665720 
# 
# From -- ./inp_files/320041.got.cif
#   From: 2010.06.25/outbox.cif.g09.slc.cpg/sg12_161_cif.got.tgz:320041.got - 2010.06.28 00:19:55.
