data_PCOD8088531
_publ_section_title
;
Structure prediction by ZEFSAII (Michael W. Deem and Ramdas Pophale) SiO2 
 PCOD8088531
Probable space group: C 2/M
;
_chemical_formula_sum "Si O2"
_cell_formula_units_Z 64
_cell_length_a 11.711605
_cell_length_b 29.332389
_cell_length_c 14.073284
_cell_angle_alpha 90.000000
_cell_angle_beta 135.906392
_cell_angle_gamma 90.000000
_cell_volume 3364.063028
_symmetry_space_group_name_H-M "C 2/M"
_symmetry_group_IT_number 12
_symmetry_cell_setting 'monoclinic'
loop_
_space_group_symop_operation_xyz
x,y,z
-x,y,-z
-x,-y,-z
x,-y,z
1/2+x,1/2+y,z
1/2-x,1/2+y,-z
1/2-x,1/2-y,-z
1/2+x,1/2-y,z
loop_
_atom_site_type_symbol
_atom_site_label
_atom_site_fract_x
_atom_site_fract_y
_atom_site_fract_z
Si Si1 0.364060 0.647876 0.996456
Si Si2 0.384959 0.918155 0.746276
Si Si3 0.847865 0.949947 0.234596
Si Si4 0.395740 0.827048 0.848787
Si Si5 0.267663 0.948544 0.041479
Si Si6 0.117474 0.275825 0.856087
Si Si7 0.938382 0.183967 0.252252
Si Si8 0.401341 0.616823 0.538171
O O1 0.420488 0.663107 0.135797
O O2 0.500000 0.660255 0.000000
O O3 0.330495 0.593304 0.968516
O O4 0.203025 0.677555 0.870194
O O5 0.268131 0.947963 0.742955
O O6 0.457251 0.875278 0.846697
O O7 0.542841 0.947471 0.810547
O O8 0.282862 0.900407 0.593092
O O9 0.004694 0.917567 0.335527
O O10 0.924387 0.000000 0.275394
O O11 0.741431 0.939729 0.077091
O O12 0.443712 0.787982 0.801908
O O13 0.207042 0.832465 0.764121
O O14 0.500000 0.811879 0.000000
O O15 0.200710 0.000000 0.027295
O O16 0.063664 0.239002 0.744694
O O17 0.250000 0.250000 0.000000
O O18 0.100729 0.164247 0.402382
O O19 0.500000 0.623079 0.500000
#
# Coordination Sequence:
#
# PCOD8088531 Si02
#       8
#     8   8   8   8   8   8   8   8
#     4  11  22  37  58  87 116 148 196 248 294 343
#     4  11  20  32  55  84 116 154 187 231 289 348
#     4  10  19  32  53  85 120 151 185 231 290 341
#     4  12  18  33  59  83 117 147 184 245 293 338
#     4  11  21  36  57  84 116 151 193 246 297 340
#     4  10  22  31  55  86 111 147 192 238 290 341
#     4  11  21  37  56  84 121 152 192 239 290 347
#     4  10  20  35  55  82 120 162 187 228 287 351
#
# _framework density 19.024615000000001
#
# number of rings (size 3 to 8) (size 9 to 14) (size 15 to 20)
#    0.000    1.250    7.500    1.500    3.500    4.000 
#    0.000    0.625    0.000    0.750    0.000    0.875 
#    0.000    0.000    0.000    0.000    0.000    0.000 
#
# Total GULP energy -396473.312082 kJ/mol
# GULP energy per Si atom -12389.791003 kJ/mol
# Density = 1.898131 g / cm^3
# Si number density = 19.024615 Si / 1000 Ang^3
#
#
#
# Elastic Constant Matrix: (Units=GPa)
#
#
# Indices 1 2 3 4 5 6 
#
# 1 70.2497 26.2512 21.2161 0.0000 5.9967 0.0000
# 2 26.2512 126.8108 35.3876 0.0000 -9.8709 0.0000
# 3 21.2161 35.3876 93.7935 0.0000 -2.9670 0.0000
# 4 0.0000 0.0000 0.0000 25.7066 0.0000 -3.9501
# 5 5.9967 -9.8709 -2.9670 0.0000 7.8063 0.0000
# 6 0.0000 0.0000 0.0000 -3.9501 0.0000 25.5926
#
#
#
# Elastic Compliance Matrix: (Units=1/GPa)
#
#
# Indices 1 2 3 4 5 6 
#
# 1 0.018779 -0.004682 -0.003163 0.000000 -0.021549 0.000000
# 2 -0.004682 0.010827 -0.002509 0.000000 0.016333 0.000000
# 3 -0.003163 -0.002509 0.012450 0.000000 0.003989 0.000000
# 4 0.000000 0.000000 0.000000 0.039846 0.000000 0.006150
# 5 -0.021549 0.016333 0.003989 0.000000 0.166823 0.000000
# 6 0.000000 0.000000 0.000000 0.006150 0.000000 0.040023
#
#
# Mechanical properties :
#
#
# Convention : Reuss Voigt Hill
#
# Bulk Modulus (GPa) = 46.84390 50.72934 48.78662
# Shear Modulus (GPa) = 15.79420 25.68771 20.74096
#
# Velocity S-wave (km/s) = 2.88444 3.67854 3.30543
# Velocity P-wave (km/s) = 5.98077 6.69068 6.34566
#
# Compressibility (1/GPa) = 0.02134750
#
# Stress axis : x y z
#
# Youngs Moduli (GPa) = 53.25001 92.36566 80.32128
#
# Poissons Ratio (x) = 0.43248 0.25406
# Poissons Ratio (y) = 0.24933 0.20153
# Poissons Ratio (z) = 0.16843 0.23174
#
# Static dielectric constant tensor:
#      x y z
#    x 3.509820 0.000000 0.424270 
#    y 0.000000 3.917270 0.000000 
#    z 0.424270 0.000000 3.930880 
# 
# 
# High freq. dielectric constant tensor:
#      x y z
#    x 1.692640 0.000000 0.004070 
#    y 0.000000 1.760470 0.000000 
#    z 0.004070 0.000000 1.717140 
# 
# From -- ./inp_files/209867.got.cif
#   From: 2010.06.25/outbox.cif.g09.slc.cpg/sg12_105_cif.got.tgz:209867.got - 2010.06.28 00:19:55.
