data_PCOD8088174
_publ_section_title
;
Structure prediction by ZEFSAII (Michael W. Deem and Ramdas Pophale) SiO2 
 PCOD8088174
Probable space group: C 2/M
;
_chemical_formula_sum "Si O2"
_cell_formula_units_Z 56
_cell_length_a 26.953847
_cell_length_b 13.065576
_cell_length_c 9.620547
_cell_angle_alpha 90.000000
_cell_angle_beta 58.420058
_cell_angle_gamma 90.000000
_cell_volume 2886.309928
_symmetry_space_group_name_H-M "C 2/M"
_symmetry_group_IT_number 12
_symmetry_cell_setting 'monoclinic'
loop_
_space_group_symop_operation_xyz
x,y,z
-x,y,-z
-x,-y,-z
x,-y,z
1/2+x,1/2+y,z
1/2-x,1/2+y,-z
1/2-x,1/2-y,-z
1/2+x,1/2-y,z
loop_
_atom_site_type_symbol
_atom_site_label
_atom_site_fract_x
_atom_site_fract_y
_atom_site_fract_z
Si Si1 0.028526 0.753228 0.816101
Si Si2 0.945233 0.119160 0.481442
Si Si3 0.165431 0.749287 0.345302
Si Si4 0.270878 0.117228 0.269976
Si Si5 0.168623 0.614665 0.101015
Si Si6 0.968613 0.384382 0.685169
Si Si7 0.135650 0.619193 0.641587
O O1 0.043374 0.849605 0.695815
O O2 0.084709 0.688210 0.781225
O O3 0.985726 0.679456 0.794666
O O4 0.000000 0.794808 0.000000
O O5 0.889350 0.181051 0.620242
O O6 0.000000 0.144149 0.500000
O O7 0.930104 0.000000 0.507568
O O8 0.212700 0.816270 0.356696
O O9 0.195956 0.697907 0.166026
O O10 0.144362 0.654907 0.470885
O O11 0.305374 0.139475 0.360371
O O12 0.250989 0.000000 0.290493
O O13 0.313730 0.145553 0.080215
O O14 0.191440 0.500000 0.100477
O O15 0.100115 0.620766 0.227746
O O16 0.990511 0.500000 0.676652
O O17 0.000000 0.340040 0.500000
O O18 0.118031 0.500000 0.671293
#
# Coordination Sequence:
#
# PCOD8088174 Si02
#       7
#     8   8   8   8   8   8   8
#     4  11  21  33  54  81 108 139 172 211 263 318
#     4  10  22  39  57  77 102 135 177 222 264 310
#     4  11  20  35  57  77 100 135 179 217 257 309
#     4  10  21  36  52  74 105 140 175 213 259 306
#     4  10  20  33  52  79 109 136 167 214 264 309
#     4  10  19  32  52  80 113 144 173 208 256 316
#     4  10  21  35  52  77 108 138 171 211 256 311
#
# _framework density 19.401935999999999
#
# number of rings (size 3 to 8) (size 9 to 14) (size 15 to 20)
#    0.000    1.714    0.000    6.000    0.000    3.714 
#    0.000    0.000    0.000    1.286    0.000    0.000 
#    0.000    0.000    0.000    0.000    0.000    0.000 
#
# Total GULP energy -347222.652094 kJ/mol
# GULP energy per Si atom -12400.809003 kJ/mol
# Density = 1.935778 g / cm^3
# Si number density = 19.401936 Si / 1000 Ang^3
#
#
#
# Elastic Constant Matrix: (Units=GPa)
#
#
# Indices 1 2 3 4 5 6 
#
# 1 85.4016 33.9280 6.8653 0.0000 4.3158 0.0000
# 2 33.9280 87.7037 22.5429 0.0000 8.5297 0.0000
# 3 6.8653 22.5429 75.8960 0.0000 3.8203 0.0000
# 4 0.0000 0.0000 0.0000 20.1147 0.0000 1.0869
# 5 4.3158 8.5297 3.8203 0.0000 26.6855 0.0000
# 6 0.0000 0.0000 0.0000 1.0869 0.0000 24.5865
#
#
#
# Elastic Compliance Matrix: (Units=1/GPa)
#
#
# Indices 1 2 3 4 5 6 
#
# 1 0.013853 -0.005402 0.000380 0.000000 -0.000568 0.000000
# 2 -0.005402 0.014773 -0.003733 0.000000 -0.003314 0.000000
# 3 0.000380 -0.003733 0.014296 0.000000 -0.000915 0.000000
# 4 0.000000 0.000000 0.000000 0.049834 0.000000 -0.002203
# 5 -0.000568 -0.003314 -0.000915 0.000000 0.038756 0.000000
# 6 0.000000 0.000000 0.000000 -0.002203 0.000000 0.040770
#
#
# Mechanical properties :
#
#
# Convention : Reuss Voigt Hill
#
# Bulk Modulus (GPa) = 39.34760 41.74153 40.54457
# Shear Modulus (GPa) = 25.21902 26.65501 25.93702
#
# Velocity S-wave (km/s) = 3.60921 3.71055 3.66023
# Velocity P-wave (km/s) = 6.13945 6.31810 6.22941
#
# Compressibility (1/GPa) = 0.02541451
#
# Stress axis : x y z
#
# Youngs Moduli (GPa) = 72.18405 67.68950 69.94822
#
# Poissons Ratio (x) = 0.36563 -0.02657
# Poissons Ratio (y) = 0.38991 0.26109
# Poissons Ratio (z) = -0.02742 0.25266
#
# Static dielectric constant tensor:
#      x y z
#    x 3.460480 0.000000 0.039810 
#    y 0.000000 3.590350 0.000000 
#    z 0.039810 0.000000 3.415230 
# 
# 
# High freq. dielectric constant tensor:
#      x y z
#    x 1.755200 0.000000 0.004200 
#    y 0.000000 1.756670 0.000000 
#    z 0.004200 0.000000 1.749700 
# 
# From -- ./inp_files/96287.got.cif
#   From: 2010.06.25/outbox.cif.g09.slc.cpg/sg12_49_cif.got.tgz:96287.got - 2010.06.28 00:19:55.
