data_PCOD8088791
_publ_section_title
;
Structure prediction by ZEFSAII (Michael W. Deem and Ramdas Pophale) SiO2 
 PCOD8088791
Probable space group: C 2/M
;
_chemical_formula_sum "Si O2"
_cell_formula_units_Z 48
_cell_length_a 27.508739
_cell_length_b 9.323148
_cell_length_c 19.096045
_cell_angle_alpha 90.000000
_cell_angle_beta 151.529743
_cell_angle_gamma 90.000000
_cell_volume 2334.662521
_symmetry_space_group_name_H-M "C 2/M"
_symmetry_group_IT_number 12
_symmetry_cell_setting 'monoclinic'
loop_
_space_group_symop_operation_xyz
x,y,z
-x,y,-z
-x,-y,-z
x,-y,z
1/2+x,1/2+y,z
1/2-x,1/2+y,-z
1/2-x,1/2-y,-z
1/2+x,1/2-y,z
loop_
_atom_site_type_symbol
_atom_site_label
_atom_site_fract_x
_atom_site_fract_y
_atom_site_fract_z
Si Si1 0.960073 0.171064 0.746306
Si Si2 0.666681 0.844639 0.825110
Si Si3 0.684365 0.665063 0.563991
Si Si4 0.455796 0.165738 0.519042
Si Si5 0.163877 0.342711 0.978533
Si Si6 0.919028 0.333786 0.836411
O O1 0.869807 0.214136 0.577565
O O2 0.934321 0.230383 0.790137
O O3 0.063969 0.246707 0.854737
O O4 0.975315 0.000000 0.769203
O O5 0.550839 0.790799 0.688724
O O6 0.705699 0.866349 0.953105
O O7 0.664335 0.000000 0.783130
O O8 0.739163 0.744984 0.867453
O O9 0.660280 0.500000 0.545236
O O10 0.641161 0.746510 0.577088
O O11 0.804513 0.695988 0.716969
O O12 0.500000 0.211569 0.500000
O O13 0.425113 0.000000 0.484623
O O14 0.147847 0.500000 0.994224
O O15 0.932538 0.500000 0.830957
O O16 0.000000 0.294654 0.000000
#
# Coordination Sequence:
#
# PCOD8088791 Si02
#       6
#     8   8   8   8   8   8
#     4  11  22  37  61  91 120 154 200 248 294 350
#     4   9  18  33  51  78 114 150 190 235 284 339
#     4  10  22  40  62  88 118 155 200 248 294 350
#     4  10  21  37  58  85 118 156 196 240 292 349
#     4  10  19  32  55  82 111 150 190 235 288 338
#     4  10  23  43  64  88 120 154 194 244 301 362
#
# _framework density 20.559716999999999
#
# number of rings (size 3 to 8) (size 9 to 14) (size 15 to 20)
#    0.000    2.000    1.667    1.500    0.000    4.667 
#    0.000    3.333    0.000    0.000    0.000    0.000 
#    0.000    0.000    0.000    0.000    0.000    0.000 
#
# Total GULP energy -297317.270584 kJ/mol
# GULP energy per Si atom -12388.219608 kJ/mol
# Density = 2.051292 g / cm^3
# Si number density = 20.559717 Si / 1000 Ang^3
#
#
#
# Elastic Constant Matrix: (Units=GPa)
#
#
# Indices 1 2 3 4 5 6 
#
# 1 108.8583 63.1148 56.4737 0.0000 9.6868 0.0000
# 2 63.1148 110.2168 57.0014 0.0000 19.2080 0.0000
# 3 56.4737 57.0014 98.9808 0.0000 27.1775 0.0000
# 4 0.0000 0.0000 0.0000 23.8313 0.0000 10.0167
# 5 9.6868 19.2080 27.1775 0.0000 27.4876 0.0000
# 6 0.0000 0.0000 0.0000 10.0167 0.0000 35.7981
#
#
#
# Elastic Compliance Matrix: (Units=1/GPa)
#
#
# Indices 1 2 3 4 5 6 
#
# 1 0.016151 -0.006655 -0.006996 0.000000 0.005875 0.000000
# 2 -0.006655 0.015770 -0.003985 0.000000 -0.004735 0.000000
# 3 -0.006996 -0.003985 0.020518 0.000000 -0.015037 0.000000
# 4 0.000000 0.000000 0.000000 0.047554 0.000000 -0.013306
# 5 0.005875 -0.004735 -0.015037 0.000000 0.052485 0.000000
# 6 0.000000 0.000000 0.000000 -0.013306 0.000000 0.031658
#
#
# Mechanical properties :
#
#
# Convention : Reuss Voigt Hill
#
# Bulk Modulus (GPa) = 58.24746 74.58174 66.41460
# Shear Modulus (GPa) = 22.20952 26.85448 24.53200
#
# Velocity S-wave (km/s) = 3.29027 3.61802 3.45803
# Velocity P-wave (km/s) = 6.54423 7.33538 6.95107
#
# Compressibility (1/GPa) = 0.01716813
#
# Stress axis : x y z
#
# Youngs Moduli (GPa) = 61.91543 63.41314 48.73798
#
# Poissons Ratio (x) = 0.42199 0.34097
# Poissons Ratio (y) = 0.41202 0.19420
# Poissons Ratio (z) = 0.43316 0.25268
#
# Static dielectric constant tensor:
#      x y z
#    x 3.476310 0.000000 -0.006460 
#    y 0.000000 4.046840 0.000000 
#    z -0.006460 0.000000 4.134780 
# 
# 
# High freq. dielectric constant tensor:
#      x y z
#    x 1.787830 0.000000 0.009920 
#    y 0.000000 1.805130 0.000000 
#    z 0.009920 0.000000 1.813280 
# 
# From -- ./inp_files/327324.got.cif
#   From: 2010.06.25/outbox.cif.g09.slc.cpg/sg12_164_cif.got.tgz:327324.got - 2010.06.28 00:19:55.
