data_PCOD8088963
_publ_section_title
;
Structure prediction by ZEFSAII (Michael W. Deem and Ramdas Pophale) SiO2 
 PCOD8088963
Probable space group: C 2/M
;
_chemical_formula_sum "Si O2"
_cell_formula_units_Z 56
_cell_length_a 12.610518
_cell_length_b 20.150565
_cell_length_c 12.399561
_cell_angle_alpha 90.000000
_cell_angle_beta 112.415310
_cell_angle_gamma 90.000000
_cell_volume 2912.776445
_symmetry_space_group_name_H-M "C 2/M"
_symmetry_group_IT_number 12
_symmetry_cell_setting 'monoclinic'
loop_
_space_group_symop_operation_xyz
x,y,z
-x,y,-z
-x,-y,-z
x,-y,z
1/2+x,1/2+y,z
1/2-x,1/2+y,-z
1/2-x,1/2-y,-z
1/2+x,1/2-y,z
loop_
_atom_site_type_symbol
_atom_site_label
_atom_site_fract_x
_atom_site_fract_y
_atom_site_fract_z
Si Si1 0.264770 0.328510 0.764662
Si Si2 0.455972 0.244261 0.275081
Si Si3 0.813982 0.131259 0.171794
Si Si4 0.165365 0.809867 0.444273
Si Si5 0.870941 0.077165 0.965267
Si Si6 0.907168 0.294833 0.871800
Si Si7 0.369899 0.426944 0.415722
O O1 0.131589 0.306898 0.702301
O O2 0.313124 0.341591 0.664432
O O3 0.282189 0.393701 0.843029
O O4 0.336839 0.272910 0.855703
O O5 0.384309 0.300512 0.184469
O O6 0.535704 0.280106 0.396292
O O7 0.533060 0.202192 0.221935
O O8 0.680800 0.144297 0.148781
O O9 0.865666 0.086909 0.287092
O O10 0.823196 0.090985 0.065382
O O11 0.250000 0.750000 0.500000
O O12 0.189870 0.866979 0.541783
O O13 0.871963 0.000000 0.942625
O O14 0.000000 0.106048 0.000000
O O15 0.000000 0.299822 0.000000
O O16 0.500000 0.429388 0.500000
O O17 0.314279 0.500000 0.417702
#
# Coordination Sequence:
#
# PCOD8088963 Si02
#       7
#     8   8   8   8   8   8   8
#     4  10  21  35  56  84 118 151 186 245 296 351
#     4  10  19  34  56  85 117 145 191 241 297 355
#     4  11  21  38  58  84 119 150 194 243 295 356
#     4  11  22  37  60  89 120 156 201 245 298 358
#     4  11  23  37  57  83 115 152 193 240 297 361
#     4  10  19  32  57  86 113 150 189 237 294 349
#     4  11  23  38  60  87 119 155 194 246 305 360
#
# _framework density 19.225643999999999
#
# number of rings (size 3 to 8) (size 9 to 14) (size 15 to 20)
#    0.000    1.429    1.429    6.857    0.000    2.857 
#    0.000    0.000    0.000   12.000    0.000    5.000 
#    0.000    0.000    0.000    0.000    0.000    0.000 
#
# Total GULP energy -347222.527101 kJ/mol
# GULP energy per Si atom -12400.804539 kJ/mol
# Density = 1.918189 g / cm^3
# Si number density = 19.225644 Si / 1000 Ang^3
#
#
#
# Elastic Constant Matrix: (Units=GPa)
#
#
# Indices 1 2 3 4 5 6 
#
# 1 100.8345 38.7264 30.4855 0.0000 0.6771 0.0000
# 2 38.7264 92.3917 38.1360 0.0000 -10.5640 0.0000
# 3 30.4855 38.1360 113.0967 0.0000 -13.3348 0.0000
# 4 0.0000 0.0000 0.0000 16.4083 0.0000 -7.2822
# 5 0.6771 -10.5640 -13.3348 0.0000 26.0657 0.0000
# 6 0.0000 0.0000 0.0000 -7.2822 0.0000 24.7625
#
#
#
# Elastic Compliance Matrix: (Units=1/GPa)
#
#
# Indices 1 2 3 4 5 6 
#
# 1 0.012389 -0.004685 -0.002151 0.000000 -0.003321 0.000000
# 2 -0.004685 0.014587 -0.003134 0.000000 0.004431 0.000000
# 3 -0.002151 -0.003134 0.010999 0.000000 0.004413 0.000000
# 4 0.000000 0.000000 0.000000 0.070093 0.000000 0.020613
# 5 -0.003321 0.004431 0.004413 0.000000 0.042504 0.000000
# 6 0.000000 0.000000 0.000000 0.020613 0.000000 0.046446
#
#
# Mechanical properties :
#
#
# Convention : Reuss Voigt Hill
#
# Bulk Modulus (GPa) = 55.44559 57.89096 56.66828
# Shear Modulus (GPa) = 22.42465 26.71230 24.56847
#
# Velocity S-wave (km/s) = 3.41895 3.73152 3.57865
# Velocity P-wave (km/s) = 6.66991 6.98157 6.82752
#
# Compressibility (1/GPa) = 0.01803570
#
# Stress axis : x y z
#
# Youngs Moduli (GPa) = 80.71556 68.55370 90.91857
#
# Poissons Ratio (x) = 0.32115 0.19561
# Poissons Ratio (y) = 0.37813 0.28490
# Poissons Ratio (z) = 0.17366 0.21482
#
# Static dielectric constant tensor:
#      x y z
#    x 3.659430 0.000000 0.029770 
#    y 0.000000 3.507750 0.000000 
#    z 0.029770 0.000000 3.777670 
# 
# 
# High freq. dielectric constant tensor:
#      x y z
#    x 1.746000 0.000000 -0.002570 
#    y 0.000000 1.726250 0.000000 
#    z -0.002570 0.000000 1.754950 
# 
# From -- ./inp_files/133302.got.cif
#   From: 2010.06.25/outbox.cif.g09.slc.cpg/sg12_67_cif.got.tgz:133302.got - 2010.06.28 00:19:55.
