data_PCOD8088198
_publ_section_title
;
Structure prediction by ZEFSAII (Michael W. Deem and Ramdas Pophale) SiO2 
 PCOD8088198
Probable space group: C 2/M
;
_chemical_formula_sum "Si O2"
_cell_formula_units_Z 56
_cell_length_a 26.196395
_cell_length_b 9.116500
_cell_length_c 13.134767
_cell_angle_alpha 90.000000
_cell_angle_beta 66.476040
_cell_angle_gamma 90.000000
_cell_volume 2876.145237
_symmetry_space_group_name_H-M "C 2/M"
_symmetry_group_IT_number 12
_symmetry_cell_setting 'monoclinic'
loop_
_space_group_symop_operation_xyz
x,y,z
-x,y,-z
-x,-y,-z
x,-y,z
1/2+x,1/2+y,z
1/2-x,1/2+y,-z
1/2-x,1/2-y,-z
1/2+x,1/2-y,z
loop_
_atom_site_type_symbol
_atom_site_label
_atom_site_fract_x
_atom_site_fract_y
_atom_site_fract_z
Si Si1 0.567035 0.332144 0.795691
Si Si2 0.338891 0.671563 0.595216
Si Si3 0.555302 0.827516 0.394181
Si Si4 0.721351 0.831877 0.764164
Si Si5 0.657394 0.827587 0.612951
Si Si6 0.053386 0.168840 0.184972
Si Si7 0.869417 0.171299 0.054924
O O1 0.584714 0.500000 0.759901
O O2 0.595279 0.228719 0.688395
O O3 0.500984 0.313568 0.841846
O O4 0.587145 0.282097 0.891469
O O5 0.350169 0.500000 0.569519
O O6 0.393373 0.746613 0.595304
O O7 0.287600 0.696433 0.714321
O O8 0.320866 0.743871 0.503468
O O9 0.500000 0.785588 0.500000
O O10 0.548896 0.774523 0.284225
O O11 0.566572 0.000000 0.387163
O O12 0.698216 0.783363 0.672360
O O13 0.690810 0.744487 0.878918
O O14 0.706722 0.000000 0.794392
O O15 0.655731 0.000000 0.592238
O O16 0.060153 0.000000 0.215876
O O17 0.105530 0.219012 0.073979
O O18 0.859444 0.000000 0.064025
#
# Coordination Sequence:
#
# PCOD8088198 Si02
#       7
#     8   8   8   8   8   8   8
#     4   9  17  31  53  81 113 146 178 215 262 315
#     4  11  22  37  57  79 105 141 184 223 264 316
#     4  11  25  42  58  79 107 138 176 222 269 317
#     4   9  20  36  54  80 112 143 176 218 265 316
#     4  10  19  32  52  81 115 144 174 216 267 319
#     4  10  20  35  56  81 109 143 182 221 263 313
#     4   9  18  33  55  83 112 142 178 219 262 313
#
# _framework density 19.470503999999998
#
# number of rings (size 3 to 8) (size 9 to 14) (size 15 to 20)
#    0.000    2.143    0.000    3.000    0.000    8.000 
#    0.000    0.714    0.000    4.286    0.000    0.000 
#    0.000    0.000    0.000    0.000    0.000    0.000 
#
# Total GULP energy -347241.527402 kJ/mol
# GULP energy per Si atom -12401.483122 kJ/mol
# Density = 1.942619 g / cm^3
# Si number density = 19.470504 Si / 1000 Ang^3
#
#
#
# Elastic Constant Matrix: (Units=GPa)
#
#
# Indices 1 2 3 4 5 6 
#
# 1 75.0093 42.5200 44.1367 0.0000 -18.1284 0.0000
# 2 42.5200 83.9493 62.6527 0.0000 -11.2273 0.0000
# 3 44.1367 62.6527 138.3849 0.0000 -15.7160 0.0000
# 4 0.0000 0.0000 0.0000 30.1488 0.0000 -5.4668
# 5 -18.1284 -11.2273 -15.7160 0.0000 27.0261 0.0000
# 6 0.0000 0.0000 0.0000 -5.4668 0.0000 27.2593
#
#
#
# Elastic Compliance Matrix: (Units=1/GPa)
#
#
# Indices 1 2 3 4 5 6 
#
# 1 0.021488 -0.007983 -0.002119 0.000000 0.009865 0.000000
# 2 -0.007983 0.021176 -0.007121 0.000000 -0.000698 0.000000
# 3 -0.002119 -0.007121 0.011380 0.000000 0.002238 0.000000
# 4 0.000000 0.000000 0.000000 0.034420 0.000000 0.006903
# 5 0.009865 -0.000698 0.002238 0.000000 0.044630 0.000000
# 6 0.000000 0.000000 0.000000 0.006903 0.000000 0.038069
#
#
# Mechanical properties :
#
#
# Convention : Reuss Voigt Hill
#
# Bulk Modulus (GPa) = 51.02194 66.21803 58.61999
# Shear Modulus (GPa) = 23.56926 26.75580 25.16253
#
# Velocity S-wave (km/s) = 3.48301 3.71100 3.59881
# Velocity P-wave (km/s) = 6.51435 7.24191 6.88775
#
# Compressibility (1/GPa) = 0.01959941
#
# Stress axis : x y z
#
# Youngs Moduli (GPa) = 46.53805 47.22335 87.87374
#
# Poissons Ratio (x) = 0.37697 0.18619
# Poissons Ratio (y) = 0.37150 0.62571
# Poissons Ratio (z) = 0.09861 0.33625
#
# Static dielectric constant tensor:
#      x y z
#    x 3.418940 0.000000 -0.113650 
#    y 0.000000 3.547410 0.000000 
#    z -0.113650 0.000000 3.667760 
# 
# 
# High freq. dielectric constant tensor:
#      x y z
#    x 1.744910 0.000000 -0.013160 
#    y 0.000000 1.756660 0.000000 
#    z -0.013160 0.000000 1.761310 
# 
# From -- ./inp_files/181045.got.cif
#   From: 2010.06.25/outbox.cif.g09.slc.cpg/sg12_91_cif.got.tgz:181045.got - 2010.06.28 00:19:55.
