data_PCOD8088218
_publ_section_title
;
Structure prediction by ZEFSAII (Michael W. Deem and Ramdas Pophale) SiO2 
 PCOD8088218
Probable space group: C 2/M
;
_chemical_formula_sum "Si O2"
_cell_formula_units_Z 40
_cell_length_a 9.383298
_cell_length_b 20.677867
_cell_length_c 14.179438
_cell_angle_alpha 90.000000
_cell_angle_beta 132.921383
_cell_angle_gamma 90.000000
_cell_volume 2014.664142
_symmetry_space_group_name_H-M "C 2/M"
_symmetry_group_IT_number 12
_symmetry_cell_setting 'monoclinic'
loop_
_space_group_symop_operation_xyz
x,y,z
-x,y,-z
-x,-y,-z
x,-y,z
1/2+x,1/2+y,z
1/2-x,1/2+y,-z
1/2-x,1/2-y,-z
1/2+x,1/2-y,z
loop_
_atom_site_type_symbol
_atom_site_label
_atom_site_fract_x
_atom_site_fract_y
_atom_site_fract_z
Si Si1 0.715923 0.101001 0.127269
Si Si2 0.651595 0.243438 0.144598
Si Si3 0.527332 0.829251 0.769748
Si Si4 0.179394 0.072683 0.018497
Si Si5 0.285276 0.572395 0.371775
O O1 0.736829 0.178209 0.138481
O O2 0.774989 0.071625 0.253898
O O3 0.500000 0.077864 0.000000
O O4 0.865906 0.075328 0.114276
O O5 0.555536 0.228469 0.202111
O O6 0.826944 0.295501 0.239014
O O7 0.500000 0.273255 0.000000
O O8 0.636963 0.880590 0.885395
O O9 0.355683 0.872424 0.645538
O O10 0.232820 0.000000 0.074936
O O11 0.000000 0.098010 0.000000
O O12 0.500000 0.592264 0.500000
O O13 0.232799 0.500000 0.384829
#
# Coordination Sequence:
#
# PCOD8088218 Si02
#       5
#     8   8   8   8   8
#     4  10  19  36  58  85 113 146 190 229 278 334
#     4  10  19  32  52  83 114 149 180 228 280 327
#     4  11  21  34  54  82 114 147 188 228 279 336
#     4  11  22  33  52  85 119 147 182 236 286 326
#     4  10  21  38  61  85 111 147 190 234 280 333
#
# _framework density 19.854427000000001
#
# number of rings (size 3 to 8) (size 9 to 14) (size 15 to 20)
#    0.000    1.600    6.000    2.400    2.800    0.800 
#    0.000    4.000    0.000    1.200    0.000    5.600 
#    0.000    0.000    0.000    0.000    0.000    0.000 
#
# Total GULP energy -247868.879315 kJ/mol
# GULP energy per Si atom -12393.443966 kJ/mol
# Density = 1.980924 g / cm^3
# Si number density = 19.854427 Si / 1000 Ang^3
#
#
#
# Elastic Constant Matrix: (Units=GPa)
#
#
# Indices 1 2 3 4 5 6 
#
# 1 93.7014 33.0331 21.7799 -0.0002 9.9707 -0.0003
# 2 33.0331 92.5108 27.0584 0.0000 24.3972 0.0000
# 3 21.7799 27.0584 87.3633 -0.0003 19.6221 -0.0005
# 4 -0.0002 0.0000 -0.0003 15.6092 -0.0002 -3.2716
# 5 9.9707 24.3972 19.6221 -0.0002 24.0179 -0.0004
# 6 -0.0003 0.0000 -0.0005 -3.2716 -0.0004 11.0482
#
#
#
# Elastic Compliance Matrix: (Units=1/GPa)
#
#
# Indices 1 2 3 4 5 6 
#
# 1 0.012495 -0.004017 -0.001987 0.000000 0.000516 0.000000
# 2 -0.004017 0.016213 -0.000852 0.000000 -0.014105 -0.000001
# 3 -0.001987 -0.000852 0.014484 0.000000 -0.010143 0.000000
# 4 0.000000 0.000000 0.000000 0.068304 0.000001 0.020226
# 5 0.000516 -0.014105 -0.010143 0.000001 0.064036 0.000002
# 6 0.000000 -0.000001 0.000000 0.020226 0.000002 0.096502
#
#
# Mechanical properties :
#
#
# Convention : Reuss Voigt Hill
#
# Bulk Modulus (GPa) = 33.92062 48.59091 41.25577
# Shear Modulus (GPa) = 16.91637 22.91533 19.91585
#
# Velocity S-wave (km/s) = 2.92211 3.40099 3.17060
# Velocity P-wave (km/s) = 5.33917 6.32052 5.85046
#
# Compressibility (1/GPa) = 0.02948059
#
# Stress axis : x y z
#
# Youngs Moduli (GPa) = 80.03122 61.67917 69.04282
#
# Poissons Ratio (x) = 0.24774 0.13719
# Poissons Ratio (y) = 0.32146 0.05883
# Poissons Ratio (z) = 0.15902 0.05255
#
# Static dielectric constant tensor:
#      x y z
#    x 3.548790 0.000000 0.177660 
#    y 0.000000 3.738100 0.000000 
#    z 0.177660 0.000000 3.272250 
# 
# 
# High freq. dielectric constant tensor:
#      x y z
#    x 1.766440 0.000000 0.014070 
#    y 0.000000 1.792970 0.000000 
#    z 0.014070 0.000000 1.717780 
# 
# From -- ./inp_files/121295.got.cif
#   From: 2010.06.25/outbox.cif.g09.slc.cpg/sg12_61_cif.got.tgz:121295.got - 2010.06.28 00:19:55.
