data_PCOD8088729
_publ_section_title
;
Structure prediction by ZEFSAII (Michael W. Deem and Ramdas Pophale) SiO2 
 PCOD8088729
Probable space group: C 2/M
;
_chemical_formula_sum "Si O2"
_cell_formula_units_Z 44
_cell_length_a 18.257093
_cell_length_b 13.118477
_cell_length_c 11.833810
_cell_angle_alpha 90.000000
_cell_angle_beta 130.062996
_cell_angle_gamma 90.000000
_cell_volume 2169.164488
_symmetry_space_group_name_H-M "C 2/M"
_symmetry_group_IT_number 12
_symmetry_cell_setting 'monoclinic'
loop_
_space_group_symop_operation_xyz
x,y,z
-x,y,-z
-x,-y,-z
x,-y,z
1/2+x,1/2+y,z
1/2-x,1/2+y,-z
1/2-x,1/2-y,-z
1/2+x,1/2-y,z
loop_
_atom_site_type_symbol
_atom_site_label
_atom_site_fract_x
_atom_site_fract_y
_atom_site_fract_z
Si Si1 0.750446 0.611537 0.926863
Si Si2 0.267478 0.620757 0.620317
Si Si3 0.466534 0.115243 0.089055
Si Si4 0.000000 0.716131 0.500000
Si Si5 0.694212 0.817515 0.779950
Si Si6 0.593297 0.246865 0.369803
O O1 0.706239 0.500000 0.856474
O O2 0.684371 0.698110 0.805722
O O3 0.761301 0.619824 0.072947
O O4 0.853185 0.623413 0.972760
O O5 0.264152 0.500000 0.619052
O O6 0.265082 0.665315 0.745010
O O7 0.365539 0.655659 0.656105
O O8 0.176670 0.662393 0.461089
O O9 0.505719 0.195394 0.217869
O O10 0.500223 0.000000 0.151457
O O11 0.500000 0.150013 0.000000
O O12 0.914679 0.646955 0.359929
O O13 0.947201 0.781319 0.546849
#
# Coordination Sequence:
#
# PCOD8088729 Si02
#       6
#     8   8   8   4   8   8
#     4  10  20  35  57  85 117 157 197 241 296 348
#     4  10  21  37  58  83 115 155 194 238 297 354
#     4  10  19  32  54  84 113 146 192 243 295 341
#     4  10  20  38  60  86 114 158 190 240 296 334
#     4  10  20  37  59  85 120 154 194 248 289 352
#     4  10  20  37  57  84 117 148 195 243 293 344
#
# _framework density 20.284307999999999
#
# number of rings (size 3 to 8) (size 9 to 14) (size 15 to 20)
#    0.000    2.000    1.818    2.182    0.000    0.000 
#    0.000   14.545    0.000    1.636    0.000    0.000 
#    0.000    0.000    0.000    0.000    0.000    0.000 
#
# Total GULP energy -272702.043888 kJ/mol
# GULP energy per Si atom -12395.547449 kJ/mol
# Density = 2.023814 g / cm^3
# Si number density = 20.284308 Si / 1000 Ang^3
#
#
#
# Elastic Constant Matrix: (Units=GPa)
#
#
# Indices 1 2 3 4 5 6 
#
# 1 117.1005 15.3868 21.0617 0.0000 -27.6181 0.0000
# 2 15.3868 106.4534 26.6723 0.0000 -2.9393 0.0000
# 3 21.0617 26.6723 65.2141 0.0000 -9.6499 0.0000
# 4 0.0000 0.0000 0.0000 13.1859 0.0000 0.4398
# 5 -27.6181 -2.9393 -9.6499 0.0000 33.1894 0.0000
# 6 0.0000 0.0000 0.0000 0.4398 0.0000 22.4780
#
#
#
# Elastic Compliance Matrix: (Units=1/GPa)
#
#
# Indices 1 2 3 4 5 6 
#
# 1 0.011013 -0.000871 -0.001940 0.000000 0.008523 0.000000
# 2 -0.000871 0.010539 -0.004178 0.000000 -0.001006 0.000000
# 3 -0.001940 -0.004178 0.018157 0.000000 0.003295 0.000000
# 4 0.000000 0.000000 0.000000 0.075888 0.000000 -0.001485
# 5 0.008523 -0.001006 0.003295 0.000000 0.038092 0.000000
# 6 0.000000 0.000000 0.000000 -0.001485 0.000000 0.044517
#
#
# Mechanical properties :
#
#
# Convention : Reuss Voigt Hill
#
# Bulk Modulus (GPa) = 38.86124 46.11218 42.48671
# Shear Modulus (GPa) = 22.64912 28.81381 25.73146
#
# Velocity S-wave (km/s) = 3.34516 3.77304 3.56552
# Velocity P-wave (km/s) = 5.84123 6.46246 6.15968
#
# Compressibility (1/GPa) = 0.02573258
#
# Stress axis : x y z
#
# Youngs Moduli (GPa) = 90.80050 94.88896 55.07559
#
# Poissons Ratio (x) = 0.08260 0.10682
# Poissons Ratio (y) = 0.07905 0.23010
# Poissons Ratio (z) = 0.17611 0.39644
#
# Static dielectric constant tensor:
#      x y z
#    x 3.872460 0.000000 -0.198580 
#    y 0.000000 3.483170 0.000000 
#    z -0.198580 0.000000 3.650690 
# 
# 
# High freq. dielectric constant tensor:
#      x y z
#    x 1.804640 0.000000 -0.018380 
#    y 0.000000 1.760240 0.000000 
#    z -0.018380 0.000000 1.789070 
# 
# From -- ./inp_files/164644.got.cif
#   From: 2010.06.25/outbox.cif.g09.slc.cpg/sg12_83_cif.got.tgz:164644.got - 2010.06.28 00:19:55.
