data_PCOD8088144
_publ_section_title
;
Structure prediction by ZEFSAII (Michael W. Deem and Ramdas Pophale) SiO2 
 PCOD8088144
Probable space group: C 2/M
;
_chemical_formula_sum "Si O2"
_cell_formula_units_Z 64
_cell_length_a 20.339173
_cell_length_b 9.050726
_cell_length_c 23.945653
_cell_angle_alpha 90.000000
_cell_angle_beta 52.877499
_cell_angle_gamma 90.000000
_cell_volume 3514.720098
_symmetry_space_group_name_H-M "C 2/M"
_symmetry_group_IT_number 12
_symmetry_cell_setting 'monoclinic'
loop_
_space_group_symop_operation_xyz
x,y,z
-x,y,-z
-x,-y,-z
x,-y,z
1/2+x,1/2+y,z
1/2-x,1/2+y,-z
1/2-x,1/2-y,-z
1/2+x,1/2-y,z
loop_
_atom_site_type_symbol
_atom_site_label
_atom_site_fract_x
_atom_site_fract_y
_atom_site_fract_z
Si Si1 0.081109 0.173311 0.233082
Si Si2 0.690678 0.828382 0.487325
Si Si3 0.566199 0.169011 0.640984
Si Si4 0.231757 0.329169 0.847626
Si Si5 0.680201 0.828109 0.999948
Si Si6 0.213176 0.325347 0.648076
Si Si7 0.347685 0.327217 0.213049
Si Si8 0.038061 0.173025 0.131890
O O1 0.172738 0.218396 0.203924
O O2 0.062362 0.233150 0.180630
O O3 0.017352 0.239546 0.310192
O O4 0.068521 0.000000 0.239696
O O5 0.750000 0.750000 0.500000
O O6 0.598875 0.810424 0.560436
O O7 0.703824 0.748033 0.420992
O O8 0.714328 0.000000 0.469882
O O9 0.634502 0.222359 0.651009
O O10 0.545007 0.000000 0.664122
O O11 0.220972 0.500000 0.835775
O O12 0.181453 0.223877 0.832563
O O13 0.196712 0.300351 0.926763
O O14 0.591100 0.760662 0.059184
O O15 0.681811 0.000000 0.013975
O O16 0.750000 0.750000 0.000000
O O17 0.225391 0.500000 0.643486
O O18 0.203544 0.263103 0.714921
O O19 0.330883 0.500000 0.230014
O O20 0.443540 0.289402 0.169154
O O21 0.057615 0.000000 0.116074
#
# Coordination Sequence:
#
# PCOD8088144 Si02
#       8
#     8   8   8   8   8   8   8   8
#     4  10  19  35  57  79 110 147 183 229 276 325
#     4   9  17  29  46  75 113 148 184 229 279 327
#     4   9  18  30  49  81 113 141 182 231 273 321
#     4  10  23  41  57  79 112 147 184 226 277 336
#     4  11  22  38  61  85 112 147 185 231 281 330
#     4  10  19  32  52  79 112 149 186 227 277 334
#     4  11  23  38  58  83 113 149 185 230 280 330
#     4  10  21  38  58  84 113 143 186 231 277 331
#
# _framework density 18.209130999999999
#
# number of rings (size 3 to 8) (size 9 to 14) (size 15 to 20)
#    0.000    2.000    2.500    2.250    0.000    6.000 
#    0.000    2.500    0.000    0.750    0.000    5.250 
#    0.000    0.000    0.000    0.000    0.000    0.000 
#
# Total GULP energy -396826.334011 kJ/mol
# GULP energy per Si atom -12400.822938 kJ/mol
# Density = 1.816769 g / cm^3
# Si number density = 18.209131 Si / 1000 Ang^3
#
#
#
# Elastic Constant Matrix: (Units=GPa)
#
#
# Indices 1 2 3 4 5 6 
#
# 1 70.9085 38.2452 37.5662 0.0000 3.3673 0.0001
# 2 38.2452 85.2577 62.1703 -0.0001 -0.9943 0.0001
# 3 37.5662 62.1703 133.0172 0.0000 -6.4095 0.0000
# 4 0.0000 -0.0001 0.0000 39.7749 0.0000 -0.6660
# 5 3.3673 -0.9943 -6.4095 0.0000 19.6372 -0.0001
# 6 0.0001 0.0001 0.0000 -0.6660 -0.0001 27.8629
#
#
#
# Elastic Compliance Matrix: (Units=1/GPa)
#
#
# Indices 1 2 3 4 5 6 
#
# 1 0.019357 -0.006966 -0.002426 0.000000 -0.004464 0.000000
# 2 -0.006966 0.020367 -0.007563 0.000000 -0.000243 0.000000
# 3 -0.002426 -0.007563 0.011927 0.000000 0.003926 0.000000
# 4 0.000000 0.000000 0.000000 0.025152 0.000000 0.000601
# 5 -0.004464 -0.000243 0.003926 0.000000 0.052958 0.000000
# 6 0.000000 0.000000 0.000000 0.000601 0.000000 0.035904
#
#
# Mechanical properties :
#
#
# Convention : Reuss Voigt Hill
#
# Bulk Modulus (GPa) = 56.37089 62.79409 59.58249
# Shear Modulus (GPa) = 24.33212 27.53511 25.93361
#
# Velocity S-wave (km/s) = 3.65945 3.89287 3.77796
# Velocity P-wave (km/s) = 6.99143 7.40039 7.19881
#
# Compressibility (1/GPa) = 0.01773965
#
# Stress axis : x y z
#
# Youngs Moduli (GPa) = 51.66016 49.10017 83.84284
#
# Poissons Ratio (x) = 0.34205 0.20339
# Poissons Ratio (y) = 0.35989 0.63413
# Poissons Ratio (z) = 0.12532 0.37136
#
# Static dielectric constant tensor:
#      x y z
#    x 3.090780 0.000000 -0.035100 
#    y 0.000000 3.437990 0.000000 
#    z -0.035100 0.000000 3.765510 
# 
# 
# High freq. dielectric constant tensor:
#      x y z
#    x 1.670180 0.000000 -0.005450 
#    y 0.000000 1.711830 0.000000 
#    z -0.005450 0.000000 1.722970 
# 
# From -- ./inp_files/345962.got.cif
#   From: 2010.06.25/outbox.cif.g09.slc.cpg/sg12_173_cif.got.tgz:345962.got - 2010.06.28 00:19:55.
