data_PCOD8088148
_publ_section_title
;
Structure prediction by ZEFSAII (Michael W. Deem and Ramdas Pophale) SiO2 
 PCOD8088148
Probable space group: C 2/M
;
_chemical_formula_sum "Si O2"
_cell_formula_units_Z 56
_cell_length_a 14.449340
_cell_length_b 15.654334
_cell_length_c 23.827417
_cell_angle_alpha 90.000000
_cell_angle_beta 30.653957
_cell_angle_gamma 90.000000
_cell_volume 2747.916339
_symmetry_space_group_name_H-M "C 2/M"
_symmetry_group_IT_number 12
_symmetry_cell_setting 'monoclinic'
loop_
_space_group_symop_operation_xyz
x,y,z
-x,y,-z
-x,-y,-z
x,-y,z
1/2+x,1/2+y,z
1/2-x,1/2+y,-z
1/2-x,1/2-y,-z
1/2+x,1/2-y,z
loop_
_atom_site_type_symbol
_atom_site_label
_atom_site_fract_x
_atom_site_fract_y
_atom_site_fract_z
Si Si1 0.857727 0.222947 0.122454
Si Si2 0.445895 0.183329 0.316770
Si Si3 0.678024 0.599671 0.377811
Si Si4 0.936464 0.593395 0.431963
Si Si5 0.392059 0.373131 0.325498
Si Si6 0.767989 0.903002 0.777209
Si Si7 0.655943 0.403246 0.772909
O O1 0.664361 0.186516 0.202320
O O2 0.857012 0.325936 0.133511
O O3 0.921154 0.167457 0.143491
O O4 0.000000 0.203603 0.000000
O O5 0.367008 0.121494 0.310073
O O6 0.370691 0.156207 0.416967
O O7 0.362041 0.273494 0.346483
O O8 0.500000 0.642653 0.500000
O O9 0.651707 0.500000 0.393219
O O10 0.686195 0.628983 0.309153
O O11 0.950283 0.500000 0.396738
O O12 0.799246 0.587693 0.555616
O O13 0.135246 0.620201 0.349603
O O14 0.548043 0.409510 0.283804
O O15 0.445474 0.397162 0.233962
O O16 0.679275 0.000000 0.824662
O O17 0.630741 0.500000 0.809886
#
# Coordination Sequence:
#
# PCOD8088148 Si02
#       7
#     8   8   8   8   8   8   8
#     4  10  23  43  62  81 108 145 194 251 301 336
#     4  10  21  35  55  83 113 149 194 237 276 332
#     4  10  20  35  57  86 122 160 190 224 276 340
#     4  10  19  32  52  79 113 150 184 223 276 337
#     4  11  20  33  54  83 118 151 181 222 283 348
#     4  10  21  37  58  85 116 150 191 235 281 343
#     4  10  21  36  56  83 113 146 186 232 284 345
#
# _framework density 20.379078
#
# number of rings (size 3 to 8) (size 9 to 14) (size 15 to 20)
#    0.000    1.857    0.000    4.286    0.000    6.857 
#    0.000    6.429    0.000    3.429    0.000    0.000 
#    0.000    0.000    0.000    0.000    0.000    0.000 
#
# Total GULP energy -347066.339971 kJ/mol
# GULP energy per Si atom -12395.226428 kJ/mol
# Density = 2.033269 g / cm^3
# Si number density = 20.379078 Si / 1000 Ang^3
#
#
#
# Elastic Constant Matrix: (Units=GPa)
#
#
# Indices 1 2 3 4 5 6 
#
# 1 104.4152 -33.1854 43.8317 0.0009 24.1839 0.0016
# 2 -33.1854 -85.6190 50.4803 0.0068 26.4818 0.0104
# 3 43.8317 50.4803 90.7386 -0.0270 21.1254 -0.0404
# 4 0.0009 0.0068 -0.0270 5.9830 0.0098 -13.6139
# 5 24.1839 26.4818 21.1254 0.0098 22.1813 0.0166
# 6 0.0016 0.0104 -0.0404 -13.6139 0.0166 30.9800
#
#
#
# Elastic Compliance Matrix: (Units=1/GPa)
#
#
# Indices 1 2 3 4 5 6 
#
# 1 0.009083 -0.004987 -0.000785 0.122879 -0.003296 0.054000
# 2 -0.004987 -0.005159 0.003450 0.157756 0.008189 0.069327
# 3 -0.000785 0.003450 0.014732 1.822538 -0.018697 0.800926
# 4 0.122879 0.157756 1.822538********** -3.764668974.299306
# 5 -0.003296 0.008189 -0.018697 -3.764668 0.059605 -1.654408
# 6 0.054000 0.069327 0.800926974.299306 -1.654408428.181212
#
#
# Mechanical properties :
#
#
# Convention : Reuss Voigt Hill
#
# Bulk Modulus (GPa) = 71.36441 25.75423 48.55932
# Shear Modulus (GPa) = 0.00189 15.05607 7.52898
#
# Velocity S-wave (km/s) = 0.03049 2.72104 1.92418
# Velocity P-wave (km/s) = 5.92416 4.74732 5.36809
#
# Compressibility (1/GPa) = 0.01401259
#
# Stress axis : x y z
#
# Youngs Moduli (GPa) = 110.09008 -193.84570 67.87896
#
# Poissons Ratio (x) = -0.96670 0.05331
# Poissons Ratio (y) = 0.54901 -0.23420
# Poissons Ratio (z) = 0.08647 0.66881
#
# Static dielectric constant tensor:
#      x y z
#    x 3.727580 0.000000 0.138640 
#    y 0.000000 3.944160 0.000000 
#    z 0.138640 0.000000 3.314700 
# 
# 
# High freq. dielectric constant tensor:
#      x y z
#    x 1.802000 0.000000 0.010050 
#    y 0.000000 1.814260 0.000000 
#    z 0.010050 0.000000 1.753150 
# 
# From -- ./inp_files/240877.got.cif
#   From: 2010.06.25/outbox.cif.g09.slc.cpg/sg12_121_cif.got.tgz:240877.got - 2010.06.28 00:19:55.
