data_PCOD8088074
_publ_section_title
;
Structure prediction by ZEFSAII (Michael W. Deem and Ramdas Pophale) SiO2 
 PCOD8088074
Probable space group: C 2/M
;
_chemical_formula_sum "Si O2"
_cell_formula_units_Z 64
_cell_length_a 24.061357
_cell_length_b 8.996193
_cell_length_c 29.081746
_cell_angle_alpha 90.000000
_cell_angle_beta 149.547750
_cell_angle_gamma 90.000000
_cell_volume 3190.459208
_symmetry_space_group_name_H-M "C 2/M"
_symmetry_group_IT_number 12
_symmetry_cell_setting 'monoclinic'
loop_
_space_group_symop_operation_xyz
x,y,z
-x,y,-z
-x,-y,-z
x,-y,z
1/2+x,1/2+y,z
1/2-x,1/2+y,-z
1/2-x,1/2-y,-z
1/2+x,1/2-y,z
loop_
_atom_site_type_symbol
_atom_site_label
_atom_site_fract_x
_atom_site_fract_y
_atom_site_fract_z
Si Si1 0.365664 0.676866 0.019961
Si Si2 0.955581 0.328339 0.342764
Si Si3 0.724702 0.823710 0.715915
Si Si4 0.451408 0.322605 0.917589
Si Si5 0.685411 0.676667 0.496446
Si Si6 0.226114 0.828697 0.350420
Si Si7 0.022975 0.831221 0.810999
Si Si8 0.139962 0.669960 0.821624
O O1 0.364253 0.500000 0.014304
O O2 0.466438 0.738794 0.062325
O O3 0.386991 0.725543 0.087794
O O4 0.252512 0.745603 0.919819
O O5 0.994037 0.500000 0.374856
O O6 0.888867 0.274812 0.340423
O O7 0.870619 0.309674 0.240288
O O8 0.059033 0.225078 0.406760
O O9 0.829952 0.759340 0.818799
O O10 0.721471 0.771270 0.660283
O O11 0.734917 0.000000 0.723849
O O12 0.446804 0.500000 0.915740
O O13 0.500000 0.260349 0.000000
O O14 0.693684 0.500000 0.496937
O O15 0.750000 0.750000 0.500000
O O16 0.735620 0.725772 0.580727
O O17 0.096271 0.812192 0.252160
O O18 0.259350 0.000000 0.384252
O O19 0.035562 0.740702 0.772869
O O20 0.045045 0.000000 0.813434
O O21 0.140290 0.500000 0.836130
#
# Coordination Sequence:
#
# PCOD8088074 Si02
#       8
#     8   8   8   8   8   8   8   8
#     4   9  16  28  45  74 112 146 184 231 279 327
#     4  10  21  38  59  86 118 150 188 235 284 338
#     4   9  17  32  55  84 117 154 194 233 280 336
#     4   9  14  23  45  77 113 151 192 236 276 319
#     4  12  26  44  65  88 113 145 187 236 293 351
#     4  10  20  37  61  87 116 152 193 238 287 341
#     4  10  19  32  52  77 110 149 188 230 279 336
#     4  10  20  32  50  78 113 149 187 234 284 331
#
# _framework density 20.059808
#
# number of rings (size 3 to 8) (size 9 to 14) (size 15 to 20)
#    0.000    2.125    1.250    3.000    0.000    6.500 
#    0.000    3.125    0.000    0.000    0.000    0.000 
#    0.000    4.000    0.000    0.000    0.000    0.000 
#
# Total GULP energy -396690.090870 kJ/mol
# GULP energy per Si atom -12396.565340 kJ/mol
# Density = 2.001415 g / cm^3
# Si number density = 20.059808 Si / 1000 Ang^3
#
#
#
# Elastic Constant Matrix: (Units=GPa)
#
#
# Indices 1 2 3 4 5 6 
#
# 1 160.7734 44.5652 52.3513 -0.0002 0.8420 0.0000
# 2 44.5652 60.8797 38.8225 -0.0001 -1.6090 0.0008
# 3 52.3513 38.8225 104.1173 -0.0005 -3.2020 -0.0001
# 4 -0.0002 -0.0001 -0.0005 19.2499 -0.0001 0.0884
# 5 0.8420 -1.6090 -3.2020 -0.0001 30.4618 0.0000
# 6 0.0000 0.0008 -0.0001 0.0884 0.0000 21.7803
#
#
#
# Elastic Compliance Matrix: (Units=1/GPa)
#
#
# Indices 1 2 3 4 5 6 
#
# 1 0.008285 -0.004478 -0.002519 0.000000 -0.000730 0.000000
# 2 -0.004478 0.023973 -0.006666 0.000000 0.000689 -0.000001
# 3 -0.002519 -0.006666 0.013391 0.000000 0.001125 0.000000
# 4 0.000000 0.000000 0.000000 0.051949 0.000000 -0.000211
# 5 -0.000730 0.000689 0.001125 0.000000 0.033003 0.000000
# 6 0.000000 -0.000001 0.000000 -0.000211 0.000000 0.045914
#
#
# Mechanical properties :
#
#
# Convention : Reuss Voigt Hill
#
# Bulk Modulus (GPa) = 54.57378 66.36093 60.46736
# Shear Modulus (GPa) = 23.81535 26.96716 25.39126
#
# Velocity S-wave (km/s) = 3.44934 3.67050 3.56164
# Velocity P-wave (km/s) = 6.56723 7.14960 6.86459
#
# Compressibility (1/GPa) = 0.01832382
#
# Stress axis : x y z
#
# Youngs Moduli (GPa) = 120.69768 41.71354 74.67649
#
# Poissons Ratio (x) = 0.18680 0.18808
# Poissons Ratio (y) = 0.54050 0.49780
# Poissons Ratio (z) = 0.30398 0.27806
#
# Static dielectric constant tensor:
#      x y z
#    x 3.855430 0.000000 -0.012120 
#    y 0.000000 3.133680 0.000000 
#    z -0.012120 0.000000 3.775380 
# 
# 
# High freq. dielectric constant tensor:
#      x y z
#    x 1.799220 0.000000 -0.002550 
#    y 0.000000 1.722370 0.000000 
#    z -0.002550 0.000000 1.791580 
# 
# From -- ./inp_files/382432.got.cif
#   From: 2010.06.25/outbox.cif.g09.slc.cpg/sg12_192_cif.got.tgz:382432.got - 2010.06.28 00:19:55.
