data_PCOD8088675
_publ_section_title
;
Structure prediction by ZEFSAII (Michael W. Deem and Ramdas Pophale) SiO2 
 PCOD8088675
Probable space group: C 2/M
;
_chemical_formula_sum "Si O2"
_cell_formula_units_Z 56
_cell_length_a 29.796717
_cell_length_b 13.855291
_cell_length_c 9.019692
_cell_angle_alpha 90.000000
_cell_angle_beta 51.841892
_cell_angle_gamma 90.000000
_cell_volume 2927.985561
_symmetry_space_group_name_H-M "C 2/M"
_symmetry_group_IT_number 12
_symmetry_cell_setting 'monoclinic'
loop_
_space_group_symop_operation_xyz
x,y,z
-x,y,-z
-x,-y,-z
x,-y,z
1/2+x,1/2+y,z
1/2-x,1/2+y,-z
1/2-x,1/2-y,-z
1/2+x,1/2-y,z
loop_
_atom_site_type_symbol
_atom_site_label
_atom_site_fract_x
_atom_site_fract_y
_atom_site_fract_z
Si Si1 0.170035 0.390679 0.454671
Si Si2 0.868643 0.109529 0.452515
Si Si3 0.924411 0.279465 0.510792
Si Si4 0.554716 0.222248 0.193216
Si Si5 0.851627 0.611006 0.154941
Si Si6 0.256136 0.721790 0.655886
Si Si7 0.055137 0.890359 0.976580
O O1 0.189499 0.500000 0.384752
O O2 0.115646 0.365383 0.465548
O O3 0.151432 0.373579 0.662379
O O4 0.222995 0.319758 0.302997
O O5 0.906192 0.176051 0.483218
O O6 0.802707 0.138564 0.586516
O O7 0.889865 0.119915 0.240278
O O8 0.875385 0.000000 0.495338
O O9 0.918490 0.274585 0.698951
O O10 0.988349 0.305406 0.331230
O O11 0.586283 0.142015 0.029241
O O12 0.564633 0.327477 0.103103
O O13 0.840555 0.500000 0.136216
O O14 0.804230 0.677615 0.167463
O O15 0.250000 0.750000 0.500000
O O16 0.045313 0.000000 0.049313
O O17 0.000000 0.852525 0.000000
#
# Coordination Sequence:
#
# PCOD8088675 Si02
#       7
#     8   8   8   8   8   8   8
#     4   9  19  36  58  82 109 140 180 224 270 323
#     4  10  19  34  57  82 110 143 180 224 271 323
#     4  10  22  36  53  78 108 150 183 220 276 323
#     4  11  22  36  54  77 113 147 183 225 269 324
#     4  10  21  36  57  84 109 141 182 227 272 320
#     4   9  17  33  57  83 109 139 175 223 274 322
#     4  10  19  32  54  82 109 140 179 222 268 315
#
# _framework density 19.125775999999998
#
# number of rings (size 3 to 8) (size 9 to 14) (size 15 to 20)
#    0.000    2.143    1.429    3.000    0.000    2.286 
#    0.000    7.857    0.000    1.714    0.000    0.000 
#    0.000    0.000    0.000    0.000    0.000    0.000 
#
# Total GULP energy -347170.944248 kJ/mol
# GULP energy per Si atom -12398.962295 kJ/mol
# Density = 1.908224 g / cm^3
# Si number density = 19.125776 Si / 1000 Ang^3
#
#
#
# Elastic Constant Matrix: (Units=GPa)
#
#
# Indices 1 2 3 4 5 6 
#
# 1 107.6767 54.1923 32.7788 0.0000 -7.0916 0.0000
# 2 54.1923 130.2878 37.2208 0.0000 -1.5886 0.0000
# 3 32.7788 37.2208 50.9244 0.0000 -1.9025 0.0000
# 4 0.0000 0.0000 0.0000 13.2924 0.0000 -2.7451
# 5 -7.0916 -1.5886 -1.9025 0.0000 24.0846 0.0000
# 6 0.0000 0.0000 0.0000 -2.7451 0.0000 27.7809
#
#
#
# Elastic Compliance Matrix: (Units=1/GPa)
#
#
# Indices 1 2 3 4 5 6 
#
# 1 0.013105 -0.003838 -0.005512 0.000000 0.003170 0.000000
# 2 -0.003838 0.010825 -0.005473 0.000000 -0.000848 0.000000
# 3 -0.005512 -0.005473 0.027192 0.000000 0.000164 0.000000
# 4 0.000000 0.000000 0.000000 0.076798 0.000000 0.007589
# 5 0.003170 -0.000848 0.000164 0.000000 0.042411 0.000000
# 6 0.000000 0.000000 0.000000 0.007589 0.000000 0.036746
#
#
# Mechanical properties :
#
#
# Convention : Reuss Voigt Hill
#
# Bulk Modulus (GPa) = 46.56503 59.69697 53.13100
# Shear Modulus (GPa) = 20.50175 24.01138 22.25656
#
# Velocity S-wave (km/s) = 3.27761 3.54707 3.41500
# Velocity P-wave (km/s) = 6.22280 6.93226 6.58709
#
# Compressibility (1/GPa) = 0.02147534
#
# Stress axis : x y z
#
# Youngs Moduli (GPa) = 76.30489 92.37970 36.77596
#
# Poissons Ratio (x) = 0.35452 0.20272
# Poissons Ratio (y) = 0.29283 0.20129
# Poissons Ratio (z) = 0.42060 0.50563
#
# Static dielectric constant tensor:
#      x y z
#    x 3.596210 0.000000 -0.219320 
#    y 0.000000 3.628640 0.000000 
#    z -0.219320 0.000000 3.343060 
# 
# 
# High freq. dielectric constant tensor:
#      x y z
#    x 1.746150 0.000000 -0.014510 
#    y 0.000000 1.749910 0.000000 
#    z -0.014510 0.000000 1.718930 
# 
# From -- ./inp_files/111572.got.cif
#   From: 2010.06.25/outbox.cif.g09.slc.cpg/sg12_56_cif.got.tgz:111572.got - 2010.06.28 00:19:55.
