data_PCOD8088743
_publ_section_title
;
Structure prediction by ZEFSAII (Michael W. Deem and Ramdas Pophale) SiO2 
 PCOD8088743
Probable space group: C 2/M
;
_chemical_formula_sum "Si O2"
_cell_formula_units_Z 48
_cell_length_a 14.614162
_cell_length_b 13.523992
_cell_length_c 23.885252
_cell_angle_alpha 90.000000
_cell_angle_beta 32.123082
_cell_angle_gamma 90.000000
_cell_volume 2510.197093
_symmetry_space_group_name_H-M "C 2/M"
_symmetry_group_IT_number 12
_symmetry_cell_setting 'monoclinic'
loop_
_space_group_symop_operation_xyz
x,y,z
-x,y,-z
-x,-y,-z
x,-y,z
1/2+x,1/2+y,z
1/2-x,1/2+y,-z
1/2-x,1/2-y,-z
1/2+x,1/2-y,z
loop_
_atom_site_type_symbol
_atom_site_label
_atom_site_fract_x
_atom_site_fract_y
_atom_site_fract_z
Si Si1 0.490796 0.115293 0.786845
Si Si2 0.769740 0.894036 0.464663
Si Si3 0.822366 0.391814 0.609030
Si Si4 0.412343 0.387586 0.987188
Si Si5 0.493683 0.216195 0.666271
Si Si6 0.642077 0.262893 0.792308
O O1 0.530060 0.182064 0.711440
O O2 0.592902 0.158741 0.788125
O O3 0.544697 0.000000 0.750032
O O4 0.290511 0.122855 0.903240
O O5 0.788945 0.903753 0.388628
O O6 0.572346 0.870150 0.586211
O O7 0.906520 0.811263 0.409896
O O8 0.820148 0.000000 0.465879
O O9 0.867743 0.500000 0.611031
O O10 0.705367 0.333899 0.711583
O O11 0.000000 0.335747 0.500000
O O12 0.464669 0.500000 0.943797
O O13 0.475315 0.311319 0.907308
O O14 0.500000 0.358118 0.000000
O O15 0.293315 0.241567 0.760450
#
# Coordination Sequence:
#
# PCOD8088743 Si02
#       6
#     8   8   8   8   8   8
#     4  11  24  41  59  88 123 157 196 243 297 354
#     4  10  21  37  56  84 120 154 195 245 291 343
#     4  10  19  32  54  85 114 141 187 244 292 338
#     4  10  21  38  63  91 116 147 197 251 297 348
#     4  11  22  37  61  85 119 161 200 237 293 354
#     4  12  22  37  62  87 117 156 195 241 296 352
#
# _framework density 19.122005000000001
#
# number of rings (size 3 to 8) (size 9 to 14) (size 15 to 20)
#    0.000    1.333    5.000    1.500    0.000    2.000 
#    0.000    0.000    0.000    4.000    0.000    0.000 
#    0.000    0.000    0.000    0.000    0.000    0.000 
#
# Total GULP energy -297378.024165 kJ/mol
# GULP energy per Si atom -12390.751007 kJ/mol
# Density = 1.907848 g / cm^3
# Si number density = 19.122005 Si / 1000 Ang^3
#
#
#
# Elastic Constant Matrix: (Units=GPa)
#
#
# Indices 1 2 3 4 5 6 
#
# 1 68.2750 38.0380 13.7970 -0.0012 4.1522 -0.0020
# 2 38.0380 114.2163 39.1141 -0.0002 1.8466 0.0005
# 3 13.7970 39.1141 82.6105 -0.0064 3.4572 -0.0075
# 4 -0.0012 -0.0002 -0.0064 23.8672 0.0029 3.3109
# 5 4.1522 1.8466 3.4572 0.0029 24.7323 0.0035
# 6 -0.0020 0.0005 -0.0075 3.3109 0.0035 35.2990
#
#
#
# Elastic Compliance Matrix: (Units=1/GPa)
#
#
# Indices 1 2 3 4 5 6 
#
# 1 0.018149 -0.005969 -0.000096 0.000001 -0.002588 0.000001
# 2 -0.005969 0.012413 -0.004912 -0.000001 0.000762 -0.000001
# 3 -0.000096 -0.004912 0.014516 0.000004 -0.001646 0.000003
# 4 0.000001 -0.000001 0.000004 0.042451 -0.000005 -0.003982
# 5 -0.002588 0.000762 -0.001646 -0.000005 0.041041 -0.000004
# 6 0.000001 -0.000001 0.000003 -0.003982 -0.000004 0.028703
#
#
# Mechanical properties :
#
#
# Convention : Reuss Voigt Hill
#
# Bulk Modulus (GPa) = 43.24895 49.66667 46.45781
# Shear Modulus (GPa) = 26.74703 28.38987 27.56845
#
# Velocity S-wave (km/s) = 3.74405 3.85732 3.80111
# Velocity P-wave (km/s) = 6.43094 6.77263 6.60400
#
# Compressibility (1/GPa) = 0.02312195
#
# Stress axis : x y z
#
# Youngs Moduli (GPa) = 55.09862 80.55886 68.89013
#
# Poissons Ratio (x) = 0.48089 0.00665
# Poissons Ratio (y) = 0.32891 0.33841
# Poissons Ratio (z) = 0.00532 0.39573
#
# Static dielectric constant tensor:
#      x y z
#    x 3.538840 0.000000 -0.082370 
#    y 0.000000 3.728020 0.000000 
#    z -0.082370 0.000000 3.580230 
# 
# 
# High freq. dielectric constant tensor:
#      x y z
#    x 1.731200 0.000000 0.006570 
#    y 0.000000 1.739710 0.000000 
#    z 0.006570 0.000000 1.747630 
# 
# From -- ./inp_files/143184.got.cif
#   From: 2010.06.25/outbox.cif.g09.slc.cpg/sg12_72_cif.got.tgz:143184.got - 2010.06.28 00:19:55.
