data_PCOD8088542
_publ_section_title
;
Structure prediction by ZEFSAII (Michael W. Deem and Ramdas Pophale) SiO2 
 PCOD8088542
Probable space group: C 2/M
;
_chemical_formula_sum "Si O2"
_cell_formula_units_Z 60
_cell_length_a 14.857164
_cell_length_b 29.370325
_cell_length_c 14.199504
_cell_angle_alpha 90.000000
_cell_angle_beta 32.073390
_cell_angle_gamma 90.000000
_cell_volume 3290.156297
_symmetry_space_group_name_H-M "C 2/M"
_symmetry_group_IT_number 12
_symmetry_cell_setting 'monoclinic'
loop_
_space_group_symop_operation_xyz
x,y,z
-x,y,-z
-x,-y,-z
x,-y,z
1/2+x,1/2+y,z
1/2-x,1/2+y,-z
1/2-x,1/2-y,-z
1/2+x,1/2-y,z
loop_
_atom_site_type_symbol
_atom_site_label
_atom_site_fract_x
_atom_site_fract_y
_atom_site_fract_z
Si Si1 0.125597 0.322606 0.306129
Si Si2 0.957254 0.228952 0.411271
Si Si3 0.910287 0.653580 0.871011
Si Si4 0.500000 0.305374 0.000000
Si Si5 0.914255 0.747235 0.243307
Si Si6 0.925570 0.951232 0.463894
Si Si7 0.624801 0.908541 0.811205
Si Si8 0.371400 0.636256 0.739065
O O1 0.091524 0.351223 0.240679
O O2 0.321233 0.332757 0.163856
O O3 0.000000 0.340551 0.500000
O O4 0.090817 0.268766 0.318063
O O5 0.916501 0.224188 0.337308
O O6 0.779128 0.240472 0.620897
O O7 0.020807 0.179863 0.390127
O O8 0.987374 0.701046 0.831927
O O9 0.023954 0.615635 0.817844
O O10 0.722773 0.649440 0.080835
O O11 0.521156 0.275004 0.073402
O O12 0.725646 0.945406 0.660576
O O13 0.000000 0.955542 0.500000
O O14 0.010574 0.907433 0.338414
O O15 0.954489 0.000000 0.384064
O O16 0.748260 0.874582 0.760108
O O17 0.500000 0.931205 0.000000
#
# Coordination Sequence:
#
# PCOD8088542 Si02
#       8
#     8   8   8   4   8   8   8   8
#     4  11  23  38  53  73 107 145 183 229 273 308
#     4  10  20  36  50  71 102 142 183 221 265 300
#     4  10  21  36  49  76 105 136 183 224 260 309
#     4  12  22  34  52  72  96 140 190 224 266 320
#     4  10  21  32  50  72 100 140 181 229 262 303
#     4   9  18  33  51  78 111 142 172 208 260 320
#     4   9  19  32  51  76 103 140 176 210 255 311
#     4  10  19  32  54  74 103 142 177 214 258 312
#
# _framework density 18.236215999999999
#
# number of rings (size 3 to 8) (size 9 to 14) (size 15 to 20)
#    0.000    2.000    1.333    2.400    4.667    4.000 
#    2.400    2.000    0.000    0.000    0.000    0.000 
#    0.000    3.200    0.000    0.000    0.000    0.000 
#
# Total GULP energy -371728.429770 kJ/mol
# GULP energy per Si atom -12390.947659 kJ/mol
# Density = 1.819471 g / cm^3
# Si number density = 18.236216 Si / 1000 Ang^3
#
#
#
# Elastic Constant Matrix: (Units=GPa)
#
#
# Indices 1 2 3 4 5 6 
#
# 1 68.7466 -12.5359 28.8894 0.0022 -1.5554 -0.0018
# 2 -12.5359 12.3895 6.4851 0.0056 -21.4610 -0.0048
# 3 28.8894 6.4851 113.8775 -0.0032 -13.9878 0.0025
# 4 0.0022 0.0056 -0.0032 54.6322 0.0023 -20.9087
# 5 -1.5554 -21.4610 -13.9878 0.0023 27.6662 -0.0021
# 6 -0.0018 -0.0048 0.0025 -20.9087 -0.0021 25.4656
#
#
#
# Elastic Compliance Matrix: (Units=1/GPa)
#
#
# Indices 1 2 3 4 5 6 
#
# 1 0.010308 -0.029261 -0.003908 0.000001 -0.024094 -0.000005
# 2 -0.029261 -0.142343 0.001881 0.000009 -0.111111 -0.000031
# 3 -0.003908 0.001881 0.010468 0.000000 0.006532 0.000000
# 4 0.000001 0.000009 0.000000 0.026692 0.000006 0.021915
# 5 -0.024094 -0.111111 0.006532 0.000006 -0.048097 -0.000022
# 6 -0.000005 -0.000031 0.000000 0.021915 -0.000022 0.057262
#
#
# Mechanical properties :
#
#
# Convention : Reuss Voigt Hill
#
# Bulk Modulus (GPa) = -5.43058 26.74343 10.65642
# Shear Modulus (GPa) = -59.16054 33.03113 -13.06470
#
# Velocity S-wave (km/s) = -5.70190 4.26055 -2.67950
# Velocity P-wave (km/s) = 6.80685 6.23697 1.92788
#
# Compressibility (1/GPa) = -0.18414234
#
# Stress axis : x y z
#
# Youngs Moduli (GPa) = 97.01487 -7.02528 95.52891
#
# Poissons Ratio (x) = -0.20556 0.37334
# Poissons Ratio (y) = 2.83872 -0.17971
# Poissons Ratio (z) = 0.37915 0.01322
#
# Static dielectric constant tensor:
#      x y z
#    x 3.287690 0.000000 -0.010300 
#    y 0.000000 3.527700 0.000000 
#    z -0.010300 0.000000 3.925490 
# 
# 
# High freq. dielectric constant tensor:
#      x y z
#    x 1.692620 0.000000 -0.008900 
#    y 0.000000 1.654510 0.000000 
#    z -0.008900 0.000000 1.730160 
# 
# From -- ./inp_files/219452.got.cif
#   From: 2010.06.25/outbox.cif.g09.slc.cpg/sg12_110_cif.got.tgz:219452.got - 2010.06.28 00:19:55.
