data_PCOD8088301
_publ_section_title
;
Structure prediction by ZEFSAII (Michael W. Deem and Ramdas Pophale) SiO2 
 PCOD8088301
Probable space group: C 2/M
;
_chemical_formula_sum "Si O2"
_cell_formula_units_Z 56
_cell_length_a 29.362948
_cell_length_b 9.338899
_cell_length_c 11.751896
_cell_angle_alpha 90.000000
_cell_angle_beta 71.753698
_cell_angle_gamma 90.000000
_cell_volume 3060.543485
_symmetry_space_group_name_H-M "C 2/M"
_symmetry_group_IT_number 12
_symmetry_cell_setting 'monoclinic'
loop_
_space_group_symop_operation_xyz
x,y,z
-x,y,-z
-x,-y,-z
x,-y,z
1/2+x,1/2+y,z
1/2-x,1/2+y,-z
1/2-x,1/2-y,-z
1/2+x,1/2-y,z
loop_
_atom_site_type_symbol
_atom_site_label
_atom_site_fract_x
_atom_site_fract_y
_atom_site_fract_z
Si Si1 0.686926 0.167530 0.142106
Si Si2 0.515585 0.162767 0.298179
Si Si3 0.394117 0.166399 0.621940
Si Si4 0.378959 0.335849 0.176233
Si Si5 0.794068 0.836454 0.092442
Si Si6 0.952252 0.664663 0.977430
Si Si7 0.581901 0.670022 0.613399
O O1 0.645861 0.223689 0.259072
O O2 0.738678 0.205818 0.156432
O O3 0.680050 0.000000 0.125803
O O4 0.681502 0.242472 0.024809
O O5 0.552439 0.190296 0.371585
O O6 0.544794 0.187341 0.159534
O O7 0.472259 0.272959 0.340844
O O8 0.495388 0.000000 0.318894
O O9 0.388850 0.259201 0.512333
O O10 0.385262 0.000000 0.600592
O O11 0.394734 0.500000 0.154596
O O12 0.322790 0.314350 0.188645
O O13 0.390148 0.281058 0.294374
O O14 0.407660 0.251437 0.058292
O O15 0.797425 0.000000 0.048409
O O16 0.944521 0.500000 0.016711
O O17 0.000000 0.724395 0.000000
O O18 0.580830 0.500000 0.598835
#
# Coordination Sequence:
#
# PCOD8088301 Si02
#       7
#     8   8   8   8   8   8   8
#     4   9  18  35  58  82 105 130 167 213 258 306
#     4  10  20  35  53  75 102 133 170 213 260 304
#     4  10  21  36  54  74 100 135 173 214 258 301
#     4  10  21  35  51  75 108 142 170 205 257 309
#     4   9  18  34  57  82 107 134 164 205 260 313
#     4  10  19  32  53  78 103 132 169 213 254 299
#     4  11  23  36  50  71 103 140 177 213 248 298
#
# _framework density 18.297404
#
# number of rings (size 3 to 8) (size 9 to 14) (size 15 to 20)
#    0.000    2.143    1.429    1.714    0.000    6.000 
#    0.000    0.714    0.000    0.000    0.000    0.000 
#    0.000    0.000    0.000    0.000    0.000    0.000 
#
# Total GULP energy -347243.578995 kJ/mol
# GULP energy per Si atom -12401.556393 kJ/mol
# Density = 1.825576 g / cm^3
# Si number density = 18.297404 Si / 1000 Ang^3
#
#
#
# Elastic Constant Matrix: (Units=GPa)
#
#
# Indices 1 2 3 4 5 6 
#
# 1 94.9763 33.6048 48.5017 0.0000 3.1920 0.0000
# 2 33.6048 54.3875 42.6949 0.0000 0.0984 0.0000
# 3 48.5017 42.6949 100.3116 0.0000 3.6430 0.0000
# 4 0.0000 0.0000 0.0000 29.4594 0.0000 -1.0479
# 5 3.1920 0.0984 3.6430 0.0000 23.8335 0.0000
# 6 0.0000 0.0000 0.0000 -1.0479 0.0000 23.4027
#
#
#
# Elastic Compliance Matrix: (Units=1/GPa)
#
#
# Indices 1 2 3 4 5 6 
#
# 1 0.014987 -0.005413 -0.004897 0.000000 -0.001236 0.000000
# 2 -0.005413 0.029636 -0.010074 0.000000 0.002142 0.000000
# 3 -0.004897 -0.010074 0.016692 0.000000 -0.001854 0.000000
# 4 0.000000 0.000000 0.000000 0.033999 0.000000 0.001522
# 5 -0.001236 0.002142 -0.001854 0.000000 0.042398 0.000000
# 6 0.000000 0.000000 0.000000 0.001522 0.000000 0.042798
#
#
# Mechanical properties :
#
#
# Convention : Reuss Voigt Hill
#
# Bulk Modulus (GPa) = 48.67353 55.47537 52.07445
# Shear Modulus (GPa) = 21.91756 23.66405 22.79081
#
# Velocity S-wave (km/s) = 3.46475 3.60015 3.53310
# Velocity P-wave (km/s) = 6.53185 6.90406 6.72053
#
# Compressibility (1/GPa) = 0.02054505
#
# Stress axis : x y z
#
# Youngs Moduli (GPa) = 66.72553 33.74303 59.90911
#
# Poissons Ratio (x) = 0.18266 0.29340
# Poissons Ratio (y) = 0.36120 0.60353
# Poissons Ratio (z) = 0.32678 0.33993
#
# Static dielectric constant tensor:
#      x y z
#    x 3.480120 0.000000 0.097030 
#    y 0.000000 3.308400 0.000000 
#    z 0.097030 0.000000 3.346750 
# 
# 
# High freq. dielectric constant tensor:
#      x y z
#    x 1.712690 0.000000 0.008030 
#    y 0.000000 1.703130 0.000000 
#    z 0.008030 0.000000 1.702940 
# 
# From -- ./inp_files/186430.got.cif
#   From: 2010.06.25/outbox.cif.g09.slc.cpg/sg12_94_cif.got.tgz:186430.got - 2010.06.28 00:19:55.
