data_PCOD8088643
_publ_section_title
;
Structure prediction by ZEFSAII (Michael W. Deem and Ramdas Pophale) SiO2 
 PCOD8088643
Probable space group: C 2/M
;
_chemical_formula_sum "Si O2"
_cell_formula_units_Z 56
_cell_length_a 22.376257
_cell_length_b 8.996582
_cell_length_c 16.146558
_cell_angle_alpha 90.000000
_cell_angle_beta 60.738688
_cell_angle_gamma 90.000000
_cell_volume 2835.700498
_symmetry_space_group_name_H-M "C 2/M"
_symmetry_group_IT_number 12
_symmetry_cell_setting 'monoclinic'
loop_
_space_group_symop_operation_xyz
x,y,z
-x,y,-z
-x,-y,-z
x,-y,z
1/2+x,1/2+y,z
1/2-x,1/2+y,-z
1/2-x,1/2-y,-z
1/2+x,1/2-y,z
loop_
_atom_site_type_symbol
_atom_site_label
_atom_site_fract_x
_atom_site_fract_y
_atom_site_fract_z
Si Si1 0.583867 0.825234 0.089715
Si Si2 0.172117 0.676061 0.880477
Si Si3 0.430836 0.174537 0.194914
Si Si4 0.572695 0.173825 0.282164
Si Si5 0.433906 0.328936 0.362039
Si Si6 0.706353 0.327882 0.459085
Si Si7 0.292707 0.174942 0.714344
O O1 0.507198 0.773012 0.117515
O O2 0.599700 0.775101 0.173078
O O3 0.588269 0.000000 0.076288
O O4 0.639628 0.759973 0.987901
O O5 0.185550 0.500000 0.873535
O O6 0.120505 0.720738 0.842219
O O7 0.242990 0.761788 0.818945
O O8 0.408437 0.253721 0.294629
O O9 0.429733 0.000000 0.213354
O O10 0.502616 0.256684 0.352995
O O11 0.629815 0.213006 0.311098
O O12 0.555746 0.000000 0.291383
O O13 0.448833 0.500000 0.333452
O O14 0.374300 0.307779 0.469740
O O15 0.727533 0.500000 0.440948
O O16 0.750000 0.250000 0.500000
O O17 0.724759 0.253952 0.359585
O O18 0.281581 0.000000 0.712551
#
# Coordination Sequence:
#
# PCOD8088643 Si02
#       7
#     8   8   8   8   8   8   8
#     4   8  15  31  55  80 106 141 187 230 267 320
#     4  10  19  32  54  81 109 147 189 228 274 323
#     4   9  17  31  53  81 112 144 180 221 269 331
#     4   9  20  39  59  79 107 146 188 225 268 326
#     4  10  21  36  57  83 109 138 176 227 278 321
#     4  11  24  41  61  86 114 144 178 219 271 328
#     4  11  24  39  55  79 112 147 185 229 272 321
#
# _framework density 19.748206
#
# number of rings (size 3 to 8) (size 9 to 14) (size 15 to 20)
#    0.000    2.286    0.000    3.429    0.000    9.143 
#    0.000    5.714    0.000    4.286    0.000    0.000 
#    0.000    0.000    0.000    0.000    0.000    0.000 
#
# Total GULP energy -347222.798333 kJ/mol
# GULP energy per Si atom -12400.814226 kJ/mol
# Density = 1.970326 g / cm^3
# Si number density = 19.748206 Si / 1000 Ang^3
#
#
#
# Elastic Constant Matrix: (Units=GPa)
#
#
# Indices 1 2 3 4 5 6 
#
# 1 81.7684 41.4403 22.2547 0.0000 2.3541 0.0000
# 2 41.4403 72.3086 28.1839 0.0000 -4.0078 0.0001
# 3 22.2547 28.1839 73.0868 0.0000 -12.5566 0.0000
# 4 0.0000 0.0000 0.0000 26.0710 0.0000 -4.2835
# 5 2.3541 -4.0078 -12.5566 0.0000 28.4043 0.0000
# 6 0.0000 0.0001 0.0000 -4.2835 0.0000 27.7998
#
#
#
# Elastic Compliance Matrix: (Units=1/GPa)
#
#
# Indices 1 2 3 4 5 6 
#
# 1 0.017804 -0.009469 -0.002438 0.000000 -0.003889 0.000000
# 2 -0.009469 0.021319 -0.005071 0.000000 0.001551 0.000000
# 3 -0.002438 -0.005071 0.017631 0.000000 0.007281 0.000000
# 4 0.000000 0.000000 0.000000 0.039353 0.000000 0.006064
# 5 -0.003889 0.001551 0.007281 0.000000 0.038966 0.000000
# 6 0.000000 0.000000 0.000000 0.006064 0.000000 0.036906
#
#
# Mechanical properties :
#
#
# Convention : Reuss Voigt Hill
#
# Bulk Modulus (GPa) = 43.86427 45.65796 44.76112
# Shear Modulus (GPa) = 23.41541 25.47400 24.44470
#
# Velocity S-wave (km/s) = 3.44713 3.59547 3.52208
# Velocity P-wave (km/s) = 6.17281 6.35663 6.26540
#
# Compressibility (1/GPa) = 0.02279760
#
# Stress axis : x y z
#
# Youngs Moduli (GPa) = 56.16705 46.90676 56.71752
#
# Poissons Ratio (x) = 0.44415 0.13828
# Poissons Ratio (y) = 0.53184 0.28763
# Poissons Ratio (z) = 0.13694 0.23788
#
# Static dielectric constant tensor:
#      x y z
#    x 3.618160 0.000000 -0.088890 
#    y 0.000000 3.416570 0.000000 
#    z -0.088890 0.000000 3.726290 
# 
# 
# High freq. dielectric constant tensor:
#      x y z
#    x 1.772020 0.000000 -0.006720 
#    y 0.000000 1.752260 0.000000 
#    z -0.006720 0.000000 1.774030 
# 
# From -- ./inp_files/237484.got.cif
#   From: 2010.06.25/outbox.cif.g09.slc.cpg/sg12_119_cif.got.tgz:237484.got - 2010.06.28 00:19:55.
