data_PCOD8088886
_publ_section_title
;
Structure prediction by ZEFSAII (Michael W. Deem and Ramdas Pophale) SiO2 
 PCOD8088886
Probable space group: C 2/M
;
_chemical_formula_sum "Si O2"
_cell_formula_units_Z 56
_cell_length_a 23.028528
_cell_length_b 13.596721
_cell_length_c 20.516281
_cell_angle_alpha 90.000000
_cell_angle_beta 154.078001
_cell_angle_gamma 90.000000
_cell_volume 2808.191047
_symmetry_space_group_name_H-M "C 2/M"
_symmetry_group_IT_number 12
_symmetry_cell_setting 'monoclinic'
loop_
_space_group_symop_operation_xyz
x,y,z
-x,y,-z
-x,-y,-z
x,-y,z
1/2+x,1/2+y,z
1/2-x,1/2+y,-z
1/2-x,1/2-y,-z
1/2+x,1/2-y,z
loop_
_atom_site_type_symbol
_atom_site_label
_atom_site_fract_x
_atom_site_fract_y
_atom_site_fract_z
Si Si1 0.836555 0.112851 0.552097
Si Si2 0.766131 0.798151 0.613928
Si Si3 0.705779 0.384867 0.077201
Si Si4 0.506083 0.114876 0.675450
Si Si5 0.130809 0.885017 0.861570
Si Si6 0.907580 0.616488 0.094390
Si Si7 0.493260 0.750634 0.066090
O O1 0.819343 0.129263 0.611646
O O2 0.738337 0.184102 0.413939
O O3 0.989003 0.139009 0.686104
O O4 0.801548 0.000000 0.499580
O O5 0.618027 0.831817 0.484347
O O6 0.867731 0.804621 0.776722
O O7 0.679831 0.500000 0.061351
O O8 0.863278 0.362399 0.235388
O O9 0.641843 0.341114 0.945686
O O10 0.629878 0.325930 0.057248
O O11 0.525105 0.153335 0.769513
O O12 0.477299 0.000000 0.648649
O O13 0.150313 0.000000 0.892914
O O14 0.252075 0.849554 0.938330
O O15 0.921864 0.500000 0.103544
O O16 0.975420 0.661794 0.099544
O O17 0.500000 0.794061 0.000000
#
# Coordination Sequence:
#
# PCOD8088886 Si02
#       7
#     8   8   8   8   8   8   8
#     4  10  19  32  55  88 120 140 170 228 294 344
#     4  11  22  34  53  85 114 150 179 224 286 326
#     4   9  19  37  58  83 113 145 182 227 278 330
#     4   9  19  36  63  92 113 134 172 235 298 341
#     4   8  15  30  57  88 110 135 171 225 289 337
#     4   9  19  36  59  87 113 141 183 229 281 334
#     4  12  26  39  53  77 112 159 199 222 257 322
#
# _framework density 19.941663999999999
#
# number of rings (size 3 to 8) (size 9 to 14) (size 15 to 20)
#    0.000    2.286    1.429    3.857    2.000    4.000 
#    0.000    0.714    0.000    1.714    0.000    3.000 
#    0.000    0.000    0.000    0.000    0.000    0.000 
#
# Total GULP energy -347120.224052 kJ/mol
# GULP energy per Si atom -12397.150859 kJ/mol
# Density = 1.989628 g / cm^3
# Si number density = 19.941664 Si / 1000 Ang^3
#
#
#
# Elastic Constant Matrix: (Units=GPa)
#
#
# Indices 1 2 3 4 5 6 
#
# 1 81.0743 27.0710 44.4634 0.0010 5.6596 0.0004
# 2 27.0710 52.3447 27.8944 0.0012 12.6717 0.0007
# 3 44.4634 27.8944 86.8047 0.0018 18.1763 0.0011
# 4 0.0010 0.0012 0.0018 23.7462 0.0008 9.1085
# 5 5.6596 12.6717 18.1763 0.0008 24.0475 0.0005
# 6 0.0004 0.0007 0.0011 9.1085 0.0005 25.4592
#
#
#
# Elastic Compliance Matrix: (Units=1/GPa)
#
#
# Indices 1 2 3 4 5 6 
#
# 1 0.018918 -0.006455 -0.008787 0.000000 0.005590 0.000000
# 2 -0.006455 0.026548 -0.003105 0.000000 -0.010123 0.000000
# 3 -0.008787 -0.003105 0.019297 0.000000 -0.010882 0.000000
# 4 0.000000 0.000000 0.000000 0.048810 -0.000001 -0.017463
# 5 0.005590 -0.010123 -0.010882 -0.000001 0.053828 0.000000
# 6 0.000000 0.000000 0.000000 -0.017463 0.000000 0.045526
#
#
# Mechanical properties :
#
#
# Convention : Reuss Voigt Hill
#
# Bulk Modulus (GPa) = 35.62518 46.56460 41.09489
# Shear Modulus (GPa) = 19.30671 22.70358 21.00515
#
# Velocity S-wave (km/s) = 3.11490 3.37783 3.24903
# Velocity P-wave (km/s) = 5.55340 6.21402 5.89298
#
# Compressibility (1/GPa) = 0.02807004
#
# Stress axis : x y z
#
# Youngs Moduli (GPa) = 52.85881 37.66814 51.82094
#
# Poissons Ratio (x) = 0.24314 0.45534
# Poissons Ratio (y) = 0.34120 0.16090
# Poissons Ratio (z) = 0.46446 0.11696
#
# Static dielectric constant tensor:
#      x y z
#    x 3.297210 0.000000 0.489180 
#    y 0.000000 3.570230 0.000000 
#    z 0.489180 0.000000 3.645000 
# 
# 
# High freq. dielectric constant tensor:
#      x y z
#    x 1.732800 0.000000 0.050760 
#    y 0.000000 1.790870 0.000000 
#    z 0.050760 0.000000 1.766780 
# 
# From -- ./inp_files/284508.got.cif
#   From: 2010.06.25/outbox.cif.g09.slc.cpg/sg12_143_cif.got.tgz:284508.got - 2010.06.28 00:19:55.
