data_PCOD8088957
_publ_section_title
;
Structure prediction by ZEFSAII (Michael W. Deem and Ramdas Pophale) SiO2 
 PCOD8088957
Probable space group: C 2/M
;
_chemical_formula_sum "Si O2"
_cell_formula_units_Z 48
_cell_length_a 22.384330
_cell_length_b 24.316343
_cell_length_c 9.891990
_cell_angle_alpha 90.000000
_cell_angle_beta 152.166592
_cell_angle_gamma 90.000000
_cell_volume 2513.923639
_symmetry_space_group_name_H-M "C 2/M"
_symmetry_group_IT_number 12
_symmetry_cell_setting 'monoclinic'
loop_
_space_group_symop_operation_xyz
x,y,z
-x,y,-z
-x,-y,-z
x,-y,z
1/2+x,1/2+y,z
1/2-x,1/2+y,-z
1/2-x,1/2-y,-z
1/2+x,1/2-y,z
loop_
_atom_site_type_symbol
_atom_site_label
_atom_site_fract_x
_atom_site_fract_y
_atom_site_fract_z
Si Si1 0.376031 0.741445 0.842025
Si Si2 0.733261 0.637626 0.256803
Si Si3 0.144702 0.062567 0.305331
Si Si4 0.143480 0.936037 0.830985
Si Si5 0.015986 0.647111 0.874296
Si Si6 0.795905 0.437565 0.871140
O O1 0.250000 0.750000 0.500000
O O2 0.354209 0.691801 0.902855
O O3 0.500000 0.727663 0.000000
O O4 0.402143 0.797092 0.977989
O O5 0.733701 0.601654 0.394486
O O6 0.879584 0.655839 0.528775
O O7 0.679211 0.601696 0.027670
O O8 0.181573 0.069324 0.535139
O O9 0.161384 0.000000 0.288413
O O10 0.000000 0.082570 0.000000
O O11 0.240013 0.920626 0.903880
O O12 0.000000 0.922428 0.500000
O O13 0.155795 0.000000 0.896971
O O14 0.000000 0.631732 0.000000
O O15 0.083652 0.599009 0.927009
O O16 0.846030 0.500000 0.973601
#
# Coordination Sequence:
#
# PCOD8088957 Si02
#       6
#     8   8   8   8   8   8
#     4  11  21  39  63  93 129 166 210 271 329 374
#     4  12  22  38  65  91 120 172 209 260 324 379
#     4  10  19  32  56  92 121 152 206 261 309 373
#     4  10  23  43  64  93 131 169 212 260 316 387
#     4  11  22  40  60  93 129 156 212 271 313 383
#     4  10  21  38  61  87 126 167 198 255 325 378
#
# _framework density 19.093657
#
# number of rings (size 3 to 8) (size 9 to 14) (size 15 to 20)
#    0.000    1.333    5.000    2.000    0.000    6.333 
#    0.000    2.500    0.000    0.000    0.000    0.000 
#    0.000    0.000    0.000    0.000    0.000    0.000 
#
# Total GULP energy -297665.744284 kJ/mol
# GULP energy per Si atom -12402.739345 kJ/mol
# Density = 1.905020 g / cm^3
# Si number density = 19.093657 Si / 1000 Ang^3
#
#
#
# Elastic Constant Matrix: (Units=GPa)
#
#
# Indices 1 2 3 4 5 6 
#
# 1 100.8698 68.2933 39.8040 0.0000 3.5368 0.0000
# 2 68.2933 123.0274 51.3607 0.0000 4.3779 0.0000
# 3 39.8040 51.3607 110.3110 0.0000 13.1237 0.0000
# 4 0.0000 0.0000 0.0000 24.9409 0.0000 4.5720
# 5 3.5368 4.3779 13.1237 0.0000 34.5126 0.0000
# 6 0.0000 0.0000 0.0000 4.5720 0.0000 40.2537
#
#
#
# Elastic Compliance Matrix: (Units=1/GPa)
#
#
# Indices 1 2 3 4 5 6 
#
# 1 0.016255 -0.008158 -0.002086 0.000000 0.000162 0.000000
# 2 -0.008158 0.014193 -0.003718 0.000000 0.000449 0.000000
# 3 -0.002086 -0.003718 0.012011 0.000000 -0.003882 0.000000
# 4 0.000000 0.000000 0.000000 0.040947 0.000000 -0.004651
# 5 0.000162 0.000449 -0.003882 0.000000 0.030377 0.000000
# 6 0.000000 0.000000 0.000000 -0.004651 0.000000 0.025371
#
#
# Mechanical properties :
#
#
# Convention : Reuss Voigt Hill
#
# Bulk Modulus (GPa) = 68.80309 72.56935 70.68622
# Shear Modulus (GPa) = 29.08282 31.59146 30.33714
#
# Velocity S-wave (km/s) = 3.90701 4.07203 3.99037
# Velocity P-wave (km/s) = 7.51437 7.75875 7.63753
#
# Compressibility (1/GPa) = 0.01453423
#
# Stress axis : x y z
#
# Youngs Moduli (GPa) = 61.52137 70.45759 83.25686
#
# Poissons Ratio (x) = 0.57478 0.17369
# Poissons Ratio (y) = 0.50188 0.30956
# Poissons Ratio (z) = 0.12835 0.26197
#
# Static dielectric constant tensor:
#      x y z
#    x 3.459730 0.000000 0.170360 
#    y 0.000000 3.658140 0.000000 
#    z 0.170360 0.000000 3.470640 
# 
# 
# High freq. dielectric constant tensor:
#      x y z
#    x 1.730010 0.000000 0.015590 
#    y 0.000000 1.748530 0.000000 
#    z 0.015590 0.000000 1.744900 
# 
# From -- ./inp_files/91279.got.cif
#   From: 2010.06.25/outbox.cif.g09.slc.cpg/sg12_46_cif.got.tgz:91279.got - 2010.06.28 00:19:55.
