data_PCOD8088040
_publ_section_title
;
Structure prediction by ZEFSAII (Michael W. Deem and Ramdas Pophale) SiO2 
 PCOD8088040
Probable space group: C 2/M
;
_chemical_formula_sum "Si O2"
_cell_formula_units_Z 56
_cell_length_a 17.018645
_cell_length_b 14.616052
_cell_length_c 14.111604
_cell_angle_alpha 90.000000
_cell_angle_beta 127.085188
_cell_angle_gamma 90.000000
_cell_volume 2800.223671
_symmetry_space_group_name_H-M "C 2/M"
_symmetry_group_IT_number 12
_symmetry_cell_setting 'monoclinic'
loop_
_space_group_symop_operation_xyz
x,y,z
-x,y,-z
-x,-y,-z
x,-y,z
1/2+x,1/2+y,z
1/2-x,1/2+y,-z
1/2-x,1/2-y,-z
1/2+x,1/2-y,z
loop_
_atom_site_type_symbol
_atom_site_label
_atom_site_fract_x
_atom_site_fract_y
_atom_site_fract_z
Si Si1 0.593321 0.103243 0.500000
Si Si2 0.392520 0.604542 0.954541
Si Si3 0.210627 0.292732 0.733745
Si Si4 0.937979 0.395458 0.045459
Si Si5 0.523118 0.207268 0.733745
Si Si6 0.259138 0.598506 0.200321
Si Si7 0.558817 0.401494 0.799679
O O1 0.500000 0.101429 0.500000
O O2 0.681786 0.156297 0.616091
O O3 0.565694 0.156297 0.383909
O O4 0.626881 0.000000 0.500000
O O5 0.374464 0.500000 0.910442
O O6 0.310573 0.665398 0.845670
O O7 0.500000 0.638221 0.000000
O O8 0.384557 0.617302 0.061162
O O9 0.125564 0.302259 0.751129
O O10 0.232286 0.185841 0.723624
O O11 0.964023 0.500000 0.089558
O O12 0.964903 0.334602 0.154330
O O13 0.823395 0.382698 0.938838
O O14 0.000000 0.361779 0.000000
O O15 0.491338 0.314159 0.723624
O O16 0.236848 0.500000 0.236542
O O17 0.361775 0.588024 0.223551
O O18 0.500307 0.500000 0.763458
#
# Coordination Sequence:
#
# PCOD8088040 Si02
#       7
#     8   8   8   8   8   8   8
#     4   9  18  32  51  76 103 131 167 209 250 297
#     4  10  20  32  49  75 105 135 167 208 259 309
#     4  10  19  32  52  77 104 135 170 208 252 301
#     4  10  20  32  49  75 105 135 167 208 259 309
#     4  10  19  32  52  77 104 135 170 208 252 301
#     4   9  18  32  49  71 100 133 170 211 254 302
#     4   9  18  32  49  71 100 133 170 211 254 302
#
# _framework density 19.998403
#
# number of rings (size 3 to 8) (size 9 to 14) (size 15 to 20)
#    0.000    2.429    0.000    2.571    0.000    7.429 
#    0.000    0.714    0.000    7.714    0.000    6.000 
#    0.000    0.000    0.000    0.000    0.000    1.143 
#
# Total GULP energy -347000.375213 kJ/mol
# GULP energy per Si atom -12392.870543 kJ/mol
# Density = 1.995289 g / cm^3
# Si number density = 19.998403 Si / 1000 Ang^3
#
#
#
# Elastic Constant Matrix: (Units=GPa)
#
#
# Indices 1 2 3 4 5 6 
#
# 1 29.4198 32.1666 16.3176 0.0000 -0.4912 0.0000
# 2 32.1666 211.4948 100.4266 0.0000 -1.8738 0.0000
# 3 16.3176 100.4266 103.3519 0.0000 -1.5383 0.0000
# 4 0.0000 0.0000 0.0000 40.9648 0.0000 -0.6670
# 5 -0.4912 -1.8738 -1.5383 0.0000 15.5270 0.0000
# 6 0.0000 0.0000 0.0000 -0.6670 0.0000 16.6668
#
#
#
# Elastic Compliance Matrix: (Units=1/GPa)
#
#
# Indices 1 2 3 4 5 6 
#
# 1 0.040807 -0.005841 -0.000759 0.000000 0.000511 0.000000
# 2 -0.005841 0.009616 -0.008419 0.000000 0.000142 0.000000
# 3 -0.000759 -0.008419 0.017987 0.000000 0.000742 0.000000
# 4 0.000000 0.000000 0.000000 0.024427 0.000000 0.000978
# 5 0.000511 0.000142 0.000742 0.000000 0.064511 0.000000
# 6 0.000000 0.000000 0.000000 0.000978 0.000000 0.060039
#
#
# Mechanical properties :
#
#
# Convention : Reuss Voigt Hill
#
# Bulk Modulus (GPa) = 26.06144 71.34312 48.70228
# Shear Modulus (GPa) = 19.21478 27.65544 23.43511
#
# Velocity S-wave (km/s) = 3.10307 3.72275 3.42694
# Velocity P-wave (km/s) = 5.08908 7.36412 6.32965
#
# Compressibility (1/GPa) = 0.03837086
#
# Stress axis : x y z
#
# Youngs Moduli (GPa) = 24.50557 103.99644 55.59438
#
# Poissons Ratio (x) = 0.60749 0.04220
# Poissons Ratio (y) = 0.14315 0.46806
# Poissons Ratio (z) = 0.01860 0.87556
#
# Static dielectric constant tensor:
#      x y z
#    x 3.356080 0.000000 -0.002440 
#    y 0.000000 4.441150 0.000000 
#    z -0.002440 0.000000 3.445110 
# 
# 
# High freq. dielectric constant tensor:
#      x y z
#    x 1.747200 0.000000 -0.000100 
#    y 0.000000 1.811010 0.000000 
#    z -0.000100 0.000000 1.750780 
# 
# From -- ./inp_files/225364.got.cif
#   From: 2010.06.25/outbox.cif.g09.slc.cpg/sg12_113_cif.got.tgz:225364.got - 2010.06.28 00:19:55.
