data_PCOD8088998
_publ_section_title
;
Structure prediction by ZEFSAII (Michael W. Deem and Ramdas Pophale) SiO2 
 PCOD8088998
Probable space group: C 2/M
;
_chemical_formula_sum "Si O2"
_cell_formula_units_Z 52
_cell_length_a 12.515529
_cell_length_b 30.168518
_cell_length_c 7.478968
_cell_angle_alpha 90.000000
_cell_angle_beta 127.898661
_cell_angle_gamma 90.000000
_cell_volume 2228.312248
_symmetry_space_group_name_H-M "C 2/M"
_symmetry_group_IT_number 12
_symmetry_cell_setting 'monoclinic'
loop_
_space_group_symop_operation_xyz
x,y,z
-x,y,-z
-x,-y,-z
x,-y,z
1/2+x,1/2+y,z
1/2-x,1/2+y,-z
1/2-x,1/2-y,-z
1/2+x,1/2-y,z
loop_
_atom_site_type_symbol
_atom_site_label
_atom_site_fract_x
_atom_site_fract_y
_atom_site_fract_z
Si Si1 0.129431 0.884188 0.819999
Si Si2 0.500000 0.774332 0.000000
Si Si3 0.932369 0.950123 0.743692
Si Si4 0.858174 0.572674 0.651690
Si Si5 0.349735 0.950393 0.058637
Si Si6 0.726765 0.837988 0.349150
Si Si7 0.986798 0.201688 0.699123
O O1 0.998135 0.916421 0.667503
O O2 0.177471 0.868818 0.674990
O O3 0.084752 0.838153 0.870847
O O4 0.249364 0.912902 0.039697
O O5 0.366971 0.804461 0.855985
O O6 0.521788 0.745600 0.844321
O O7 0.769881 0.945698 0.589503
O O8 0.971183 0.000000 0.729391
O O9 0.000000 0.936429 0.000000
O O10 0.865120 0.626415 0.640565
O O11 0.998141 0.555553 0.708890
O O12 0.848769 0.555393 0.844401
O O13 0.298163 0.000000 0.054221
O O14 0.829935 0.810810 0.581367
O O15 0.000000 0.211179 0.500000
#
# Coordination Sequence:
#
# PCOD8088998 Si02
#       7
#     8   4   8   8   8   8   8
#     4  10  21  38  60  87 129 167 213 278 325 386
#     4  12  24  42  72  94 132 178 214 286 354 402
#     4  11  23  38  60  92 130 179 230 267 322 400
#     4  10  19  37  60  88 129 164 210 270 328 391
#     4  10  19  32  58  92 122 162 212 266 329 386
#     4  10  21  40  62  96 126 165 220 276 340 409
#     4  10  23  41  63  95 132 170 225 279 335 414
#
# _framework density 23.336047000000001
#
# number of rings (size 3 to 8) (size 9 to 14) (size 15 to 20)
#    0.000    1.692    1.538    4.615    3.231    2.462 
#    0.000    4.615    0.000    4.615    0.000    0.000 
#    0.000    0.000    0.000    0.000    0.000    0.000 
#
# Total GULP energy -322196.221411 kJ/mol
# GULP energy per Si atom -12392.162362 kJ/mol
# Density = 2.328293 g / cm^3
# Si number density = 23.336047 Si / 1000 Ang^3
#
#
#
# Elastic Constant Matrix: (Units=GPa)
#
#
# Indices 1 2 3 4 5 6 
#
# 1 51.2492 41.1241 48.9644 0.0000 21.0755 0.0000
# 2 41.1241 164.6904 61.0609 0.0000 6.9580 0.0000
# 3 48.9644 61.0609 127.1351 0.0000 33.6736 0.0000
# 4 0.0000 0.0000 0.0000 27.1577 0.0000 8.8658
# 5 21.0755 6.9580 33.6736 0.0000 38.8379 0.0000
# 6 0.0000 0.0000 0.0000 8.8658 0.0000 21.6481
#
#
#
# Elastic Compliance Matrix: (Units=1/GPa)
#
#
# Indices 1 2 3 4 5 6 
#
# 1 0.036839 -0.005589 -0.008404 0.000000 -0.011703 0.000000
# 2 -0.005589 0.008393 -0.002965 0.000000 0.004099 0.000000
# 3 -0.008404 -0.002965 0.014510 0.000000 -0.007489 0.000000
# 4 0.000000 0.000000 0.000000 0.042505 0.000000 -0.017407
# 5 -0.011703 0.004099 -0.007489 0.000000 0.037857 0.000000
# 6 0.000000 0.000000 0.000000 -0.017407 0.000000 0.053322
#
#
# Mechanical properties :
#
#
# Convention : Reuss Voigt Hill
#
# Bulk Modulus (GPa) = 38.71851 71.70815 55.21333
# Shear Modulus (GPa) = 21.19081 30.32376 25.75728
#
# Velocity S-wave (km/s) = 3.01669 3.60868 3.32589
# Velocity P-wave (km/s) = 5.36299 6.93964 6.20162
#
# Compressibility (1/GPa) = 0.02582744
#
# Stress axis : x y z
#
# Youngs Moduli (GPa) = 27.14492 119.14006 68.91871
#
# Poissons Ratio (x) = 0.66582 0.57922
# Poissons Ratio (y) = 0.15170 0.20432
# Poissons Ratio (z) = 0.22814 0.35321
#
# Static dielectric constant tensor:
#      x y z
#    x 4.091880 0.000000 0.613240 
#    y 0.000000 4.525080 0.000000 
#    z 0.613240 0.000000 4.182660 
# 
# 
# High freq. dielectric constant tensor:
#      x y z
#    x 1.895550 0.000000 0.036740 
#    y 0.000000 1.937590 0.000000 
#    z 0.036740 0.000000 1.912680 
# 
# From -- ./inp_files/68677.got.cif
#   From: 2010.06.25/outbox.cif.g09.slc.cpg/sg12_35_cif.got.tgz:68677.got - 2010.06.28 00:19:55.
