data_PCOD8088900
_publ_section_title
;
Structure prediction by ZEFSAII (Michael W. Deem and Ramdas Pophale) SiO2 
 PCOD8088900
Probable space group: C 2/M
;
_chemical_formula_sum "Si O2"
_cell_formula_units_Z 64
_cell_length_a 17.588420
_cell_length_b 27.416726
_cell_length_c 19.518449
_cell_angle_alpha 90.000000
_cell_angle_beta 158.255363
_cell_angle_gamma 90.000000
_cell_volume 3486.914932
_symmetry_space_group_name_H-M "C 2/M"
_symmetry_group_IT_number 12
_symmetry_cell_setting 'monoclinic'
loop_
_space_group_symop_operation_xyz
x,y,z
-x,y,-z
-x,-y,-z
x,-y,z
1/2+x,1/2+y,z
1/2-x,1/2+y,-z
1/2-x,1/2-y,-z
1/2+x,1/2-y,z
loop_
_atom_site_type_symbol
_atom_site_label
_atom_site_fract_x
_atom_site_fract_y
_atom_site_fract_z
Si Si1 0.118207 0.344962 0.765529
Si Si2 0.682594 0.555579 0.099341
Si Si3 0.523308 0.622892 0.331241
Si Si4 0.177647 0.946353 0.939631
Si Si5 0.230235 0.208906 0.426549
Si Si6 0.397375 0.835854 0.986008
Si Si7 0.066203 0.385739 0.256076
Si Si8 0.883209 0.236466 0.044803
O O1 0.162410 0.397444 0.764818
O O2 0.947761 0.313406 0.581718
O O3 0.013475 0.349954 0.751909
O O4 0.318909 0.312702 0.949649
O O5 0.778495 0.500000 0.191146
O O6 0.500000 0.563745 0.000000
O O7 0.598868 0.558280 0.951914
O O8 0.480039 0.582828 0.238063
O O9 0.586008 0.669101 0.339903
O O10 0.317485 0.635679 0.199701
O O11 0.695219 0.602557 0.528032
O O12 0.160758 0.000000 0.896936
O O13 0.418129 0.932601 0.133941
O O14 0.250000 0.250000 0.500000
O O15 0.118363 0.229610 0.265280
O O16 0.500000 0.843314 0.000000
O O17 0.548478 0.858766 0.169051
O O18 0.363248 0.779216 0.972970
O O19 0.750000 0.250000 0.000000
#
# Coordination Sequence:
#
# PCOD8088900 Si02
#       8
#     8   8   8   8   8   8   8   8
#     4  10  19  32  56  81 101 144 196 231 270 335
#     4   9  18  34  56  81 115 156 193 240 300 342
#     4  10  19  34  55  78 104 144 183 224 275 326
#     4   9  18  33  56  85 108 134 185 237 275 329
#     4  11  18  30  54  79 102 139 188 225 268 323
#     4  11  22  34  51  80 111 143 180 223 276 337
#     4   9  18  34  54  76 104 141 180 227 273 323
#     4  12  18  33  54  78 109 147 181 223 278 329
#
# _framework density 18.354334000000001
#
# number of rings (size 3 to 8) (size 9 to 14) (size 15 to 20)
#    0.000    1.875    3.750    2.250    0.000    1.500 
#    0.000    1.875    0.000   26.250    0.000   43.750 
#    0.000    0.000    0.000    0.000    0.000    0.000 
#
# Total GULP energy -396511.500336 kJ/mol
# GULP energy per Si atom -12390.984386 kJ/mol
# Density = 1.831256 g / cm^3
# Si number density = 18.354334 Si / 1000 Ang^3
#
#
#
# Elastic Constant Matrix: (Units=GPa)
#
#
# Indices 1 2 3 4 5 6 
#
# 1 81.6936 34.5069 36.9705 0.0007 5.7667 0.0003
# 2 34.5069 124.8765 52.8802 -0.0001 1.1601 -0.0001
# 3 36.9705 52.8802 135.6441 0.0016 -8.5709 0.0005
# 4 0.0007 -0.0001 0.0016 23.3376 0.0002 -2.3018
# 5 5.7667 1.1601 -8.5709 0.0002 14.7524 0.0003
# 6 0.0003 -0.0001 0.0005 -2.3018 0.0003 19.7618
#
#
#
# Elastic Compliance Matrix: (Units=1/GPa)
#
#
# Indices 1 2 3 4 5 6 
#
# 1 0.015623 -0.002663 -0.003730 0.000000 -0.008064 0.000000
# 2 -0.002663 0.010178 -0.003350 0.000000 -0.001706 0.000000
# 3 -0.003730 -0.003350 0.010177 -0.000001 0.007634 0.000000
# 4 0.000000 0.000000 -0.000001 0.043347 -0.000001 0.005049
# 5 -0.008064 -0.001706 0.007634 -0.000001 0.075507 -0.000001
# 6 0.000000 0.000000 0.000000 0.005049 -0.000001 0.051191
#
#
# Mechanical properties :
#
#
# Convention : Reuss Voigt Hill
#
# Bulk Modulus (GPa) = 60.63026 65.65880 63.14453
# Shear Modulus (GPa) = 21.64453 26.09414 23.86934
#
# Velocity S-wave (km/s) = 3.43776 3.77462 3.61012
# Velocity P-wave (km/s) = 6.99017 7.40591 7.20104
#
# Compressibility (1/GPa) = 0.01649341
#
# Stress axis : x y z
#
# Youngs Moduli (GPa) = 64.00960 98.25006 98.26027
#
# Poissons Ratio (x) = 0.26162 0.36646
# Poissons Ratio (y) = 0.17044 0.32916
# Poissons Ratio (z) = 0.23873 0.32913
#
# Static dielectric constant tensor:
#      x y z
#    x 3.026640 0.000000 -0.108690 
#    y 0.000000 3.522830 0.000000 
#    z -0.108690 0.000000 3.657150 
# 
# 
# High freq. dielectric constant tensor:
#      x y z
#    x 1.675670 0.000000 -0.006160 
#    y 0.000000 1.721370 0.000000 
#    z -0.006160 0.000000 1.709320 
# 
# From -- ./inp_files/286689.got.cif
#   From: 2010.06.25/outbox.cif.g09.slc.cpg/sg12_144_cif.got.tgz:286689.got - 2010.06.28 00:19:55.
