data_PCOD8088337
_publ_section_title
;
Structure prediction by ZEFSAII (Michael W. Deem and Ramdas Pophale) SiO2 
 PCOD8088337
Probable space group: C 2/M
;
_chemical_formula_sum "Si O2"
_cell_formula_units_Z 64
_cell_length_a 20.414857
_cell_length_b 22.151525
_cell_length_c 17.754299
_cell_angle_alpha 90.000000
_cell_angle_beta 158.730736
_cell_angle_gamma 90.000000
_cell_volume 2912.477456
_symmetry_space_group_name_H-M "C 2/M"
_symmetry_group_IT_number 12
_symmetry_cell_setting 'monoclinic'
loop_
_space_group_symop_operation_xyz
x,y,z
-x,y,-z
-x,-y,-z
x,-y,z
1/2+x,1/2+y,z
1/2-x,1/2+y,-z
1/2-x,1/2-y,-z
1/2+x,1/2-y,z
loop_
_atom_site_type_symbol
_atom_site_label
_atom_site_fract_x
_atom_site_fract_y
_atom_site_fract_z
Si Si1 0.958889 0.162081 0.294034
Si Si2 0.745981 0.565133 0.110690
Si Si3 0.286365 0.781941 0.859293
Si Si4 0.811855 0.727636 0.713182
Si Si5 0.310767 0.190237 0.119647
Si Si6 0.600463 0.432648 0.344258
Si Si7 0.297738 0.568921 0.769222
Si Si8 0.806540 0.654391 0.470445
O O1 0.851227 0.165242 0.258287
O O2 0.159369 0.188538 0.509357
O O3 0.982309 0.094040 0.287986
O O4 0.829249 0.204285 0.099742
O O5 0.818742 0.500000 0.158941
O O6 0.822283 0.617779 0.141315
O O7 0.801774 0.572550 0.257026
O O8 0.526159 0.565042 0.865683
O O9 0.248205 0.766389 0.731849
O O10 0.248570 0.721400 0.866566
O O11 0.493787 0.804647 0.088680
O O12 0.841039 0.794433 0.708954
O O13 0.522539 0.198637 0.329103
O O14 0.671281 0.500000 0.441336
O O15 0.757568 0.384847 0.492106
O O16 0.302962 0.500000 0.744733
O O17 0.178293 0.608580 0.583828
O O18 0.500000 0.594078 0.000000
#
# Coordination Sequence:
#
# PCOD8088337 Si02
#       8
#     8   8   8   8   8   8   8   8
#     4  11  24  44  67  90 132 170 216 266 325 388
#     4   9  18  34  52  76 114 163 214 262 310 364
#     4  11  24  43  62  97 131 161 219 260 326 390
#     4  11  25  40  69  95 128 172 206 269 327 389
#     4  11  24  37  57  89 132 172 210 267 316 385
#     4  10  22  40  63  91 123 166 217 265 320 380
#     4  10  19  32  53  78 117 172 224 268 308 361
#     4  12  23  34  59  90 131 170 216 259 317 379
#
# _framework density 21.974419000000001
#
# number of rings (size 3 to 8) (size 9 to 14) (size 15 to 20)
#    0.000    1.375    2.500    3.375    3.500    3.500 
#    0.000    1.250    0.000    1.500    0.000    1.750 
#    0.000    0.000    0.000    0.000    0.000    0.000 
#
# Total GULP energy -396551.054552 kJ/mol
# GULP energy per Si atom -12392.220455 kJ/mol
# Density = 2.192440 g / cm^3
# Si number density = 21.974419 Si / 1000 Ang^3
#
#
#
# Elastic Constant Matrix: (Units=GPa)
#
#
# Indices 1 2 3 4 5 6 
#
# 1 81.4135 49.0170 16.4346 -0.0002 11.6942 -0.0001
# 2 49.0170 76.5898 33.5191 0.0001 -2.0901 0.0000
# 3 16.4346 33.5191 91.4483 -0.0009 0.3879 -0.0002
# 4 -0.0002 0.0001 -0.0009 27.1405 -0.0005 2.4312
# 5 11.6942 -2.0901 0.3879 -0.0005 26.5350 -0.0002
# 6 -0.0001 0.0000 -0.0002 2.4312 -0.0002 31.9204
#
#
#
# Elastic Compliance Matrix: (Units=1/GPa)
#
#
# Indices 1 2 3 4 5 6 
#
# 1 0.023142 -0.015871 0.001707 0.000000 -0.011474 0.000000
# 2 -0.015871 0.026481 -0.006893 0.000000 0.009181 0.000000
# 3 0.001707 -0.006893 0.013161 0.000000 -0.001488 0.000000
# 4 0.000000 0.000000 0.000000 0.037098 0.000001 -0.002826
# 5 -0.011474 0.009181 -0.001488 0.000001 0.043488 0.000000
# 6 0.000000 0.000000 0.000000 -0.002826 0.000000 0.031543
#
#
# Mechanical properties :
#
#
# Convention : Reuss Voigt Hill
#
# Bulk Modulus (GPa) = 48.37824 49.71035 49.04430
# Shear Modulus (GPa) = 22.32965 27.15123 24.74044
#
# Velocity S-wave (km/s) = 3.19119 3.51890 3.35905
# Velocity P-wave (km/s) = 5.97007 6.25949 6.11650
#
# Compressibility (1/GPa) = 0.02067045
#
# Stress axis : x y z
#
# Youngs Moduli (GPa) = 43.21148 37.76281 75.98087
#
# Poissons Ratio (x) = 0.59933 -0.12970
# Poissons Ratio (y) = 0.68581 0.52373
# Poissons Ratio (z) = -0.07376 0.26030
#
# Static dielectric constant tensor:
#      x y z
#    x 3.781430 0.000000 -0.035410 
#    y 0.000000 3.929230 0.000000 
#    z -0.035410 0.000000 4.015870 
# 
# 
# High freq. dielectric constant tensor:
#      x y z
#    x 1.846760 0.000000 0.007190 
#    y 0.000000 1.851270 0.000000 
#    z 0.007190 0.000000 1.864710 
# 
# From -- ./inp_files/286471.got.cif
#   From: 2010.06.25/outbox.cif.g09.slc.cpg/sg12_144_cif.got.tgz:286471.got - 2010.06.28 00:19:55.
