data_PCOD8088416
_publ_section_title
;
Structure prediction by ZEFSAII (Michael W. Deem and Ramdas Pophale) SiO2 
 PCOD8088416
Probable space group: C 2/M
;
_chemical_formula_sum "Si O2"
_cell_formula_units_Z 64
_cell_length_a 18.572964
_cell_length_b 16.503571
_cell_length_c 23.486755
_cell_angle_alpha 90.000000
_cell_angle_beta 151.219898
_cell_angle_gamma 90.000000
_cell_volume 3466.033330
_symmetry_space_group_name_H-M "C 2/M"
_symmetry_group_IT_number 12
_symmetry_cell_setting 'monoclinic'
loop_
_space_group_symop_operation_xyz
x,y,z
-x,y,-z
-x,-y,-z
x,-y,z
1/2+x,1/2+y,z
1/2-x,1/2+y,-z
1/2-x,1/2-y,-z
1/2+x,1/2-y,z
loop_
_atom_site_type_symbol
_atom_site_label
_atom_site_fract_x
_atom_site_fract_y
_atom_site_fract_z
Si Si1 0.358122 0.244694 0.442300
Si Si2 0.634948 0.095993 0.996127
Si Si3 0.693817 0.594419 0.373249
Si Si4 0.622019 0.312383 0.426604
Si Si5 0.899584 0.908349 0.104040
Si Si6 0.286556 0.709422 0.186150
Si Si7 0.363260 0.796317 0.803116
Si Si8 0.422803 0.659198 0.001570
O O1 0.500000 0.237287 0.500000
O O2 0.328814 0.154486 0.448073
O O3 0.385884 0.313656 0.510160
O O4 0.213022 0.276342 0.309185
O O5 0.466091 0.124317 0.865881
O O6 0.632727 0.000000 0.000792
O O7 0.748278 0.129999 0.025654
O O8 0.695827 0.134507 0.096506
O O9 0.735598 0.500000 0.390707
O O10 0.661511 0.605124 0.419075
O O11 0.551998 0.625796 0.237475
O O12 0.750000 0.250000 0.500000
O O13 0.460089 0.286886 0.290677
O O14 0.890176 0.904268 0.028915
O O15 0.897323 0.000000 0.122201
O O16 0.265362 0.694282 0.238705
O O17 0.226156 0.796102 0.122913
O O18 0.468983 0.724360 0.895846
O O19 0.500000 0.616478 0.000000
#
# Coordination Sequence:
#
# PCOD8088416 Si02
#       8
#     8   8   8   8   8   8   8   8
#     4  11  21  37  63  84 114 148 195 244 283 340
#     4  10  21  35  55  82 112 146 187 235 283 343
#     4  10  21  38  58  83 116 151 193 237 281 340
#     4  10  21  35  56  86 113 151 191 235 283 334
#     4  10  19  32  53  80 109 144 181 223 280 338
#     4  10  19  34  55  80 112 144 186 228 281 332
#     4  10  20  35  54  83 111 143 184 234 286 336
#     4   9  19  33  53  78 110 141 178 232 283 336
#
# _framework density 18.464912000000002
#
# number of rings (size 3 to 8) (size 9 to 14) (size 15 to 20)
#    0.000    2.000    3.750    1.125    0.000    5.500 
#    0.000    0.625    0.000    5.250    0.000    0.000 
#    0.000    0.000    0.000    0.000    0.000    0.000 
#
# Total GULP energy -396474.483597 kJ/mol
# GULP energy per Si atom -12389.827612 kJ/mol
# Density = 1.842288 g / cm^3
# Si number density = 18.464912 Si / 1000 Ang^3
#
#
#
# Elastic Constant Matrix: (Units=GPa)
#
#
# Indices 1 2 3 4 5 6 
#
# 1 101.8557 24.8283 23.7981 0.0072 -10.7771 -0.0004
# 2 24.8283 52.5733 24.5641 0.0124 -4.2568 -0.0018
# 3 23.7981 24.5641 78.5864 0.0239 0.8792 -0.0018
# 4 0.0072 0.0124 0.0239 14.9530 0.0106 1.6898
# 5 -10.7771 -4.2568 0.8792 0.0106 34.9660 -0.0019
# 6 -0.0004 -0.0018 -0.0018 1.6898 -0.0019 24.7749
#
#
#
# Elastic Compliance Matrix: (Units=1/GPa)
#
#
# Indices 1 2 3 4 5 6 
#
# 1 0.011708 -0.004217 -0.002263 -0.000001 0.003152 0.000000
# 2 -0.004217 0.024088 -0.006272 -0.000009 0.001791 0.000002
# 3 -0.002263 -0.006272 0.015391 -0.000017 -0.001848 0.000002
# 4 -0.000001 -0.000009 -0.000017 0.067396 -0.000022 -0.004597
# 5 0.003152 0.001791 -0.001848 -0.000022 0.029835 0.000004
# 6 0.000000 0.000002 0.000002 -0.004597 0.000004 0.040677
#
#
# Mechanical properties :
#
#
# Convention : Reuss Voigt Hill
#
# Bulk Modulus (GPa) = 38.93528 42.15517 40.54523
# Shear Modulus (GPa) = 22.40543 25.59377 23.99960
#
# Velocity S-wave (km/s) = 3.48718 3.72704 3.60910
# Velocity P-wave (km/s) = 6.11112 6.43433 6.27480
#
# Compressibility (1/GPa) = 0.02568365
#
# Stress axis : x y z
#
# Youngs Moduli (GPa) = 85.41272 41.51420 64.97168
#
# Poissons Ratio (x) = 0.17505 0.14701
# Poissons Ratio (y) = 0.36016 0.40753
# Poissons Ratio (z) = 0.19326 0.26039
#
# Static dielectric constant tensor:
#      x y z
#    x 3.914490 -0.000010 -0.129790 
#    y -0.000010 3.125920 -0.000010 
#    z -0.129790 -0.000010 3.598260 
# 
# 
# High freq. dielectric constant tensor:
#      x y z
#    x 1.733000 0.000000 0.003280 
#    y 0.000000 1.681900 0.000000 
#    z 0.003280 0.000000 1.715450 
# 
# From -- ./inp_files/344372.got.cif
#   From: 2010.06.25/outbox.cif.g09.slc.cpg/sg12_173_cif.got.tgz:344372.got - 2010.06.28 00:19:55.
