data_PCOD8088417
_publ_section_title
;
Structure prediction by ZEFSAII (Michael W. Deem and Ramdas Pophale) SiO2 
 PCOD8088417
Probable space group: C 2/M
;
_chemical_formula_sum "Si O2"
_cell_formula_units_Z 56
_cell_length_a 30.491190
_cell_length_b 9.060879
_cell_length_c 19.488495
_cell_angle_alpha 90.000000
_cell_angle_beta 148.262625
_cell_angle_gamma 90.000000
_cell_volume 2832.243975
_symmetry_space_group_name_H-M "C 2/M"
_symmetry_group_IT_number 12
_symmetry_cell_setting 'monoclinic'
loop_
_space_group_symop_operation_xyz
x,y,z
-x,y,-z
-x,-y,-z
x,-y,z
1/2+x,1/2+y,z
1/2-x,1/2+y,-z
1/2-x,1/2-y,-z
1/2+x,1/2-y,z
loop_
_atom_site_type_symbol
_atom_site_label
_atom_site_fract_x
_atom_site_fract_y
_atom_site_fract_z
Si Si1 0.730463 0.323489 0.400668
Si Si2 0.117537 0.827669 0.460600
Si Si3 0.487847 0.169576 0.192283
Si Si4 0.561467 0.831555 0.141889
Si Si5 0.339131 0.840615 0.181132
Si Si6 0.694060 0.839644 0.018628
Si Si7 0.002452 0.829275 0.580354
O O1 0.734550 0.500000 0.413721
O O2 0.750000 0.250000 0.500000
O O3 0.799141 0.268097 0.437601
O O4 0.641225 0.274753 0.252708
O O5 0.049078 0.775094 0.315118
O O6 0.083384 0.801714 0.492480
O O7 0.136244 0.000000 0.471923
O O8 0.509348 0.178244 0.141650
O O9 0.393839 0.230810 0.075483
O O10 0.493999 0.000000 0.227875
O O11 0.591331 0.000000 0.168078
O O12 0.500000 0.776428 0.000000
O O13 0.299656 0.861287 0.054268
O O14 0.423503 0.750976 0.281786
O O15 0.359202 0.000000 0.240457
O O16 0.272698 0.762112 0.144076
O O17 0.704481 0.000000 0.068400
O O18 0.000000 0.765225 0.500000
O O19 0.025702 0.000000 0.609721
#
# Coordination Sequence:
#
# PCOD8088417 Si02
#       7
#     8   8   8   8   8   8   8
#     4  12  24  40  65  95 127 163 207 257 309 369
#     4  11  22  37  62  91 117 153 203 256 307 363
#     4  10  19  35  60  86 115 154 197 247 300 359
#     4  10  22  41  64  91 125 163 202 250 310 371
#     4  10  19  32  53  80 109 144 185 234 288 342
#     4   9  18  32  52  79 110 144 184 232 289 343
#     4  10  22  40  59  81 114 156 199 247 303 362
#
# _framework density 19.772307999999999
#
# number of rings (size 3 to 8) (size 9 to 14) (size 15 to 20)
#    0.000    1.714    2.857    2.143    0.000    2.286 
#    2.571    0.000    0.000    0.000    0.000    0.000 
#    0.000    0.000    0.000    0.000    0.000    0.000 
#
# Total GULP energy -347150.193079 kJ/mol
# GULP energy per Si atom -12398.221181 kJ/mol
# Density = 1.972731 g / cm^3
# Si number density = 19.772308 Si / 1000 Ang^3
#
#
#
# Elastic Constant Matrix: (Units=GPa)
#
#
# Indices 1 2 3 4 5 6 
#
# 1 98.6324 49.0010 46.6821 0.0000 15.7961 0.0000
# 2 49.0010 113.7754 56.5721 0.0000 14.9926 0.0000
# 3 46.6821 56.5721 93.0602 0.0000 21.8455 0.0000
# 4 0.0000 0.0000 0.0000 26.5117 0.0000 7.5462
# 5 15.7961 14.9926 21.8455 0.0000 42.1020 0.0000
# 6 0.0000 0.0000 0.0000 7.5462 0.0000 21.9737
#
#
#
# Elastic Compliance Matrix: (Units=1/GPa)
#
#
# Indices 1 2 3 4 5 6 
#
# 1 0.014423 -0.003710 -0.004577 0.000000 -0.001715 0.000000
# 2 -0.003710 0.013564 -0.006351 0.000000 -0.000143 0.000000
# 3 -0.004577 -0.006351 0.018183 0.000000 -0.005456 0.000000
# 4 0.000000 0.000000 0.000000 0.041806 0.000000 -0.014357
# 5 -0.001715 -0.000143 -0.005456 0.000000 0.027277 0.000000
# 6 0.000000 0.000000 0.000000 -0.014357 0.000000 0.050440
#
#
# Mechanical properties :
#
#
# Convention : Reuss Voigt Hill
#
# Bulk Modulus (GPa) = 59.19243 67.77538 63.48391
# Shear Modulus (GPa) = 24.92535 28.33166 26.62851
#
# Velocity S-wave (km/s) = 3.55437 3.78947 3.67380
# Velocity P-wave (km/s) = 6.84447 7.31431 7.08329
#
# Compressibility (1/GPa) = 0.01689405
#
# Stress axis : x y z
#
# Youngs Moduli (GPa) = 69.33533 73.72631 54.99535
#
# Poissons Ratio (x) = 0.27350 0.25172
# Poissons Ratio (y) = 0.25721 0.34928
# Poissons Ratio (z) = 0.31735 0.46824
#
# Static dielectric constant tensor:
#      x y z
#    x 3.678700 0.000000 0.223280 
#    y 0.000000 3.876330 0.000000 
#    z 0.223280 0.000000 3.453760 
# 
# 
# High freq. dielectric constant tensor:
#      x y z
#    x 1.767330 0.000000 0.024400 
#    y 0.000000 1.772030 0.000000 
#    z 0.024400 0.000000 1.756620 
# 
# From -- ./inp_files/329618.got.cif
#   From: 2010.06.25/outbox.cif.g09.slc.cpg/sg12_165_cif.got.tgz:329618.got - 2010.06.28 00:19:55.
