data_PCOD8088699
_publ_section_title
;
Structure prediction by ZEFSAII (Michael W. Deem and Ramdas Pophale) SiO2 
 PCOD8088699
Probable space group: C 2/M
;
_chemical_formula_sum "Si O2"
_cell_formula_units_Z 64
_cell_length_a 15.047745
_cell_length_b 9.417747
_cell_length_c 30.666546
_cell_angle_alpha 90.000000
_cell_angle_beta 129.090517
_cell_angle_gamma 90.000000
_cell_volume 3373.101455
_symmetry_space_group_name_H-M "C 2/M"
_symmetry_group_IT_number 12
_symmetry_cell_setting 'monoclinic'
loop_
_space_group_symop_operation_xyz
x,y,z
-x,y,-z
-x,-y,-z
x,-y,z
1/2+x,1/2+y,z
1/2-x,1/2+y,-z
1/2-x,1/2-y,-z
1/2+x,1/2-y,z
loop_
_atom_site_type_symbol
_atom_site_label
_atom_site_fract_x
_atom_site_fract_y
_atom_site_fract_z
Si Si1 0.786047 0.665431 0.633951
Si Si2 0.655789 0.164303 0.444964
Si Si3 0.367157 0.662137 0.822284
Si Si4 0.434726 0.833568 0.762041
Si Si5 0.443956 0.165330 0.437405
Si Si6 0.196198 0.663132 0.842282
Si Si7 0.079429 0.161787 0.944898
Si Si8 0.295047 0.837188 0.949248
O O1 0.755571 0.500000 0.626331
O O2 0.841088 0.707747 0.604670
O O3 0.878872 0.708065 0.698811
O O4 0.670603 0.749701 0.607551
O O5 0.750000 0.250000 0.500000
O O6 0.530234 0.199156 0.424588
O O7 0.685131 0.000000 0.461065
O O8 0.392264 0.500000 0.816357
O O9 0.364798 0.756381 0.778427
O O10 0.244753 0.676668 0.808221
O O11 0.464865 0.715231 0.885827
O O12 0.566044 0.781647 0.801977
O O13 0.427114 0.000000 0.768482
O O14 0.500000 0.217293 0.500000
O O15 0.412714 0.000000 0.430609
O O16 0.203369 0.500000 0.860602
O O17 0.274616 0.758678 0.897467
O O18 0.180835 0.177242 0.941908
O O19 0.067432 0.000000 0.957669
O O20 0.100380 0.261982 0.993060
O O21 0.328269 0.000000 0.950758
#
# Coordination Sequence:
#
# PCOD8088699 Si02
#       8
#     8   8   8   8   8   8   8   8
#     4  10  22  38  57  83 114 151 187 226 279 333
#     4  10  20  35  57  84 117 150 183 224 272 328
#     4  10  21  38  60  84 108 146 192 232 280 337
#     4  10  22  40  58  80 112 146 187 234 279 330
#     4  10  20  35  57  87 117 146 186 229 271 322
#     4  10  21  37  59  82 109 147 187 230 283 338
#     4   9  18  33  53  79 111 144 184 230 280 339
#     4  10  19  32  54  82 112 145 185 230 281 338
#
# _framework density 18.973635999999999
#
# number of rings (size 3 to 8) (size 9 to 14) (size 15 to 20)
#    0.000    2.125    2.500    0.375    0.000    4.250 
#    0.000    5.000    0.000    0.000    0.000    0.000 
#    0.000    0.000    0.000    0.000    0.000    0.000 
#
# Total GULP energy -396918.601673 kJ/mol
# GULP energy per Si atom -12403.706302 kJ/mol
# Density = 1.893045 g / cm^3
# Si number density = 18.973636 Si / 1000 Ang^3
#
#
#
# Elastic Constant Matrix: (Units=GPa)
#
#
# Indices 1 2 3 4 5 6 
#
# 1 94.7231 39.9970 49.3655 0.0000 -16.1913 0.0000
# 2 39.9970 66.5344 53.4905 0.0000 -12.0792 0.0000
# 3 49.3655 53.4905 119.0809 0.0000 -19.6994 0.0000
# 4 0.0000 0.0000 0.0000 30.5811 0.0000 -1.1957
# 5 -16.1913 -12.0792 -19.6994 0.0000 22.4679 0.0000
# 6 0.0000 0.0000 0.0000 -1.1957 0.0000 28.8415
#
#
#
# Elastic Compliance Matrix: (Units=1/GPa)
#
#
# Indices 1 2 3 4 5 6 
#
# 1 0.015518 -0.006092 -0.002794 0.000000 0.005459 0.000000
# 2 -0.006092 0.026222 -0.008945 0.000000 0.001865 0.000000
# 3 -0.002794 -0.008945 0.014557 0.000000 0.005941 0.000000
# 4 0.000000 0.000000 0.000000 0.032753 0.000000 0.001358
# 5 0.005459 0.001865 0.005941 0.000000 0.054653 0.000000
# 6 0.000000 0.000000 0.000000 0.001358 0.000000 0.034729
#
#
# Mechanical properties :
#
#
# Convention : Reuss Voigt Hill
#
# Bulk Modulus (GPa) = 48.45939 62.89381 55.67660
# Shear Modulus (GPa) = 22.62751 25.54381 24.08566
#
# Velocity S-wave (km/s) = 3.45712 3.67315 3.56677
# Velocity P-wave (km/s) = 6.44448 7.15607 6.80958
#
# Compressibility (1/GPa) = 0.02063583
#
# Stress axis : x y z
#
# Youngs Moduli (GPa) = 64.43962 38.13658 68.69765
#
# Poissons Ratio (x) = 0.23232 0.19193
# Poissons Ratio (y) = 0.39255 0.61448
# Poissons Ratio (z) = 0.18003 0.34112
#
# Static dielectric constant tensor:
#      x y z
#    x 3.408720 0.000000 0.058790 
#    y 0.000000 3.438770 0.000000 
#    z 0.058790 0.000000 3.370220 
# 
# 
# High freq. dielectric constant tensor:
#      x y z
#    x 1.743320 0.000000 -0.002050 
#    y 0.000000 1.731290 0.000000 
#    z -0.002050 0.000000 1.731360 
# 
# From -- ./inp_files/375666.got.cif
#   From: 2010.06.25/outbox.cif.g09.slc.cpg/sg12_188_cif.got.tgz:375666.got - 2010.06.28 00:19:55.
