data_PCOD8088649
_publ_section_title
;
Structure prediction by ZEFSAII (Michael W. Deem and Ramdas Pophale) SiO2 
 PCOD8088649
Probable space group: C 2/M
;
_chemical_formula_sum "Si O2"
_cell_formula_units_Z 56
_cell_length_a 14.473319
_cell_length_b 8.462027
_cell_length_c 26.205037
_cell_angle_alpha 90.000000
_cell_angle_beta 65.283226
_cell_angle_gamma 90.000000
_cell_volume 2915.396690
_symmetry_space_group_name_H-M "C 2/M"
_symmetry_group_IT_number 12
_symmetry_cell_setting 'monoclinic'
loop_
_space_group_symop_operation_xyz
x,y,z
-x,y,-z
-x,-y,-z
x,-y,z
1/2+x,1/2+y,z
1/2-x,1/2+y,-z
1/2-x,1/2-y,-z
1/2+x,1/2-y,z
loop_
_atom_site_type_symbol
_atom_site_label
_atom_site_fract_x
_atom_site_fract_y
_atom_site_fract_z
Si Si1 0.672179 0.813900 0.765194
Si Si2 0.316811 0.316706 0.438803
Si Si3 0.778789 0.184225 0.636677
Si Si4 0.967040 0.186301 0.851510
Si Si5 0.260650 0.686884 0.850199
Si Si6 0.454600 0.812501 0.063040
Si Si7 0.990806 0.317589 0.560880
O O1 0.724131 0.760169 0.700900
O O2 0.562541 0.732015 0.794346
O O3 0.745653 0.760300 0.794712
O O4 0.652798 0.000000 0.771731
O O5 0.290820 0.500000 0.436201
O O6 0.250000 0.250000 0.500000
O O7 0.296060 0.218194 0.392712
O O8 0.434851 0.293889 0.424141
O O9 0.878460 0.289449 0.607311
O O10 0.807599 0.000000 0.631638
O O11 0.864377 0.258883 0.849575
O O12 0.976604 0.253745 0.906162
O O13 0.958980 0.000000 0.856863
O O14 0.266996 0.500000 0.851830
O O15 0.161879 0.747471 0.904463
O O16 0.458127 0.000000 0.062684
O O17 0.500000 0.743576 0.000000
O O18 0.021519 0.500000 0.560908
O O19 0.000000 0.266938 0.500000
#
# Coordination Sequence:
#
# PCOD8088649 Si02
#       7
#     8   8   8   8   8   8   8
#     4   9  20  39  58  78 108 145 184 225 271 332
#     4  12  24  39  60  84 113 148 186 229 280 340
#     4  11  23  39  61  87 114 147 188 235 288 342
#     4  10  19  32  54  81 110 144 182 231 281 322
#     4   8  16  33  54  76 107 144 181 222 272 326
#     4   9  18  34  54  76 108 151 191 226 273 334
#     4  11  23  39  60  85 114 147 183 227 278 338
#
# _framework density 19.208362999999999
#
# number of rings (size 3 to 8) (size 9 to 14) (size 15 to 20)
#    0.000    2.000    1.429    3.429    0.000    3.714 
#    0.000    7.143    0.000    0.000    0.000    0.000 
#    0.000    0.000    0.000    0.000    0.000    0.000 
#
# Total GULP energy -347243.634929 kJ/mol
# GULP energy per Si atom -12401.558390 kJ/mol
# Density = 1.916464 g / cm^3
# Si number density = 19.208363 Si / 1000 Ang^3
#
#
#
# Elastic Constant Matrix: (Units=GPa)
#
#
# Indices 1 2 3 4 5 6 
#
# 1 158.8608 10.7110 73.3644 0.0000 1.2767 0.0000
# 2 10.7110 31.9528 18.8027 0.0000 1.2292 0.0000
# 3 73.3644 18.8027 172.9330 0.0000 7.8734 0.0000
# 4 0.0000 0.0000 0.0000 21.1740 0.0000 -1.2846
# 5 1.2767 1.2292 7.8734 0.0000 20.0865 0.0000
# 6 0.0000 0.0000 0.0000 -1.2846 0.0000 29.6539
#
#
#
# Elastic Compliance Matrix: (Units=1/GPa)
#
#
# Indices 1 2 3 4 5 6 
#
# 1 0.007858 -0.000729 -0.003292 0.000000 0.000836 0.000000
# 2 -0.000729 0.033511 -0.003302 0.000000 -0.000710 0.000000
# 3 -0.003292 -0.003302 0.007656 0.000000 -0.002590 0.000000
# 4 0.000000 0.000000 0.000000 0.047352 0.000000 0.002051
# 5 0.000836 -0.000710 -0.002590 0.000000 0.050790 0.000000
# 6 0.000000 0.000000 0.000000 0.002051 0.000000 0.033811
#
#
# Mechanical properties :
#
#
# Convention : Reuss Voigt Hill
#
# Bulk Modulus (GPa) = 29.08798 63.27811 46.18305
# Shear Modulus (GPa) = 24.14475 31.57410 27.85942
#
# Velocity S-wave (km/s) = 3.54925 4.05874 3.81252
# Velocity P-wave (km/s) = 5.65443 7.41478 6.59362
#
# Compressibility (1/GPa) = 0.03437846
#
# Stress axis : x y z
#
# Youngs Moduli (GPa) = 127.26400 29.84104 130.61242
#
# Poissons Ratio (x) = 0.02175 0.43002
# Poissons Ratio (y) = 0.09275 0.43129
# Poissons Ratio (z) = 0.41899 0.09854
#
# Static dielectric constant tensor:
#      x y z
#    x 3.800500 0.000000 0.083480 
#    y 0.000000 3.400620 0.000000 
#    z 0.083480 0.000000 3.717730 
# 
# 
# High freq. dielectric constant tensor:
#      x y z
#    x 1.755880 0.000000 0.000590 
#    y 0.000000 1.735200 0.000000 
#    z 0.000590 0.000000 1.747580 
# 
# From -- ./inp_files/359660.got.cif
#   From: 2010.06.25/outbox.cif.g09.slc.cpg/sg12_180_cif.got.tgz:359660.got - 2010.06.28 00:19:55.
