data_PCOD8088913
_publ_section_title
;
Structure prediction by ZEFSAII (Michael W. Deem and Ramdas Pophale) SiO2 
 PCOD8088913
Probable space group: C 2/M
;
_chemical_formula_sum "Si O2"
_cell_formula_units_Z 32
_cell_length_a 24.149262
_cell_length_b 7.478376
_cell_length_c 14.842762
_cell_angle_alpha 90.000000
_cell_angle_beta 37.037022
_cell_angle_gamma 90.000000
_cell_volume 1614.585532
_symmetry_space_group_name_H-M "C 2/M"
_symmetry_group_IT_number 12
_symmetry_cell_setting 'monoclinic'
loop_
_space_group_symop_operation_xyz
x,y,z
-x,y,-z
-x,-y,-z
x,-y,z
1/2+x,1/2+y,z
1/2-x,1/2+y,-z
1/2-x,1/2-y,-z
1/2+x,1/2-y,z
loop_
_atom_site_type_symbol
_atom_site_label
_atom_site_fract_x
_atom_site_fract_y
_atom_site_fract_z
Si Si1 0.518945 0.802887 0.154926
Si Si2 0.331794 0.208293 0.326881
Si Si3 0.703172 0.213106 0.830352
Si Si4 0.652167 0.000000 0.312978
Si Si5 0.012376 0.500000 0.336546
O O1 0.427313 0.700824 0.238009
O O2 0.522146 0.000000 0.105303
O O3 0.515045 0.822759 0.269163
O O4 0.613460 0.711739 0.999868
O O5 0.250000 0.250000 0.500000
O O6 0.307045 0.275489 0.259779
O O7 0.349267 0.000000 0.303966
O O8 0.789274 0.318310 0.759360
O O9 0.720071 0.000000 0.819641
O O10 0.600932 0.000000 0.284418
O O11 0.581496 0.000000 0.486981
#
# Coordination Sequence:
#
# PCOD8088913 Si02
#       5
#     8   8   8   4   4
#     4   8  17  36  56  77 114 155 184 229 295 339
#     4  10  19  32  56  83 115 153 185 236 291 348
#     4  10  21  37  58  88 115 152 194 239 291 342
#     4  11  22  38  63  86 113 155 201 242 284 346
#     4   9  20  38  61  82 117 161 189 240 300 336
#
# _framework density 19.819327999999999
#
# number of rings (size 3 to 8) (size 9 to 14) (size 15 to 20)
#    0.750    1.750    0.000    2.250    1.750    4.000 
#    2.250    3.750    2.750    0.000    0.000    0.000 
#    0.000    0.000    0.000    0.000    0.000    0.000 
#
# Total GULP energy -198250.171224 kJ/mol
# GULP energy per Si atom -12390.635702 kJ/mol
# Density = 1.977422 g / cm^3
# Si number density = 19.819328 Si / 1000 Ang^3
#
#
#
# Elastic Constant Matrix: (Units=GPa)
#
#
# Indices 1 2 3 4 5 6 
#
# 1 119.8424 29.8910 59.9994 -0.0109 -23.3715 0.0030
# 2 29.8910 48.9280 19.0634 0.0093 -11.5538 -0.0023
# 3 59.9994 19.0634 144.1292 0.0033 -20.8203 -0.0015
# 4 -0.0109 0.0093 0.0033 22.6016 -0.0048 -0.9680
# 5 -23.3715 -11.5538 -20.8203 -0.0048 36.4194 0.0008
# 6 0.0030 -0.0023 -0.0015 -0.9680 0.0008 7.3111
#
#
#
# Elastic Compliance Matrix: (Units=1/GPa)
#
#
# Indices 1 2 3 4 5 6 
#
# 1 0.012349 -0.005065 -0.003879 0.000009 0.004101 -0.000007
# 2 -0.005065 0.024759 -0.000546 -0.000011 0.004292 0.000008
# 3 -0.003879 -0.000546 0.008982 -0.000002 0.002473 0.000003
# 4 0.000009 -0.000011 -0.000002 0.044497 0.000007 0.005891
# 5 0.004101 0.004292 0.002473 0.000007 0.032865 -0.000002
# 6 -0.000007 0.000008 0.000003 0.005891 -0.000002 0.137559
#
#
# Mechanical properties :
#
#
# Convention : Reuss Voigt Hill
#
# Bulk Modulus (GPa) = 36.88563 58.97858 47.93210
# Shear Modulus (GPa) = 17.29943 26.86280 22.08111
#
# Velocity S-wave (km/s) = 2.95762 3.68555 3.34147
# Velocity P-wave (km/s) = 5.50588 6.92342 6.25494
#
# Compressibility (1/GPa) = 0.02711083
#
# Stress axis : x y z
#
# Youngs Moduli (GPa) = 80.97789 40.38986 111.33065
#
# Poissons Ratio (x) = 0.20456 0.43180
# Poissons Ratio (y) = 0.41013 0.06082
# Poissons Ratio (z) = 0.31407 0.02207
#
# Static dielectric constant tensor:
#      x y z
#    x 3.606820 0.000010 -0.095000 
#    y 0.000010 3.211950 0.000000 
#    z -0.095000 0.000000 3.685300 
# 
# 
# High freq. dielectric constant tensor:
#      x y z
#    x 1.768750 0.000000 -0.005680 
#    y 0.000000 1.734300 0.000000 
#    z -0.005680 0.000000 1.794130 
# 
# From -- ./inp_files/229607.got.cif
#   From: 2010.06.25/outbox.cif.g09.slc.cpg/sg12_115_cif.got.tgz:229607.got - 2010.06.28 00:19:55.
