data_PCOD8088638
_publ_section_title
;
Structure prediction by ZEFSAII (Michael W. Deem and Ramdas Pophale) SiO2 
 PCOD8088638
Probable space group: C 2/M
;
_chemical_formula_sum "Si O2"
_cell_formula_units_Z 64
_cell_length_a 15.189189
_cell_length_b 9.353501
_cell_length_c 23.725592
_cell_angle_alpha 90.000000
_cell_angle_beta 90.494355
_cell_angle_gamma 90.000000
_cell_volume 3370.619083
_symmetry_space_group_name_H-M "C 2/M"
_symmetry_group_IT_number 12
_symmetry_cell_setting 'monoclinic'
loop_
_space_group_symop_operation_xyz
x,y,z
-x,y,-z
-x,-y,-z
x,-y,z
1/2+x,1/2+y,z
1/2-x,1/2+y,-z
1/2-x,1/2-y,-z
1/2+x,1/2-y,z
loop_
_atom_site_type_symbol
_atom_site_label
_atom_site_fract_x
_atom_site_fract_y
_atom_site_fract_z
Si Si1 0.394388 0.831024 0.056386
Si Si2 0.102081 0.664874 0.659723
Si Si3 0.407132 0.836260 0.677958
Si Si4 0.090962 0.330719 0.070404
Si Si5 0.762091 0.833704 0.738063
Si Si6 0.849649 0.336542 0.555496
Si Si7 0.358028 0.335687 0.448113
Si Si8 0.237689 0.832468 0.132698
O O1 0.490143 0.778923 0.078078
O O2 0.318023 0.768786 0.095976
O O3 0.394835 0.000000 0.059552
O O4 0.377144 0.783980 0.991877
O O5 0.117412 0.500000 0.642483
O O6 0.180081 0.721235 0.700329
O O7 0.095325 0.758110 0.603528
O O8 0.010297 0.681492 0.692960
O O9 0.351507 0.745543 0.721860
O O10 0.391021 0.782532 0.614145
O O11 0.376225 0.000000 0.683091
O O12 0.100559 0.500000 0.079344
O O13 0.148564 0.249233 0.116703
O O14 0.739324 0.800795 0.802527
O O15 0.778362 0.000000 0.728030
O O16 0.875570 0.500000 0.542563
O O17 0.745661 0.317530 0.559955
O O18 0.889090 0.238163 0.506291
O O19 0.387440 0.500000 0.449618
O O20 0.223748 0.000000 0.121257
#
# Coordination Sequence:
#
# PCOD8088638 Si02
#       8
#     8   8   8   8   8   8   8   8
#     4   8  16  32  54  79 111 143 174 214 262 314
#     4  10  21  37  57  78 103 138 177 217 265 319
#     4  10  21  38  59  80 102 135 179 223 265 310
#     4   9  17  32  55  82 107 140 181 217 255 307
#     4  10  22  38  54  75 105 140 178 219 266 314
#     4   9  18  33  53  78 107 137 169 211 265 319
#     4  10  19  32  54  81 108 138 171 211 262 318
#     4  10  20  34  52  76 108 143 175 216 267 314
#
# _framework density 18.98761
#
# number of rings (size 3 to 8) (size 9 to 14) (size 15 to 20)
#    0.000    2.500    1.250    1.500    0.000    3.500 
#    0.000    6.875    0.000    0.000    0.000    0.000 
#    0.000    0.000    0.000    0.000    0.000    0.000 
#
# Total GULP energy -396843.905003 kJ/mol
# GULP energy per Si atom -12401.372031 kJ/mol
# Density = 1.894439 g / cm^3
# Si number density = 18.987610 Si / 1000 Ang^3
#
#
#
# Elastic Constant Matrix: (Units=GPa)
#
#
# Indices 1 2 3 4 5 6 
#
# 1 74.8412 27.8162 33.1313 0.0000 -5.9534 0.0000
# 2 27.8162 55.1946 35.4611 0.0000 -5.8993 0.0000
# 3 33.1313 35.4611 80.2325 0.0000 -5.1216 0.0000
# 4 0.0000 0.0000 0.0000 28.7433 0.0000 -0.3641
# 5 -5.9534 -5.8993 -5.1216 0.0000 18.6485 0.0000
# 6 0.0000 0.0000 0.0000 -0.3641 0.0000 27.2442
#
#
#
# Elastic Compliance Matrix: (Units=1/GPa)
#
#
# Indices 1 2 3 4 5 6 
#
# 1 0.017735 -0.005673 -0.004651 0.000000 0.002590 0.000000
# 2 -0.005673 0.027588 -0.009577 0.000000 0.004286 0.000000
# 3 -0.004651 -0.009577 0.018656 0.000000 0.000609 0.000000
# 4 0.000000 0.000000 0.000000 0.034797 0.000000 0.000465
# 5 0.002590 0.004286 0.000609 0.000000 0.055974 0.000000
# 6 0.000000 0.000000 0.000000 0.000465 0.000000 0.036711
#
#
# Mechanical properties :
#
#
# Convention : Reuss Voigt Hill
#
# Bulk Modulus (GPa) = 41.36143 44.78727 43.07435
# Shear Modulus (GPa) = 20.89245 22.51785 21.70515
#
# Velocity S-wave (km/s) = 3.32071 3.44746 3.38468
# Velocity P-wave (km/s) = 6.04429 6.28375 6.16518
#
# Compressibility (1/GPa) = 0.02417712
#
# Stress axis : x y z
#
# Youngs Moduli (GPa) = 56.38571 36.24797 53.60199
#
# Poissons Ratio (x) = 0.20563 0.24929
# Poissons Ratio (y) = 0.31988 0.51335
# Poissons Ratio (z) = 0.26224 0.34715
#
# Static dielectric constant tensor:
#      x y z
#    x 3.578810 0.000000 -0.052230 
#    y 0.000000 3.271090 0.000000 
#    z -0.052230 0.000000 3.468550 
# 
# 
# High freq. dielectric constant tensor:
#      x y z
#    x 1.742190 0.000000 0.001000 
#    y 0.000000 1.717060 0.000000 
#    z 0.001000 0.000000 1.733330 
# 
# From -- ./inp_files/338762.got.cif
#   From: 2010.06.25/outbox.cif.g09.slc.cpg/sg12_170_cif.got.tgz:338762.got - 2010.06.28 00:19:55.
