data_PCOD8088626
_publ_section_title
;
Structure prediction by ZEFSAII (Michael W. Deem and Ramdas Pophale) SiO2 
 PCOD8088626
Probable space group: C 2/M
;
_chemical_formula_sum "Si O2"
_cell_formula_units_Z 56
_cell_length_a 26.490597
_cell_length_b 9.113188
_cell_length_c 13.146112
_cell_angle_alpha 90.000000
_cell_angle_beta 65.732395
_cell_angle_gamma 90.000000
_cell_volume 2893.215449
_symmetry_space_group_name_H-M "C 2/M"
_symmetry_group_IT_number 12
_symmetry_cell_setting 'monoclinic'
loop_
_space_group_symop_operation_xyz
x,y,z
-x,y,-z
-x,-y,-z
x,-y,z
1/2+x,1/2+y,z
1/2-x,1/2+y,-z
1/2-x,1/2-y,-z
1/2+x,1/2-y,z
loop_
_atom_site_type_symbol
_atom_site_label
_atom_site_fract_x
_atom_site_fract_y
_atom_site_fract_z
Si Si1 0.227343 0.326514 0.748029
Si Si2 0.950070 0.826663 0.830550
Si Si3 0.157608 0.325842 0.618100
Si Si4 0.124324 0.332772 0.964250
Si Si5 0.947546 0.668290 0.175033
Si Si6 0.165525 0.673049 0.383802
Si Si7 0.049152 0.671389 0.382692
O O1 0.235929 0.500000 0.738143
O O2 0.203639 0.267550 0.659324
O O3 0.184390 0.283336 0.872733
O O4 0.285682 0.248211 0.721552
O O5 0.959555 0.763787 0.711080
O O6 0.999599 0.772699 0.861951
O O7 0.948392 0.000000 0.827178
O O8 0.892431 0.768696 0.926630
O O9 0.158838 0.500000 0.619233
O O10 0.096564 0.277019 0.704336
O O11 0.168544 0.264270 0.496491
O O12 0.126945 0.500000 0.000403
O O13 0.078784 0.317046 0.914029
O O14 0.965736 0.500000 0.180193
O O15 0.174170 0.500000 0.374829
O O16 0.107052 0.717838 0.384943
O O17 0.047804 0.500000 0.356237
O O18 0.000000 0.712157 0.500000
#
# Coordination Sequence:
#
# PCOD8088626 Si02
#       7
#     8   8   8   8   8   8   8
#     4   9  18  33  54  80 110 141 172 212 261 313
#     4  12  24  35  52  80 112 141 172 221 279 322
#     4   8  15  30  53  81 109 139 176 211 252 314
#     4   9  19  36  57  79 105 143 186 219 253 312
#     4   9  17  33  57  80 106 143 184 220 255 310
#     4  10  19  32  54  81 106 136 176 220 263 309
#     4  10  22  41  62  79 100 139 186 222 254 308
#
# _framework density 19.355629
#
# number of rings (size 3 to 8) (size 9 to 14) (size 15 to 20)
#    0.000    2.429    0.000    4.714    0.000    6.000 
#    0.000    5.000    0.000    0.000    0.000    0.000 
#    0.000    0.000    0.000    0.000    0.000    0.000 
#
# Total GULP energy -347202.926209 kJ/mol
# GULP energy per Si atom -12400.104507 kJ/mol
# Density = 1.931157 g / cm^3
# Si number density = 19.355629 Si / 1000 Ang^3
#
#
#
# Elastic Constant Matrix: (Units=GPa)
#
#
# Indices 1 2 3 4 5 6 
#
# 1 105.0659 40.8718 46.7402 0.0000 -27.3496 0.0000
# 2 40.8718 70.5909 51.9679 0.0000 -9.9165 0.0000
# 3 46.7402 51.9679 108.9802 0.0000 -22.0638 0.0000
# 4 0.0000 0.0000 0.0000 19.1010 0.0000 -9.0565
# 5 -27.3496 -9.9165 -22.0638 0.0000 24.9870 0.0000
# 6 0.0000 0.0000 0.0000 -9.0565 0.0000 21.1979
#
#
#
# Elastic Compliance Matrix: (Units=1/GPa)
#
#
# Indices 1 2 3 4 5 6 
#
# 1 0.016273 -0.006791 -0.000828 0.000000 0.014385 0.000000
# 2 -0.006791 0.024672 -0.010198 0.000000 -0.006647 0.000000
# 3 -0.000828 -0.010198 0.016306 0.000000 0.009445 0.000000
# 4 0.000000 0.000000 0.000000 0.065652 0.000000 0.028049
# 5 0.014385 -0.006647 0.009445 0.000000 0.061468 0.000000
# 6 0.000000 0.000000 0.000000 0.028049 0.000000 0.059158
#
#
# Mechanical properties :
#
#
# Convention : Reuss Voigt Hill
#
# Bulk Modulus (GPa) = 46.26241 62.64407 54.45324
# Shear Modulus (GPa) = 17.45992 22.72765 20.09379
#
# Velocity S-wave (km/s) = 3.00669 3.43040 3.22551
# Velocity P-wave (km/s) = 6.00056 6.93723 6.48583
#
# Compressibility (1/GPa) = 0.02161582
#
# Stress axis : x y z
#
# Youngs Moduli (GPa) = 61.45262 40.53152 61.32538
#
# Poissons Ratio (x) = 0.27526 0.05080
# Poissons Ratio (y) = 0.41734 0.62540
# Poissons Ratio (z) = 0.05091 0.41334
#
# Static dielectric constant tensor:
#      x y z
#    x 3.513200 0.000000 -0.135270 
#    y 0.000000 3.191950 0.000000 
#    z -0.135270 0.000000 3.703660 
# 
# 
# High freq. dielectric constant tensor:
#      x y z
#    x 1.747670 0.000000 -0.016870 
#    y 0.000000 1.720730 0.000000 
#    z -0.016870 0.000000 1.760290 
# 
# From -- ./inp_files/180769.got.cif
#   From: 2010.06.25/outbox.cif.g09.slc.cpg/sg12_91_cif.got.tgz:180769.got - 2010.06.28 00:19:55.
