data_PCOD8088095
_publ_section_title
;
Structure prediction by ZEFSAII (Michael W. Deem and Ramdas Pophale) SiO2 
 PCOD8088095
Probable space group: C 2/M
;
_chemical_formula_sum "Si O2"
_cell_formula_units_Z 56
_cell_length_a 17.947409
_cell_length_b 9.026092
_cell_length_c 28.745414
_cell_angle_alpha 90.000000
_cell_angle_beta 140.895180
_cell_angle_gamma 90.000000
_cell_volume 2937.116736
_symmetry_space_group_name_H-M "C 2/M"
_symmetry_group_IT_number 12
_symmetry_cell_setting 'monoclinic'
loop_
_space_group_symop_operation_xyz
x,y,z
-x,y,-z
-x,-y,-z
x,-y,z
1/2+x,1/2+y,z
1/2-x,1/2+y,-z
1/2-x,1/2-y,-z
1/2+x,1/2-y,z
loop_
_atom_site_type_symbol
_atom_site_label
_atom_site_fract_x
_atom_site_fract_y
_atom_site_fract_z
Si Si1 0.732220 0.826130 0.356134
Si Si2 0.100388 0.826673 0.648081
Si Si3 0.875753 0.675949 0.066864
Si Si4 0.534239 0.670723 0.068953
Si Si5 0.413963 0.832706 0.502071
Si Si6 0.528969 0.824857 0.788792
Si Si7 0.308103 0.172174 0.216569
O O1 0.800674 0.786909 0.341985
O O2 0.791578 0.746636 0.429204
O O3 0.600104 0.762108 0.286840
O O4 0.734633 0.000000 0.367442
O O5 0.145341 0.768820 0.718753
O O6 0.975855 0.750243 0.575083
O O7 0.077334 0.000000 0.639805
O O8 0.860623 0.500000 0.059854
O O9 0.961365 0.722344 0.066864
O O10 0.931030 0.736385 0.141800
O O11 0.750000 0.750000 0.000000
O O12 0.503270 0.500000 0.065149
O O13 0.671333 0.704360 0.142398
O O14 0.500000 0.710511 0.000000
O O15 0.500000 0.825305 0.500000
O O16 0.386586 0.000000 0.504014
O O17 0.623535 0.774349 0.796328
O O18 0.520528 0.000000 0.787716
O O19 0.332402 0.000000 0.238859
#
# Coordination Sequence:
#
# PCOD8088095 Si02
#       7
#     8   8   8   8   8   8   8
#     4   9  17  32  54  77 102 135 175 218 266 319
#     4  10  19  32  52  78 107 138 175 221 271 320
#     4  11  22  38  60  85 113 145 184 227 273 325
#     4  10  21  38  59  83 113 148 184 223 271 326
#     4   9  17  30  50  77 106 135 172 218 266 318
#     4   9  19  36  56  77 105 143 181 219 268 324
#     4  10  20  35  55  77 105 142 181 220 265 319
#
# _framework density 19.066317999999999
#
# number of rings (size 3 to 8) (size 9 to 14) (size 15 to 20)
#    0.000    2.286    0.000    3.000    0.000    6.571 
#    0.000    5.714    0.000    0.000    0.000    0.000 
#    0.000    0.000    0.000    0.000    0.000    0.000 
#
# Total GULP energy -347272.571967 kJ/mol
# GULP energy per Si atom -12402.591856 kJ/mol
# Density = 1.902292 g / cm^3
# Si number density = 19.066318 Si / 1000 Ang^3
#
#
#
# Elastic Constant Matrix: (Units=GPa)
#
#
# Indices 1 2 3 4 5 6 
#
# 1 99.5722 43.6488 63.9825 0.0000 6.9513 0.0000
# 2 43.6488 73.4050 58.6172 0.0001 -0.3808 -0.0002
# 3 63.9825 58.6172 175.1969 0.0000 5.6408 0.0000
# 4 0.0000 0.0001 0.0000 35.9292 0.0000 -2.5647
# 5 6.9513 -0.3808 5.6408 0.0000 32.2340 0.0000
# 6 0.0000 -0.0002 0.0000 -2.5647 0.0000 22.9702
#
#
#
# Elastic Compliance Matrix: (Units=1/GPa)
#
#
# Indices 1 2 3 4 5 6 
#
# 1 0.015164 -0.006386 -0.003312 0.000000 -0.002766 0.000000
# 2 -0.006386 0.021335 -0.004886 0.000000 0.002484 0.000000
# 3 -0.003312 -0.004886 0.008579 0.000000 -0.000845 0.000000
# 4 0.000000 0.000000 0.000000 0.028056 0.000000 0.003133
# 5 -0.002766 0.002484 -0.000845 0.000000 0.031797 0.000000
# 6 0.000000 0.000000 0.000000 0.003133 0.000000 0.043884
#
#
# Mechanical properties :
#
#
# Convention : Reuss Voigt Hill
#
# Bulk Modulus (GPa) = 62.85534 75.63012 69.24273
# Shear Modulus (GPa) = 27.27951 30.35505 28.81728
#
# Velocity S-wave (km/s) = 3.78666 3.99441 3.89192
# Velocity P-wave (km/s) = 7.22195 7.81196 7.52274
#
# Compressibility (1/GPa) = 0.01590955
#
# Stress axis : x y z
#
# Youngs Moduli (GPa) = 65.94615 46.87106 116.55841
#
# Poissons Ratio (x) = 0.29934 0.38605
# Poissons Ratio (y) = 0.42116 0.56950
# Poissons Ratio (z) = 0.21842 0.22901
#
# Static dielectric constant tensor:
#      x y z
#    x 3.478540 0.000000 0.063600 
#    y 0.000000 3.364640 0.000000 
#    z 0.063600 0.000000 3.774460 
# 
# 
# High freq. dielectric constant tensor:
#      x y z
#    x 1.728020 0.000000 0.003640 
#    y 0.000000 1.728030 0.000000 
#    z 0.003640 0.000000 1.762490 
# 
# From -- ./inp_files/274992.got.cif
#   From: 2010.06.25/outbox.cif.g09.slc.cpg/sg12_138_cif.got.tgz:274992.got - 2010.06.28 00:19:55.
