data_PCOD8088579
_publ_section_title
;
Structure prediction by ZEFSAII (Michael W. Deem and Ramdas Pophale) SiO2 
 PCOD8088579
Probable space group: C 2/M
;
_chemical_formula_sum "Si O2"
_cell_formula_units_Z 48
_cell_length_a 31.777338
_cell_length_b 8.957101
_cell_length_c 9.614432
_cell_angle_alpha 90.000000
_cell_angle_beta 105.181428
_cell_angle_gamma 90.000000
_cell_volume 2641.080120
_symmetry_space_group_name_H-M "C 2/M"
_symmetry_group_IT_number 12
_symmetry_cell_setting 'monoclinic'
loop_
_space_group_symop_operation_xyz
x,y,z
-x,y,-z
-x,-y,-z
x,-y,z
1/2+x,1/2+y,z
1/2-x,1/2+y,-z
1/2-x,1/2-y,-z
1/2+x,1/2-y,z
loop_
_atom_site_type_symbol
_atom_site_label
_atom_site_fract_x
_atom_site_fract_y
_atom_site_fract_z
Si Si1 0.548690 0.825985 0.027752
Si Si2 0.384881 0.675263 0.107106
Si Si3 0.261981 0.675444 0.365244
Si Si4 0.638455 0.325165 0.605286
Si Si5 0.183868 0.823916 0.179104
Si Si6 0.882456 0.674414 0.681957
O O1 0.573992 0.791557 0.192851
O O2 0.547255 0.000000 0.993570
O O3 0.500000 0.760456 0.000000
O O4 0.571963 0.750438 0.916710
O O5 0.391523 0.500000 0.101673
O O6 0.378273 0.728046 0.258891
O O7 0.342180 0.722829 0.982109
O O8 0.254514 0.500000 0.370896
O O9 0.250000 0.750000 0.500000
O O10 0.310786 0.715169 0.362729
O O11 0.230652 0.742746 0.218123
O O12 0.630198 0.500000 0.575186
O O13 0.610457 0.232151 0.468761
O O14 0.157789 0.767793 0.291768
O O15 0.190628 0.000000 0.197880
O O16 0.870768 0.500000 0.674417
#
# Coordination Sequence:
#
# PCOD8088579 Si02
#       6
#     8   8   8   8   8   8
#     4   9  19  37  59  82 106 132 167 214 264 315
#     4   9  20  37  55  77 106 139 175 213 262 314
#     4  11  21  32  50  75 105 141 184 222 256 302
#     4  10  21  36  52  74 108 143 173 217 265 302
#     4  10  19  33  52  74 103 139 178 222 260 300
#     4  10  19  32  54  79 102 135 177 213 255 316
#
# _framework density 18.174382999999999
#
# number of rings (size 3 to 8) (size 9 to 14) (size 15 to 20)
#    0.000    2.167    1.667    1.500    0.000    3.667 
#    0.000    0.833    0.000    5.000    0.000    0.000 
#    0.000    0.000    0.000    0.000    0.000    0.000 
#
# Total GULP energy -297658.323680 kJ/mol
# GULP energy per Si atom -12402.430153 kJ/mol
# Density = 1.813302 g / cm^3
# Si number density = 18.174383 Si / 1000 Ang^3
#
#
#
# Elastic Constant Matrix: (Units=GPa)
#
#
# Indices 1 2 3 4 5 6 
#
# 1 117.9856 41.6752 60.5748 0.0000 -2.1543 0.0000
# 2 41.6752 56.3016 40.5930 0.0000 -3.0911 0.0000
# 3 60.5748 40.5930 131.2023 0.0000 -12.6401 0.0000
# 4 0.0000 0.0000 0.0000 27.5044 0.0000 2.1267
# 5 -2.1543 -3.0911 -12.6401 0.0000 23.0378 0.0000
# 6 0.0000 0.0000 0.0000 2.1267 0.0000 25.8779
#
#
#
# Elastic Compliance Matrix: (Units=1/GPa)
#
#
# Indices 1 2 3 4 5 6 
#
# 1 0.012902 -0.006728 -0.004060 0.000000 -0.001924 0.000000
# 2 -0.006728 0.026386 -0.005043 0.000000 0.000144 0.000000
# 3 -0.004060 -0.005043 0.011566 0.000000 0.005290 0.000000
# 4 0.000000 0.000000 0.000000 0.036590 0.000000 -0.003007
# 5 -0.001924 0.000144 0.005290 0.000000 0.046149 0.000000
# 6 0.000000 0.000000 0.000000 -0.003007 0.000000 0.038890
#
#
# Mechanical properties :
#
#
# Convention : Reuss Voigt Hill
#
# Bulk Modulus (GPa) = 52.10976 65.68619 58.89798
# Shear Modulus (GPa) = 23.74808 26.12713 24.93760
#
# Velocity S-wave (km/s) = 3.61872 3.79566 3.70824
# Velocity P-wave (km/s) = 6.79666 7.44513 7.12827
#
# Compressibility (1/GPa) = 0.01919026
#
# Stress axis : x y z
#
# Youngs Moduli (GPa) = 77.50980 37.89902 86.45733
#
# Poissons Ratio (x) = 0.25499 0.35104
# Poissons Ratio (y) = 0.52150 0.43604
# Poissons Ratio (z) = 0.31471 0.19114
#
# Static dielectric constant tensor:
#      x y z
#    x 3.415310 0.000000 0.151130 
#    y 0.000000 3.339030 0.000000 
#    z 0.151130 0.000000 3.480590 
# 
# 
# High freq. dielectric constant tensor:
#      x y z
#    x 1.690440 0.000000 0.010460 
#    y 0.000000 1.707120 0.000000 
#    z 0.010460 0.000000 1.704380 
# 
# From -- ./inp_files/108578.got.cif
#   From: 2010.06.25/outbox.cif.g09.slc.cpg/sg12_55_cif.got.tgz:108578.got - 2010.06.28 00:19:55.
