data_PCOD8088510
_publ_section_title
;
Structure prediction by ZEFSAII (Michael W. Deem and Ramdas Pophale) SiO2 
 PCOD8088510
Probable space group: C 2/M
;
_chemical_formula_sum "Si O2"
_cell_formula_units_Z 40
_cell_length_a 16.029453
_cell_length_b 29.314309
_cell_length_c 9.184504
_cell_angle_alpha 90.000000
_cell_angle_beta 152.741627
_cell_angle_gamma 90.000000
_cell_volume 1976.619973
_symmetry_space_group_name_H-M "C 2/M"
_symmetry_group_IT_number 12
_symmetry_cell_setting 'monoclinic'
loop_
_space_group_symop_operation_xyz
x,y,z
-x,y,-z
-x,-y,-z
x,-y,z
1/2+x,1/2+y,z
1/2-x,1/2+y,-z
1/2-x,1/2-y,-z
1/2+x,1/2-y,z
loop_
_atom_site_type_symbol
_atom_site_label
_atom_site_fract_x
_atom_site_fract_y
_atom_site_fract_z
Si Si1 0.542824 0.293703 0.896697
Si Si2 0.192344 0.376262 0.724574
Si Si3 0.190750 0.052751 0.868432
Si Si4 0.463908 0.893682 0.113243
Si Si5 0.834070 0.300453 0.853930
O O1 0.357237 0.297723 0.522028
O O2 0.500000 0.297212 0.000000
O O3 0.678975 0.332872 0.058940
O O4 0.636039 0.244894 0.002969
O O5 0.000000 0.364898 0.500000
O O6 0.155862 0.388661 0.497779
O O7 0.288060 0.419231 0.949454
O O8 0.000000 0.065233 0.500000
O O9 0.204385 0.000000 0.931625
O O10 0.350367 0.064288 0.001591
O O11 0.500000 0.903028 0.000000
O O12 0.345106 0.847546 0.961381
O O13 0.000000 0.303994 0.000000
#
# Coordination Sequence:
#
# PCOD8088510 Si02
#       5
#     8   8   8   8   8
#     4  11  19  33  56  81 114 155 196 232 275 334
#     4  10  22  38  58  85 117 152 190 233 288 340
#     4  10  22  41  61  82 112 149 186 231 292 348
#     4  10  20  37  59  85 114 146 192 237 277 331
#     4  10  19  32  53  83 116 150 189 235 283 328
#
# _framework density 20.236564000000001
#
# number of rings (size 3 to 8) (size 9 to 14) (size 15 to 20)
#    0.000    1.800    0.000    7.200    0.000    4.000 
#    0.000   10.000    0.000    3.000    0.000    0.000 
#    0.000    0.000    0.000    0.000    0.000    0.000 
#
# Total GULP energy -247975.000752 kJ/mol
# GULP energy per Si atom -12398.750038 kJ/mol
# Density = 2.019050 g / cm^3
# Si number density = 20.236564 Si / 1000 Ang^3
#
#
#
# Elastic Constant Matrix: (Units=GPa)
#
#
# Indices 1 2 3 4 5 6 
#
# 1 45.0094 16.9518 17.0514 0.0000 -17.3911 0.0000
# 2 16.9518 99.1758 51.8290 0.0000 -7.2805 0.0000
# 3 17.0514 51.8290 164.0575 -0.0003 -12.3231 0.0000
# 4 0.0000 0.0000 -0.0003 58.3457 -0.0001 -2.9870
# 5 -17.3911 -7.2805 -12.3231 -0.0001 35.0495 0.0000
# 6 0.0000 0.0000 0.0000 -2.9870 0.0000 31.9039
#
#
#
# Elastic Compliance Matrix: (Units=1/GPa)
#
#
# Indices 1 2 3 4 5 6 
#
# 1 0.029047 -0.003510 -0.000906 0.000000 0.013365 0.000000
# 2 -0.003510 0.012550 -0.003631 0.000000 -0.000411 0.000000
# 3 -0.000906 -0.003631 0.007443 0.000000 0.001413 0.000000
# 4 0.000000 0.000000 0.000000 0.017222 0.000000 0.001612
# 5 0.013365 -0.000411 0.001413 0.000000 0.035574 0.000000
# 6 0.000000 0.000000 0.000000 0.001612 0.000000 0.031495
#
#
# Mechanical properties :
#
#
# Convention : Reuss Voigt Hill
#
# Bulk Modulus (GPa) = 30.35315 53.32303 41.83809
# Shear Modulus (GPa) = 31.17057 39.88720 35.52888
#
# Velocity S-wave (km/s) = 3.92894 4.44446 4.19463
# Velocity P-wave (km/s) = 5.96773 7.26256 6.64675
#
# Compressibility (1/GPa) = 0.03294551
#
# Stress axis : x y z
#
# Youngs Moduli (GPa) = 34.42694 79.67846 134.35727
#
# Poissons Ratio (x) = 0.27969 0.12175
# Poissons Ratio (y) = 0.12085 0.48785
# Poissons Ratio (z) = 0.03120 0.28931
#
# Static dielectric constant tensor:
#      x y z
#    x 3.292980 0.000000 -0.184770 
#    y 0.000000 4.008860 0.000000 
#    z -0.184770 0.000000 3.953460 
# 
# 
# High freq. dielectric constant tensor:
#      x y z
#    x 1.764280 0.000000 -0.009420 
#    y 0.000000 1.796620 0.000000 
#    z -0.009420 0.000000 1.812720 
# 
# From -- ./inp_files/41467.got.cif
#   From: 2010.06.25/outbox.cif.g09.slc.cpg/sg12_21_cif.got.tgz:41467.got - 2010.06.28 00:19:55.
