data_PCOD8088497
_publ_section_title
;
Structure prediction by ZEFSAII (Michael W. Deem and Ramdas Pophale) SiO2 
 PCOD8088497
Probable space group: C 2/M
;
_chemical_formula_sum "Si O2"
_cell_formula_units_Z 64
_cell_length_a 25.323062
_cell_length_b 9.098306
_cell_length_c 30.229004
_cell_angle_alpha 90.000000
_cell_angle_beta 151.843338
_cell_angle_gamma 90.000000
_cell_volume 3286.516871
_symmetry_space_group_name_H-M "C 2/M"
_symmetry_group_IT_number 12
_symmetry_cell_setting 'monoclinic'
loop_
_space_group_symop_operation_xyz
x,y,z
-x,y,-z
-x,-y,-z
x,-y,z
1/2+x,1/2+y,z
1/2-x,1/2+y,-z
1/2-x,1/2-y,-z
1/2+x,1/2-y,z
loop_
_atom_site_type_symbol
_atom_site_label
_atom_site_fract_x
_atom_site_fract_y
_atom_site_fract_z
Si Si1 0.827272 0.672953 0.092992
Si Si2 0.489092 0.168095 0.374511
Si Si3 0.260520 0.824152 0.460553
Si Si4 0.836175 0.333108 0.768178
Si Si5 0.417379 0.175167 0.735265
Si Si6 0.205017 0.330522 0.831563
Si Si7 0.915054 0.167279 0.402850
Si Si8 0.875285 0.671416 0.893163
O O1 0.814249 0.500000 0.077074
O O2 0.788056 0.723992 0.112716
O O3 0.956332 0.718986 0.182995
O O4 0.750000 0.750000 0.000000
O O5 0.616619 0.222763 0.466033
O O6 0.423092 0.192141 0.279582
O O7 0.417769 0.253921 0.358075
O O8 0.487512 0.000000 0.387722
O O9 0.250000 0.750000 0.500000
O O10 0.166280 0.759919 0.358893
O O11 0.248826 0.000000 0.455832
O O12 0.877803 0.500000 0.802536
O O13 0.896644 0.264595 0.769957
O O14 0.704655 0.320550 0.662698
O O15 0.864698 0.256216 0.836251
O O16 0.395601 0.000000 0.715078
O O17 0.239283 0.500000 0.853423
O O18 0.291666 0.241264 0.866284
O O19 0.000000 0.242847 0.500000
O O20 0.950279 0.000000 0.419915
O O21 0.844201 0.500000 0.868080
O O22 0.000000 0.701945 0.000000
#
# Coordination Sequence:
#
# PCOD8088497 Si02
#       8
#     8   8   8   8   8   8   8   8
#     4  10  23  41  63  88 117 155 198 244 298 353
#     4  10  21  37  57  82 114 150 188 232 286 345
#     4  11  23  39  60  87 118 154 198 244 293 352
#     4   9  18  34  55  84 118 150 189 236 289 341
#     4  10  21  40  63  86 119 160 197 243 298 346
#     4  10  21  39  59  84 118 153 190 237 293 352
#     4  10  19  32  53  82 114 148 188 231 275 331
#     4  10  21  36  59  88 114 147 195 244 287 342
#
# _framework density 19.473504999999999
#
# number of rings (size 3 to 8) (size 9 to 14) (size 15 to 20)
#    0.000    2.000    1.250    1.875    1.750    5.500 
#    0.000    2.500    0.000    0.000    0.000    0.000 
#    0.000    0.000    0.000    0.000    0.000    0.000 
#
# Total GULP energy -396749.003269 kJ/mol
# GULP energy per Si atom -12398.406352 kJ/mol
# Density = 1.942918 g / cm^3
# Si number density = 19.473505 Si / 1000 Ang^3
#
#
#
# Elastic Constant Matrix: (Units=GPa)
#
#
# Indices 1 2 3 4 5 6 
#
# 1 160.0411 42.3038 77.8004 -0.0002 -9.9191 0.0000
# 2 42.3038 47.0386 45.3972 0.0000 1.4690 0.0007
# 3 77.8004 45.3972 130.1461 0.0041 -13.3226 -0.0011
# 4 -0.0002 0.0000 0.0041 26.7208 0.0009 -5.0922
# 5 -9.9191 1.4690 -13.3226 0.0009 35.4654 -0.0005
# 6 0.0000 0.0007 -0.0011 -5.0922 -0.0005 27.0258
#
#
#
# Elastic Compliance Matrix: (Units=1/GPa)
#
#
# Indices 1 2 3 4 5 6 
#
# 1 0.009486 -0.004889 -0.003820 0.000001 0.001421 0.000000
# 2 -0.004889 0.035735 -0.010227 0.000001 -0.006689 -0.000001
# 3 -0.003820 -0.010227 0.014007 -0.000002 0.004617 0.000000
# 4 0.000001 0.000001 -0.000002 0.038818 -0.000002 0.007314
# 5 0.001421 -0.006689 0.004617 -0.000002 0.030605 0.000001
# 6 0.000000 -0.000001 0.000000 0.007314 0.000001 0.038380
#
#
# Mechanical properties :
#
#
# Convention : Reuss Voigt Hill
#
# Bulk Modulus (GPa) = 46.82459 74.24762 60.53611
# Shear Modulus (GPa) = 23.58257 29.29070 26.43664
#
# Velocity S-wave (km/s) = 3.48373 3.88252 3.68852
# Velocity P-wave (km/s) = 6.34660 7.63603 7.02098
#
# Compressibility (1/GPa) = 0.02135630
#
# Stress axis : x y z
#
# Youngs Moduli (GPa) = 105.42364 27.98373 71.39188
#
# Poissons Ratio (x) = 0.13680 0.27270
# Poissons Ratio (y) = 0.51538 0.73015
# Poissons Ratio (z) = 0.40269 0.28620
#
# Static dielectric constant tensor:
#      x y z
#    x 3.740450 0.000000 -0.095690 
#    y 0.000000 3.350170 0.000000 
#    z -0.095690 0.000000 3.825230 
# 
# 
# High freq. dielectric constant tensor:
#      x y z
#    x 1.771990 0.000000 -0.004680 
#    y 0.000000 1.731560 0.000000 
#    z -0.004680 0.000000 1.772310 
# 
# From -- ./inp_files/382531.got.cif
#   From: 2010.06.25/outbox.cif.g09.slc.cpg/sg12_192_cif.got.tgz:382531.got - 2010.06.28 00:19:55.
