data_PCOD8088815
_publ_section_title
;
Structure prediction by ZEFSAII (Michael W. Deem and Ramdas Pophale) SiO2 
 PCOD8088815
Probable space group: C 2/M
;
_chemical_formula_sum "Si O2"
_cell_formula_units_Z 56
_cell_length_a 29.533883
_cell_length_b 8.867624
_cell_length_c 21.624621
_cell_angle_alpha 90.000000
_cell_angle_beta 31.037567
_cell_angle_gamma 90.000000
_cell_volume 2920.042804
_symmetry_space_group_name_H-M "C 2/M"
_symmetry_group_IT_number 12
_symmetry_cell_setting 'monoclinic'
loop_
_space_group_symop_operation_xyz
x,y,z
-x,y,-z
-x,-y,-z
x,-y,z
1/2+x,1/2+y,z
1/2-x,1/2+y,-z
1/2-x,1/2-y,-z
1/2+x,1/2-y,z
loop_
_atom_site_type_symbol
_atom_site_label
_atom_site_fract_x
_atom_site_fract_y
_atom_site_fract_z
Si Si1 0.728607 0.178116 0.808917
Si Si2 0.072991 0.322775 0.639544
Si Si3 0.532074 0.179450 0.027993
Si Si4 0.371447 0.177297 0.292994
Si Si5 0.222989 0.676845 0.124851
Si Si6 0.287766 0.678053 0.602871
Si Si7 0.613291 0.322938 0.150389
O O1 0.782787 0.262427 0.798620
O O2 0.769388 0.221924 0.695070
O O3 0.733344 0.000000 0.814652
O O4 0.629147 0.240407 0.928686
O O5 0.061683 0.500000 0.644507
O O6 0.132864 0.282443 0.629489
O O7 0.120697 0.254055 0.523922
O O8 0.977873 0.252572 0.761108
O O9 0.463814 0.240919 0.158829
O O10 0.536151 0.000000 0.020971
O O11 0.500000 0.243283 0.000000
O O12 0.289476 0.245157 0.350764
O O13 0.370983 0.000000 0.281759
O O14 0.205060 0.500000 0.144586
O O15 0.145779 0.757501 0.177533
O O16 0.317112 0.717922 0.984706
O O17 0.296428 0.500000 0.584458
O O18 0.600148 0.500000 0.172967
#
# Coordination Sequence:
#
# PCOD8088815 Si02
#       7
#     8   8   8   8   8   8   8
#     4  10  19  32  55  83 112 148 187 225 268 321
#     4  11  22  35  54  80 110 145 186 233 280 319
#     4   9  14  25  48  78 107 136 177 226 265 306
#     4   9  17  30  50  78 109 144 186 229 272 319
#     4  10  21  37  60  87 114 140 170 218 279 333
#     4  10  20  35  53  76 110 152 194 228 262 317
#     4  10  21  39  61  84 110 140 178 222 270 328
#
# _framework density 19.177802
#
# number of rings (size 3 to 8) (size 9 to 14) (size 15 to 20)
#    0.000    2.143    1.429    2.571    0.000    3.429 
#    0.000    1.429    0.000    5.571    0.000    0.000 
#    0.000    0.000    0.000    0.000    0.000    0.000 
#
# Total GULP energy -347222.489576 kJ/mol
# GULP energy per Si atom -12400.803199 kJ/mol
# Density = 1.913415 g / cm^3
# Si number density = 19.177802 Si / 1000 Ang^3
#
#
#
# Elastic Constant Matrix: (Units=GPa)
#
#
# Indices 1 2 3 4 5 6 
#
# 1 113.1788 40.2651 29.5832 0.0001 11.5689 0.0012
# 2 40.2651 55.7266 31.3416 -0.0029 5.8562 0.0025
# 3 29.5832 31.3416 82.6178 -0.0012 10.1635 0.0030
# 4 0.0001 -0.0029 -0.0012 24.6396 0.0006 1.1958
# 5 11.5689 5.8562 10.1635 0.0006 25.3729 -0.0018
# 6 0.0012 0.0025 0.0030 1.1958 -0.0018 25.2113
#
#
#
# Elastic Compliance Matrix: (Units=1/GPa)
#
#
# Indices 1 2 3 4 5 6 
#
# 1 0.012265 -0.007972 -0.000953 -0.000001 -0.003371 0.000000
# 2 -0.007972 0.028080 -0.007834 0.000003 0.000292 -0.000002
# 3 -0.000953 -0.007834 0.015926 0.000000 -0.004137 -0.000001
# 4 -0.000001 0.000003 0.000000 0.040679 -0.000001 -0.001929
# 5 -0.003371 0.000292 -0.004137 -0.000001 0.042539 0.000004
# 6 0.000000 -0.000002 -0.000001 -0.001929 0.000004 0.039756
#
#
# Mechanical properties :
#
#
# Convention : Reuss Voigt Hill
#
# Bulk Modulus (GPa) = 43.94868 50.43365 47.19117
# Shear Modulus (GPa) = 22.69145 25.06698 23.87922
#
# Velocity S-wave (km/s) = 3.44352 3.61928 3.53249
# Velocity P-wave (km/s) = 6.22709 6.61972 6.42640
#
# Compressibility (1/GPa) = 0.02275381
#
# Stress axis : x y z
#
# Youngs Moduli (GPa) = 81.52991 35.61232 62.79112
#
# Poissons Ratio (x) = 0.28391 0.05984
# Poissons Ratio (y) = 0.64997 0.49188
# Poissons Ratio (z) = 0.07770 0.27897
#
# Static dielectric constant tensor:
#      x y z
#    x 3.525720 -0.000010 0.021390 
#    y -0.000010 3.145430 0.000010 
#    z 0.021390 0.000010 3.492480 
# 
# 
# High freq. dielectric constant tensor:
#      x y z
#    x 1.749490 0.000000 0.004740 
#    y 0.000000 1.716710 0.000000 
#    z 0.004740 0.000000 1.743910 
# 
# From -- ./inp_files/329445.got.cif
#   From: 2010.06.25/outbox.cif.g09.slc.cpg/sg12_165_cif.got.tgz:329445.got - 2010.06.28 00:19:55.
