data_PCOD8088966
_publ_section_title
;
Structure prediction by ZEFSAII (Michael W. Deem and Ramdas Pophale) SiO2 
 PCOD8088966
Probable space group: C 2/M
;
_chemical_formula_sum "Si O2"
_cell_formula_units_Z 56
_cell_length_a 32.684860
_cell_length_b 8.969207
_cell_length_c 22.657870
_cell_angle_alpha 90.000000
_cell_angle_beta 25.704953
_cell_angle_gamma 90.000000
_cell_volume 2881.019553
_symmetry_space_group_name_H-M "C 2/M"
_symmetry_group_IT_number 12
_symmetry_cell_setting 'monoclinic'
loop_
_space_group_symop_operation_xyz
x,y,z
-x,y,-z
-x,-y,-z
x,-y,z
1/2+x,1/2+y,z
1/2-x,1/2+y,-z
1/2-x,1/2-y,-z
1/2+x,1/2-y,z
loop_
_atom_site_type_symbol
_atom_site_label
_atom_site_fract_x
_atom_site_fract_y
_atom_site_fract_z
Si Si1 0.324402 0.325760 0.133790
Si Si2 0.961803 0.832304 0.644786
Si Si3 0.046587 0.824518 0.138108
Si Si4 0.654090 0.323819 0.647004
Si Si5 0.900710 0.822975 0.153199
Si Si6 0.642774 0.333862 0.342082
Si Si7 0.650232 0.824120 0.112917
O O1 0.332126 0.500000 0.126518
O O2 0.328879 0.267024 0.195439
O O3 0.226447 0.282126 0.232384
O O4 0.410646 0.271956 0.980388
O O5 0.903404 0.823379 0.661252
O O6 0.924567 0.710850 0.738704
O O7 0.069681 0.793050 0.489082
O O8 0.954160 0.000000 0.681353
O O9 0.104200 0.736033 0.112808
O O10 0.934492 0.786235 0.281345
O O11 0.061871 0.000000 0.129507
O O12 0.670263 0.500000 0.628468
O O13 0.750000 0.250000 0.500000
O O14 0.630717 0.257994 0.742638
O O15 0.906194 0.000000 0.153011
O O16 0.000000 0.761517 0.000000
O O17 0.682120 0.500000 0.301629
O O18 0.666226 0.000000 0.086337
O O19 0.750000 0.750000 0.000000
#
# Coordination Sequence:
#
# PCOD8088966 Si02
#       7
#     8   8   8   8   8   8   8
#     4  10  19  32  57  87 110 140 192 240 279 334
#     4   9  19  38  58  77 109 151 189 227 278 343
#     4  10  21  38  59  84 115 155 197 241 291 348
#     4  10  21  38  61  87 120 158 197 244 298 353
#     4   9  16  33  59  82 106 143 189 233 278 333
#     4   9  19  35  56  81 111 147 182 226 288 343
#     4  12  25  39  58  84 115 152 193 239 289 346
#
# _framework density 19.437562
#
# number of rings (size 3 to 8) (size 9 to 14) (size 15 to 20)
#    0.000    2.143    1.429    3.000    0.000    5.714 
#    0.000    5.000    0.000    0.857    0.000    0.000 
#    0.000    0.000    0.000    0.000    0.000    0.000 
#
# Total GULP energy -347019.397401 kJ/mol
# GULP energy per Si atom -12393.549907 kJ/mol
# Density = 1.939332 g / cm^3
# Si number density = 19.437562 Si / 1000 Ang^3
#
#
#
# Elastic Constant Matrix: (Units=GPa)
#
#
# Indices 1 2 3 4 5 6 
#
# 1 101.8323 56.7281 64.6899 0.0143 -2.4686 0.0035
# 2 56.7281 46.0704 40.8770 0.0088 5.3463 -0.0004
# 3 64.6899 40.8770 130.0677 0.0048 -0.4773 0.0086
# 4 0.0143 0.0088 0.0048 27.5132 0.0050 -0.4503
# 5 -2.4686 5.3463 -0.4773 0.0050 34.2331 -0.0054
# 6 0.0035 -0.0004 0.0086 -0.4503 -0.0054 25.3954
#
#
#
# Elastic Compliance Matrix: (Units=1/GPa)
#
#
# Indices 1 2 3 4 5 6 
#
# 1 0.036049 -0.040970 -0.005021 -0.000006 0.008928 -0.000002
# 2 -0.040970 0.077483 -0.004030 0.000000 -0.015111 0.000005
# 3 -0.005021 -0.004030 0.011453 0.000002 0.000427 -0.000003
# 4 -0.000006 0.000000 0.000002 0.036357 -0.000006 0.000645
# 5 0.008928 -0.015111 0.000427 -0.000006 0.032221 0.000005
# 6 -0.000002 0.000005 -0.000003 0.000645 0.000005 0.039389
#
#
# Mechanical properties :
#
#
# Convention : Reuss Voigt Hill
#
# Bulk Modulus (GPa) = 40.08884 66.95115 53.51999
# Shear Modulus (GPa) = 14.64955 25.14002 19.89479
#
# Velocity S-wave (km/s) = 2.74829 3.60025 3.20272
# Velocity P-wave (km/s) = 5.54436 7.19732 6.42423
#
# Compressibility (1/GPa) = 0.02494460
#
# Stress axis : x y z
#
# Youngs Moduli (GPa) = 27.73982 12.90612 87.31059
#
# Poissons Ratio (x) = 0.52876 0.43836
# Poissons Ratio (y) = 1.13650 0.35183
# Poissons Ratio (z) = 0.13927 0.05201
#
# Static dielectric constant tensor:
#      x y z
#    x 3.797460 -0.000020 0.144950 
#    y -0.000020 3.297690 -0.000040 
#    z 0.144950 -0.000040 3.756660 
# 
# 
# High freq. dielectric constant tensor:
#      x y z
#    x 1.765450 0.000000 0.001610 
#    y 0.000000 1.725580 0.000000 
#    z 0.001610 0.000000 1.764700 
# 
# From -- ./inp_files/329456.got.cif
#   From: 2010.06.25/outbox.cif.g09.slc.cpg/sg12_165_cif.got.tgz:329456.got - 2010.06.28 00:19:55.
