data_PCOD8088490
_publ_section_title
;
Structure prediction by ZEFSAII (Michael W. Deem and Ramdas Pophale) SiO2 
 PCOD8088490
Probable space group: C 2/M
;
_chemical_formula_sum "Si O2"
_cell_formula_units_Z 64
_cell_length_a 20.562515
_cell_length_b 8.803404
_cell_length_c 22.642854
_cell_angle_alpha 90.000000
_cell_angle_beta 54.898932
_cell_angle_gamma 90.000000
_cell_volume 3353.398195
_symmetry_space_group_name_H-M "C 2/M"
_symmetry_group_IT_number 12
_symmetry_cell_setting 'monoclinic'
loop_
_space_group_symop_operation_xyz
x,y,z
-x,y,-z
-x,-y,-z
x,-y,z
1/2+x,1/2+y,z
1/2-x,1/2+y,-z
1/2-x,1/2-y,-z
1/2+x,1/2-y,z
loop_
_atom_site_type_symbol
_atom_site_label
_atom_site_fract_x
_atom_site_fract_y
_atom_site_fract_z
Si Si1 0.219364 0.322303 0.425731
Si Si2 0.763376 0.679052 0.285110
Si Si3 0.365817 0.675658 0.428765
Si Si4 0.956521 0.823399 0.961845
Si Si5 0.286480 0.179808 0.039423
Si Si6 0.488267 0.676809 0.726928
Si Si7 0.309097 0.320657 0.797879
Si Si8 0.946153 0.678063 0.192065
O O1 0.215135 0.500000 0.418839
O O2 0.212656 0.246347 0.365341
O O3 0.301802 0.270343 0.413365
O O4 0.145712 0.268953 0.504803
O O5 0.753183 0.500000 0.292163
O O6 0.729153 0.747241 0.241813
O O7 0.854715 0.728093 0.243461
O O8 0.352284 0.500000 0.450688
O O9 0.453556 0.708171 0.358433
O O10 0.015112 0.776439 0.879353
O O11 0.934486 0.000000 0.967292
O O12 0.877503 0.724691 0.999380
O O13 0.000000 0.786297 0.000000
O O14 0.237154 0.244513 0.121042
O O15 0.279432 0.000000 0.038481
O O16 0.250000 0.250000 0.000000
O O17 0.492213 0.500000 0.744173
O O18 0.400991 0.726492 0.752269
O O19 0.511598 0.782878 0.768892
O O20 0.299072 0.500000 0.802573
O O21 0.955587 0.500000 0.173372
#
# Coordination Sequence:
#
# PCOD8088490 Si02
#       8
#     8   8   8   8   8   8   8   8
#     4  10  19  32  53  82 112 144 183 227 276 324
#     4  10  20  36  56  81 112 146 185 224 277 339
#     4   9  18  32  53  81 111 144 183 227 274 325
#     4  11  24  40  58  82 113 150 193 241 291 341
#     4  11  22  39  62  87 117 152 194 237 289 351
#     4  10  19  36  59  83 111 143 185 232 276 327
#     4   9  20  37  58  81 109 147 184 226 275 333
#     4  11  22  35  57  85 112 143 182 232 287 342
#
# _framework density 19.085117
#
# number of rings (size 3 to 8) (size 9 to 14) (size 15 to 20)
#    0.000    1.875    1.250    3.000    0.000    4.500 
#    0.000    3.125    0.000    3.750    0.000    0.000 
#    0.000    0.000    0.000    0.000    0.000    0.000 
#
# Total GULP energy -396929.675985 kJ/mol
# GULP energy per Si atom -12404.052375 kJ/mol
# Density = 1.904168 g / cm^3
# Si number density = 19.085117 Si / 1000 Ang^3
#
#
#
# Elastic Constant Matrix: (Units=GPa)
#
#
# Indices 1 2 3 4 5 6 
#
# 1 88.8790 34.2292 58.6137 -0.0004 22.8721 0.0009
# 2 34.2292 42.5871 36.6847 -0.0007 3.8277 0.0028
# 3 58.6137 36.6847 156.7490 -0.0002 17.0238 0.0001
# 4 -0.0004 -0.0007 -0.0002 53.2080 0.0000 0.6054
# 5 22.8721 3.8277 17.0238 0.0000 24.9213 -0.0001
# 6 0.0009 0.0028 0.0001 0.6054 -0.0001 24.2864
#
#
#
# Elastic Compliance Matrix: (Units=1/GPa)
#
#
# Indices 1 2 3 4 5 6 
#
# 1 0.023450 -0.014224 -0.003607 0.000000 -0.016873 0.000001
# 2 -0.014224 0.038039 -0.004717 0.000000 0.010434 -0.000004
# 3 -0.003607 -0.004717 0.009067 0.000000 -0.002158 0.000001
# 4 0.000000 0.000000 0.000000 0.018799 0.000000 -0.000469
# 5 -0.016873 0.010434 -0.002158 0.000000 0.055484 0.000000
# 6 0.000001 -0.000004 0.000001 -0.000469 0.000000 0.041187
#
#
# Mechanical properties :
#
#
# Convention : Reuss Voigt Hill
#
# Bulk Modulus (GPa) = 39.27786 60.80782 50.04284
# Shear Modulus (GPa) = 20.86723 31.06232 25.96477
#
# Velocity S-wave (km/s) = 3.31021 4.03869 3.69246
# Velocity P-wave (km/s) = 5.93591 7.32657 6.66759
#
# Compressibility (1/GPa) = 0.02545963
#
# Stress axis : x y z
#
# Youngs Moduli (GPa) = 42.64309 26.28870 110.29163
#
# Poissons Ratio (x) = 0.37394 0.39787
# Poissons Ratio (y) = 0.60656 0.52022
# Poissons Ratio (z) = 0.15383 0.12400
#
# Static dielectric constant tensor:
#      x y z
#    x 3.491730 0.000000 0.035890 
#    y 0.000000 3.336230 0.000000 
#    z 0.035890 0.000000 3.699970 
# 
# 
# High freq. dielectric constant tensor:
#      x y z
#    x 1.734140 0.000000 -0.000390 
#    y 0.000000 1.731060 0.000000 
#    z -0.000390 0.000000 1.759060 
# 
# From -- ./inp_files/319823.got.cif
#   From: 2010.06.25/outbox.cif.g09.slc.cpg/sg12_160_cif.got.tgz:319823.got - 2010.06.28 00:19:55.
