data_PCOD8088142
_publ_section_title
;
Structure prediction by ZEFSAII (Michael W. Deem and Ramdas Pophale) SiO2 
 PCOD8088142
Probable space group: C 2/M
;
_chemical_formula_sum "Si O2"
_cell_formula_units_Z 48
_cell_length_a 25.986741
_cell_length_b 13.338098
_cell_length_c 14.629151
_cell_angle_alpha 90.000000
_cell_angle_beta 151.097858
_cell_angle_gamma 90.000000
_cell_volume 2450.728602
_symmetry_space_group_name_H-M "C 2/M"
_symmetry_group_IT_number 12
_symmetry_cell_setting 'monoclinic'
loop_
_space_group_symop_operation_xyz
x,y,z
-x,y,-z
-x,-y,-z
x,-y,z
1/2+x,1/2+y,z
1/2-x,1/2+y,-z
1/2-x,1/2-y,-z
1/2+x,1/2-y,z
loop_
_atom_site_type_symbol
_atom_site_label
_atom_site_fract_x
_atom_site_fract_y
_atom_site_fract_z
Si Si1 0.061231 0.887242 0.444681
Si Si2 0.248437 0.382152 0.582825
Si Si3 0.173317 0.118630 0.921847
Si Si4 0.847397 0.793995 0.919654
Si Si5 0.756516 0.387425 0.867426
Si Si6 0.097460 0.209062 0.318995
O O1 0.132359 0.884850 0.645744
O O2 0.120556 0.825619 0.457829
O O3 0.945442 0.839761 0.284201
O O4 0.045881 0.000000 0.383911
O O5 0.222211 0.500000 0.550014
O O6 0.286880 0.338407 0.739224
O O7 0.142559 0.323111 0.383268
O O8 0.341807 0.364481 0.655467
O O9 0.255973 0.156972 0.971066
O O10 0.175750 0.000000 0.915274
O O11 0.203226 0.149071 0.071309
O O12 0.826401 0.676619 0.905634
O O13 0.973473 0.803250 0.101765
O O14 0.802703 0.500000 0.934282
#
# Coordination Sequence:
#
# PCOD8088142 Si02
#       6
#     8   8   8   8   8   8
#     4   9  16  31  54  79 106 139 182 227 271 321
#     4  11  23  40  61  83 112 147 186 231 281 336
#     4   9  18  31  52  81 109 142 185 230 271 320
#     4  11  21  36  57  83 112 148 187 229 276 333
#     4  10  19  32  52  79 112 146 181 224 275 327
#     4  10  22  38  57  83 111 143 183 230 279 333
#
# _framework density 19.586013000000001
#
# number of rings (size 3 to 8) (size 9 to 14) (size 15 to 20)
#    0.000    2.000    1.667    2.500    0.000    5.333 
#    0.000    0.000    0.000    3.000    0.000    5.833 
#    0.000    0.000    0.000    0.000    0.000    0.000 
#
# Total GULP energy -297451.939669 kJ/mol
# GULP energy per Si atom -12393.830820 kJ/mol
# Density = 1.954143 g / cm^3
# Si number density = 19.586013 Si / 1000 Ang^3
#
#
#
# Elastic Constant Matrix: (Units=GPa)
#
#
# Indices 1 2 3 4 5 6 
#
# 1 89.2551 29.7972 0.0811 0.0000 -8.1932 0.0000
# 2 29.7972 77.2510 0.1869 0.0000 -1.1535 0.0000
# 3 0.0811 0.1869 32.6235 0.0000 -5.4820 0.0000
# 4 0.0000 0.0000 0.0000 17.6414 0.0000 -4.2517
# 5 -8.1932 -1.1535 -5.4820 0.0000 22.9460 0.0000
# 6 0.0000 0.0000 0.0000 -4.2517 0.0000 31.9573
#
#
#
# Elastic Compliance Matrix: (Units=1/GPa)
#
#
# Indices 1 2 3 4 5 6 
#
# 1 0.013327 -0.005072 0.000784 0.000000 0.004691 0.000000
# 2 -0.005072 0.014885 -0.000262 0.000000 -0.001125 0.000000
# 3 0.000784 -0.000262 0.031981 0.000000 0.007907 0.000000
# 4 0.000000 0.000000 0.000000 0.058563 0.000000 0.007791
# 5 0.004691 -0.001125 0.007907 0.000000 0.047088 0.000000
# 6 0.000000 0.000000 0.000000 0.007791 0.000000 0.032328
#
#
# Mechanical properties :
#
#
# Convention : Reuss Voigt Hill
#
# Bulk Modulus (GPa) = 19.57201 28.80667 24.18934
# Shear Modulus (GPa) = 22.29121 25.77989 24.03555
#
# Velocity S-wave (km/s) = 3.37726 3.63194 3.50691
# Velocity P-wave (km/s) = 5.02219 5.68574 5.36424
#
# Compressibility (1/GPa) = 0.05109336
#
# Stress axis : x y z
#
# Youngs Moduli (GPa) = 75.03496 67.18104 31.26856
#
# Poissons Ratio (x) = 0.34077 -0.02452
# Poissons Ratio (y) = 0.38061 0.00819
# Poissons Ratio (z) = -0.05884 0.01759
#
# Static dielectric constant tensor:
#      x y z
#    x 3.694890 0.000000 -0.099990 
#    y 0.000000 3.543570 0.000000 
#    z -0.099990 0.000000 3.342940 
# 
# 
# High freq. dielectric constant tensor:
#      x y z
#    x 1.775830 0.000000 -0.011070 
#    y 0.000000 1.759060 0.000000 
#    z -0.011070 0.000000 1.742010 
# 
# From -- ./inp_files/212931.got.cif
#   From: 2010.06.25/outbox.cif.g09.slc.cpg/sg12_107_cif.got.tgz:212931.got - 2010.06.28 00:19:55.
