data_PCOD8088153
_publ_section_title
;
Structure prediction by ZEFSAII (Michael W. Deem and Ramdas Pophale) SiO2 
 PCOD8088153
Probable space group: C 2/M
;
_chemical_formula_sum "Si O2"
_cell_formula_units_Z 40
_cell_length_a 31.090364
_cell_length_b 8.601384
_cell_length_c 25.436260
_cell_angle_alpha 90.000000
_cell_angle_beta 17.653902
_cell_angle_gamma 90.000000
_cell_volume 2062.869811
_symmetry_space_group_name_H-M "C 2/M"
_symmetry_group_IT_number 12
_symmetry_cell_setting 'monoclinic'
loop_
_space_group_symop_operation_xyz
x,y,z
-x,y,-z
-x,-y,-z
x,-y,z
1/2+x,1/2+y,z
1/2-x,1/2+y,-z
1/2-x,1/2-y,-z
1/2+x,1/2-y,z
loop_
_atom_site_type_symbol
_atom_site_label
_atom_site_fract_x
_atom_site_fract_y
_atom_site_fract_z
Si Si1 0.443181 0.185286 0.120495
Si Si2 0.873469 0.815380 0.493441
Si Si3 0.377208 0.184670 0.992232
Si Si4 0.940267 0.814745 0.625506
Si Si5 0.894279 0.316241 0.356895
O O1 0.285179 0.245838 0.313604
O O2 0.543810 0.251171 0.048630
O O3 0.444651 0.000000 0.117871
O O4 0.500000 0.254701 0.000000
O O5 0.928551 0.741293 0.375425
O O6 0.963391 0.755325 0.438512
O O7 0.881807 0.000000 0.478593
O O8 0.467864 0.240089 0.836419
O O9 0.371430 0.000000 0.001100
O O10 0.217338 0.251054 0.179214
O O11 0.000000 0.751042 0.500000
O O12 0.940123 0.000000 0.623678
O O13 0.879171 0.500000 0.372664
O O14 0.750000 0.250000 0.500000
#
# Coordination Sequence:
#
# PCOD8088153 Si02
#       5
#     8   8   8   8   8
#     4   9  15  25  45  73 101 130 168 212 256 299
#     4  10  19  32  52  80 107 135 173 216 260 308
#     4   9  17  29  46  72 104 135 168 210 259 306
#     4   9  17  30  50  79 110 135 167 216 264 306
#     4  11  21  35  54  76 106 140 176 217 262 308
#
# _framework density 19.390460999999998
#
# number of rings (size 3 to 8) (size 9 to 14) (size 15 to 20)
#    0.000    2.400    2.000    1.800    0.000    5.600 
#    0.000    0.000    0.000    2.400    0.000    0.000 
#    0.000    0.000    0.000    0.000    0.000    0.000 
#
# Total GULP energy -247938.552047 kJ/mol
# GULP energy per Si atom -12396.927602 kJ/mol
# Density = 1.934633 g / cm^3
# Si number density = 19.390461 Si / 1000 Ang^3
#
#
#
# Elastic Constant Matrix: (Units=GPa)
#
#
# Indices 1 2 3 4 5 6 
#
# 1 180.2228 13.1386 83.5965 0.0086 9.3495 -0.0028
# 2 13.1386 19.7548 12.2998 -0.0170 3.3411 0.0081
# 3 83.5965 12.2998 167.1239 -0.0130 6.5164 0.0089
# 4 0.0086 -0.0170 -0.0130 14.3862 0.0035 8.4143
# 5 9.3495 3.3411 6.5164 0.0035 47.0767 -0.0008
# 6 -0.0028 0.0081 0.0089 8.4143 -0.0008 18.4780
#
#
#
# Elastic Compliance Matrix: (Units=1/GPa)
#
#
# Indices 1 2 3 4 5 6 
#
# 1 0.007392 -0.002618 -0.003474 -0.000017 -0.000801 0.000012
# 2 -0.002618 0.054476 -0.002583 0.000106 -0.002989 -0.000072
# 3 -0.003474 -0.002583 0.007920 0.000011 -0.000223 -0.000008
# 4 -0.000017 0.000106 0.000011 0.094746 -0.000013 -0.043144
# 5 -0.000801 -0.002989 -0.000223 -0.000013 0.021644 0.000008
# 6 0.000012 -0.000072 -0.000008 -0.043144 0.000008 0.073765
#
#
# Mechanical properties :
#
#
# Convention : Reuss Voigt Hill
#
# Bulk Modulus (GPa) = 19.07007 65.01904 42.04456
# Shear Modulus (GPa) = 16.96222 33.19261 25.07741
#
# Velocity S-wave (km/s) = 2.96086 4.14188 3.60013
# Velocity P-wave (km/s) = 4.64167 7.51517 6.24591
#
# Compressibility (1/GPa) = 0.05243819
#
# Stress axis : x y z
#
# Youngs Moduli (GPa) = 135.27253 18.35674 126.26234
#
# Poissons Ratio (x) = 0.04806 0.43861
# Poissons Ratio (y) = 0.35417 0.32614
# Poissons Ratio (z) = 0.46991 0.04742
#
# Static dielectric constant tensor:
#      x y z
#    x 3.771220 -0.000010 0.050970 
#    y -0.000010 2.888490 0.000010 
#    z 0.050970 0.000010 3.862870 
# 
# 
# High freq. dielectric constant tensor:
#      x y z
#    x 1.769640 0.000000 0.006170 
#    y 0.000000 1.688270 0.000000 
#    z 0.006170 0.000000 1.770370 
# 
# From -- ./inp_files/352955.got.cif
#   From: 2010.06.25/outbox.cif.g09.slc.cpg/sg12_177_cif.got.tgz:352955.got - 2010.06.28 00:19:55.
