data_PCOD8088621
_publ_section_title
;
Structure prediction by ZEFSAII (Michael W. Deem and Ramdas Pophale) SiO2 
 PCOD8088621
Probable space group: C 2/M
;
_chemical_formula_sum "Si O2"
_cell_formula_units_Z 64
_cell_length_a 15.123830
_cell_length_b 9.313264
_cell_length_c 27.756085
_cell_angle_alpha 90.000000
_cell_angle_beta 58.832382
_cell_angle_gamma 90.000000
_cell_volume 3345.195976
_symmetry_space_group_name_H-M "C 2/M"
_symmetry_group_IT_number 12
_symmetry_cell_setting 'monoclinic'
loop_
_space_group_symop_operation_xyz
x,y,z
-x,y,-z
-x,-y,-z
x,-y,z
1/2+x,1/2+y,z
1/2-x,1/2+y,-z
1/2-x,1/2-y,-z
1/2+x,1/2-y,z
loop_
_atom_site_type_symbol
_atom_site_label
_atom_site_fract_x
_atom_site_fract_y
_atom_site_fract_z
Si Si1 0.863646 0.329871 0.365810
Si Si2 0.733492 0.664465 0.178977
Si Si3 0.528871 0.831057 0.239518
Si Si4 0.091307 0.164839 0.051034
Si Si5 0.205335 0.664144 0.943582
Si Si6 0.444760 0.830302 0.444657
Si Si7 0.656901 0.170088 0.428965
Si Si8 0.448131 0.834700 0.158939
O O1 0.846118 0.500000 0.372116
O O2 0.904468 0.268342 0.405415
O O3 0.756909 0.253691 0.382406
O O4 0.945517 0.284346 0.302449
O O5 0.696971 0.500000 0.184359
O O6 0.636605 0.757809 0.222930
O O7 0.777734 0.718855 0.115375
O O8 0.823858 0.681571 0.193085
O O9 0.489109 0.778074 0.198651
O O10 0.546635 0.000000 0.235070
O O11 0.187176 0.183628 0.059496
O O12 0.994133 0.241978 0.102611
O O13 0.063391 0.000000 0.049415
O O14 0.116921 0.238397 0.992673
O O15 0.167077 0.500000 0.955806
O O16 0.368981 0.780915 0.509028
O O17 0.562124 0.779992 0.421634
O O18 0.445766 0.000000 0.442729
O O19 0.675771 0.000000 0.420508
O O20 0.480382 0.000000 0.141625
#
# Coordination Sequence:
#
# PCOD8088621 Si02
#       8
#     8   8   8   8   8   8   8   8
#     4  10  20  34  52  76 107 140 172 214 265 309
#     4  10  21  38  58  77 100 136 178 215 255 307
#     4  10  22  38  54  75 105 139 175 216 263 307
#     4  10  19  32  54  81 106 133 168 209 255 311
#     4   9  18  33  53  77 104 134 167 207 258 311
#     4   8  16  32  53  76 108 142 172 210 258 310
#     4   9  17  32  54  79 104 138 179 213 251 306
#     4  10  21  37  56  76 103 138 172 212 262 310
#
# _framework density 19.131913999999998
#
# number of rings (size 3 to 8) (size 9 to 14) (size 15 to 20)
#    0.000    2.500    1.250    1.500    0.000    3.500 
#    0.000    4.375    0.000    0.000    0.000    0.000 
#    0.000    0.000    0.000    0.000    0.000    0.000 
#
# Total GULP energy -396849.254845 kJ/mol
# GULP energy per Si atom -12401.539214 kJ/mol
# Density = 1.908837 g / cm^3
# Si number density = 19.131914 Si / 1000 Ang^3
#
#
#
# Elastic Constant Matrix: (Units=GPa)
#
#
# Indices 1 2 3 4 5 6 
#
# 1 70.5237 29.1205 36.2226 0.0000 -21.5007 0.0000
# 2 29.1205 55.2462 40.5894 0.0000 -16.7923 0.0000
# 3 36.2226 40.5894 99.5166 0.0000 -24.8853 0.0000
# 4 0.0000 0.0000 0.0000 20.8484 0.0000 -8.0798
# 5 -21.5007 -16.7923 -24.8853 0.0000 24.7416 0.0000
# 6 0.0000 0.0000 0.0000 -8.0798 0.0000 27.9208
#
#
#
# Elastic Compliance Matrix: (Units=1/GPa)
#
#
# Indices 1 2 3 4 5 6 
#
# 1 0.021604 -0.005881 -0.002363 0.000000 0.012406 0.000000
# 2 -0.005881 0.029142 -0.008120 0.000000 0.006502 0.000000
# 3 -0.002363 -0.008120 0.016472 0.000000 0.009003 0.000000
# 4 0.000000 0.000000 0.000000 0.054024 0.000000 0.015634
# 5 0.012406 0.006502 0.009003 0.000000 0.064667 0.000000
# 6 0.000000 0.000000 0.000000 0.015634 0.000000 0.040340
#
#
# Mechanical properties :
#
#
# Convention : Reuss Voigt Hill
#
# Bulk Modulus (GPa) = 28.99257 48.57239 38.78248
# Shear Modulus (GPa) = 18.48618 22.65910 20.57264
#
# Velocity S-wave (km/s) = 3.11183 3.44519 3.28274
# Velocity P-wave (km/s) = 5.30077 6.42410 5.88928
#
# Compressibility (1/GPa) = 0.03449160
#
# Stress axis : x y z
#
# Youngs Moduli (GPa) = 46.28851 34.31427 60.71022
#
# Poissons Ratio (x) = 0.20179 0.14343
# Poissons Ratio (y) = 0.27221 0.49296
# Poissons Ratio (z) = 0.10936 0.27863
#
# Static dielectric constant tensor:
#      x y z
#    x 3.583990 0.000000 0.155970 
#    y 0.000000 3.258040 0.000000 
#    z 0.155970 0.000000 3.515460 
# 
# 
# High freq. dielectric constant tensor:
#      x y z
#    x 1.749090 0.000000 -0.000480 
#    y 0.000000 1.722480 0.000000 
#    z -0.000480 0.000000 1.739390 
# 
# From -- ./inp_files/375024.got.cif
#   From: 2010.06.25/outbox.cif.g09.slc.cpg/sg12_188_cif.got.tgz:375024.got - 2010.06.28 00:19:55.
