data_PCOD8088327
_publ_section_title
;
Structure prediction by ZEFSAII (Michael W. Deem and Ramdas Pophale) SiO2 
 PCOD8088327
Probable space group: C 2/M
;
_chemical_formula_sum "Si O2"
_cell_formula_units_Z 56
_cell_length_a 29.400071
_cell_length_b 8.988119
_cell_length_c 16.777026
_cell_angle_alpha 90.000000
_cell_angle_beta 133.530631
_cell_angle_gamma 90.000000
_cell_volume 3214.207646
_symmetry_space_group_name_H-M "C 2/M"
_symmetry_group_IT_number 12
_symmetry_cell_setting 'monoclinic'
loop_
_space_group_symop_operation_xyz
x,y,z
-x,y,-z
-x,-y,-z
x,-y,z
1/2+x,1/2+y,z
1/2-x,1/2+y,-z
1/2-x,1/2-y,-z
1/2+x,1/2-y,z
loop_
_atom_site_type_symbol
_atom_site_label
_atom_site_fract_x
_atom_site_fract_y
_atom_site_fract_z
Si Si1 0.422333 0.827237 0.247099
Si Si2 0.449922 0.672385 0.590691
Si Si3 0.741478 0.824468 0.216631
Si Si4 0.800880 0.673801 0.006602
Si Si5 0.625241 0.825371 0.634858
Si Si6 0.219269 0.171771 0.342828
Si Si7 0.165841 0.829879 0.442720
O O1 0.482287 0.727702 0.299782
O O2 0.394881 0.786780 0.300105
O O3 0.441025 0.000000 0.265083
O O4 0.370607 0.784010 0.118768
O O5 0.452515 0.500000 0.569491
O O6 0.428782 0.766444 0.488602
O O7 0.404101 0.698958 0.610462
O O8 0.707618 0.773103 0.094636
O O9 0.810552 0.757118 0.307326
O O10 0.700304 0.763901 0.241006
O O11 0.747369 0.000000 0.229364
O O12 0.788955 0.500000 0.001185
O O13 0.750000 0.750000 0.000000
O O14 0.634658 0.000000 0.633512
O O15 0.168254 0.202809 0.350731
O O16 0.287892 0.220342 0.455390
O O17 0.222259 0.000000 0.322978
O O18 0.187294 0.000000 0.485177
#
# Coordination Sequence:
#
# PCOD8088327 Si02
#       7
#     8   8   8   8   8   8   8
#     4  10  22  38  53  74 106 142 181 218 257 313
#     4  11  22  35  53  78 109 141 175 216 264 316
#     4  11  21  33  53  80 110 138 172 220 267 311
#     4  10  21  37  56  77 104 139 178 223 265 306
#     4  11  21  34  53  77 107 143 178 213 258 314
#     4  10  19  32  53  78 105 139 174 212 266 321
#     4   9  19  34  51  76 108 137 172 218 263 314
#
# _framework density 17.422644999999999
#
# number of rings (size 3 to 8) (size 9 to 14) (size 15 to 20)
#    0.000    1.714    2.857    2.143    0.000    5.143 
#    0.000    0.000    0.000    0.857    0.000    6.000 
#    0.000    0.000    0.000    0.000    0.000    0.000 
#
# Total GULP energy -347282.888134 kJ/mol
# GULP energy per Si atom -12402.960291 kJ/mol
# Density = 1.738299 g / cm^3
# Si number density = 17.422645 Si / 1000 Ang^3
#
#
#
# Elastic Constant Matrix: (Units=GPa)
#
#
# Indices 1 2 3 4 5 6 
#
# 1 90.4639 41.8960 44.2952 0.0000 -21.5555 0.0000
# 2 41.8960 67.9572 34.0002 0.0000 -11.3191 0.0000
# 3 44.2952 34.0002 101.3292 0.0000 -18.4663 0.0000
# 4 0.0000 0.0000 0.0000 24.2715 0.0000 0.2760
# 5 -21.5555 -11.3191 -18.4663 0.0000 24.1065 0.0000
# 6 0.0000 0.0000 0.0000 0.2760 0.0000 29.8032
#
#
#
# Elastic Compliance Matrix: (Units=1/GPa)
#
#
# Indices 1 2 3 4 5 6 
#
# 1 0.019167 -0.008218 -0.003720 0.000000 0.010430 0.000000
# 2 -0.008218 0.021612 -0.003660 0.000000 -0.000004 0.000000
# 3 -0.003720 -0.003660 0.013719 0.000000 0.005464 0.000000
# 4 0.000000 0.000000 0.000000 0.041205 0.000000 -0.000382
# 5 0.010430 -0.000004 0.005464 0.000000 0.054992 0.000000
# 6 0.000000 0.000000 0.000000 -0.000382 0.000000 0.033557
#
#
# Mechanical properties :
#
#
# Convention : Reuss Voigt Hill
#
# Bulk Modulus (GPa) = 42.91641 55.57035 49.24338
# Shear Modulus (GPa) = 22.39980 24.94018 23.66999
#
# Velocity S-wave (km/s) = 3.58952 3.78760 3.68989
# Velocity P-wave (km/s) = 6.47036 7.14791 6.81755
#
# Compressibility (1/GPa) = 0.02330111
#
# Stress axis : x y z
#
# Youngs Moduli (GPa) = 52.17308 46.27043 72.89131
#
# Poissons Ratio (x) = 0.38025 0.27119
# Poissons Ratio (y) = 0.42875 0.26679
# Poissons Ratio (z) = 0.19411 0.16936
#
# Static dielectric constant tensor:
#      x y z
#    x 3.405190 0.000000 -0.216870 
#    y 0.000000 3.323190 0.000000 
#    z -0.216870 0.000000 3.247640 
# 
# 
# High freq. dielectric constant tensor:
#      x y z
#    x 1.674560 0.000000 -0.013860 
#    y 0.000000 1.683420 0.000000 
#    z -0.013860 0.000000 1.654030 
# 
# From -- ./inp_files/287332.got.cif
#   From: 2010.06.25/outbox.cif.g09.slc.cpg/sg12_144_cif.got.tgz:287332.got - 2010.06.28 00:19:55.
