data_PCOD8088292
_publ_section_title
;
Structure prediction by ZEFSAII (Michael W. Deem and Ramdas Pophale) SiO2 
 PCOD8088292
Probable space group: C 2/M
;
_chemical_formula_sum "Si O2"
_cell_formula_units_Z 40
_cell_length_a 25.020621
_cell_length_b 9.061581
_cell_length_c 9.485095
_cell_angle_alpha 90.000000
_cell_angle_beta 87.939956
_cell_angle_gamma 90.000000
_cell_volume 2149.131418
_symmetry_space_group_name_H-M "C 2/M"
_symmetry_group_IT_number 12
_symmetry_cell_setting 'monoclinic'
loop_
_space_group_symop_operation_xyz
x,y,z
-x,y,-z
-x,-y,-z
x,-y,z
1/2+x,1/2+y,z
1/2-x,1/2+y,-z
1/2-x,1/2-y,-z
1/2+x,1/2-y,z
loop_
_atom_site_type_symbol
_atom_site_label
_atom_site_fract_x
_atom_site_fract_y
_atom_site_fract_z
Si Si1 0.688391 0.331193 0.379276
Si Si2 0.008336 0.337242 0.833042
Si Si3 0.905962 0.829593 0.817460
Si Si4 0.792882 0.828143 0.304159
Si Si5 0.122342 0.674967 0.894012
O O1 0.707420 0.500000 0.358002
O O2 0.631061 0.303354 0.314649
O O3 0.731818 0.226225 0.301721
O O4 0.682745 0.292829 0.544618
O O5 0.999737 0.500000 0.767570
O O6 0.069608 0.283166 0.805876
O O7 0.965418 0.226008 0.769057
O O8 0.000000 0.345431 0.000000
O O9 0.909528 0.000000 0.860194
O O10 0.881315 0.740374 0.949381
O O11 0.825942 0.740381 0.185021
O O12 0.794861 0.000000 0.266992
O O13 0.127652 0.500000 0.907763
#
# Coordination Sequence:
#
# PCOD8088292 Si02
#       5
#     8   8   8   8   8
#     4   9  20  37  53  73 102 132 164 205 253 300
#     4   8  16  31  49  71 101 134 165 200 245 293
#     4  10  19  32  53  78 102 130 165 206 249 294
#     4  10  20  35  55  75  97 131 171 207 247 296
#     4  10  20  34  52  75 104 134 165 205 248 292
#
# _framework density 18.612171
#
# number of rings (size 3 to 8) (size 9 to 14) (size 15 to 20)
#    0.000    2.600    0.000    3.000    0.000    7.600 
#    0.000    1.000    0.000    6.000    0.000    0.000 
#    0.000    0.000    0.000    0.000    0.000    0.000 
#
# Total GULP energy -247978.768947 kJ/mol
# GULP energy per Si atom -12398.938447 kJ/mol
# Density = 1.856981 g / cm^3
# Si number density = 18.612171 Si / 1000 Ang^3
#
#
#
# Elastic Constant Matrix: (Units=GPa)
#
#
# Indices 1 2 3 4 5 6 
#
# 1 45.0409 20.7720 1.6053 0.0000 18.0044 0.0000
# 2 20.7720 80.2160 12.6852 0.0000 9.5757 0.0000
# 3 1.6053 12.6852 23.3214 0.0000 9.5648 0.0000
# 4 0.0000 0.0000 0.0000 18.9356 0.0000 0.7630
# 5 18.0044 9.5757 9.5648 0.0000 27.2005 0.0000
# 6 0.0000 0.0000 0.0000 0.7630 0.0000 37.2825
#
#
#
# Elastic Compliance Matrix: (Units=1/GPa)
#
#
# Indices 1 2 3 4 5 6 
#
# 1 0.035480 -0.008144 0.012203 0.000000 -0.024909 0.000000
# 2 -0.008144 0.015663 -0.009241 0.000000 0.003126 0.000000
# 3 0.012203 -0.009241 0.057309 0.000000 -0.024977 0.000000
# 4 0.000000 0.000000 0.000000 0.052854 0.000000 -0.001082
# 5 -0.024909 0.003126 -0.024977 0.000000 0.060934 0.000000
# 6 0.000000 0.000000 0.000000 -0.001082 0.000000 0.026844
#
#
# Mechanical properties :
#
#
# Convention : Reuss Voigt Hill
#
# Bulk Modulus (GPa) = 10.19482 24.30036 17.24759
# Shear Modulus (GPa) = 17.11480 24.25145 20.68312
#
# Velocity S-wave (km/s) = 3.03570 3.61361 3.33719
# Velocity P-wave (km/s) = 4.21624 5.52226 4.91284
#
# Compressibility (1/GPa) = 0.09808906
#
# Stress axis : x y z
#
# Youngs Moduli (GPa) = 28.18498 63.84291 17.44918
#
# Poissons Ratio (x) = 0.51993 -0.21294
# Poissons Ratio (y) = 0.22954 0.16125
# Poissons Ratio (z) = -0.34395 0.58999
#
# Static dielectric constant tensor:
#      x y z
#    x 3.677080 0.000000 0.059280 
#    y 0.000000 3.524070 0.000000 
#    z 0.059280 0.000000 3.099840 
# 
# 
# High freq. dielectric constant tensor:
#      x y z
#    x 1.729690 0.000000 0.005770 
#    y 0.000000 1.731970 0.000000 
#    z 0.005770 0.000000 1.689400 
# 
# From -- ./inp_files/92923.got.cif
#   From: 2010.06.25/outbox.cif.g09.slc.cpg/sg12_47_cif.got.tgz:92923.got - 2010.06.28 00:19:55.
