data_PCOD8088819
_publ_section_title
;
Structure prediction by ZEFSAII (Michael W. Deem and Ramdas Pophale) SiO2 
 PCOD8088819
Probable space group: C 2/M
;
_chemical_formula_sum "Si O2"
_cell_formula_units_Z 48
_cell_length_a 8.141408
_cell_length_b 19.625466
_cell_length_c 14.351550
_cell_angle_alpha 90.000000
_cell_angle_beta 99.915952
_cell_angle_gamma 90.000000
_cell_volume 2258.819957
_symmetry_space_group_name_H-M "C 2/M"
_symmetry_group_IT_number 12
_symmetry_cell_setting 'monoclinic'
loop_
_space_group_symop_operation_xyz
x,y,z
-x,y,-z
-x,-y,-z
x,-y,z
1/2+x,1/2+y,z
1/2-x,1/2+y,-z
1/2-x,1/2-y,-z
1/2+x,1/2-y,z
loop_
_atom_site_type_symbol
_atom_site_label
_atom_site_fract_x
_atom_site_fract_y
_atom_site_fract_z
Si Si1 0.132773 0.779091 0.590933
Si Si2 0.965687 0.352026 0.592699
Si Si3 0.404332 0.074898 0.774932
Si Si4 0.124383 0.197504 0.087490
Si Si5 0.155930 0.576046 0.949516
Si Si6 0.655666 0.683862 0.802291
O O1 0.313496 0.797874 0.567413
O O2 0.110075 0.814935 0.688933
O O3 0.000000 0.803785 0.500000
O O4 0.123505 0.698693 0.616928
O O5 0.933461 0.402887 0.672244
O O6 0.000000 0.393964 0.500000
O O7 0.587019 0.074690 0.837379
O O8 0.285314 0.122059 0.826230
O O9 0.323313 0.000000 0.766259
O O10 0.205827 0.135488 0.035482
O O11 0.260993 0.248528 0.144083
O O12 0.016315 0.168076 0.162228
O O13 0.000000 0.234055 0.000000
O O14 0.227743 0.500000 0.981745
O O15 0.000000 0.593619 0.000000
#
# Coordination Sequence:
#
# PCOD8088819 Si02
#       6
#     8   8   8   8   8   8
#     4  10  19  33  55  84 115 147 184 235 294 344
#     4  10  19  32  55  83 113 146 187 236 289 349
#     4  10  22  40  59  80 113 157 198 241 294 346
#     4  12  24  38  61  90 121 154 192 239 293 347
#     4  10  22  41  62  85 118 157 195 233 280 344
#     4  11  23  38  59  87 121 151 194 247 291 348
#
# _framework density 21.250035
#
# number of rings (size 3 to 8) (size 9 to 14) (size 15 to 20)
#    0.000    1.500    0.000    7.500    0.000    4.000 
#    0.000    0.000    0.000    8.000    0.000    0.000 
#    0.000    0.667    0.000    0.000    0.000    0.000 
#
# Total GULP energy -297366.013191 kJ/mol
# GULP energy per Si atom -12390.250550 kJ/mol
# Density = 2.120167 g / cm^3
# Si number density = 21.250035 Si / 1000 Ang^3
#
#
#
# Elastic Constant Matrix: (Units=GPa)
#
#
# Indices 1 2 3 4 5 6 
#
# 1 73.9127 34.5635 41.1514 0.0000 -19.0718 0.0000
# 2 34.5635 103.3862 24.4138 0.0000 -6.3514 0.0000
# 3 41.1514 24.4138 82.8501 0.0000 -7.9111 0.0000
# 4 0.0000 0.0000 0.0000 12.9945 0.0000 -5.4770
# 5 -19.0718 -6.3514 -7.9111 0.0000 47.4255 0.0000
# 6 0.0000 0.0000 0.0000 -5.4770 0.0000 26.5097
#
#
#
# Elastic Compliance Matrix: (Units=1/GPa)
#
#
# Indices 1 2 3 4 5 6 
#
# 1 0.022779 -0.005022 -0.009170 0.000000 0.006958 0.000000
# 2 -0.005022 0.011541 -0.000967 0.000000 -0.000635 0.000000
# 3 -0.009170 -0.000967 0.016813 0.000000 -0.001012 0.000000
# 4 0.000000 0.000000 0.000000 0.084296 0.000000 0.017416
# 5 0.006958 -0.000635 -0.001012 0.000000 0.023630 0.000000
# 6 0.000000 0.000000 0.000000 0.017416 0.000000 0.041320
#
#
# Mechanical properties :
#
#
# Convention : Reuss Voigt Hill
#
# Bulk Modulus (GPa) = 48.04378 51.15628 49.60003
# Shear Modulus (GPa) = 21.04065 28.05395 24.54730
#
# Velocity S-wave (km/s) = 3.15007 3.63738 3.40246
# Velocity P-wave (km/s) = 5.99070 6.46270 6.23117
#
# Compressibility (1/GPa) = 0.02081435
#
# Stress axis : x y z
#
# Youngs Moduli (GPa) = 43.90041 86.64896 59.47849
#
# Poissons Ratio (x) = 0.43519 0.54540
# Poissons Ratio (y) = 0.22049 0.05750
# Poissons Ratio (z) = 0.40256 0.08377
#
# Static dielectric constant tensor:
#      x y z
#    x 3.928400 0.000000 -0.063750 
#    y 0.000000 3.657040 0.000000 
#    z -0.063750 0.000000 4.159220 
# 
# 
# High freq. dielectric constant tensor:
#      x y z
#    x 1.825740 0.000000 -0.013510 
#    y 0.000000 1.803590 0.000000 
#    z -0.013510 0.000000 1.865790 
# 
# From -- ./inp_files/195968.got.cif
#   From: 2010.06.25/outbox.cif.g09.slc.cpg/sg12_98_cif.got.tgz:195968.got - 2010.06.28 00:19:55.
