data_PCOD8088572
_publ_section_title
;
Structure prediction by ZEFSAII (Michael W. Deem and Ramdas Pophale) SiO2 
 PCOD8088572
Probable space group: C 2/M
;
_chemical_formula_sum "Si O2"
_cell_formula_units_Z 48
_cell_length_a 18.776613
_cell_length_b 9.214533
_cell_length_c 15.306407
_cell_angle_alpha 90.000000
_cell_angle_beta 89.550606
_cell_angle_gamma 90.000000
_cell_volume 2648.198183
_symmetry_space_group_name_H-M "C 2/M"
_symmetry_group_IT_number 12
_symmetry_cell_setting 'monoclinic'
loop_
_space_group_symop_operation_xyz
x,y,z
-x,y,-z
-x,-y,-z
x,-y,z
1/2+x,1/2+y,z
1/2-x,1/2+y,-z
1/2-x,1/2-y,-z
1/2+x,1/2-y,z
loop_
_atom_site_type_symbol
_atom_site_label
_atom_site_fract_x
_atom_site_fract_y
_atom_site_fract_z
Si Si1 0.696297 0.669819 0.265450
Si Si2 0.791425 0.836992 0.927791
Si Si3 0.956267 0.833960 0.918022
Si Si4 0.948237 0.672177 0.741726
Si Si5 0.454982 0.171742 0.419388
Si Si6 0.205971 0.669851 0.574045
O O1 0.674665 0.500000 0.262302
O O2 0.724817 0.719971 0.170128
O O3 0.626040 0.760185 0.290666
O O4 0.758431 0.702480 0.333058
O O5 0.874578 0.822415 0.945846
O O6 0.764196 0.000000 0.936869
O O7 0.750000 0.750000 0.000000
O O8 0.973364 0.735566 0.834101
O O9 0.977453 0.000000 0.896003
O O10 0.000000 0.773580 0.000000
O O11 0.939131 0.500000 0.748986
O O12 0.008204 0.717423 0.671389
O O13 0.500000 0.237126 0.500000
O O14 0.374340 0.232391 0.422735
O O15 0.452222 0.000000 0.427579
O O16 0.206918 0.500000 0.552560
O O17 0.250000 0.750000 0.500000
#
# Coordination Sequence:
#
# PCOD8088572 Si02
#       6
#     8   8   8   8   8   8
#     4   9  19  35  52  71 101 138 168 201 253 307
#     4   9  18  32  50  72  98 131 168 206 251 298
#     4   9  19  36  54  72 101 139 170 202 252 304
#     4  10  19  32  54  79 100 129 170 212 250 292
#     4   9  18  32  50  74 104 134 163 202 254 302
#     4  10  20  35  54  75 101 134 170 207 249 299
#
# _framework density 18.125530999999999
#
# number of rings (size 3 to 8) (size 9 to 14) (size 15 to 20)
#    0.000    2.667    0.000    2.500    0.000    6.333 
#    0.000    3.333    0.000    4.500    0.000    0.000 
#    0.000    0.000    0.000    0.000    0.000    0.000 
#
# Total GULP energy -297591.164432 kJ/mol
# GULP energy per Si atom -12399.631851 kJ/mol
# Density = 1.808428 g / cm^3
# Si number density = 18.125531 Si / 1000 Ang^3
#
#
#
# Elastic Constant Matrix: (Units=GPa)
#
#
# Indices 1 2 3 4 5 6 
#
# 1 136.0805 44.5228 97.5298 0.0000 -0.7012 0.0000
# 2 44.5228 53.6281 47.5672 0.0000 -6.9853 0.0000
# 3 97.5298 47.5672 142.7899 0.0000 0.9358 0.0000
# 4 0.0000 0.0000 0.0000 30.4506 0.0000 -4.2813
# 5 -0.7012 -6.9853 0.9358 0.0000 41.2424 0.0000
# 6 0.0000 0.0000 0.0000 -4.2813 0.0000 21.6707
#
#
#
# Elastic Compliance Matrix: (Units=1/GPa)
#
#
# Indices 1 2 3 4 5 6 
#
# 1 0.015242 -0.004927 -0.008767 0.000000 -0.000376 0.000000
# 2 -0.004927 0.028997 -0.006327 0.000000 0.004971 0.000000
# 3 -0.008767 -0.006327 0.015109 0.000000 -0.001563 0.000000
# 4 0.000000 0.000000 0.000000 0.033778 0.000000 0.006673
# 5 -0.000376 0.004971 -0.001563 0.000000 0.025118 0.000000
# 6 0.000000 0.000000 0.000000 0.006673 0.000000 0.047464
#
#
# Mechanical properties :
#
#
# Convention : Reuss Voigt Hill
#
# Bulk Modulus (GPa) = 51.79649 79.08200 65.43925
# Shear Modulus (GPa) = 23.56433 28.19800 25.88117
#
# Velocity S-wave (km/s) = 3.60955 3.94852 3.78284
# Velocity P-wave (km/s) = 6.78310 8.03198 7.43381
#
# Compressibility (1/GPa) = 0.01930633
#
# Stress axis : x y z
#
# Youngs Moduli (GPa) = 65.60808 34.48667 66.18432
#
# Poissons Ratio (x) = 0.16992 0.58024
# Poissons Ratio (y) = 0.32325 0.41874
# Poissons Ratio (z) = 0.57518 0.21819
#
# Static dielectric constant tensor:
#      x y z
#    x 12.649800 0.000000 11.501070 
#    y 0.000000 3.216770 0.000000 
#    z 11.501070 0.000000 17.575970 
# 
# 
# High freq. dielectric constant tensor:
#      x y z
#    x 1.701830 0.000000 0.004710 
#    y 0.000000 1.681910 0.000000 
#    z 0.004710 0.000000 1.715770 
# 
# From -- ./inp_files/229281.got.cif
#   From: 2010.06.25/outbox.cif.g09.slc.cpg/sg12_115_cif.got.tgz:229281.got - 2010.06.28 00:19:55.
