data_PCOD8088550
_publ_section_title
;
Structure prediction by ZEFSAII (Michael W. Deem and Ramdas Pophale) SiO2 
 PCOD8088550
Probable space group: C 2/M
;
_chemical_formula_sum "Si O2"
_cell_formula_units_Z 48
_cell_length_a 12.078933
_cell_length_b 13.724816
_cell_length_c 15.561277
_cell_angle_alpha 90.000000
_cell_angle_beta 76.119416
_cell_angle_gamma 90.000000
_cell_volume 2504.431368
_symmetry_space_group_name_H-M "C 2/M"
_symmetry_group_IT_number 12
_symmetry_cell_setting 'monoclinic'
loop_
_space_group_symop_operation_xyz
x,y,z
-x,y,-z
-x,-y,-z
x,-y,z
1/2+x,1/2+y,z
1/2-x,1/2+y,-z
1/2-x,1/2-y,-z
1/2+x,1/2-y,z
loop_
_atom_site_type_symbol
_atom_site_label
_atom_site_fract_x
_atom_site_fract_y
_atom_site_fract_z
Si Si1 0.005747 0.108104 0.142976
Si Si2 0.392015 0.306905 0.711098
Si Si3 0.074004 0.280600 0.564600
Si Si4 0.789740 0.773738 0.134601
Si Si5 0.700089 0.612482 0.446050
Si Si6 0.756021 0.889679 0.980430
O O1 0.910938 0.189087 0.144945
O O2 0.060266 0.119478 0.226832
O O3 0.106762 0.119728 0.054843
O O4 0.951694 0.000000 0.146104
O O5 0.493104 0.236128 0.661297
O O6 0.292175 0.239055 0.768326
O O7 0.343326 0.370200 0.642099
O O8 0.870435 0.177113 0.473067
O O9 0.000000 0.323841 0.500000
O O10 0.167151 0.359999 0.573293
O O11 0.808853 0.671501 0.081126
O O12 0.728430 0.848763 0.080298
O O13 0.683128 0.500000 0.474405
O O14 0.713070 0.000000 0.980146
#
# Coordination Sequence:
#
# PCOD8088550 Si02
#       6
#     8   8   8   8   8   8
#     4  10  19  32  54  79 103 137 179 219 257 302
#     4  10  20  34  51  77 110 138 169 213 260 308
#     4   9  20  37  55  78 107 137 171 211 256 308
#     4  10  19  32  54  77 105 138 173 218 263 304
#     4  10  20  36  58  79 103 137 173 211 255 306
#     4   9  19  35  54  76 102 137 180 219 258 305
#
# _framework density 19.166027
#
# number of rings (size 3 to 8) (size 9 to 14) (size 15 to 20)
#    0.000    2.333    0.000    2.500    0.000    6.000 
#    0.000    1.667    0.000   23.000    0.000    0.000 
#    0.000    0.000    0.000    0.000    0.000    0.000 
#
# Total GULP energy -297641.916136 kJ/mol
# GULP energy per Si atom -12401.746506 kJ/mol
# Density = 1.912240 g / cm^3
# Si number density = 19.166027 Si / 1000 Ang^3
#
#
#
# Elastic Constant Matrix: (Units=GPa)
#
#
# Indices 1 2 3 4 5 6 
#
# 1 75.4575 41.7060 6.8723 0.0000 11.0939 0.0000
# 2 41.7060 120.3699 29.5409 0.0000 6.7048 0.0000
# 3 6.8723 29.5409 59.9146 0.0000 -8.3314 0.0000
# 4 0.0000 0.0000 0.0000 18.8885 0.0000 6.1739
# 5 11.0939 6.7048 -8.3314 0.0000 26.7816 0.0000
# 6 0.0000 0.0000 0.0000 6.1739 0.0000 25.1048
#
#
#
# Elastic Compliance Matrix: (Units=1/GPa)
#
#
# Indices 1 2 3 4 5 6 
#
# 1 0.017213 -0.005650 0.000017 0.000000 -0.005710 0.000000
# 2 -0.005650 0.011732 -0.005455 0.000000 -0.002294 0.000000
# 3 0.000017 -0.005455 0.020452 0.000000 0.007721 0.000000
# 4 0.000000 0.000000 0.000000 0.057570 0.000000 -0.014158
# 5 -0.005710 -0.002294 0.007721 0.000000 0.042681 0.000000
# 6 0.000000 0.000000 0.000000 -0.014158 0.000000 0.043315
#
#
# Mechanical properties :
#
#
# Convention : Reuss Voigt Hill
#
# Bulk Modulus (GPa) = 36.73661 45.77562 41.25612
# Shear Modulus (GPa) = 22.30022 25.99649 24.14836
#
# Velocity S-wave (km/s) = 3.41475 3.68691 3.55344
# Velocity P-wave (km/s) = 5.89547 6.48537 6.19744
#
# Compressibility (1/GPa) = 0.02722080
#
# Stress axis : x y z
#
# Youngs Moduli (GPa) = 58.09405 85.23641 48.89545
#
# Poissons Ratio (x) = 0.48162 -0.00085
# Poissons Ratio (y) = 0.32825 0.26674
# Poissons Ratio (z) = -0.00101 0.46499
#
# Static dielectric constant tensor:
#      x y z
#    x 3.483070 0.000000 -0.024280 
#    y 0.000000 3.354340 0.000000 
#    z -0.024280 0.000000 3.565760 
# 
# 
# High freq. dielectric constant tensor:
#      x y z
#    x 1.740520 0.000000 0.005110 
#    y 0.000000 1.731800 0.000000 
#    z 0.005110 0.000000 1.753110 
# 
# From -- ./inp_files/261726.got.cif
#   From: 2010.06.25/outbox.cif.g09.slc.cpg/sg12_131_cif.got.tgz:261726.got - 2010.06.28 00:19:55.
