data_PCOD8088754
_publ_section_title
;
Structure prediction by ZEFSAII (Michael W. Deem and Ramdas Pophale) SiO2 
 PCOD8088754
Probable space group: C 2/M
;
_chemical_formula_sum "Si O2"
_cell_formula_units_Z 56
_cell_length_a 24.719911
_cell_length_b 8.951411
_cell_length_c 15.021153
_cell_angle_alpha 90.000000
_cell_angle_beta 52.193912
_cell_angle_gamma 90.000000
_cell_volume 2626.141794
_symmetry_space_group_name_H-M "C 2/M"
_symmetry_group_IT_number 12
_symmetry_cell_setting 'monoclinic'
loop_
_space_group_symop_operation_xyz
x,y,z
-x,y,-z
-x,-y,-z
x,-y,z
1/2+x,1/2+y,z
1/2-x,1/2+y,-z
1/2-x,1/2-y,-z
1/2+x,1/2-y,z
loop_
_atom_site_type_symbol
_atom_site_label
_atom_site_fract_x
_atom_site_fract_y
_atom_site_fract_z
Si Si1 0.902377 0.321704 0.013660
Si Si2 0.973025 0.178563 0.777326
Si Si3 0.115441 0.673893 0.631826
Si Si4 0.183308 0.669867 0.377762
Si Si5 0.118414 0.164388 0.294916
Si Si6 0.338280 0.678381 0.236176
Si Si7 0.265004 0.837463 0.071118
O O1 0.913300 0.500000 0.010557
O O2 0.901085 0.247556 0.113260
O O3 0.828023 0.263902 0.057941
O O4 0.956048 0.252266 0.890244
O O5 0.921217 0.233272 0.750614
O O6 0.046658 0.238042 0.675285
O O7 0.970770 0.000000 0.789777
O O8 0.099692 0.500000 0.668314
O O9 0.166917 0.690894 0.497688
O O10 0.152095 0.753707 0.676357
O O11 0.181467 0.500000 0.349371
O O12 0.120128 0.742419 0.384574
O O13 0.261434 0.728016 0.282462
O O14 0.198871 0.154814 0.197751
O O15 0.087381 0.000000 0.344743
O O16 0.345885 0.500000 0.231964
O O17 0.289831 0.000000 0.015825
O O18 0.250000 0.750000 0.000000
#
# Coordination Sequence:
#
# PCOD8088754 Si02
#       7
#     8   8   8   8   8   8   8
#     4  11  22  37  61  93 126 161 200 248 305 364
#     4  11  24  42  62  90 127 167 207 248 298 363
#     4  11  25  45  64  87 121 163 209 256 304 360
#     4  10  23  41  65  94 123 157 202 255 309 361
#     4  10  21  37  60  91 126 161 201 248 302 362
#     4  11  23  41  66  95 122 156 202 255 310 363
#     4  10  19  32  54  87 123 160 198 244 301 359
#
# _framework density 21.324058999999998
#
# number of rings (size 3 to 8) (size 9 to 14) (size 15 to 20)
#    0.000    1.429    2.857    2.143    0.000    5.143 
#    0.000    5.714    0.000    0.000    0.000    0.000 
#    0.000    0.000    0.000    0.000    0.000    0.000 
#
# Total GULP energy -346966.133572 kJ/mol
# GULP energy per Si atom -12391.647628 kJ/mol
# Density = 2.127552 g / cm^3
# Si number density = 21.324059 Si / 1000 Ang^3
#
#
#
# Elastic Constant Matrix: (Units=GPa)
#
#
# Indices 1 2 3 4 5 6 
#
# 1 75.8592 32.3399 19.1159 0.0000 12.5601 0.0000
# 2 32.3399 91.9089 33.2564 0.0001 13.1794 0.0000
# 3 19.1159 33.2564 66.4699 0.0000 18.0163 0.0000
# 4 0.0000 0.0001 0.0000 35.3714 0.0000 4.7161
# 5 12.5601 13.1794 18.0163 0.0000 34.8081 0.0000
# 6 0.0000 0.0000 0.0000 4.7161 0.0000 30.1403
#
#
#
# Elastic Compliance Matrix: (Units=1/GPa)
#
#
# Indices 1 2 3 4 5 6 
#
# 1 0.016075 -0.004681 -0.001383 0.000000 -0.003312 0.000000
# 2 -0.004681 0.014752 -0.005791 0.000000 -0.000899 0.000000
# 3 -0.001383 -0.005791 0.020484 0.000000 -0.007910 0.000000
# 4 0.000000 0.000000 0.000000 0.028874 0.000000 -0.004518
# 5 -0.003312 -0.000899 -0.007910 0.000000 0.034359 0.000000
# 6 0.000000 0.000000 0.000000 -0.004518 0.000000 0.033885
#
#
# Mechanical properties :
#
#
# Convention : Reuss Voigt Hill
#
# Bulk Modulus (GPa) = 36.23134 44.85139 40.54137
# Shear Modulus (GPa) = 27.57292 30.03235 28.80264
#
# Velocity S-wave (km/s) = 3.59979 3.75691 3.67919
# Velocity P-wave (km/s) = 5.85711 6.31649 6.09113
#
# Compressibility (1/GPa) = 0.02760041
#
# Stress axis : x y z
#
# Youngs Moduli (GPa) = 62.20937 67.78925 48.81975
#
# Poissons Ratio (x) = 0.31730 0.06753
# Poissons Ratio (y) = 0.29119 0.28270
# Poissons Ratio (z) = 0.08605 0.39255
#
# Static dielectric constant tensor:
#      x y z
#    x 3.857920 0.000000 0.090390 
#    y 0.000000 3.926900 0.000000 
#    z 0.090390 0.000000 3.778840 
# 
# 
# High freq. dielectric constant tensor:
#      x y z
#    x 1.840780 0.000000 0.009020 
#    y 0.000000 1.835210 0.000000 
#    z 0.009020 0.000000 1.837640 
# 
# From -- ./inp_files/238397.got.cif
#   From: 2010.06.25/outbox.cif.g09.slc.cpg/sg12_120_cif.got.tgz:238397.got - 2010.06.28 00:19:55.
