data_PCOD8088380
_publ_section_title
;
Structure prediction by ZEFSAII (Michael W. Deem and Ramdas Pophale) SiO2 
 PCOD8088380
Probable space group: C 2/M
;
_chemical_formula_sum "Si O2"
_cell_formula_units_Z 40
_cell_length_a 24.439097
_cell_length_b 8.427143
_cell_length_c 12.549227
_cell_angle_alpha 90.000000
_cell_angle_beta 59.101043
_cell_angle_gamma 90.000000
_cell_volume 2217.723330
_symmetry_space_group_name_H-M "C 2/M"
_symmetry_group_IT_number 12
_symmetry_cell_setting 'monoclinic'
loop_
_space_group_symop_operation_xyz
x,y,z
-x,y,-z
-x,-y,-z
x,-y,z
1/2+x,1/2+y,z
1/2-x,1/2+y,-z
1/2-x,1/2-y,-z
1/2+x,1/2-y,z
loop_
_atom_site_type_symbol
_atom_site_label
_atom_site_fract_x
_atom_site_fract_y
_atom_site_fract_z
Si Si1 0.584330 0.184956 0.497372
Si Si2 0.552098 0.315381 0.079497
Si Si3 0.052002 0.184721 0.316317
Si Si4 0.584134 0.184835 0.834078
Si Si5 0.821090 0.812076 0.428834
O O1 0.522798 0.277365 0.601197
O O2 0.592592 0.216758 0.362511
O O3 0.645789 0.247360 0.497636
O O4 0.574742 0.000000 0.528605
O O5 0.562166 0.500000 0.046420
O O6 0.576415 0.270131 0.173563
O O7 0.477218 0.278227 0.146667
O O8 0.592569 0.216550 0.952235
O O9 0.061768 0.000000 0.329561
O O10 0.645712 0.246057 0.710586
O O11 0.573991 0.000000 0.822715
O O12 0.750000 0.750000 0.500000
O O13 0.822906 0.000000 0.426402
#
# Coordination Sequence:
#
# PCOD8088380 Si02
#       5
#     8   8   8   8   8
#     4  11  21  33  52  79 110 142 181 223 271 323
#     4  10  19  32  53  79 111 146 178 221 273 321
#     4  10  19  32  53  79 111 146 178 221 273 321
#     4  11  21  33  52  79 110 142 181 223 271 323
#     4  12  24  40  58  78 108 144 185 226 269 324
#
# _framework density 18.036514
#
# number of rings (size 3 to 8) (size 9 to 14) (size 15 to 20)
#    0.000    1.200    2.000    9.000    0.000    2.400 
#    0.000    0.000    0.000    1.200    0.000    0.000 
#    0.000    0.000    0.000    0.000    0.000    0.000 
#
# Total GULP energy -248029.731717 kJ/mol
# GULP energy per Si atom -12401.486586 kJ/mol
# Density = 1.799546 g / cm^3
# Si number density = 18.036514 Si / 1000 Ang^3
#
#
#
# Elastic Constant Matrix: (Units=GPa)
#
#
# Indices 1 2 3 4 5 6 
#
# 1 96.4629 13.6768 61.0579 0.0000 10.9483 0.0000
# 2 13.6768 63.7733 29.7723 0.0000 12.3775 0.0000
# 3 61.0579 29.7723 126.9108 0.0000 17.6530 0.0000
# 4 0.0000 0.0000 0.0000 25.3647 0.0000 -0.1565
# 5 10.9483 12.3775 17.6530 0.0000 29.8454 0.0000
# 6 0.0000 0.0000 0.0000 -0.1565 0.0000 25.4719
#
#
#
# Elastic Compliance Matrix: (Units=1/GPa)
#
#
# Indices 1 2 3 4 5 6 
#
# 1 0.014963 0.000382 -0.007086 0.000000 -0.001456 0.000000
# 2 0.000382 0.018422 -0.003730 0.000000 -0.005574 0.000000
# 3 -0.007086 -0.003730 0.012626 0.000000 -0.003322 0.000000
# 4 0.000000 0.000000 0.000000 0.039426 0.000000 0.000242
# 5 -0.001456 -0.005574 -0.003322 0.000000 0.038316 0.000000
# 6 0.000000 0.000000 0.000000 0.000242 0.000000 0.039260
#
#
# Mechanical properties :
#
#
# Convention : Reuss Voigt Hill
#
# Bulk Modulus (GPa) = 39.77388 55.12901 47.45145
# Shear Modulus (GPa) = 26.00616 28.31242 27.15929
#
# Velocity S-wave (km/s) = 3.80131 3.96628 3.88467
# Velocity P-wave (km/s) = 6.43166 7.18378 6.81810
#
# Compressibility (1/GPa) = 0.02514213
#
# Stress axis : x y z
#
# Youngs Moduli (GPa) = 66.83204 54.28360 79.20402
#
# Poissons Ratio (x) = -0.02072 0.56122
# Poissons Ratio (y) = -0.02550 0.29542
# Poissons Ratio (z) = 0.47356 0.20247
#
# Static dielectric constant tensor:
#      x y z
#    x 3.073470 0.000000 0.282970 
#    y 0.000000 3.483810 0.000000 
#    z 0.282970 0.000000 3.396880 
# 
# 
# High freq. dielectric constant tensor:
#      x y z
#    x 1.662880 0.000000 0.033230 
#    y 0.000000 1.720210 0.000000 
#    z 0.033230 0.000000 1.701260 
# 
# From -- ./inp_files/171868.got.cif
#   From: 2010.06.25/outbox.cif.g09.slc.cpg/sg12_86_cif.got.tgz:171868.got - 2010.06.28 00:19:55.
