data_PCOD8088648
_publ_section_title
;
Structure prediction by ZEFSAII (Michael W. Deem and Ramdas Pophale) SiO2 
 PCOD8088648
Probable space group: C 2/M
;
_chemical_formula_sum "Si O2"
_cell_formula_units_Z 48
_cell_length_a 5.146648
_cell_length_b 14.219771
_cell_length_c 31.148949
_cell_angle_alpha 90.000000
_cell_angle_beta 94.922273
_cell_angle_gamma 90.000000
_cell_volume 2271.202379
_symmetry_space_group_name_H-M "C 2/M"
_symmetry_group_IT_number 12
_symmetry_cell_setting 'monoclinic'
loop_
_space_group_symop_operation_xyz
x,y,z
-x,y,-z
-x,-y,-z
x,-y,z
1/2+x,1/2+y,z
1/2-x,1/2+y,-z
1/2-x,1/2-y,-z
1/2+x,1/2-y,z
loop_
_atom_site_type_symbol
_atom_site_label
_atom_site_fract_x
_atom_site_fract_y
_atom_site_fract_z
Si Si1 0.833477 0.688860 0.771738
Si Si2 0.562005 0.891264 0.137659
Si Si3 0.095271 0.692139 0.318502
Si Si4 0.234678 0.500000 0.470583
Si Si5 0.217492 0.685025 0.412817
Si Si6 0.461353 0.609195 0.907218
Si Si7 0.000000 0.813733 0.000000
O O1 0.539427 0.725134 0.774327
O O2 0.903787 0.618581 0.810907
O O3 0.857506 0.634935 0.725582
O O4 0.297028 0.842941 0.116665
O O5 0.795338 0.842918 0.113966
O O6 0.552138 0.000000 0.125671
O O7 0.289330 0.782479 0.317179
O O8 0.180406 0.642054 0.364040
O O9 0.500000 0.500000 0.500000
O O10 0.218540 0.594783 0.442864
O O11 0.000000 0.500000 0.500000
O O12 0.486245 0.742619 0.421373
O O13 0.458749 0.500000 0.895883
O O14 0.477829 0.620537 0.958350
O O15 0.250000 0.750000 0.000000
#
# Coordination Sequence:
#
# PCOD8088648 Si02
#       7
#     8   8   8   4   8   8   4
#     4  10  19  32  54  81 110 142 178 223 274 324
#     4  10  21  36  54  79 107 140 177 214 258 323
#     4   8  16  32  54  79 108 146 188 225 274 342
#     4  12  26  40  60  94 124 154 212 258 300 373
#     4  10  21  40  63  85 121 164 201 251 309 360
#     4  10  22  40  57  72 105 145 174 208 265 328
#     4  12  25  38  57  84 104 124 174 230 265 310
#
# _framework density 21.134179
#
# number of rings (size 3 to 8) (size 9 to 14) (size 15 to 20)
#    0.000    2.000    0.000    3.250    0.000    6.000 
#    1.500    3.333    0.000    0.000    0.000    0.000 
#    0.000    0.000    0.000    0.000    0.000    0.000 
#
# Total GULP energy -297405.592749 kJ/mol
# GULP energy per Si atom -12391.899698 kJ/mol
# Density = 2.108608 g / cm^3
# Si number density = 21.134179 Si / 1000 Ang^3
#
#
#
# Elastic Constant Matrix: (Units=GPa)
#
#
# Indices 1 2 3 4 5 6 
#
# 1 170.2299 24.5577 58.9025 0.0000 -1.3335 0.0000
# 2 24.5577 47.3294 39.2959 0.0000 -0.6860 0.0000
# 3 58.9025 39.2959 194.0131 0.0000 1.9444 0.0000
# 4 0.0000 0.0000 0.0000 24.7096 0.0000 -0.1085
# 5 -1.3335 -0.6860 1.9444 0.0000 36.6456 0.0000
# 6 0.0000 0.0000 0.0000 -0.1085 0.0000 7.0946
#
#
#
# Elastic Compliance Matrix: (Units=1/GPa)
#
#
# Indices 1 2 3 4 5 6 
#
# 1 0.006746 -0.002156 -0.001614 0.000000 0.000291 0.000000
# 2 -0.002156 0.026109 -0.004640 0.000000 0.000657 0.000000
# 3 -0.001614 -0.004640 0.006589 0.000000 -0.000495 0.000000
# 4 0.000000 0.000000 0.000000 0.040473 0.000000 0.000619
# 5 0.000291 0.000657 -0.000495 0.000000 0.027338 0.000000
# 6 0.000000 0.000000 0.000000 0.000619 0.000000 0.140963
#
#
# Mechanical properties :
#
#
# Convention : Reuss Voigt Hill
#
# Bulk Modulus (GPa) = 44.20139 73.00939 58.60539
# Shear Modulus (GPa) = 18.34323 32.94437 25.64380
#
# Velocity S-wave (km/s) = 2.94928 3.95247 3.48714
# Velocity P-wave (km/s) = 5.70594 7.44648 6.63354
#
# Compressibility (1/GPa) = 0.02262372
#
# Stress axis : x y z
#
# Youngs Moduli (GPa) = 148.22893 38.30053 151.76197
#
# Poissons Ratio (x) = 0.08257 0.24501
# Poissons Ratio (y) = 0.31955 0.70422
# Poissons Ratio (z) = 0.23931 0.17773
#
# Static dielectric constant tensor:
#      x y z
#    x 4.353460 0.000000 -0.016570 
#    y 0.000000 3.191120 0.000000 
#    z -0.016570 0.000000 4.281650 
# 
# 
# High freq. dielectric constant tensor:
#      x y z
#    x 1.857600 0.000000 0.000500 
#    y 0.000000 1.776990 0.000000 
#    z 0.000500 0.000000 1.853180 
# 
# From -- ./inp_files/354824.got.cif
#   From: 2010.06.25/outbox.cif.g09.slc.cpg/sg12_178_cif.got.tgz:354824.got - 2010.06.28 00:19:55.
