data_PCOD8088706
_publ_section_title
;
Structure prediction by ZEFSAII (Michael W. Deem and Ramdas Pophale) SiO2 
 PCOD8088706
Probable space group: C 2/M
;
_chemical_formula_sum "Si O2"
_cell_formula_units_Z 64
_cell_length_a 22.583390
_cell_length_b 9.032663
_cell_length_c 30.897491
_cell_angle_alpha 90.000000
_cell_angle_beta 146.949145
_cell_angle_gamma 90.000000
_cell_volume 3437.398816
_symmetry_space_group_name_H-M "C 2/M"
_symmetry_group_IT_number 12
_symmetry_cell_setting 'monoclinic'
loop_
_space_group_symop_operation_xyz
x,y,z
-x,y,-z
-x,-y,-z
x,-y,z
1/2+x,1/2+y,z
1/2-x,1/2+y,-z
1/2-x,1/2-y,-z
1/2+x,1/2-y,z
loop_
_atom_site_type_symbol
_atom_site_label
_atom_site_fract_x
_atom_site_fract_y
_atom_site_fract_z
Si Si1 0.587506 0.828610 0.404879
Si Si2 0.761743 0.172283 0.439352
Si Si3 0.840752 0.175408 0.700560
Si Si4 0.826330 0.828799 0.789529
Si Si5 0.959263 0.670647 0.071359
Si Si6 0.339831 0.172429 0.239547
Si Si7 0.937437 0.674247 0.156820
Si Si8 0.761683 0.825869 0.107316
O O1 0.656569 0.794838 0.404314
O O2 0.630652 0.731259 0.471087
O O3 0.464659 0.780884 0.320385
O O4 0.596260 0.000000 0.423544
O O5 0.749521 0.259620 0.386919
O O6 0.776089 0.000000 0.438317
O O7 0.807001 0.224580 0.728409
O O8 0.956003 0.247169 0.758830
O O9 0.847792 0.000000 0.699411
O O10 0.719191 0.792065 0.751337
O O11 0.931386 0.753832 0.875460
O O12 0.853531 0.000000 0.806310
O O13 0.988620 0.500000 0.086922
O O14 0.922786 0.713662 0.097507
O O15 0.863296 0.712447 0.979729
O O16 0.284308 0.273039 0.169496
O O17 0.328863 0.000000 0.220061
O O18 0.947604 0.500000 0.171877
O O19 0.833907 0.737019 0.117738
O O20 0.784777 0.000000 0.116637
#
# Coordination Sequence:
#
# PCOD8088706 Si02
#       8
#     8   8   8   8   8   8   8   8
#     4   9  19  35  54  76 105 137 167 207 258 309
#     4  10  19  32  54  83 109 134 168 208 256 315
#     4  10  19  33  54  79 106 137 174 215 260 309
#     4   9  20  37  56  76 100 136 181 223 259 302
#     4   9  20  36  53  75 105 139 174 215 264 314
#     4  10  21  38  56  75 102 138 180 220 260 308
#     4  10  19  33  53  77 106 139 173 213 262 312
#     4  11  22  34  51  78 107 137 174 216 265 317
#
# _framework density 18.618728999999998
#
# number of rings (size 3 to 8) (size 9 to 14) (size 15 to 20)
#    0.000    2.250    0.000    2.625    0.000    5.000 
#    0.000    3.125    0.000    3.750    0.000    0.000 
#    0.000    0.000    0.000    0.000    0.000    0.000 
#
# Total GULP energy -396914.674050 kJ/mol
# GULP energy per Si atom -12403.583564 kJ/mol
# Density = 1.857635 g / cm^3
# Si number density = 18.618729 Si / 1000 Ang^3
#
#
#
# Elastic Constant Matrix: (Units=GPa)
#
#
# Indices 1 2 3 4 5 6 
#
# 1 70.1032 28.4190 44.0808 0.0000 0.6538 0.0000
# 2 28.4190 72.6536 48.9636 0.0000 -8.3287 0.0000
# 3 44.0808 48.9636 124.4952 0.0002 -16.4143 0.0001
# 4 0.0000 0.0000 0.0002 35.2126 0.0001 -1.9823
# 5 0.6538 -8.3287 -16.4143 0.0001 14.2153 0.0001
# 6 0.0000 0.0000 0.0001 -1.9823 0.0001 26.1009
#
#
#
# Elastic Compliance Matrix: (Units=1/GPa)
#
#
# Indices 1 2 3 4 5 6 
#
# 1 0.020715 -0.004715 -0.007042 0.000000 -0.011847 0.000000
# 2 -0.004715 0.019904 -0.005417 0.000000 0.005623 0.000000
# 3 -0.007042 -0.005417 0.014486 0.000000 0.013877 0.000000
# 4 0.000000 0.000000 0.000000 0.028521 0.000000 0.002166
# 5 -0.011847 0.005623 0.013877 0.000000 0.090210 0.000000
# 6 0.000000 0.000000 0.000000 0.002166 0.000000 0.038477
#
#
# Mechanical properties :
#
#
# Convention : Reuss Voigt Hill
#
# Bulk Modulus (GPa) = 48.17901 56.68652 52.43277
# Shear Modulus (GPa) = 19.71771 24.82500 22.27136
#
# Velocity S-wave (km/s) = 3.25780 3.65545 3.46234
# Velocity P-wave (km/s) = 6.33118 6.95187 6.64877
#
# Compressibility (1/GPa) = 0.02075592
#
# Stress axis : x y z
#
# Youngs Moduli (GPa) = 48.27525 50.24217 69.03155
#
# Poissons Ratio (x) = 0.23688 0.48613
# Poissons Ratio (y) = 0.22761 0.37396
# Poissons Ratio (z) = 0.33996 0.27218
#
# Static dielectric constant tensor:
#      x y z
#    x 3.364080 0.000000 -0.071450 
#    y 0.000000 3.449230 0.000000 
#    z -0.071450 0.000000 3.510720 
# 
# 
# High freq. dielectric constant tensor:
#      x y z
#    x 1.710490 0.000000 -0.005490 
#    y 0.000000 1.727180 0.000000 
#    z -0.005490 0.000000 1.726150 
# 
# From -- ./inp_files/382423.got.cif
#   From: 2010.06.25/outbox.cif.g09.slc.cpg/sg12_192_cif.got.tgz:382423.got - 2010.06.28 00:19:55.
