data_PCOD8088879
_publ_section_title
;
Structure prediction by ZEFSAII (Michael W. Deem and Ramdas Pophale) SiO2 
 PCOD8088879
Probable space group: C 2/M
;
_chemical_formula_sum "Si O2"
_cell_formula_units_Z 48
_cell_length_a 18.227368
_cell_length_b 14.300074
_cell_length_c 18.077054
_cell_angle_alpha 90.000000
_cell_angle_beta 30.707795
_cell_angle_gamma 90.000000
_cell_volume 2406.144213
_symmetry_space_group_name_H-M "C 2/M"
_symmetry_group_IT_number 12
_symmetry_cell_setting 'monoclinic'
loop_
_space_group_symop_operation_xyz
x,y,z
-x,y,-z
-x,-y,-z
x,-y,z
1/2+x,1/2+y,z
1/2-x,1/2+y,-z
1/2-x,1/2-y,-z
1/2+x,1/2-y,z
loop_
_atom_site_type_symbol
_atom_site_label
_atom_site_fract_x
_atom_site_fract_y
_atom_site_fract_z
Si Si1 0.282188 0.791710 0.262091
Si Si2 0.902077 0.899099 0.466418
Si Si3 0.651972 0.106150 0.406795
Si Si4 0.481147 0.109143 0.850884
Si Si5 0.782470 0.892102 0.829234
Si Si6 0.672528 0.849212 0.559222
O O1 0.146061 0.827181 0.428515
O O2 0.271141 0.678438 0.272118
O O3 0.428967 0.828430 0.169581
O O4 0.278126 0.827339 0.182650
O O5 0.784988 0.915894 0.503619
O O6 0.051603 0.864527 0.299769
O O7 0.925585 0.000000 0.484343
O O8 0.500000 0.126803 0.500000
O O9 0.639025 0.119486 0.505976
O O10 0.702069 0.000000 0.346252
O O11 0.519541 0.144750 0.735068
O O12 0.522146 0.000000 0.825337
O O13 0.312411 0.125917 0.014599
O O14 0.766871 0.000000 0.818472
O O15 0.750000 0.750000 0.500000
#
# Coordination Sequence:
#
# PCOD8088879 Si02
#       6
#     8   8   8   8   8   8
#     4  11  19  33  57  83 120 154 198 236 280 344
#     4  10  19  32  55  87 118 150 185 235 295 353
#     4  11  23  38  60  85 112 153 207 253 284 328
#     4  10  20  35  58  89 120 152 184 233 302 360
#     4  10  20  33  55  90 126 152 180 228 300 367
#     4  11  20  38  62  86 112 148 194 249 296 347
#
# _framework density 19.948929
#
# number of rings (size 3 to 8) (size 9 to 14) (size 15 to 20)
#    0.000    1.500    3.333    6.000    0.000    2.667 
#    0.000    0.833    0.000    2.000    0.000    0.000 
#    0.000    0.000    0.000    0.000    0.000    0.000 
#
# Total GULP energy -297435.059207 kJ/mol
# GULP energy per Si atom -12393.127467 kJ/mol
# Density = 1.990352 g / cm^3
# Si number density = 19.948929 Si / 1000 Ang^3
#
#
#
# Elastic Constant Matrix: (Units=GPa)
#
#
# Indices 1 2 3 4 5 6 
#
# 1 56.9814 2.4615 14.2528 -0.0002 15.1051 0.0009
# 2 2.4615 104.8406 27.5372 -0.0001 2.1097 0.0010
# 3 14.2528 27.5372 132.1775 0.0013 -6.7001 0.0007
# 4 -0.0002 -0.0001 0.0013 23.7015 0.0000 8.7362
# 5 15.1051 2.1097 -6.7001 0.0000 25.8987 -0.0006
# 6 0.0009 0.0010 0.0007 8.7362 -0.0006 8.7082
#
#
#
# Elastic Compliance Matrix: (Units=1/GPa)
#
#
# Indices 1 2 3 4 5 6 
#
# 1 0.021944 0.000596 -0.003183 0.000002 -0.013671 -0.000005
# 2 0.000596 0.010156 -0.002269 0.000001 -0.001762 -0.000002
# 3 -0.003183 -0.002269 0.008598 -0.000001 0.004266 0.000001
# 4 0.000002 0.000001 -0.000001 0.066947 -0.000003 -0.067162
# 5 -0.013671 -0.001762 0.004266 -0.000003 0.047832 0.000008
# 6 -0.000005 -0.000002 0.000001 -0.067162 0.000008 0.182212
#
#
# Mechanical properties :
#
#
# Convention : Reuss Voigt Hill
#
# Bulk Modulus (GPa) = 32.27448 42.50027 37.38737
# Shear Modulus (GPa) = 13.97698 28.31154 21.14426
#
# Velocity S-wave (km/s) = 2.64983 3.77132 3.25917
# Velocity P-wave (km/s) = 5.05725 6.34937 5.73979
#
# Compressibility (1/GPa) = 0.03098423
#
# Stress axis : x y z
#
# Youngs Moduli (GPa) = 45.57049 98.46557 116.30763
#
# Poissons Ratio (x) = -0.05869 0.37025
# Poissons Ratio (y) = -0.02716 0.26395
# Poissons Ratio (z) = 0.14507 0.22346
#
# Static dielectric constant tensor:
#      x y z
#    x 3.799220 0.000000 -0.007180 
#    y 0.000000 3.878410 0.000000 
#    z -0.007180 0.000000 3.721820 
# 
# 
# High freq. dielectric constant tensor:
#      x y z
#    x 1.759900 0.000000 -0.001230 
#    y 0.000000 1.784360 0.000000 
#    z -0.001230 0.000000 1.766990 
# 
# From -- ./inp_files/283984.got.cif
#   From: 2010.06.25/outbox.cif.g09.slc.cpg/sg12_142_cif.got.tgz:283984.got - 2010.06.28 00:19:55.
