data_PCOD8088671
_publ_section_title
;
Structure prediction by ZEFSAII (Michael W. Deem and Ramdas Pophale) SiO2 
 PCOD8088671
Probable space group: C 2/M
;
_chemical_formula_sum "Si O2"
_cell_formula_units_Z 64
_cell_length_a 17.972412
_cell_length_b 8.888773
_cell_length_c 20.744872
_cell_angle_alpha 90.000000
_cell_angle_beta 88.791271
_cell_angle_gamma 90.000000
_cell_volume 3313.311679
_symmetry_space_group_name_H-M "C 2/M"
_symmetry_group_IT_number 12
_symmetry_cell_setting 'monoclinic'
loop_
_space_group_symop_operation_xyz
x,y,z
-x,y,-z
-x,-y,-z
x,-y,z
1/2+x,1/2+y,z
1/2-x,1/2+y,-z
1/2-x,1/2-y,-z
1/2+x,1/2-y,z
loop_
_atom_site_type_symbol
_atom_site_label
_atom_site_fract_x
_atom_site_fract_y
_atom_site_fract_z
Si Si1 0.574071 0.174175 0.751987
Si Si2 0.673392 0.174643 0.627213
Si Si3 0.082377 0.322106 0.505767
Si Si4 0.672187 0.326939 0.002943
Si Si5 0.340516 0.677201 0.135889
Si Si6 0.679173 0.676432 0.142388
Si Si7 0.082033 0.822067 0.264048
Si Si8 0.830444 0.322539 0.621464
O O1 0.636205 0.200251 0.696870
O O2 0.602283 0.242569 0.818100
O O3 0.499366 0.253398 0.730451
O O4 0.556817 0.000000 0.762397
O O5 0.617305 0.230691 0.572675
O O6 0.744452 0.280380 0.622140
O O7 0.695729 0.000000 0.616936
O O8 0.075781 0.500000 0.505050
O O9 0.133891 0.267278 0.446246
O O10 0.000000 0.250717 0.500000
O O11 0.690470 0.500000 0.997714
O O12 0.636995 0.290363 0.074073
O O13 0.750000 0.250000 0.000000
O O14 0.628943 0.282811 0.937632
O O15 0.342065 0.500000 0.149739
O O16 0.256534 0.734966 0.147705
O O17 0.697699 0.500000 0.149732
O O18 0.622657 0.731972 0.197982
O O19 0.129651 0.765575 0.322653
O O20 0.075572 0.000000 0.266701
O O21 0.840164 0.500000 0.631848
#
# Coordination Sequence:
#
# PCOD8088671 Si02
#       8
#     8   8   8   8   8   8   8   8
#     4  11  23  38  56  77 105 143 182 221 268 320
#     4  10  21  38  59  81 108 144 184 223 263 311
#     4   9  18  35  58  82 110 145 182 218 260 312
#     4   8  15  29  50  76 104 135 174 217 261 312
#     4  10  19  32  54  82 109 138 174 220 269 316
#     4   9  18  34  55  78 105 140 180 219 263 317
#     4  11  23  38  56  78 107 142 179 222 270 319
#     4  11  22  36  58  85 111 141 178 221 267 315
#
# _framework density 19.316022
#
# number of rings (size 3 to 8) (size 9 to 14) (size 15 to 20)
#    0.000    2.125    0.000    3.375    0.000    7.500 
#    0.000    1.250    0.000    6.375    0.000    0.000 
#    0.000    0.000    0.000    0.000    0.000    0.000 
#
# Total GULP energy -396654.934843 kJ/mol
# GULP energy per Si atom -12395.466714 kJ/mol
# Density = 1.927206 g / cm^3
# Si number density = 19.316022 Si / 1000 Ang^3
#
#
#
# Elastic Constant Matrix: (Units=GPa)
#
#
# Indices 1 2 3 4 5 6 
#
# 1 85.2235 23.8141 23.4544 0.0000 18.0280 0.0000
# 2 23.8141 52.2680 27.1961 0.0000 5.1769 0.0000
# 3 23.4544 27.1961 114.6907 0.0000 23.7045 0.0000
# 4 0.0000 0.0000 0.0000 22.6536 0.0000 5.3933
# 5 18.0280 5.1769 23.7045 0.0000 18.6697 0.0000
# 6 0.0000 0.0000 0.0000 5.3933 0.0000 30.6573
#
#
#
# Elastic Compliance Matrix: (Units=1/GPa)
#
#
# Indices 1 2 3 4 5 6 
#
# 1 0.016613 -0.006774 0.001541 0.000000 -0.016119 0.000000
# 2 -0.006774 0.024594 -0.005951 0.000000 0.007277 0.000000
# 3 0.001541 -0.005951 0.013262 0.000000 -0.016676 0.000000
# 4 0.000000 0.000000 0.000000 0.046073 0.000000 -0.008105
# 5 -0.016119 0.007277 -0.016676 0.000000 0.088283 0.000000
# 6 0.000000 0.000000 0.000000 -0.008105 0.000000 0.034045
#
#
# Mechanical properties :
#
#
# Convention : Reuss Voigt Hill
#
# Bulk Modulus (GPa) = 31.15246 44.56793 37.86019
# Shear Modulus (GPa) = 19.53610 26.24395 22.89002
#
# Velocity S-wave (km/s) = 3.18369 3.69000 3.44616
# Velocity P-wave (km/s) = 5.44769 6.42479 5.95631
#
# Compressibility (1/GPa) = 0.03210020
#
# Stress axis : x y z
#
# Youngs Moduli (GPa) = 60.19532 40.66041 75.40538
#
# Poissons Ratio (x) = 0.27543 -0.11617
# Poissons Ratio (y) = 0.40776 0.44870
# Poissons Ratio (z) = -0.09273 0.24195
#
# Static dielectric constant tensor:
#      x y z
#    x 3.462900 0.000000 0.004020 
#    y 0.000000 3.465470 0.000000 
#    z 0.004020 0.000000 4.246540 
# 
# 
# High freq. dielectric constant tensor:
#      x y z
#    x 1.735580 0.000000 0.004670 
#    y 0.000000 1.743840 0.000000 
#    z 0.004670 0.000000 1.779270 
# 
# From -- ./inp_files/314211.got.cif
#   From: 2010.06.25/outbox.cif.g09.slc.cpg/sg12_158_cif.got.tgz:314211.got - 2010.06.28 00:19:55.
