data_PCOD8088119
_publ_section_title
;
Structure prediction by ZEFSAII (Michael W. Deem and Ramdas Pophale) SiO2 
 PCOD8088119
Probable space group: C 2/M
;
_chemical_formula_sum "Si O2"
_cell_formula_units_Z 56
_cell_length_a 18.138039
_cell_length_b 9.058957
_cell_length_c 22.741081
_cell_angle_alpha 90.000000
_cell_angle_beta 53.353307
_cell_angle_gamma 90.000000
_cell_volume 2998.012083
_symmetry_space_group_name_H-M "C 2/M"
_symmetry_group_IT_number 12
_symmetry_cell_setting 'monoclinic'
loop_
_space_group_symop_operation_xyz
x,y,z
-x,y,-z
-x,-y,-z
x,-y,z
1/2+x,1/2+y,z
1/2-x,1/2+y,-z
1/2-x,1/2-y,-z
1/2+x,1/2-y,z
loop_
_atom_site_type_symbol
_atom_site_label
_atom_site_fract_x
_atom_site_fract_y
_atom_site_fract_z
Si Si1 0.057463 0.172217 0.158012
Si Si2 0.659466 0.671783 0.565084
Si Si3 0.143818 0.828426 0.709252
Si Si4 0.794911 0.175254 0.712868
Si Si5 0.713860 0.826203 0.159519
Si Si6 0.324723 0.668386 0.000911
Si Si7 0.988956 0.824468 0.571104
O O1 0.124902 0.265033 0.167662
O O2 0.077770 0.200754 0.078005
O O3 0.953585 0.222348 0.217945
O O4 0.069930 0.000000 0.168771
O O5 0.671329 0.500000 0.546538
O O6 0.750000 0.750000 0.500000
O O7 0.641840 0.704286 0.641332
O O8 0.572656 0.735927 0.570590
O O9 0.221409 0.727350 0.700331
O O10 0.163731 0.000000 0.713404
O O11 0.771579 0.245407 0.786326
O O12 0.894178 0.232667 0.644254
O O13 0.791901 0.000000 0.719718
O O14 0.700397 0.000000 0.176589
O O15 0.808951 0.791828 0.077274
O O16 0.298949 0.500000 0.005419
O O17 0.250000 0.750000 0.000000
O O18 0.000000 0.760926 0.500000
O O19 0.988967 0.000000 0.570046
#
# Coordination Sequence:
#
# PCOD8088119 Si02
#       7
#     8   8   8   8   8   8   8
#     4   9  17  33  56  78 102 136 177 215 256 309
#     4  10  20  35  55  79 106 135 168 208 257 309
#     4  10  21  36  53  75 106 140 175 220 264 301
#     4  11  22  36  55  76 101 138 180 217 259 312
#     4  10  19  32  52  79 109 136 168 215 265 310
#     4   8  15  28  49  76 102 132 170 211 256 307
#     4   9  18  34  56  79 102 131 169 211 253 302
#
# _framework density 18.679044000000001
#
# number of rings (size 3 to 8) (size 9 to 14) (size 15 to 20)
#    0.000    2.429    0.000    2.571    0.000    5.143 
#    0.000    3.571    0.000    8.143    0.000    0.000 
#    0.000    0.000    0.000    0.000    0.000    0.000 
#
# Total GULP energy -347018.530679 kJ/mol
# GULP energy per Si atom -12393.518953 kJ/mol
# Density = 1.863653 g / cm^3
# Si number density = 18.679044 Si / 1000 Ang^3
#
#
#
# Elastic Constant Matrix: (Units=GPa)
#
#
# Indices 1 2 3 4 5 6 
#
# 1 126.9008 40.0814 76.6719 0.0000 -2.5622 0.0000
# 2 40.0814 53.2794 48.5393 -0.0001 1.2667 0.0000
# 3 76.6719 48.5393 171.7296 0.0000 -7.9497 -0.0001
# 4 0.0000 -0.0001 0.0000 26.1608 0.0000 1.8935
# 5 -2.5622 1.2667 -7.9497 0.0000 32.6804 0.0000
# 6 0.0000 0.0000 -0.0001 1.8935 0.0000 29.1783
#
#
#
# Elastic Compliance Matrix: (Units=1/GPa)
#
#
# Indices 1 2 3 4 5 6 
#
# 1 0.011892 -0.005556 -0.003728 0.000000 0.000241 0.000000
# 2 -0.005556 0.028120 -0.005601 0.000000 -0.002888 0.000000
# 3 -0.003728 -0.005601 0.009171 0.000000 0.002156 0.000000
# 4 0.000000 0.000000 0.000000 0.038406 0.000000 -0.002492
# 5 0.000241 -0.002888 0.002156 0.000000 0.031255 0.000000
# 6 0.000000 0.000000 0.000000 -0.002492 0.000000 0.034434
#
#
# Mechanical properties :
#
#
# Convention : Reuss Voigt Hill
#
# Bulk Modulus (GPa) = 51.51269 75.83278 63.67274
# Shear Modulus (GPa) = 26.38268 30.04503 28.21386
#
# Velocity S-wave (km/s) = 3.76230 4.01495 3.89067
# Velocity P-wave (km/s) = 6.81989 7.88537 7.37190
#
# Compressibility (1/GPa) = 0.01941269
#
# Stress axis : x y z
#
# Youngs Moduli (GPa) = 84.08850 35.56157 109.04431
#
# Poissons Ratio (x) = 0.19757 0.40652
# Poissons Ratio (y) = 0.46717 0.61080
# Poissons Ratio (z) = 0.31348 0.19919
#
# Static dielectric constant tensor:
#      x y z
#    x 3.315270 0.000000 -0.158210 
#    y 0.000000 3.328210 0.000000 
#    z -0.158210 0.000000 4.297930 
# 
# 
# High freq. dielectric constant tensor:
#      x y z
#    x 1.705860 0.000000 -0.002280 
#    y 0.000000 1.710470 0.000000 
#    z -0.002280 0.000000 1.753990 
# 
# From -- ./inp_files/313788.got.cif
#   From: 2010.06.25/outbox.cif.g09.slc.cpg/sg12_157_cif.got.tgz:313788.got - 2010.06.28 00:19:55.
