data_PCOD8088967
_publ_section_title
;
Structure prediction by ZEFSAII (Michael W. Deem and Ramdas Pophale) SiO2 
 PCOD8088967
Probable space group: C 2/M
;
_chemical_formula_sum "Si O2"
_cell_formula_units_Z 64
_cell_length_a 20.781998
_cell_length_b 8.784836
_cell_length_c 24.362922
_cell_angle_alpha 90.000000
_cell_angle_beta 128.522313
_cell_angle_gamma 90.000000
_cell_volume 3479.846733
_symmetry_space_group_name_H-M "C 2/M"
_symmetry_group_IT_number 12
_symmetry_cell_setting 'monoclinic'
loop_
_space_group_symop_operation_xyz
x,y,z
-x,y,-z
-x,-y,-z
x,-y,z
1/2+x,1/2+y,z
1/2-x,1/2+y,-z
1/2-x,1/2-y,-z
1/2+x,1/2-y,z
loop_
_atom_site_type_symbol
_atom_site_label
_atom_site_fract_x
_atom_site_fract_y
_atom_site_fract_z
Si Si1 0.118495 0.822475 0.669309
Si Si2 0.788522 0.819207 0.466138
Si Si3 0.244774 0.825157 0.826668
Si Si4 0.465501 0.178191 0.541872
Si Si5 0.254941 0.678764 0.666135
Si Si6 0.791362 0.322721 0.969991
Si Si7 0.121584 0.175522 0.175127
Si Si8 0.027140 0.319880 0.955197
O O1 0.157882 0.794873 0.750486
O O2 0.177216 0.754323 0.654130
O O3 0.031685 0.735793 0.621737
O O4 0.105380 0.000000 0.650105
O O5 0.750000 0.750000 0.500000
O O6 0.882186 0.768266 0.508204
O O7 0.733654 0.755569 0.386870
O O8 0.783340 0.000000 0.465551
O O9 0.236675 0.786947 0.886794
O O10 0.315672 0.721391 0.839283
O O11 0.272898 0.000000 0.833133
O O12 0.500000 0.216600 0.500000
O O13 0.448963 0.000000 0.540861
O O14 0.236348 0.500000 0.650366
O O15 0.338074 0.710343 0.744305
O O16 0.796929 0.500000 0.984039
O O17 0.750000 0.250000 0.000000
O O18 0.882839 0.254702 0.010976
O O19 0.036649 0.267078 0.125369
O O20 0.100802 0.000000 0.157279
O O21 0.029076 0.500000 0.958194
O O22 0.000000 0.254315 0.000000
#
# Coordination Sequence:
#
# PCOD8088967 Si02
#       8
#     8   8   8   8   8   8   8   8
#     4  10  19  32  57  87 111 144 192 239 281 330
#     4  12  25  41  62  86 116 152 193 235 284 345
#     4   9  18  35  55  78 112 150 186 226 280 336
#     4  11  22  37  59  86 120 153 188 236 284 333
#     4  10  20  36  55  82 118 151 184 229 287 339
#     4  10  21  37  56  79 110 148 184 225 278 333
#     4  10  20  32  54  86 115 142 182 237 283 323
#     4  10  19  35  57  79 109 147 189 231 277 333
#
# _framework density 18.391615000000002
#
# number of rings (size 3 to 8) (size 9 to 14) (size 15 to 20)
#    0.000    1.750    2.500    2.625    0.000    3.750 
#    0.000    1.250    0.000    4.500    0.000    0.000 
#    0.000    0.000    0.000    0.000    0.000    0.000 
#
# Total GULP energy -396856.229452 kJ/mol
# GULP energy per Si atom -12401.757170 kJ/mol
# Density = 1.834975 g / cm^3
# Si number density = 18.391615 Si / 1000 Ang^3
#
#
#
# Elastic Constant Matrix: (Units=GPa)
#
#
# Indices 1 2 3 4 5 6 
#
# 1 94.2485 21.3098 59.6465 0.0000 -10.1118 0.0000
# 2 21.3098 36.6165 36.2328 0.0000 -5.1332 0.0000
# 3 59.6465 36.2328 140.2081 0.0000 -3.7634 0.0000
# 4 0.0000 0.0000 0.0000 32.0997 0.0000 0.9031
# 5 -10.1118 -5.1332 -3.7634 0.0000 30.1469 0.0000
# 6 0.0000 0.0000 0.0000 0.9031 0.0000 30.9448
#
#
#
# Elastic Compliance Matrix: (Units=1/GPa)
#
#
# Indices 1 2 3 4 5 6 
#
# 1 0.015237 -0.002694 -0.005680 0.000000 0.003943 0.000000
# 2 -0.002694 0.037962 -0.008543 0.000000 0.004494 0.000000
# 3 -0.005680 -0.008543 0.011705 0.000000 -0.001899 0.000000
# 4 0.000000 0.000000 0.000000 0.031179 0.000000 -0.000910
# 5 0.003943 0.004494 -0.001899 0.000000 0.035022 0.000000
# 6 0.000000 0.000000 0.000000 -0.000910 0.000000 0.032342
#
#
# Mechanical properties :
#
#
# Convention : Reuss Voigt Hill
#
# Bulk Modulus (GPa) = 32.18633 56.16124 44.17378
# Shear Modulus (GPa) = 24.08034 28.89724 26.48879
#
# Velocity S-wave (km/s) = 3.62237 3.96816 3.79920
# Velocity P-wave (km/s) = 5.91895 7.18315 6.58147
#
# Compressibility (1/GPa) = 0.03106909
#
# Stress axis : x y z
#
# Youngs Moduli (GPa) = 65.62919 26.34221 85.43064
#
# Poissons Ratio (x) = 0.07098 0.48524
# Poissons Ratio (y) = 0.17683 0.72986
# Poissons Ratio (z) = 0.37277 0.22505
#
# Static dielectric constant tensor:
#      x y z
#    x 3.207760 0.000000 0.077180 
#    y 0.000000 3.434660 0.000000 
#    z 0.077180 0.000000 3.756160 
# 
# 
# High freq. dielectric constant tensor:
#      x y z
#    x 1.681770 0.000000 0.006580 
#    y 0.000000 1.719690 0.000000 
#    z 0.006580 0.000000 1.731720 
# 
# From -- ./inp_files/346225.got.cif
#   From: 2010.06.25/outbox.cif.g09.slc.cpg/sg12_174_cif.got.tgz:346225.got - 2010.06.28 00:19:55.
