data_PCOD8088939
_publ_section_title
;
Structure prediction by ZEFSAII (Michael W. Deem and Ramdas Pophale) SiO2 
 PCOD8088939
Probable space group: C 2/M
;
_chemical_formula_sum "Si O2"
_cell_formula_units_Z 64
_cell_length_a 33.070351
_cell_length_b 9.105805
_cell_length_c 20.804296
_cell_angle_alpha 90.000000
_cell_angle_beta 32.223266
_cell_angle_gamma 90.000000
_cell_volume 3340.538475
_symmetry_space_group_name_H-M "C 2/M"
_symmetry_group_IT_number 12
_symmetry_cell_setting 'monoclinic'
loop_
_space_group_symop_operation_xyz
x,y,z
-x,y,-z
-x,-y,-z
x,-y,z
1/2+x,1/2+y,z
1/2-x,1/2+y,-z
1/2-x,1/2-y,-z
1/2+x,1/2-y,z
loop_
_atom_site_type_symbol
_atom_site_label
_atom_site_fract_x
_atom_site_fract_y
_atom_site_fract_z
Si Si1 0.177088 0.828470 0.420678
Si Si2 0.133352 0.331051 0.176159
Si Si3 0.505698 0.328338 0.672110
Si Si4 0.459316 0.329535 0.988668
Si Si5 0.709391 0.668099 0.816824
Si Si6 0.697733 0.167352 0.521430
Si Si7 0.718557 0.668034 0.952056
Si Si8 0.977040 0.668348 0.220190
O O1 0.223527 0.774044 0.296723
O O2 0.210209 0.742038 0.436306
O O3 0.088081 0.792046 0.531994
O O4 0.190139 0.000000 0.414000
O O5 0.110875 0.500000 0.198910
O O6 0.056529 0.239271 0.292816
O O7 0.191574 0.305812 0.156672
O O8 0.170676 0.277902 0.059655
O O9 0.492724 0.500000 0.697265
O O10 0.491913 0.257329 0.760548
O O11 0.475858 0.500000 0.951597
O O12 0.492068 0.233959 0.887111
O O13 0.500000 0.280511 0.000000
O O14 0.369015 0.301090 0.115572
O O15 0.735417 0.500000 0.772447
O O16 0.697050 0.703639 0.908129
O O17 0.750000 0.250000 0.500000
O O18 0.613052 0.181495 0.660873
O O19 0.724209 0.000000 0.479505
O O20 0.697695 0.500000 0.998252
O O21 0.003346 0.500000 0.191214
#
# Coordination Sequence:
#
# PCOD8088939 Si02
#       8
#     8   8   8   8   8   8   8   8
#     4  10  22  38  56  80 107 143 188 230 277 330
#     4  10  19  32  56  87 115 143 184 234 275 323
#     4  10  20  36  57  80 109 145 180 225 280 333
#     4  10  22  37  54  80 111 147 184 220 274 338
#     4  10  21  38  57  77 109 151 187 224 274 334
#     4  10  21  36  56  81 108 140 180 227 277 325
#     4   9  19  35  55  83 116 151 187 224 276 334
#     4  10  21  36  55  81 108 138 180 228 273 320
#
# _framework density 19.158588000000002
#
# number of rings (size 3 to 8) (size 9 to 14) (size 15 to 20)
#    0.000    2.125    0.000    2.625    1.750    5.750 
#    0.000    0.625    0.000    3.750    0.000    0.000 
#    0.000    0.000    0.000    0.000    0.000    0.000 
#
# Total GULP energy -396887.549430 kJ/mol
# GULP energy per Si atom -12402.735920 kJ/mol
# Density = 1.911498 g / cm^3
# Si number density = 19.158588 Si / 1000 Ang^3
#
#
#
# Elastic Constant Matrix: (Units=GPa)
#
#
# Indices 1 2 3 4 5 6 
#
# 1 97.3490 33.9070 22.5561 0.0084 -18.1228 -0.0015
# 2 33.9070 94.5342 30.5856 0.0160 -6.6942 -0.0075
# 3 22.5561 30.5856 63.9682 0.0077 -0.7952 -0.0025
# 4 0.0084 0.0160 0.0077 36.3159 -0.0006 -1.2781
# 5 -18.1228 -6.6942 -0.7952 -0.0006 18.9871 -0.0027
# 6 -0.0015 -0.0075 -0.0025 -1.2781 -0.0027 31.4720
#
#
#
# Elastic Compliance Matrix: (Units=1/GPa)
#
#
# Indices 1 2 3 4 5 6 
#
# 1 0.014530 -0.003209 -0.003432 -0.000001 0.012593 0.000001
# 2 -0.003209 0.013561 -0.005334 -0.000004 0.001495 0.000003
# 3 -0.003432 -0.005334 0.019339 -0.000001 -0.004347 0.000000
# 4 -0.000001 -0.000004 -0.000001 0.027576 -0.000001 0.001120
# 5 0.012593 0.001495 -0.004347 -0.000001 0.065032 0.000006
# 6 0.000001 0.000003 0.000000 0.001120 0.000006 0.031820
#
#
# Mechanical properties :
#
#
# Convention : Reuss Voigt Hill
#
# Bulk Modulus (GPa) = 42.59093 47.77208 45.18150
# Shear Modulus (GPa) = 24.55380 28.60850 26.58115
#
# Velocity S-wave (km/s) = 3.58384 3.86845 3.72886
# Velocity P-wave (km/s) = 6.27728 6.70391 6.49410
#
# Compressibility (1/GPa) = 0.02347918
#
# Stress axis : x y z
#
# Youngs Moduli (GPa) = 68.82409 73.74223 51.70815
#
# Poissons Ratio (x) = 0.23665 0.17748
# Poissons Ratio (y) = 0.22087 0.27580
# Poissons Ratio (z) = 0.23623 0.39332
#
# Static dielectric constant tensor:
#      x y z
#    x 3.625040 -0.000020 -0.212400 
#    y -0.000020 3.594110 0.000010 
#    z -0.212400 0.000010 3.565010 
# 
# 
# High freq. dielectric constant tensor:
#      x y z
#    x 1.748360 0.000000 -0.016910 
#    y 0.000000 1.753840 0.000000 
#    z -0.016910 0.000000 1.733680 
# 
# From -- ./inp_files/295459.got.cif
#   From: 2010.06.25/outbox.cif.g09.slc.cpg/sg12_148_cif.got.tgz:295459.got - 2010.06.28 00:19:55.
