data_PCOD8088863
_publ_section_title
;
Structure prediction by ZEFSAII (Michael W. Deem and Ramdas Pophale) SiO2 
 PCOD8088863
Probable space group: C 2/M
;
_chemical_formula_sum "Si O2"
_cell_formula_units_Z 56
_cell_length_a 24.204934
_cell_length_b 15.066057
_cell_length_c 20.374393
_cell_angle_alpha 90.000000
_cell_angle_beta 157.002357
_cell_angle_gamma 90.000000
_cell_volume 2902.846746
_symmetry_space_group_name_H-M "C 2/M"
_symmetry_group_IT_number 12
_symmetry_cell_setting 'monoclinic'
loop_
_space_group_symop_operation_xyz
x,y,z
-x,y,-z
-x,-y,-z
x,-y,z
1/2+x,1/2+y,z
1/2-x,1/2+y,-z
1/2-x,1/2-y,-z
1/2+x,1/2-y,z
loop_
_atom_site_type_symbol
_atom_site_label
_atom_site_fract_x
_atom_site_fract_y
_atom_site_fract_z
Si Si1 0.146136 0.716331 0.119933
Si Si2 0.579481 0.404203 0.019454
Si Si3 0.647151 0.862583 0.344050
Si Si4 0.906110 0.159143 0.709302
Si Si5 0.653244 0.900825 0.000011
Si Si6 0.431447 0.396415 0.233953
Si Si7 0.192314 0.901313 0.606971
O O1 0.129071 0.661434 0.035357
O O2 0.271500 0.673093 0.299385
O O3 0.183247 0.818453 0.139349
O O4 0.000000 0.713287 0.000000
O O5 0.657093 0.500000 0.090212
O O6 0.462151 0.389583 0.834864
O O7 0.500000 0.414528 0.000000
O O8 0.764145 0.888491 0.526663
O O9 0.636608 0.758227 0.319428
O O10 0.691972 0.905348 0.324058
O O11 0.496317 0.901815 0.202282
O O12 0.026904 0.158887 0.785098
O O13 0.776280 0.864659 0.086971
O O14 0.694613 0.000000 0.068198
O O15 0.435369 0.500000 0.219538
O O16 0.539414 0.375251 0.411158
O O17 0.188606 0.000000 0.635173
#
# Coordination Sequence:
#
# PCOD8088863 Si02
#       7
#     8   8   8   8   8   8   8
#     4  11  20  33  53  81 112 145 188 225 275 324
#     4  10  20  35  56  81 107 137 184 238 277 321
#     4  10  19  32  55  86 111 142 183 228 267 331
#     4  10  19  36  57  78 112 148 182 226 280 325
#     4  11  21  34  52  84 119 148 183 225 267 331
#     4   9  21  36  53  81 116 150 187 220 268 337
#     4  10  19  34  55  82 118 152 177 219 277 334
#
# _framework density 19.291407
#
# number of rings (size 3 to 8) (size 9 to 14) (size 15 to 20)
#    0.000    1.857    2.857    2.143    0.000    3.429 
#    0.000    2.143    0.000    0.000    0.000    2.000 
#    0.000    0.429    0.000    0.000    0.000    0.000 
#
# Total GULP energy -347047.702088 kJ/mol
# GULP energy per Si atom -12394.560789 kJ/mol
# Density = 1.924750 g / cm^3
# Si number density = 19.291407 Si / 1000 Ang^3
#
#
#
# Elastic Constant Matrix: (Units=GPa)
#
#
# Indices 1 2 3 4 5 6 
#
# 1 80.0248 29.5895 56.6363 0.0005 1.7512 0.0003
# 2 29.5895 115.0391 29.5261 0.0025 -14.2516 0.0015
# 3 56.6363 29.5261 109.1045 0.0036 1.4526 0.0023
# 4 0.0005 0.0025 0.0036 32.8439 0.0016 -8.8143
# 5 1.7512 -14.2516 1.4526 0.0016 39.0879 0.0010
# 6 0.0003 0.0015 0.0023 -8.8143 0.0010 18.1796
#
#
#
# Elastic Compliance Matrix: (Units=1/GPa)
#
#
# Indices 1 2 3 4 5 6 
#
# 1 0.020623 -0.002972 -0.009879 0.000002 -0.001640 0.000002
# 2 -0.002972 0.010275 -0.001290 -0.000001 0.003927 -0.000001
# 3 -0.009879 -0.001290 0.014651 -0.000002 -0.000572 -0.000003
# 4 0.000002 -0.000001 -0.000002 0.035001 -0.000002 0.016970
# 5 -0.001640 0.003927 -0.000572 -0.000002 0.027110 -0.000003
# 6 0.000002 -0.000001 -0.000003 0.016970 -0.000003 0.063235
#
#
# Mechanical properties :
#
#
# Convention : Reuss Voigt Hill
#
# Bulk Modulus (GPa) = 57.91889 59.51914 58.71901
# Shear Modulus (GPa) = 24.39832 30.58336 27.49084
#
# Velocity S-wave (km/s) = 3.56015 3.98595 3.77905
# Velocity P-wave (km/s) = 6.85477 7.21826 7.03887
#
# Compressibility (1/GPa) = 0.01726553
#
# Stress axis : x y z
#
# Youngs Moduli (GPa) = 48.48998 97.32557 68.25669
#
# Poissons Ratio (x) = 0.28926 0.67432
# Poissons Ratio (y) = 0.14412 0.08806
# Poissons Ratio (z) = 0.47904 0.12556
#
# Static dielectric constant tensor:
#      x y z
#    x 3.369270 0.000000 -0.103190 
#    y 0.000000 3.980970 0.000000 
#    z -0.103190 0.000000 3.697210 
# 
# 
# High freq. dielectric constant tensor:
#      x y z
#    x 1.728150 0.000000 -0.014400 
#    y 0.000000 1.758810 0.000000 
#    z -0.014400 0.000000 1.739060 
# 
# From -- ./inp_files/284569.got.cif
#   From: 2010.06.25/outbox.cif.g09.slc.cpg/sg12_143_cif.got.tgz:284569.got - 2010.06.28 00:19:55.
