data_PCOD8088351
_publ_section_title
;
Structure prediction by ZEFSAII (Michael W. Deem and Ramdas Pophale) SiO2 
 PCOD8088351
Probable space group: C 2/M
;
_chemical_formula_sum "Si O2"
_cell_formula_units_Z 56
_cell_length_a 18.188105
_cell_length_b 9.044811
_cell_length_c 29.125938
_cell_angle_alpha 90.000000
_cell_angle_beta 141.162786
_cell_angle_gamma 90.000000
_cell_volume 3004.764932
_symmetry_space_group_name_H-M "C 2/M"
_symmetry_group_IT_number 12
_symmetry_cell_setting 'monoclinic'
loop_
_space_group_symop_operation_xyz
x,y,z
-x,y,-z
-x,-y,-z
x,-y,z
1/2+x,1/2+y,z
1/2-x,1/2+y,-z
1/2-x,1/2-y,-z
1/2+x,1/2-y,z
loop_
_atom_site_type_symbol
_atom_site_label
_atom_site_fract_x
_atom_site_fract_y
_atom_site_fract_z
Si Si1 0.478524 0.172304 0.343733
Si Si2 0.130422 0.175301 0.069787
Si Si3 0.822370 0.331186 0.497615
Si Si4 0.439624 0.825623 0.787697
Si Si5 0.292460 0.174395 0.066664
Si Si6 0.129770 0.825942 0.339120
Si Si7 0.711568 0.674236 0.209116
O O1 0.540418 0.201331 0.424125
O O2 0.538680 0.265974 0.332652
O O3 0.344687 0.220473 0.284691
O O4 0.486447 0.000000 0.333306
O O5 0.213309 0.236361 0.069762
O O6 0.182750 0.226423 0.143666
O O7 0.126922 0.000000 0.065515
O O8 0.000000 0.241183 0.000000
O O9 0.794912 0.500000 0.493224
O O10 0.750000 0.250000 0.500000
O O11 0.766303 0.290744 0.420693
O O12 0.574907 0.780511 0.857833
O O13 0.386347 0.754827 0.716430
O O14 0.373183 0.763477 0.799203
O O15 0.422896 0.000000 0.776894
O O16 0.278438 0.000000 0.053948
O O17 0.250000 0.250000 0.000000
O O18 0.108283 0.000000 0.322245
O O19 0.690506 0.500000 0.205795
#
# Coordination Sequence:
#
# PCOD8088351 Si02
#       7
#     8   8   8   8   8   8   8
#     4   9  17  32  54  78 105 136 173 222 274 318
#     4   9  17  31  53  78 102 129 164 206 251 304
#     4   8  15  28  48  75 103 132 170 217 266 315
#     4  11  23  37  52  74 108 144 177 218 264 308
#     4  10  21  37  57  81 107 136 170 210 259 312
#     4  10  19  32  53  79 105 137 178 218 261 320
#     4  10  20  35  55  76 101 139 182 219 261 314
#
# _framework density 18.637065
#
# number of rings (size 3 to 8) (size 9 to 14) (size 15 to 20)
#    0.000    2.429    0.000    2.571    0.000    5.714 
#    0.000    1.429    0.000    6.857    0.000    0.000 
#    0.000    0.000    0.000    0.000    0.000    0.000 
#
# Total GULP energy -347009.804142 kJ/mol
# GULP energy per Si atom -12393.207291 kJ/mol
# Density = 1.859465 g / cm^3
# Si number density = 18.637065 Si / 1000 Ang^3
#
#
#
# Elastic Constant Matrix: (Units=GPa)
#
#
# Indices 1 2 3 4 5 6 
#
# 1 140.9712 41.1858 90.9735 0.0000 -1.3524 0.0000
# 2 41.1858 47.9513 51.6102 0.0001 -4.1527 -0.0002
# 3 90.9735 51.6102 191.3402 0.0000 -0.0466 0.0000
# 4 0.0000 0.0001 0.0000 24.1253 0.0000 -3.2021
# 5 -1.3524 -4.1527 -0.0466 0.0000 32.3284 0.0000
# 6 0.0000 -0.0002 0.0000 -3.2021 0.0000 30.3307
#
#
#
# Elastic Compliance Matrix: (Units=1/GPa)
#
#
# Indices 1 2 3 4 5 6 
#
# 1 0.011166 -0.005492 -0.003828 0.000000 -0.000244 0.000000
# 2 -0.005492 0.032552 -0.006168 0.000000 0.003943 0.000000
# 3 -0.003828 -0.006168 0.008710 0.000000 -0.000940 0.000000
# 4 0.000000 0.000000 0.000000 0.042039 0.000000 0.004438
# 5 -0.000244 0.003943 -0.000940 0.000000 0.031427 0.000000
# 6 0.000000 0.000000 0.000000 0.004438 0.000000 0.033438
#
#
# Mechanical properties :
#
#
# Convention : Reuss Voigt Hill
#
# Bulk Modulus (GPa) = 46.61554 83.08907 64.85230
# Shear Modulus (GPa) = 25.32180 30.45643 27.88912
#
# Velocity S-wave (km/s) = 3.69003 4.04689 3.87257
# Velocity P-wave (km/s) = 6.57432 8.15573 7.40735
#
# Compressibility (1/GPa) = 0.02145207
#
# Stress axis : x y z
#
# Youngs Moduli (GPa) = 89.55831 30.72031 114.81562
#
# Poissons Ratio (x) = 0.16872 0.43947
# Poissons Ratio (y) = 0.49185 0.70819
# Poissons Ratio (z) = 0.34279 0.18948
#
# Static dielectric constant tensor:
#      x y z
#    x 3.315960 0.000000 0.121630 
#    y 0.000000 3.307920 0.000000 
#    z 0.121630 0.000000 4.228320 
# 
# 
# High freq. dielectric constant tensor:
#      x y z
#    x 1.704850 0.000000 -0.000380 
#    y 0.000000 1.707920 0.000000 
#    z -0.000380 0.000000 1.752760 
# 
# From -- ./inp_files/280407.got.cif
#   From: 2010.06.25/outbox.cif.g09.slc.cpg/sg12_141_cif.got.tgz:280407.got - 2010.06.28 00:19:55.
