data_PCOD8088479
_publ_section_title
;
Structure prediction by ZEFSAII (Michael W. Deem and Ramdas Pophale) SiO2 
 PCOD8088479
Probable space group: C 2/M
;
_chemical_formula_sum "Si O2"
_cell_formula_units_Z 56
_cell_length_a 19.497307
_cell_length_b 8.882326
_cell_length_c 17.481072
_cell_angle_alpha 90.000000
_cell_angle_beta 114.539583
_cell_angle_gamma 90.000000
_cell_volume 2753.946190
_symmetry_space_group_name_H-M "C 2/M"
_symmetry_group_IT_number 12
_symmetry_cell_setting 'monoclinic'
loop_
_space_group_symop_operation_xyz
x,y,z
-x,y,-z
-x,-y,-z
x,-y,z
1/2+x,1/2+y,z
1/2-x,1/2+y,-z
1/2-x,1/2-y,-z
1/2+x,1/2-y,z
loop_
_atom_site_type_symbol
_atom_site_label
_atom_site_fract_x
_atom_site_fract_y
_atom_site_fract_z
Si Si1 0.785719 0.826139 0.089529
Si Si2 0.340047 0.322700 0.403734
Si Si3 0.242701 0.174009 0.226080
Si Si4 0.612500 0.328330 0.272884
Si Si5 0.638870 0.174262 0.436753
Si Si6 0.555312 0.326899 0.781851
Si Si7 0.035952 0.673882 0.621018
O O1 0.750908 0.758159 0.150214
O O2 0.876435 0.802389 0.127003
O O3 0.764124 0.000000 0.078380
O O4 0.750000 0.750000 0.000000
O O5 0.329886 0.500000 0.394197
O O6 0.293102 0.243375 0.315941
O O7 0.314436 0.265797 0.476615
O O8 0.426941 0.271271 0.430063
O O9 0.155761 0.193247 0.212902
O O10 0.264589 0.000000 0.225674
O O11 0.616608 0.500000 0.303231
O O12 0.654499 0.230545 0.357911
O O13 0.525179 0.280422 0.218577
O O14 0.551736 0.208052 0.413421
O O15 0.660465 0.000000 0.452224
O O16 0.553734 0.500000 0.752862
O O17 0.574723 0.221600 0.718814
O O18 0.052421 0.500000 0.611013
#
# Coordination Sequence:
#
# PCOD8088479 Si02
#       7
#     8   8   8   8   8   8   8
#     4  11  23  40  65  94 121 150 187 235 290 351
#     4  12  23  34  52  79 115 158 201 244 290 344
#     4  11  23  40  62  87 118 153 192 242 296 349
#     4   9  20  39  61  85 116 156 198 240 288 344
#     4  10  21  35  53  81 115 155 200 247 291 337
#     4   9  18  36  61  87 115 151 194 235 285 344
#     4  10  19  32  53  81 114 150 194 245 295 341
#
# _framework density 20.334455999999999
#
# number of rings (size 3 to 8) (size 9 to 14) (size 15 to 20)
#    0.000    1.714    1.429    3.429    0.000    5.714 
#    0.000    0.714    0.000    4.286    0.000    0.000 
#    0.000    0.000    0.000    0.000    0.000    0.000 
#
# Total GULP energy -347198.543763 kJ/mol
# GULP energy per Si atom -12399.947992 kJ/mol
# Density = 2.028817 g / cm^3
# Si number density = 20.334456 Si / 1000 Ang^3
#
#
#
# Elastic Constant Matrix: (Units=GPa)
#
#
# Indices 1 2 3 4 5 6 
#
# 1 65.1184 29.3182 38.5598 0.0000 -13.6903 0.0000
# 2 29.3182 116.5381 60.0709 0.0000 -4.0817 0.0000
# 3 38.5598 60.0709 140.3972 0.0000 -9.9165 0.0000
# 4 0.0000 0.0000 0.0000 36.1084 0.0000 -4.0564
# 5 -13.6903 -4.0817 -9.9165 0.0000 19.2568 0.0000
# 6 0.0000 0.0000 0.0000 -4.0564 0.0000 25.9292
#
#
#
# Elastic Compliance Matrix: (Units=1/GPa)
#
#
# Indices 1 2 3 4 5 6 
#
# 1 0.021640 -0.003077 -0.003722 0.000000 0.012816 0.000000
# 2 -0.003077 0.011447 -0.004188 0.000000 -0.001918 0.000000
# 3 -0.003722 -0.004188 0.010053 0.000000 0.001643 0.000000
# 4 0.000000 0.000000 0.000000 0.028190 0.000000 0.004410
# 5 0.012816 -0.001918 0.001643 0.000000 0.061481 0.000000
# 6 0.000000 0.000000 0.000000 0.004410 0.000000 0.039256
#
#
# Mechanical properties :
#
#
# Convention : Reuss Voigt Hill
#
# Bulk Modulus (GPa) = 47.24481 64.21682 55.73082
# Shear Modulus (GPa) = 24.86386 29.19919 27.03152
#
# Velocity S-wave (km/s) = 3.50057 3.79350 3.64997
# Velocity P-wave (km/s) = 6.29468 7.12996 6.72530
#
# Compressibility (1/GPa) = 0.02116635
#
# Stress axis : x y z
#
# Youngs Moduli (GPa) = 46.21032 87.36293 99.47532
#
# Poissons Ratio (x) = 0.26880 0.37022
# Poissons Ratio (y) = 0.14218 0.41660
# Poissons Ratio (z) = 0.17198 0.36587
#
# Static dielectric constant tensor:
#      x y z
#    x 4.053100 0.000000 0.023830 
#    y 0.000000 3.718360 0.000000 
#    z 0.023830 0.000000 3.490960 
# 
# 
# High freq. dielectric constant tensor:
#      x y z
#    x 1.807320 0.000000 0.005360 
#    y 0.000000 1.799280 0.000000 
#    z 0.005360 0.000000 1.770300 
# 
# From -- ./inp_files/281700.got.cif
#   From: 2010.06.25/outbox.cif.g09.slc.cpg/sg12_141_cif.got.tgz:281700.got - 2010.06.28 00:19:55.
