data_PCOD8088056
_publ_section_title
;
Structure prediction by ZEFSAII (Michael W. Deem and Ramdas Pophale) SiO2 
 PCOD8088056
Probable space group: C 2/M
;
_chemical_formula_sum "Si O2"
_cell_formula_units_Z 48
_cell_length_a 31.249672
_cell_length_b 8.738695
_cell_length_c 27.556125
_cell_angle_alpha 90.000000
_cell_angle_beta 160.893537
_cell_angle_gamma 90.000000
_cell_volume 2463.137681
_symmetry_space_group_name_H-M "C 2/M"
_symmetry_group_IT_number 12
_symmetry_cell_setting 'monoclinic'
loop_
_space_group_symop_operation_xyz
x,y,z
-x,y,-z
-x,-y,-z
x,-y,z
1/2+x,1/2+y,z
1/2-x,1/2+y,-z
1/2-x,1/2-y,-z
1/2+x,1/2-y,z
loop_
_atom_site_type_symbol
_atom_site_label
_atom_site_fract_x
_atom_site_fract_y
_atom_site_fract_z
Si Si1 0.527595 0.318007 0.083084
Si Si2 0.359482 0.681281 0.083239
Si Si3 0.192643 0.681452 0.578462
Si Si4 0.856278 0.180873 0.578278
Si Si5 0.971210 0.681975 0.415595
Si Si6 0.306824 0.682393 0.918684
O O1 0.521627 0.500000 0.075399
O O2 0.668898 0.263117 0.252329
O O3 0.500000 0.251333 0.000000
O O4 0.418303 0.252751 0.002465
O O5 0.348721 0.500000 0.073568
O O6 0.501072 0.738397 0.252347
O O7 0.250000 0.750000 0.000000
O O8 0.335893 0.743333 0.003675
O O9 0.188625 0.500000 0.565959
O O10 0.168558 0.764051 0.502363
O O11 0.083249 0.737342 0.499030
O O12 0.750000 0.250000 0.500000
O O13 0.846419 0.000000 0.570657
O O14 0.967863 0.500000 0.414113
O O15 0.832771 0.746568 0.248603
O O16 0.000000 0.748356 0.500000
O O17 0.307184 0.500000 0.918241
#
# Coordination Sequence:
#
# PCOD8088056 Si02
#       6
#     8   8   8   8   8   8
#     4   9  16  27  46  73 103 133 167 210 258 308
#     4  10  21  36  54  77 105 138 176 219 266 318
#     4  10  19  32  52  77 105 137 175 220 270 319
#     4  11  23  38  56  79 108 142 183 228 275 328
#     4   9  16  26  44  73 104 131 163 206 256 311
#     4   9  16  27  43  65  96 128 159 201 251 299
#
# _framework density 19.48734
#
# number of rings (size 3 to 8) (size 9 to 14) (size 15 to 20)
#    0.000    2.333    0.000    3.500    0.000    9.333 
#    0.000    0.000    0.000    1.000    0.000    2.333 
#    0.000    0.000    0.000    0.000    0.000    0.000 
#
# Total GULP energy -297635.130890 kJ/mol
# GULP energy per Si atom -12401.463787 kJ/mol
# Density = 1.944299 g / cm^3
# Si number density = 19.487340 Si / 1000 Ang^3
#
#
#
# Elastic Constant Matrix: (Units=GPa)
#
#
# Indices 1 2 3 4 5 6 
#
# 1 218.9677 23.7856 124.5035 -0.0014 1.9803 -0.0007
# 2 23.7856 19.9712 26.2089 -0.0026 0.7358 -0.0010
# 3 124.5035 26.2089 222.8286 -0.0005 2.2917 0.0001
# 4 -0.0014 -0.0026 -0.0005 13.5970 -0.0003 -3.2895
# 5 1.9803 0.7358 2.2917 -0.0003 49.7205 0.0003
# 6 -0.0007 -0.0010 0.0001 -3.2895 0.0003 25.2259
#
#
#
# Elastic Compliance Matrix: (Units=1/GPa)
#
#
# Indices 1 2 3 4 5 6 
#
# 1 0.006923 -0.003746 -0.003427 0.000000 -0.000062 0.000000
# 2 -0.003746 0.061254 -0.005106 0.000012 -0.000522 0.000004
# 3 -0.003427 -0.005106 0.007004 -0.000001 -0.000111 0.000000
# 4 0.000000 0.000012 -0.000001 0.075942 0.000000 0.009903
# 5 -0.000062 -0.000522 -0.000111 0.000000 0.020128 0.000000
# 6 0.000000 0.000004 0.000000 0.009903 0.000000 0.040933
#
#
# Mechanical properties :
#
#
# Convention : Reuss Voigt Hill
#
# Bulk Modulus (GPa) = 19.75385 90.08484 54.91934
# Shear Modulus (GPa) = 19.71491 36.85996 28.28743
#
# Velocity S-wave (km/s) = 3.18414 4.35384 3.81409
# Velocity P-wave (km/s) = 4.86591 8.46181 6.90215
#
# Compressibility (1/GPa) = 0.05062304
#
# Stress axis : x y z
#
# Youngs Moduli (GPa) = 144.45009 16.32555 142.77068
#
# Poissons Ratio (x) = 0.06115 0.48926
# Poissons Ratio (y) = 0.54105 0.72905
# Poissons Ratio (z) = 0.49501 0.08337
#
# Static dielectric constant tensor:
#      x y z
#    x 3.684640 -0.000020 -0.012690 
#    y -0.000020 2.944200 0.000040 
#    z -0.012690 0.000040 4.190640 
# 
# 
# High freq. dielectric constant tensor:
#      x y z
#    x 1.781200 0.000000 -0.000080 
#    y 0.000000 1.695910 0.000000 
#    z -0.000080 0.000000 1.781940 
# 
# From -- ./inp_files/101992.got.cif
#   From: 2010.06.25/outbox.cif.g09.slc.cpg/sg12_51_cif.got.tgz:101992.got - 2010.06.28 00:19:55.
