data_PCOD8088268
_publ_section_title
;
Structure prediction by ZEFSAII (Michael W. Deem and Ramdas Pophale) SiO2 
 PCOD8088268
Probable space group: C 2/M
;
_chemical_formula_sum "Si O2"
_cell_formula_units_Z 44
_cell_length_a 5.163502
_cell_length_b 16.783699
_cell_length_c 32.050523
_cell_angle_alpha 90.000000
_cell_angle_beta 124.315909
_cell_angle_gamma 90.000000
_cell_volume 2294.122445
_symmetry_space_group_name_H-M "C 2/M"
_symmetry_group_IT_number 12
_symmetry_cell_setting 'monoclinic'
loop_
_space_group_symop_operation_xyz
x,y,z
-x,y,-z
-x,-y,-z
x,-y,z
1/2+x,1/2+y,z
1/2-x,1/2+y,-z
1/2-x,1/2-y,-z
1/2+x,1/2-y,z
loop_
_atom_site_type_symbol
_atom_site_label
_atom_site_fract_x
_atom_site_fract_y
_atom_site_fract_z
Si Si1 0.648703 0.696221 0.891142
Si Si2 0.285625 0.195628 0.367347
Si Si3 0.000000 0.696566 0.000000
Si Si4 0.721721 0.406061 0.206367
Si Si5 0.864451 0.592117 0.532732
Si Si6 0.936905 0.905713 0.267765
O O1 0.408773 0.763291 0.885425
O O2 0.468138 0.629532 0.849242
O O3 0.816039 0.650241 0.946013
O O4 0.524233 0.250013 0.364100
O O5 0.464546 0.146318 0.418485
O O6 0.128058 0.133005 0.322300
O O7 0.250000 0.750000 0.000000
O O8 0.697440 0.500000 0.199744
O O9 0.578031 0.376247 0.236821
O O10 0.078993 0.376634 0.237061
O O11 0.500000 0.613396 0.500000
O O12 0.922664 0.500000 0.549523
O O13 0.000000 0.613138 0.500000
O O14 0.965575 0.000000 0.275664
#
# Coordination Sequence:
#
# PCOD8088268 Si02
#       6
#     8   8   4   8   8   8
#     4  10  19  32  53  77 104 139 177 219 264 317
#     4  12  25  38  58  87 115 141 176 227 273 309
#     4   8  16  30  47  72 103 136 174 212 260 318
#     4  10  21  36  55  79 106 139 179 223 269 314
#     4  10  22  41  63  84 110 148 186 215 257 323
#     4  10  22  40  57  75 108 148 180 214 263 326
#
# _framework density 19.179447
#
# number of rings (size 3 to 8) (size 9 to 14) (size 15 to 20)
#    0.000    1.818    0.000    3.818    0.000    6.545 
#    0.000    7.727    0.000    0.000    0.000   11.455 
#    0.000    0.000    0.000    0.000    0.000    0.000 
#
# Total GULP energy -272763.119338 kJ/mol
# GULP energy per Si atom -12398.323606 kJ/mol
# Density = 1.913579 g / cm^3
# Si number density = 19.179447 Si / 1000 Ang^3
#
#
#
# Elastic Constant Matrix: (Units=GPa)
#
#
# Indices 1 2 3 4 5 6 
#
# 1 160.9290 29.7687 59.6209 0.0199 -3.8986 0.0088
# 2 29.7687 37.9479 49.2989 0.0037 1.6413 0.0017
# 3 59.6209 49.2989 157.4680 0.0321 5.0001 0.0139
# 4 0.0199 0.0037 0.0321 -370.1852 0.0229 -175.1911
# 5 -3.8986 1.6413 5.0001 0.0229 21.9490 0.0101
# 6 0.0088 0.0017 0.0139 -175.1911 0.0101 -83.9085
#
#
#
# Elastic Compliance Matrix: (Units=1/GPa)
#
#
# Indices 1 2 3 4 5 6 
#
# 1 0.007615 -0.003762 -0.001770 0.000002 0.002037 -0.000004
# 2 -0.003762 0.046276 -0.013027 -0.000010 -0.001161 0.000019
# 3 -0.001770 -0.013027 0.011159 0.000006 -0.001882 -0.000012
# 4 0.000002 -0.000010 0.000006 -0.226925 0.000018 0.473793
# 5 0.002037 -0.001161 -0.001882 0.000018 0.046438 -0.000031
# 6 -0.000004 0.000019 -0.000012 0.473793 -0.000031 -1.001141
#
#
# Mechanical properties :
#
#
# Convention : Reuss Voigt Hill
#
# Bulk Modulus (GPa) = 35.80064 70.41355 53.10709
# Shear Modulus (GPa) = -4.67224 -71.91852 -38.29538
#
# Velocity S-wave (km/s) = -1.56248 -6.13018 -4.47328
# Velocity P-wave (km/s) = 3.93084 3.64866 1.03411
#
# Compressibility (1/GPa) = 0.02793246
#
# Stress axis : x y z
#
# Youngs Moduli (GPa) = 131.32009 21.60925 89.61640
#
# Poissons Ratio (x) = 0.08130 0.15862
# Poissons Ratio (y) = 0.49407 1.16739
# Poissons Ratio (z) = 0.23244 0.28149
#
# Static dielectric constant tensor:
#      x y z
#    x 4.299860 0.000000 -0.024840 
#    y 0.000000 3.262180 0.000000 
#    z -0.024840 0.000000 3.882360 
# 
# 
# High freq. dielectric constant tensor:
#      x y z
#    x 1.773990 0.000000 0.000230 
#    y 0.000000 1.721150 0.000000 
#    z 0.000230 0.000000 1.769180 
# 
# From -- ./inp_files/331038.got.cif
#   From: 2010.06.25/outbox.cif.g09.slc.cpg/sg12_166_cif.got.tgz:331038.got - 2010.06.28 00:19:55.
