data_PCOD8088096
_publ_section_title
;
Structure prediction by ZEFSAII (Michael W. Deem and Ramdas Pophale) SiO2 
 PCOD8088096
Probable space group: C 2/M
;
_chemical_formula_sum "Si O2"
_cell_formula_units_Z 56
_cell_length_a 33.325879
_cell_length_b 8.992849
_cell_length_c 25.335538
_cell_angle_alpha 90.000000
_cell_angle_beta 154.957923
_cell_angle_gamma 90.000000
_cell_volume 3213.961091
_symmetry_space_group_name_H-M "C 2/M"
_symmetry_group_IT_number 12
_symmetry_cell_setting 'monoclinic'
loop_
_space_group_symop_operation_xyz
x,y,z
-x,y,-z
-x,-y,-z
x,-y,z
1/2+x,1/2+y,z
1/2-x,1/2+y,-z
1/2-x,1/2-y,-z
1/2+x,1/2-y,z
loop_
_atom_site_type_symbol
_atom_site_label
_atom_site_fract_x
_atom_site_fract_y
_atom_site_fract_z
Si Si1 0.239578 0.327012 0.070438
Si Si2 0.209353 0.827623 0.324828
Si Si3 0.388752 0.172626 0.182376
Si Si4 0.605328 0.175061 0.108254
Si Si5 0.624603 0.323388 0.020288
Si Si6 0.422982 0.325369 0.737151
Si Si7 0.592473 0.171631 0.390267
O O1 0.247125 0.500000 0.092702
O O2 0.341639 0.268672 0.172669
O O3 0.161486 0.292713 0.932957
O O4 0.211289 0.238995 0.089285
O O5 0.179341 0.724550 0.240826
O O6 0.152170 0.776285 0.308345
O O7 0.320432 0.800020 0.466703
O O8 0.187510 0.000000 0.285785
O O9 0.497475 0.225075 0.306851
O O10 0.379014 0.000000 0.185743
O O11 0.612653 0.000000 0.107584
O O12 0.500000 0.223152 0.000000
O O13 0.634157 0.259701 0.089946
O O14 0.630017 0.500000 0.029238
O O15 0.526302 0.266999 0.877510
O O16 0.424288 0.500000 0.731108
O O17 0.390306 0.256594 0.643402
O O18 0.582445 0.000000 0.362870
#
# Coordination Sequence:
#
# PCOD8088096 Si02
#       7
#     8   8   8   8   8   8   8
#     4  10  19  32  52  78 107 139 175 219 265 313
#     4  10  21  37  54  76 107 145 183 217 261 315
#     4   9  18  32  50  76 108 140 174 214 262 317
#     4  11  23  37  55  78 104 139 182 226 265 305
#     4  11  21  34  55  79 108 142 175 218 267 314
#     4  10  20  32  50  78 110 143 177 213 259 315
#     4  10  20  34  54  78 109 145 178 216 262 315
#
# _framework density 17.423981000000001
#
# number of rings (size 3 to 8) (size 9 to 14) (size 15 to 20)
#    0.000    1.857    2.857    1.714    0.000    3.429 
#    0.000    0.000    0.000    0.857    0.000    6.000 
#    0.000    0.000    0.000    0.000    0.000    0.000 
#
# Total GULP energy -347332.650228 kJ/mol
# GULP energy per Si atom -12404.737508 kJ/mol
# Density = 1.738432 g / cm^3
# Si number density = 17.423981 Si / 1000 Ang^3
#
#
#
# Elastic Constant Matrix: (Units=GPa)
#
#
# Indices 1 2 3 4 5 6 
#
# 1 132.5304 52.0226 52.2170 0.0000 9.2321 0.0000
# 2 52.0226 63.7632 33.2750 0.0000 -1.2220 0.0000
# 3 52.2170 33.2750 80.4811 0.0000 2.5983 0.0000
# 4 0.0000 0.0000 0.0000 24.6839 0.0000 -3.8943
# 5 9.2321 -1.2220 2.5983 0.0000 22.7558 0.0000
# 6 0.0000 0.0000 0.0000 -3.8943 0.0000 32.8427
#
#
#
# Elastic Compliance Matrix: (Units=1/GPa)
#
#
# Indices 1 2 3 4 5 6 
#
# 1 0.013057 -0.008184 -0.004921 0.000000 -0.005175 0.000000
# 2 -0.008184 0.025221 -0.005288 0.000000 0.005279 0.000000
# 3 -0.004921 -0.005288 0.017815 0.000000 -0.000322 0.000000
# 4 0.000000 0.000000 0.000000 0.041285 0.000000 0.004895
# 5 -0.005175 0.005279 -0.000322 0.000000 0.046365 0.000000
# 6 0.000000 0.000000 0.000000 0.004895 0.000000 0.031029
#
#
# Mechanical properties :
#
#
# Convention : Reuss Voigt Hill
#
# Bulk Modulus (GPa) = 51.79538 61.31154 56.55346
# Shear Modulus (GPa) = 22.93650 25.34049 24.13849
#
# Velocity S-wave (km/s) = 3.63213 3.81773 3.72608
# Velocity P-wave (km/s) = 6.88337 7.39579 7.14418
#
# Compressibility (1/GPa) = 0.01930674
#
# Stress axis : x y z
#
# Youngs Moduli (GPa) = 76.58497 39.64923 56.13334
#
# Poissons Ratio (x) = 0.32450 0.27622
# Poissons Ratio (y) = 0.62680 0.29684
# Poissons Ratio (z) = 0.37686 0.20967
#
# Static dielectric constant tensor:
#      x y z
#    x 3.257750 0.000000 0.156860 
#    y 0.000000 3.203290 0.000000 
#    z 0.156860 0.000000 3.136220 
# 
# 
# High freq. dielectric constant tensor:
#      x y z
#    x 1.675700 0.000000 0.008590 
#    y 0.000000 1.676320 0.000000 
#    z 0.008590 0.000000 1.654230 
# 
# From -- ./inp_files/237314.got.cif
#   From: 2010.06.25/outbox.cif.g09.slc.cpg/sg12_119_cif.got.tgz:237314.got - 2010.06.28 00:19:55.
