data_PCOD8088902
_publ_section_title
;
Structure prediction by ZEFSAII (Michael W. Deem and Ramdas Pophale) SiO2 
 PCOD8088902
Probable space group: C 2/M
;
_chemical_formula_sum "Si O2"
_cell_formula_units_Z 36
_cell_length_a 9.385940
_cell_length_b 20.875271
_cell_length_c 12.064212
_cell_angle_alpha 90.000000
_cell_angle_beta 124.643868
_cell_angle_gamma 90.000000
_cell_volume 1944.693098
_symmetry_space_group_name_H-M "C 2/M"
_symmetry_group_IT_number 12
_symmetry_cell_setting 'monoclinic'
loop_
_space_group_symop_operation_xyz
x,y,z
-x,y,-z
-x,-y,-z
x,-y,z
1/2+x,1/2+y,z
1/2-x,1/2+y,-z
1/2-x,1/2-y,-z
1/2+x,1/2-y,z
loop_
_atom_site_type_symbol
_atom_site_label
_atom_site_fract_x
_atom_site_fract_y
_atom_site_fract_z
Si Si1 0.487300 0.750268 0.185047
Si Si2 0.649410 0.303748 0.650942
Si Si3 0.297034 0.072587 0.787683
Si Si4 0.839349 0.617832 0.055915
Si Si5 0.000000 0.850582 0.000000
O O1 0.379398 0.726381 0.241676
O O2 0.669208 0.776162 0.312320
O O3 0.380067 0.805718 0.073367
O O4 0.520794 0.691302 0.118983
O O5 0.500000 0.284430 0.500000
O O6 0.664532 0.381189 0.664386
O O7 0.492672 0.079549 0.825211
O O8 0.232406 0.000000 0.745712
O O9 0.297205 0.094260 0.914801
O O10 0.672203 0.605346 0.060735
#
# Coordination Sequence:
#
# PCOD8088902 Si02
#       5
#     8   8   8   8   4
#     4  11  20  34  53  86 114 137 173 220 282 327
#     4  11  22  36  56  80 111 148 181 218 261 320
#     4  10  21  38  55  77 108 145 188 221 261 317
#     4  10  19  32  56  81 108 139 170 226 279 320
#     4  12  18  30  55  82 113 136 162 220 284 330
#
# _framework density 18.511918999999999
#
# number of rings (size 3 to 8) (size 9 to 14) (size 15 to 20)
#    0.000    1.333    4.444    5.333    0.000    0.444 
#    0.000    2.222    0.000    0.000    0.000    1.556 
#    0.000    0.000    0.000    0.000    0.000    0.000 
#
# Total GULP energy -223161.440329 kJ/mol
# GULP energy per Si atom -12397.857796 kJ/mol
# Density = 1.846979 g / cm^3
# Si number density = 18.511919 Si / 1000 Ang^3
#
#
#
# Elastic Constant Matrix: (Units=GPa)
#
#
# Indices 1 2 3 4 5 6 
#
# 1 113.9699 19.4318 4.2741 0.0000 5.5317 0.0000
# 2 19.4318 82.7625 2.1224 0.0000 -2.8316 0.0000
# 3 4.2741 2.1224 36.5778 0.0000 2.9495 0.0000
# 4 0.0000 0.0000 0.0000 4.9132 0.0000 4.8069
# 5 5.5317 -2.8316 2.9495 0.0000 20.2715 0.0000
# 6 0.0000 0.0000 0.0000 4.8069 0.0000 16.0128
#
#
#
# Elastic Compliance Matrix: (Units=1/GPa)
#
#
# Indices 1 2 3 4 5 6 
#
# 1 0.009321 -0.002264 -0.000736 0.000000 -0.002753 0.000000
# 2 -0.002264 0.012717 -0.000674 0.000000 0.002492 0.000000
# 3 -0.000736 -0.000674 0.027781 0.000000 -0.003936 0.000000
# 4 0.000000 0.000000 0.000000 0.288167 0.000000 -0.086505
# 5 -0.002753 0.002492 -0.003936 0.000000 0.051002 0.000000
# 6 0.000000 0.000000 0.000000 -0.086505 0.000000 0.088418
#
#
# Mechanical properties :
#
#
# Convention : Reuss Voigt Hill
#
# Bulk Modulus (GPa) = 23.54516 31.66297 27.60407
# Shear Modulus (GPa) = 10.02179 22.07161 16.04670
#
# Velocity S-wave (km/s) = 2.32926 3.45670 2.94739
# Velocity P-wave (km/s) = 4.46995 5.75091 5.15041
#
# Compressibility (1/GPa) = 0.04247157
#
# Stress axis : x y z
#
# Youngs Moduli (GPa) = 107.27950 78.63572 35.99528
#
# Poissons Ratio (x) = 0.17802 0.02649
# Poissons Ratio (y) = 0.24287 0.02427
# Poissons Ratio (z) = 0.07894 0.05303
#
# Static dielectric constant tensor:
#      x y z
#    x 3.883220 0.000000 0.172360 
#    y 0.000000 3.330060 0.000000 
#    z 0.172360 0.000000 3.014670 
# 
# 
# High freq. dielectric constant tensor:
#      x y z
#    x 1.733100 0.000000 0.015270 
#    y 0.000000 1.700740 0.000000 
#    z 0.015270 0.000000 1.686930 
# 
# From -- ./inp_files/119608.got.cif
#   From: 2010.06.25/outbox.cif.g09.slc.cpg/sg12_60_cif.got.tgz:119608.got - 2010.06.28 00:19:55.
