data_PCOD8088785
_publ_section_title
;
Structure prediction by ZEFSAII (Michael W. Deem and Ramdas Pophale) SiO2 
 PCOD8088785
Probable space group: C 2/M
;
_chemical_formula_sum "Si O2"
_cell_formula_units_Z 48
_cell_length_a 19.321708
_cell_length_b 8.724444
_cell_length_c 20.458700
_cell_angle_alpha 90.000000
_cell_angle_beta 131.098408
_cell_angle_gamma 90.000000
_cell_volume 2598.912315
_symmetry_space_group_name_H-M "C 2/M"
_symmetry_group_IT_number 12
_symmetry_cell_setting 'monoclinic'
loop_
_space_group_symop_operation_xyz
x,y,z
-x,y,-z
-x,-y,-z
x,-y,z
1/2+x,1/2+y,z
1/2-x,1/2+y,-z
1/2-x,1/2-y,-z
1/2+x,1/2-y,z
loop_
_atom_site_type_symbol
_atom_site_label
_atom_site_fract_x
_atom_site_fract_y
_atom_site_fract_z
Si Si1 0.292937 0.677980 0.709633
Si Si2 0.696087 0.680275 0.527110
Si Si3 0.486462 0.677732 0.777205
Si Si4 0.523152 0.180927 0.367783
Si Si5 0.823174 0.682105 0.094410
Si Si6 0.317354 0.180090 0.236655
O O1 0.266025 0.500000 0.682837
O O2 0.243780 0.776478 0.624027
O O3 0.402713 0.699460 0.776054
O O4 0.257061 0.741121 0.757460
O O5 0.694209 0.500000 0.517498
O O6 0.750000 0.750000 0.500000
O O7 0.592087 0.744558 0.462814
O O8 0.508612 0.500000 0.779010
O O9 0.454564 0.753811 0.689935
O O10 0.575457 0.760383 0.862679
O O11 0.419582 0.225428 0.324151
O O12 0.538183 0.000000 0.374984
O O13 0.821681 0.500000 0.089988
O O14 0.799713 0.745453 0.152777
O O15 0.750000 0.750000 0.000000
O O16 0.309220 0.000000 0.225700
#
# Coordination Sequence:
#
# PCOD8088785 Si02
#       6
#     8   8   8   8   8   8
#     4  10  20  36  56  79 109 144 183 224 270 321
#     4  12  23  34  51  77 109 145 189 231 271 317
#     4  10  19  32  55  82 108 140 180 223 270 322
#     4  10  19  34  55  77 107 146 189 229 266 315
#     4  10  20  37  61  84 108 139 179 222 268 327
#     4   8  18  36  57  80 107 143 180 220 271 325
#
# _framework density 18.469263999999999
#
# number of rings (size 3 to 8) (size 9 to 14) (size 15 to 20)
#    0.000    2.000    1.667    4.000    0.000    1.333 
#    0.000    9.167    0.000    5.000    0.000    0.000 
#    0.000    0.000    0.000    0.000    0.000    0.000 
#
# Total GULP energy -297587.076918 kJ/mol
# GULP energy per Si atom -12399.461538 kJ/mol
# Density = 1.842723 g / cm^3
# Si number density = 18.469264 Si / 1000 Ang^3
#
#
#
# Elastic Constant Matrix: (Units=GPa)
#
#
# Indices 1 2 3 4 5 6 
#
# 1 141.5023 43.1170 60.1456 0.0000 3.0843 0.0000
# 2 43.1170 103.7573 48.0973 0.0000 5.3963 0.0000
# 3 60.1456 48.0973 132.9559 0.0000 12.1604 0.0000
# 4 0.0000 0.0000 0.0000 33.5985 0.0000 4.2418
# 5 3.0843 5.3963 12.1604 0.0000 21.2626 0.0000
# 6 0.0000 0.0000 0.0000 4.2418 0.0000 22.2310
#
#
#
# Elastic Compliance Matrix: (Units=1/GPa)
#
#
# Indices 1 2 3 4 5 6 
#
# 1 0.009203 -0.002290 -0.003446 0.000000 0.001217 0.000000
# 2 -0.002290 0.012156 -0.003281 0.000000 -0.000876 0.000000
# 3 -0.003446 -0.003281 0.010705 0.000000 -0.004790 0.000000
# 4 0.000000 0.000000 0.000000 0.030498 0.000000 -0.005819
# 5 0.001217 -0.000876 -0.004790 0.000000 0.049816 0.000000
# 6 0.000000 0.000000 0.000000 -0.005819 0.000000 0.046093
#
#
# Mechanical properties :
#
#
# Convention : Reuss Voigt Hill
#
# Bulk Modulus (GPa) = 71.27923 75.65950 73.46936
# Shear Modulus (GPa) = 27.59635 30.54211 29.06923
#
# Velocity S-wave (km/s) = 3.86965 4.07095 3.97158
# Velocity P-wave (km/s) = 7.65786 7.94675 7.80364
#
# Compressibility (1/GPa) = 0.01402933
#
# Stress axis : x y z
#
# Youngs Moduli (GPa) = 108.65908 82.26198 93.41140
#
# Poissons Ratio (x) = 0.18840 0.32190
# Poissons Ratio (y) = 0.24886 0.30652
# Poissons Ratio (z) = 0.37444 0.26993
#
# Static dielectric constant tensor:
#      x y z
#    x 3.810910 0.000000 -0.022810 
#    y 0.000000 3.381200 0.000000 
#    z -0.022810 0.000000 3.452760 
# 
# 
# High freq. dielectric constant tensor:
#      x y z
#    x 1.715230 0.000000 0.013690 
#    y 0.000000 1.714130 0.000000 
#    z 0.013690 0.000000 1.704880 
# 
# From -- ./inp_files/248807.got.cif
#   From: 2010.06.25/outbox.cif.g09.slc.cpg/sg12_125_cif.got.tgz:248807.got - 2010.06.28 00:19:55.
