data_PCOD8088577
_publ_section_title
;
Structure prediction by ZEFSAII (Michael W. Deem and Ramdas Pophale) SiO2 
 PCOD8088577
Probable space group: C 2/M
;
_chemical_formula_sum "Si O2"
_cell_formula_units_Z 64
_cell_length_a 22.317908
_cell_length_b 9.389863
_cell_length_c 20.555874
_cell_angle_alpha 90.000000
_cell_angle_beta 129.277881
_cell_angle_gamma 90.000000
_cell_volume 3334.549369
_symmetry_space_group_name_H-M "C 2/M"
_symmetry_group_IT_number 12
_symmetry_cell_setting 'monoclinic'
loop_
_space_group_symop_operation_xyz
x,y,z
-x,y,-z
-x,-y,-z
x,-y,z
1/2+x,1/2+y,z
1/2-x,1/2+y,-z
1/2-x,1/2-y,-z
1/2+x,1/2-y,z
loop_
_atom_site_type_symbol
_atom_site_label
_atom_site_fract_x
_atom_site_fract_y
_atom_site_fract_z
Si Si1 0.494754 0.333222 0.921449
Si Si2 0.763447 0.329088 0.577821
Si Si3 0.082928 0.663923 0.238718
Si Si4 0.200530 0.156820 0.884222
Si Si5 0.948879 0.335478 0.246707
Si Si6 0.972832 0.161232 0.382765
Si Si7 0.334916 0.655958 0.991473
Si Si8 0.126499 0.158845 0.571136
O O1 0.476726 0.500000 0.903212
O O2 0.426392 0.252510 0.834901
O O3 0.576920 0.290534 0.946146
O O4 0.500000 0.284100 0.000000
O O5 0.757329 0.500000 0.562156
O O6 0.750000 0.250000 0.500000
O O7 0.845443 0.286010 0.666844
O O8 0.698358 0.267455 0.583341
O O9 0.094638 0.500000 0.227526
O O10 0.003848 0.689156 0.223344
O O11 0.130905 0.253230 0.813336
O O12 0.198714 0.139968 0.959966
O O13 0.196413 0.000000 0.848994
O O14 0.280674 0.231456 0.916406
O O15 0.930558 0.500000 0.244808
O O16 0.990806 0.270586 0.337892
O O17 0.901310 0.222469 0.378192
O O18 0.052017 0.157509 0.475335
O O19 0.954029 0.000000 0.345539
O O20 0.331677 0.500000 0.954725
O O21 0.154934 0.000000 0.605187
#
# Coordination Sequence:
#
# PCOD8088577 Si02
#       8
#     8   8   8   8   8   8   8   8
#     4  10  21  39  61  82 109 148 190 232 279 331
#     4  10  20  36  57  84 115 148 186 231 277 326
#     4  10  22  37  55  80 113 148 188 234 280 333
#     4  10  19  32  54  79 102 135 173 215 267 326
#     4  11  21  33  50  77 110 141 175 226 280 326
#     4   9  17  32  55  79 102 139 182 220 269 332
#     4   9  18  34  54  78 106 134 169 220 273 320
#     4   8  16  33  55  76 105 141 179 223 270 323
#
# _framework density 19.192997999999999
#
# number of rings (size 3 to 8) (size 9 to 14) (size 15 to 20)
#    0.000    2.375    1.250    2.250    0.000    2.250 
#    2.250    1.875    0.000    0.000    0.000    0.000 
#    0.000    0.000    0.000    0.000    0.000    0.000 
#
# Total GULP energy -396506.822656 kJ/mol
# GULP energy per Si atom -12390.838208 kJ/mol
# Density = 1.914931 g / cm^3
# Si number density = 19.192998 Si / 1000 Ang^3
#
#
#
# Elastic Constant Matrix: (Units=GPa)
#
#
# Indices 1 2 3 4 5 6 
#
# 1 57.6961 34.9763 28.3720 0.0000 7.6800 0.0000
# 2 34.9763 89.0065 54.2410 0.0000 -0.3169 0.0000
# 3 28.3720 54.2410 103.0719 0.0000 2.9873 0.0000
# 4 0.0000 0.0000 0.0000 28.7641 0.0000 7.3060
# 5 7.6800 -0.3169 2.9873 0.0000 28.3270 0.0000
# 6 0.0000 0.0000 0.0000 7.3060 0.0000 -0.5015
#
#
#
# Elastic Compliance Matrix: (Units=1/GPa)
#
#
# Indices 1 2 3 4 5 6 
#
# 1 0.024241 -0.008238 -0.002151 0.000000 -0.006437 0.000000
# 2 -0.008238 0.019373 -0.008023 0.000000 0.003296 0.000000
# 3 -0.002151 -0.008023 0.014546 0.000000 -0.001041 0.000000
# 4 0.000000 0.000000 0.000000 0.007397 0.000000 0.107752
# 5 -0.006437 0.003296 -0.001041 0.000000 0.037194 0.000000
# 6 0.000000 0.000000 0.000000 0.107752 0.000000 -0.424227
#
#
# Mechanical properties :
#
#
# Convention : Reuss Voigt Hill
#
# Bulk Modulus (GPa) = 46.86759 53.88366 50.37563
# Shear Modulus (GPa) = -18.01541 20.13027 1.05743
#
# Velocity S-wave (km/s) = -3.06706 3.24208 0.74306
# Velocity P-wave (km/s) = 3.45394 6.49233 5.20000
#
# Compressibility (1/GPa) = 0.02133671
#
# Stress axis : x y z
#
# Youngs Moduli (GPa) = 41.25286 51.61728 68.74615
#
# Poissons Ratio (x) = 0.42522 0.14786
# Poissons Ratio (y) = 0.33984 0.55155
# Poissons Ratio (z) = 0.08873 0.41413
#
# Static dielectric constant tensor:
#      x y z
#    x 3.710200 0.000000 -0.043240 
#    y 0.000000 3.554330 0.000000 
#    z -0.043240 0.000000 3.475840 
# 
# 
# High freq. dielectric constant tensor:
#      x y z
#    x 1.743880 0.000000 0.008740 
#    y 0.000000 1.730230 0.000000 
#    z 0.008740 0.000000 1.739560 
# 
# From -- ./inp_files/324269.got.cif
#   From: 2010.06.25/outbox.cif.g09.slc.cpg/sg12_163_cif.got.tgz:324269.got - 2010.06.28 00:19:55.
