data_PCOD8088934
_publ_section_title
;
Structure prediction by ZEFSAII (Michael W. Deem and Ramdas Pophale) SiO2 
 PCOD8088934
Probable space group: C 2/M
;
_chemical_formula_sum "Si O2"
_cell_formula_units_Z 56
_cell_length_a 9.475648
_cell_length_b 17.893923
_cell_length_c 27.158626
_cell_angle_alpha 90.000000
_cell_angle_beta 39.837383
_cell_angle_gamma 90.000000
_cell_volume 2949.962923
_symmetry_space_group_name_H-M "C 2/M"
_symmetry_group_IT_number 12
_symmetry_cell_setting 'monoclinic'
loop_
_space_group_symop_operation_xyz
x,y,z
-x,y,-z
-x,-y,-z
x,-y,z
1/2+x,1/2+y,z
1/2-x,1/2+y,-z
1/2-x,1/2-y,-z
1/2+x,1/2-y,z
loop_
_atom_site_type_symbol
_atom_site_label
_atom_site_fract_x
_atom_site_fract_y
_atom_site_fract_z
Si Si1 0.691580 0.799760 0.212945
Si Si2 0.775535 0.662026 0.261604
Si Si3 0.490457 0.776664 0.945355
Si Si4 0.691600 0.085547 0.842688
Si Si5 0.311335 0.413047 0.260599
Si Si6 0.841402 0.820471 0.416477
Si Si7 0.480186 0.829443 0.585371
O O1 0.697578 0.733644 0.250864
O O2 0.448473 0.814234 0.256846
O O3 0.842291 0.780027 0.125855
O O4 0.780178 0.873616 0.216270
O O5 0.866227 0.599760 0.199464
O O6 0.556165 0.628936 0.346956
O O7 0.535390 0.862246 0.917466
O O8 0.500000 0.769592 0.000000
O O9 0.250000 0.750000 0.000000
O O10 0.947142 0.107084 0.783267
O O11 0.640694 0.000000 0.869964
O O12 0.286853 0.500000 0.257222
O O13 0.122501 0.390058 0.350194
O O14 0.694097 0.860908 0.498094
O O15 0.701075 0.804480 0.405377
O O16 0.938380 0.741093 0.406323
#
# Coordination Sequence:
#
# PCOD8088934 Si02
#       7
#     8   8   8   8   8   8   8
#     4  11  22  36  61  87 115 149 197 246 293 350
#     4  11  19  35  60  86 116 153 199 246 290 340
#     4  11  22  39  61  89 115 145 189 240 295 349
#     4  10  22  39  61  87 119 155 192 234 290 353
#     4  11  22  39  58  83 121 161 200 242 289 346
#     4  10  19  32  56  86 117 150 195 253 290 336
#     4  10  20  34  53  88 117 151 200 244 303 332
#
# _framework density 18.98329
#
# number of rings (size 3 to 8) (size 9 to 14) (size 15 to 20)
#    0.000    1.429    2.857    5.143    0.000    0.857 
#    0.000    2.857    0.000    2.571    0.000    0.000 
#    0.000    0.000    0.000    0.000    0.000    0.000 
#
# Total GULP energy -347074.533141 kJ/mol
# GULP energy per Si atom -12395.519041 kJ/mol
# Density = 1.894008 g / cm^3
# Si number density = 18.983290 Si / 1000 Ang^3
#
#
#
# Elastic Constant Matrix: (Units=GPa)
#
#
# Indices 1 2 3 4 5 6 
#
# 1 96.7690 46.2464 28.2689 0.0002 -0.8224 -0.0011
# 2 46.2464 93.2284 53.1415 0.0001 2.5174 -0.0005
# 3 28.2689 53.1415 120.0411 -0.0030 -1.5638 0.0008
# 4 0.0002 0.0001 -0.0030 26.6158 0.0013 -1.8952
# 5 -0.8224 2.5174 -1.5638 0.0013 35.9008 0.0000
# 6 -0.0011 -0.0005 0.0008 -1.8952 0.0000 22.0453
#
#
#
# Elastic Compliance Matrix: (Units=1/GPa)
#
#
# Indices 1 2 3 4 5 6 
#
# 1 0.013573 -0.006604 -0.000263 0.000000 0.000763 0.000001
# 2 -0.006604 0.017619 -0.006266 -0.000001 -0.001660 0.000000
# 3 -0.000263 -0.006266 0.011178 0.000001 0.000920 0.000000
# 4 0.000000 -0.000001 0.000001 0.037803 -0.000001 0.003250
# 5 0.000763 -0.001660 0.000920 -0.000001 0.028028 0.000000
# 6 0.000001 0.000000 0.000000 0.003250 0.000000 0.045641
#
#
# Mechanical properties :
#
#
# Convention : Reuss Voigt Hill
#
# Bulk Modulus (GPa) = 62.09456 62.81687 62.45572
# Shear Modulus (GPa) = 26.95760 29.07117 28.01439
#
# Velocity S-wave (km/s) = 3.77247 3.91757 3.84570
# Velocity P-wave (km/s) = 7.19420 7.32295 7.25886
#
# Compressibility (1/GPa) = 0.01610447
#
# Stress axis : x y z
#
# Youngs Moduli (GPa) = 73.67498 56.75759 89.45790
#
# Poissons Ratio (x) = 0.37481 0.02353
# Poissons Ratio (y) = 0.48652 0.56056
# Poissons Ratio (z) = 0.01938 0.35566
#
# Static dielectric constant tensor:
#      x y z
#    x 3.612250 0.000080 0.030260 
#    y 0.000080 3.457960 -0.000100 
#    z 0.030260 -0.000100 4.070690 
# 
# 
# High freq. dielectric constant tensor:
#      x y z
#    x 1.749890 0.000000 0.003600 
#    y 0.000000 1.702030 0.000000 
#    z 0.003600 0.000000 1.755980 
# 
# From -- ./inp_files/300903.got.cif
#   From: 2010.06.25/outbox.cif.g09.slc.cpg/sg12_151_cif.got.tgz:300903.got - 2010.06.28 00:19:55.
