data_PCOD8088038
_publ_section_title
;
Structure prediction by ZEFSAII (Michael W. Deem and Ramdas Pophale) SiO2 
 PCOD8088038
Probable space group: C 2/M
;
_chemical_formula_sum "Si O2"
_cell_formula_units_Z 64
_cell_length_a 28.347623
_cell_length_b 9.121741
_cell_length_c 16.978297
_cell_angle_alpha 90.000000
_cell_angle_beta 127.599672
_cell_angle_gamma 90.000000
_cell_volume 3478.359015
_symmetry_space_group_name_H-M "C 2/M"
_symmetry_group_IT_number 12
_symmetry_cell_setting 'monoclinic'
loop_
_space_group_symop_operation_xyz
x,y,z
-x,y,-z
-x,-y,-z
x,-y,z
1/2+x,1/2+y,z
1/2-x,1/2+y,-z
1/2-x,1/2-y,-z
1/2+x,1/2-y,z
loop_
_atom_site_type_symbol
_atom_site_label
_atom_site_fract_x
_atom_site_fract_y
_atom_site_fract_z
Si Si1 0.543707 0.672436 0.112546
Si Si2 0.129882 0.670601 0.414174
Si Si3 0.788273 0.333562 0.977294
Si Si4 0.394515 0.172421 0.180597
Si Si5 0.206882 0.829507 0.619880
Si Si6 0.316394 0.668499 0.229107
Si Si7 0.659312 0.831495 0.265924
Si Si8 0.513367 0.673080 0.258091
O O1 0.551430 0.500000 0.112941
O O2 0.609087 0.741003 0.168127
O O3 0.516421 0.717617 0.169226
O O4 0.500000 0.733104 0.000000
O O5 0.117293 0.500000 0.415903
O O6 0.176945 0.727954 0.524871
O O7 0.157376 0.700817 0.356782
O O8 0.068680 0.759147 0.361618
O O9 0.784083 0.500000 0.999272
O O10 0.755514 0.306946 0.860174
O O11 0.750000 0.250000 0.000000
O O12 0.857622 0.289377 0.061631
O O13 0.357714 0.224606 0.219976
O O14 0.455044 0.261242 0.238263
O O15 0.408138 0.000000 0.202617
O O16 0.173938 0.799386 0.669114
O O17 0.275886 0.783750 0.698207
O O18 0.201973 0.000000 0.590004
O O19 0.332936 0.500000 0.225607
O O20 0.646157 0.000000 0.233816
O O21 0.513888 0.500000 0.270348
#
# Coordination Sequence:
#
# PCOD8088038 Si02
#       8
#     8   8   8   8   8   8   8   8
#     4   9  19  35  53  77 109 140 171 209 251 297
#     4  10  20  35  54  76 102 131 169 215 258 303
#     4   8  15  28  46  68  95 128 162 198 240 286
#     4  10  19  32  52  77 104 134 172 214 252 296
#     4  10  20  34  53  77 104 134 169 210 257 307
#     4   9  18  33  51  73 104 138 171 207 250 303
#     4   9  19  34  53  78 105 136 172 207 250 306
#     4  10  20  35  55  75 100 137 175 209 251 305
#
# _framework density 18.399481000000002
#
# number of rings (size 3 to 8) (size 9 to 14) (size 15 to 20)
#    0.000    2.625    0.000    1.500    0.000    3.750 
#    0.000    1.875    0.000    3.750    0.000    0.000 
#    0.000    0.000    0.000    0.000    0.000    0.000 
#
# Total GULP energy -396603.147851 kJ/mol
# GULP energy per Si atom -12393.848370 kJ/mol
# Density = 1.835760 g / cm^3
# Si number density = 18.399481 Si / 1000 Ang^3
#
#
#
# Elastic Constant Matrix: (Units=GPa)
#
#
# Indices 1 2 3 4 5 6 
#
# 1 76.3933 34.0011 39.0591 0.0000 17.8591 0.0000
# 2 34.0011 66.5094 41.9091 0.0000 7.6386 0.0000
# 3 39.0591 41.9091 105.5958 0.0000 6.7778 0.0000
# 4 0.0000 0.0000 0.0000 31.9599 0.0000 5.6791
# 5 17.8591 7.6386 6.7778 0.0000 24.1754 0.0000
# 6 0.0000 0.0000 0.0000 5.6791 0.0000 24.7163
#
#
#
# Elastic Compliance Matrix: (Units=1/GPa)
#
#
# Indices 1 2 3 4 5 6 
#
# 1 0.021175 -0.006632 -0.004410 0.000000 -0.012311 0.000000
# 2 -0.006632 0.022550 -0.006470 0.000000 -0.000412 0.000000
# 3 -0.004410 -0.006470 0.013573 0.000000 0.001497 0.000000
# 4 0.000000 0.000000 0.000000 0.032621 0.000000 -0.007495
# 5 -0.012311 -0.000412 0.001497 0.000000 0.050169 0.000000
# 6 0.000000 0.000000 0.000000 -0.007495 0.000000 0.042181
#
#
# Mechanical properties :
#
#
# Convention : Reuss Voigt Hill
#
# Bulk Modulus (GPa) = 44.89682 53.15970 49.02826
# Shear Modulus (GPa) = 22.25000 25.07225 23.66112
#
# Velocity S-wave (km/s) = 3.48123 3.69543 3.58993
# Velocity P-wave (km/s) = 6.37281 6.86753 6.62479
#
# Compressibility (1/GPa) = 0.02227329
#
# Stress axis : x y z
#
# Youngs Moduli (GPa) = 47.22599 44.34517 73.67508
#
# Poissons Ratio (x) = 0.29411 0.32490
# Poissons Ratio (y) = 0.31322 0.47669
# Poissons Ratio (z) = 0.20826 0.28692
#
# Static dielectric constant tensor:
#      x y z
#    x 3.200780 0.000000 0.027580 
#    y 0.000000 3.384550 0.000000 
#    z 0.027580 0.000000 3.859600 
# 
# 
# High freq. dielectric constant tensor:
#      x y z
#    x 1.694570 0.000000 0.008920 
#    y 0.000000 1.715480 0.000000 
#    z 0.008920 0.000000 1.718200 
# 
# From -- ./inp_files/295673.got.cif
#   From: 2010.06.25/outbox.cif.g09.slc.cpg/sg12_148_cif.got.tgz:295673.got - 2010.06.28 00:19:55.
