data_PCOD8088265
_publ_section_title
;
Structure prediction by ZEFSAII (Michael W. Deem and Ramdas Pophale) SiO2 
 PCOD8088265
Probable space group: C 2/M
;
_chemical_formula_sum "Si O2"
_cell_formula_units_Z 48
_cell_length_a 19.887401
_cell_length_b 14.122945
_cell_length_c 18.658676
_cell_angle_alpha 90.000000
_cell_angle_beta 30.846376
_cell_angle_gamma 90.000000
_cell_volume 2687.073746
_symmetry_space_group_name_H-M "C 2/M"
_symmetry_group_IT_number 12
_symmetry_cell_setting 'monoclinic'
loop_
_space_group_symop_operation_xyz
x,y,z
-x,y,-z
-x,-y,-z
x,-y,z
1/2+x,1/2+y,z
1/2-x,1/2+y,-z
1/2-x,1/2-y,-z
1/2+x,1/2-y,z
loop_
_atom_site_type_symbol
_atom_site_label
_atom_site_fract_x
_atom_site_fract_y
_atom_site_fract_z
Si Si1 0.576338 0.892908 0.629799
Si Si2 0.266488 0.111281 0.379016
Si Si3 0.975830 0.237906 0.439034
Si Si4 0.712922 0.107537 0.065406
Si Si5 0.482131 0.897420 0.934846
Si Si6 0.734844 0.289201 0.123469
O O1 0.697614 0.863598 0.570709
O O2 0.567362 0.829801 0.566864
O O3 0.445013 0.885289 0.799210
O O4 0.594127 0.000000 0.585935
O O5 0.136740 0.161016 0.469151
O O6 0.386738 0.145858 0.219647
O O7 0.243867 0.000000 0.390880
O O8 0.000000 0.264951 0.500000
O O9 0.109831 0.191669 0.287646
O O10 0.751028 0.176296 0.096096
O O11 0.758950 0.000000 0.039224
O O12 0.786251 0.148966 0.929019
O O13 0.446409 0.000000 0.930066
O O14 0.500000 0.920790 0.000000
O O15 0.367320 0.821478 0.038659
#
# Coordination Sequence:
#
# PCOD8088265 Si02
#       6
#     8   8   8   8   8   8
#     4   9  18  36  59  78 100 138 185 221 252 304
#     4  10  20  35  54  76 106 141 175 216 262 311
#     4  11  23  35  51  80 114 141 168 214 271 318
#     4   9  17  32  55  80 100 126 174 223 258 300
#     4  10  19  32  53  77 103 139 177 211 253 313
#     4  10  19  32  54  78 101 135 170 212 262 304
#
# _framework density 17.863298
#
# number of rings (size 3 to 8) (size 9 to 14) (size 15 to 20)
#    0.000    2.167    1.667    2.000    0.000    2.000 
#    0.000    0.000    0.000    0.500    0.000    0.000 
#    0.000    0.000    0.000    0.000    0.000    0.000 
#
# Total GULP energy -297459.819701 kJ/mol
# GULP energy per Si atom -12394.159154 kJ/mol
# Density = 1.782264 g / cm^3
# Si number density = 17.863298 Si / 1000 Ang^3
#
#
#
# Elastic Constant Matrix: (Units=GPa)
#
#
# Indices 1 2 3 4 5 6 
#
# 1 103.1348 48.5171 53.1406 0.0000 4.5967 0.0000
# 2 48.5171 106.8162 48.6168 0.0001 -10.2893 -0.0001
# 3 53.1406 48.6168 113.4311 0.0003 -1.5763 -0.0001
# 4 0.0000 0.0001 0.0003 28.9625 -0.0002 -4.8053
# 5 4.5967 -10.2893 -1.5763 -0.0002 19.8801 0.0000
# 6 0.0000 -0.0001 -0.0001 -4.8053 0.0000 26.0935
#
#
#
# Elastic Compliance Matrix: (Units=1/GPa)
#
#
# Indices 1 2 3 4 5 6 
#
# 1 0.014938 -0.005203 -0.004859 0.000000 -0.006532 0.000000
# 2 -0.005203 0.014108 -0.003495 0.000000 0.008228 0.000000
# 3 -0.004859 -0.003495 0.012595 0.000000 0.000313 0.000000
# 4 0.000000 0.000000 0.000000 0.035616 0.000000 0.006559
# 5 -0.006532 0.008228 0.000313 0.000000 0.056095 0.000000
# 6 0.000000 0.000000 0.000000 0.006559 0.000000 0.039532
#
#
# Mechanical properties :
#
#
# Convention : Reuss Voigt Hill
#
# Bulk Modulus (GPa) = 68.83602 69.32569 69.08086
# Shear Modulus (GPa) = 24.40918 26.52773 25.46846
#
# Velocity S-wave (km/s) = 3.70055 3.85780 3.78000
# Velocity P-wave (km/s) = 7.54171 7.66399 7.60310
#
# Compressibility (1/GPa) = 0.01452728
#
# Stress axis : x y z
#
# Youngs Moduli (GPa) = 66.94132 70.87984 79.39788
#
# Poissons Ratio (x) = 0.36877 0.38582
# Poissons Ratio (y) = 0.34828 0.27751
# Poissons Ratio (z) = 0.32529 0.24773
#
# Static dielectric constant tensor:
#      x y z
#    x 3.226220 0.000000 0.028860 
#    y 0.000000 3.335980 0.000000 
#    z 0.028860 0.000000 3.280780 
# 
# 
# High freq. dielectric constant tensor:
#      x y z
#    x 1.682380 0.000000 0.004910 
#    y 0.000000 1.688770 0.000000 
#    z 0.004910 0.000000 1.686720 
# 
# From -- ./inp_files/85935.got.cif
#   From: 2010.06.25/outbox.cif.g09.slc.cpg/sg12_43_cif.got.tgz:85935.got - 2010.06.28 00:19:55.
