data_PCOD8088251
_publ_section_title
;
Structure prediction by ZEFSAII (Michael W. Deem and Ramdas Pophale) SiO2 
 PCOD8088251
Probable space group: C 2/M
;
_chemical_formula_sum "Si O2"
_cell_formula_units_Z 64
_cell_length_a 17.928213
_cell_length_b 9.143964
_cell_length_c 33.974162
_cell_angle_alpha 90.000000
_cell_angle_beta 142.526947
_cell_angle_gamma 90.000000
_cell_volume 3388.449928
_symmetry_space_group_name_H-M "C 2/M"
_symmetry_group_IT_number 12
_symmetry_cell_setting 'monoclinic'
loop_
_space_group_symop_operation_xyz
x,y,z
-x,y,-z
-x,-y,-z
x,-y,z
1/2+x,1/2+y,z
1/2-x,1/2+y,-z
1/2-x,1/2-y,-z
1/2+x,1/2-y,z
loop_
_atom_site_type_symbol
_atom_site_label
_atom_site_fract_x
_atom_site_fract_y
_atom_site_fract_z
Si Si1 0.115881 0.673097 0.633323
Si Si2 0.464734 0.326056 0.255215
Si Si3 0.209415 0.169169 0.748473
Si Si4 0.865629 0.173936 0.130408
Si Si5 0.261360 0.326249 0.618776
Si Si6 0.662846 0.173055 0.494157
Si Si7 0.506923 0.830730 0.120604
Si Si8 0.588937 0.173800 0.003401
O O1 0.128020 0.500000 0.641243
O O2 0.183934 0.741276 0.698704
O O3 0.181943 0.733400 0.621873
O O4 0.975043 0.722515 0.572866
O O5 0.463450 0.500000 0.254055
O O6 0.375962 0.268455 0.252428
O O7 0.417657 0.266967 0.193593
O O8 0.600683 0.264226 0.320269
O O9 0.348177 0.193002 0.819716
O O10 0.180192 0.000000 0.727919
O O11 0.726518 0.230486 0.068201
O O12 0.948296 0.237976 0.130679
O O13 0.872278 0.000000 0.130582
O O14 0.263453 0.500000 0.620380
O O15 0.198802 0.270523 0.552565
O O16 0.750000 0.250000 0.500000
O O17 0.679296 0.000000 0.497616
O O18 0.472702 0.000000 0.112557
O O19 0.455159 0.770613 0.057626
O O20 0.583443 0.000000 0.002696
O O21 0.500000 0.238703 0.000000
#
# Coordination Sequence:
#
# PCOD8088251 Si02
#       8
#     8   8   8   8   8   8   8   8
#     4  10  20  34  53  77 102 129 166 209 250 294
#     4   9  17  30  50  74  97 127 169 207 239 288
#     4  10  20  34  52  74 101 133 167 204 250 299
#     4  10  19  32  53  77 100 131 170 208 246 293
#     4   9  17  31  51  73  99 130 163 202 246 292
#     4  10  20  34  53  76 102 133 167 204 247 295
#     4  10  20  33  50  74 104 134 164 204 252 298
#     4   9  17  31  52  76 101 131 169 210 248 291
#
# _framework density 18.887691
#
# number of rings (size 3 to 8) (size 9 to 14) (size 15 to 20)
#    0.000    2.375    0.000    3.000    0.000    7.500 
#    0.000    1.250    0.000    9.000    0.000    0.000 
#    0.000    0.000    0.000    0.000    0.000    0.000 
#
# Total GULP energy -396862.773614 kJ/mol
# GULP energy per Si atom -12401.961675 kJ/mol
# Density = 1.884470 g / cm^3
# Si number density = 18.887691 Si / 1000 Ang^3
#
#
#
# Elastic Constant Matrix: (Units=GPa)
#
#
# Indices 1 2 3 4 5 6 
#
# 1 121.6730 20.2693 15.4449 0.0000 -4.4530 0.0000
# 2 20.2693 16.3321 16.5471 0.0000 0.2581 0.0001
# 3 15.4449 16.5471 93.5648 0.0000 -8.1788 0.0000
# 4 0.0000 0.0000 0.0000 20.6007 0.0000 -0.7022
# 5 -4.4530 0.2581 -8.1788 0.0000 43.3220 0.0000
# 6 0.0000 0.0001 0.0000 -0.7022 0.0000 28.5589
#
#
#
# Elastic Compliance Matrix: (Units=1/GPa)
#
#
# Indices 1 2 3 4 5 6 
#
# 1 0.010470 -0.013865 0.000839 0.000000 0.001317 0.000000
# 2 -0.013865 0.093337 -0.014633 0.000000 -0.004744 0.000000
# 3 0.000839 -0.014633 0.013373 0.000000 0.002698 0.000000
# 4 0.000000 0.000000 0.000000 0.048583 0.000000 0.001195
# 5 0.001317 -0.004744 0.002698 0.000000 0.023756 0.000000
# 6 0.000000 0.000000 0.000000 0.001195 0.000000 0.035045
#
#
# Mechanical properties :
#
#
# Convention : Reuss Voigt Hill
#
# Bulk Modulus (GPa) = 16.16490 37.34361 26.75426
# Shear Modulus (GPa) = 16.63877 30.45022 23.54450
#
# Velocity S-wave (km/s) = 2.97127 4.01954 3.53449
# Velocity P-wave (km/s) = 4.51091 6.43091 5.55450
#
# Compressibility (1/GPa) = 0.06186244
#
# Stress axis : x y z
#
# Youngs Moduli (GPa) = 95.50881 10.71383 74.77749
#
# Poissons Ratio (x) = 0.14855 -0.06273
# Poissons Ratio (y) = 1.32424 1.09421
# Poissons Ratio (z) = -0.08012 0.15677
#
# Static dielectric constant tensor:
#      x y z
#    x 3.674510 0.000000 0.009990 
#    y 0.000000 2.984710 0.000000 
#    z 0.009990 0.000000 3.756710 
# 
# 
# High freq. dielectric constant tensor:
#      x y z
#    x 1.753250 0.000000 0.000700 
#    y 0.000000 1.680440 0.000000 
#    z 0.000700 0.000000 1.755110 
# 
# From -- ./inp_files/361058.got.cif
#   From: 2010.06.25/outbox.cif.g09.slc.cpg/sg12_181_cif.got.tgz:361058.got - 2010.06.28 00:19:55.
