data_PCOD8088748
_publ_section_title
;
Structure prediction by ZEFSAII (Michael W. Deem and Ramdas Pophale) SiO2 
 PCOD8088748
Probable space group: C 2/M
;
_chemical_formula_sum "Si O2"
_cell_formula_units_Z 56
_cell_length_a 14.845959
_cell_length_b 16.547136
_cell_length_c 11.577929
_cell_angle_alpha 90.000000
_cell_angle_beta 109.833648
_cell_angle_gamma 90.000000
_cell_volume 2675.498179
_symmetry_space_group_name_H-M "C 2/M"
_symmetry_group_IT_number 12
_symmetry_cell_setting 'monoclinic'
loop_
_space_group_symop_operation_xyz
x,y,z
-x,y,-z
-x,-y,-z
x,-y,z
1/2+x,1/2+y,z
1/2-x,1/2+y,-z
1/2-x,1/2-y,-z
1/2+x,1/2-y,z
loop_
_atom_site_type_symbol
_atom_site_label
_atom_site_fract_x
_atom_site_fract_y
_atom_site_fract_z
Si Si1 0.063051 0.838073 0.360990
Si Si2 0.775351 0.905824 0.712685
Si Si3 0.097836 0.408051 0.497982
Si Si4 0.316589 0.905918 0.844318
Si Si5 0.124994 0.094543 0.625356
Si Si6 0.960568 0.337967 0.745979
Si Si7 0.335703 0.906561 0.113882
O O1 0.122477 0.869529 0.276841
O O2 0.120186 0.852630 0.505989
O O3 0.047756 0.744620 0.328193
O O4 0.962055 0.884285 0.326358
O O5 0.691805 0.867161 0.594973
O O6 0.750342 0.885671 0.835039
O O7 0.783325 0.000000 0.692912
O O8 0.098286 0.500000 0.541747
O O9 0.095405 0.403340 0.358384
O O10 0.000000 0.364998 0.500000
O O11 0.221724 0.883196 0.733162
O O12 0.403346 0.847246 0.841497
O O13 0.345052 0.000000 0.842472
O O14 0.297899 0.885620 0.970259
O O15 0.120402 0.000000 0.590191
O O16 0.071737 0.354638 0.813575
O O17 0.365592 0.000000 0.138579
#
# Coordination Sequence:
#
# PCOD8088748 Si02
#       7
#     8   8   8   8   8   8   8
#     4  11  24  37  60  90 121 160 195 244 311 362
#     4  10  20  37  60  86 116 152 201 253 301 351
#     4  10  19  32  54  85 118 153 192 242 301 355
#     4  10  22  41  65  89 116 161 212 251 291 350
#     4  10  22  44  67  87 115 157 212 258 292 347
#     4  12  23  35  57  90 128 156 192 243 305 371
#     4  10  21  40  65  89 119 160 205 251 297 353
#
# _framework density 20.930681
#
# number of rings (size 3 to 8) (size 9 to 14) (size 15 to 20)
#    0.000    1.571    1.429    4.286    2.000    6.857 
#    0.000    5.000    0.000    3.429    0.000    0.000 
#    0.000    0.000    0.000    0.000    0.000    0.000 
#
# Total GULP energy -347144.927633 kJ/mol
# GULP energy per Si atom -12398.033130 kJ/mol
# Density = 2.088304 g / cm^3
# Si number density = 20.930681 Si / 1000 Ang^3
#
#
#
# Elastic Constant Matrix: (Units=GPa)
#
#
# Indices 1 2 3 4 5 6 
#
# 1 134.8888 45.4998 45.9279 0.0000 -23.9852 0.0000
# 2 45.4998 71.0781 48.0289 0.0000 -0.0617 0.0000
# 3 45.9279 48.0289 109.2724 0.0000 -14.3398 0.0000
# 4 0.0000 0.0000 0.0000 17.6440 0.0000 -12.4988
# 5 -23.9852 -0.0617 -14.3398 0.0000 30.9660 0.0000
# 6 0.0000 0.0000 0.0000 -12.4988 0.0000 3.8018
#
#
#
# Elastic Compliance Matrix: (Units=1/GPa)
#
#
# Indices 1 2 3 4 5 6 
#
# 1 0.011494 -0.006894 -0.000675 0.000000 0.008576 0.000000
# 2 -0.006894 0.024699 -0.009213 0.000000 -0.009557 0.000000
# 3 -0.000675 -0.009213 0.014281 0.000000 0.006072 0.000000
# 4 0.000000 0.000000 0.000000 -0.042649 0.000000 -0.140213
# 5 0.008576 -0.009557 0.006072 0.000000 0.041729 0.000000
# 6 0.000000 0.000000 0.000000 -0.140213 0.000000 -0.197932
#
#
# Mechanical properties :
#
#
# Convention : Reuss Voigt Hill
#
# Bulk Modulus (GPa) = 59.13503 66.01696 62.57599
# Shear Modulus (GPa) = -45.79696 22.20120 -11.79788
#
# Velocity S-wave (km/s) = -4.68271 3.26037 -2.37674
# Velocity P-wave (km/s) = 0.96070 6.76629 4.73602
#
# Compressibility (1/GPa) = 0.01691045
#
# Stress axis : x y z
#
# Youngs Moduli (GPa) = 87.00322 40.48775 70.02115
#
# Poissons Ratio (x) = 0.27911 0.04729
# Poissons Ratio (y) = 0.59978 0.64508
# Poissons Ratio (z) = 0.05876 0.37300
#
# Static dielectric constant tensor:
#      x y z
#    x 3.956880 0.000000 -0.128540 
#    y 0.000000 3.518070 0.000000 
#    z -0.128540 0.000000 3.787200 
# 
# 
# High freq. dielectric constant tensor:
#      x y z
#    x 1.829390 0.000000 -0.010930 
#    y 0.000000 1.795910 0.000000 
#    z -0.010930 0.000000 1.814520 
# 
# From -- ./inp_files/145668.got.cif
#   From: 2010.06.25/outbox.cif.g09.slc.cpg/sg12_73_cif.got.tgz:145668.got - 2010.06.28 00:19:55.
