data_PCOD8088893
_publ_section_title
;
Structure prediction by ZEFSAII (Michael W. Deem and Ramdas Pophale) SiO2 
 PCOD8088893
Probable space group: C 2/M
;
_chemical_formula_sum "Si O2"
_cell_formula_units_Z 40
_cell_length_a 20.823392
_cell_length_b 7.713538
_cell_length_c 21.924298
_cell_angle_alpha 90.000000
_cell_angle_beta 143.010098
_cell_angle_gamma 90.000000
_cell_volume 2118.811039
_symmetry_space_group_name_H-M "C 2/M"
_symmetry_group_IT_number 12
_symmetry_cell_setting 'monoclinic'
loop_
_space_group_symop_operation_xyz
x,y,z
-x,y,-z
-x,-y,-z
x,-y,z
1/2+x,1/2+y,z
1/2-x,1/2+y,-z
1/2-x,1/2-y,-z
1/2+x,1/2-y,z
loop_
_atom_site_type_symbol
_atom_site_label
_atom_site_fract_x
_atom_site_fract_y
_atom_site_fract_z
Si Si1 0.598413 0.500000 0.658098
Si Si2 0.163583 0.199499 0.983461
Si Si3 0.837847 0.702677 0.205939
Si Si4 0.734509 0.693999 0.419107
Si Si5 0.356042 0.500000 0.448381
Si Si6 0.494333 0.193994 0.771592
O O1 0.643756 0.324801 0.722470
O O2 0.471100 0.500000 0.567312
O O3 0.637285 0.500000 0.618818
O O4 0.053797 0.298142 0.882951
O O5 0.135077 0.000000 0.956858
O O6 0.250000 0.250000 0.000000
O O7 0.217099 0.241453 0.089689
O O8 0.848810 0.500000 0.232656
O O9 0.924041 0.752058 0.219486
O O10 0.780713 0.500000 0.444445
O O11 0.750000 0.750000 0.500000
O O12 0.795468 0.825765 0.421499
O O13 0.609193 0.685827 0.307920
O O14 0.453856 0.000000 0.729371
#
# Coordination Sequence:
#
# PCOD8088893 Si02
#       6
#     4   8   8   8   4   8
#     4  11  24  40  65  75 119 159 193 239 282 353
#     4   9  17  28  47  83 120 150 189 235 289 339
#     4   9  20  34  56  88 117 153 195 234 285 345
#     4  12  23  39  62  86 119 149 187 241 292 347
#     4  11  26  44  55  93 111 150 203 235 290 348
#     4  10  19  32  55  89 123 149 188 241 295 344
#
# _framework density 18.878512000000001
#
# number of rings (size 3 to 8) (size 9 to 14) (size 15 to 20)
#    0.000    1.800    2.000    3.600    8.400    3.200 
#    0.000    2.000    0.000    2.400    0.000    4.200 
#    0.000    0.000    0.000    0.000    0.000    0.000 
#
# Total GULP energy -247899.423448 kJ/mol
# GULP energy per Si atom -12394.971172 kJ/mol
# Density = 1.883554 g / cm^3
# Si number density = 18.878512 Si / 1000 Ang^3
#
#
#
# Elastic Constant Matrix: (Units=GPa)
#
#
# Indices 1 2 3 4 5 6 
#
# 1 55.1500 38.4820 40.9085 0.0000 -1.6262 0.0000
# 2 38.4820 118.6131 49.3124 -0.0001 -6.7222 -0.0002
# 3 40.9085 49.3124 147.3510 0.0000 -2.9515 0.0000
# 4 0.0000 -0.0001 0.0000 32.2005 0.0000 -3.8008
# 5 -1.6262 -6.7222 -2.9515 0.0000 21.3173 0.0000
# 6 0.0000 -0.0002 0.0000 -3.8008 0.0000 25.9991
#
#
#
# Elastic Compliance Matrix: (Units=1/GPa)
#
#
# Indices 1 2 3 4 5 6 
#
# 1 0.026485 -0.006472 -0.005202 0.000000 -0.000741 0.000000
# 2 -0.006472 0.011525 -0.002003 0.000000 0.002863 0.000000
# 3 -0.005202 -0.002003 0.008905 0.000000 0.000205 0.000000
# 4 0.000000 0.000000 0.000000 0.031601 0.000000 0.004620
# 5 -0.000741 0.002863 0.000205 0.000000 0.047785 0.000000
# 6 0.000000 0.000000 0.000000 0.004620 0.000000 0.039138
#
#
# Mechanical properties :
#
#
# Convention : Reuss Voigt Hill
#
# Bulk Modulus (GPa) = 51.11944 64.27998 57.69971
# Shear Modulus (GPa) = 25.08606 28.73079 26.90842
#
# Velocity S-wave (km/s) = 3.64925 3.90536 3.77947
# Velocity P-wave (km/s) = 6.70022 7.37963 7.04811
#
# Compressibility (1/GPa) = 0.01956203
#
# Stress axis : x y z
#
# Youngs Moduli (GPa) = 37.75712 86.76425 112.29510
#
# Poissons Ratio (x) = 0.56153 0.58415
# Poissons Ratio (y) = 0.24436 0.22492
# Poissons Ratio (z) = 0.19641 0.17379
#
# Static dielectric constant tensor:
#      x y z
#    x 2.966070 0.000000 0.012090 
#    y 0.000000 3.083170 0.000000 
#    z 0.012090 0.000000 3.987880 
# 
# 
# High freq. dielectric constant tensor:
#      x y z
#    x 1.669590 0.000000 0.000410 
#    y 0.000000 1.749270 0.000000 
#    z 0.000410 0.000000 1.759150 
# 
# From -- ./inp_files/314550.got.cif
#   From: 2010.06.25/outbox.cif.g09.slc.cpg/sg12_158_cif.got.tgz:314550.got - 2010.06.28 00:19:55.
