data_PCOD8088285
_publ_section_title
;
Structure prediction by ZEFSAII (Michael W. Deem and Ramdas Pophale) SiO2 
 PCOD8088285
Probable space group: C 2/M
;
_chemical_formula_sum "Si O2"
_cell_formula_units_Z 64
_cell_length_a 17.038473
_cell_length_b 15.108126
_cell_length_c 15.930073
_cell_angle_alpha 90.000000
_cell_angle_beta 126.647101
_cell_angle_gamma 90.000000
_cell_volume 3290.110454
_symmetry_space_group_name_H-M "C 2/M"
_symmetry_group_IT_number 12
_symmetry_cell_setting 'monoclinic'
loop_
_space_group_symop_operation_xyz
x,y,z
-x,y,-z
-x,-y,-z
x,-y,z
1/2+x,1/2+y,z
1/2-x,1/2+y,-z
1/2-x,1/2-y,-z
1/2+x,1/2-y,z
loop_
_atom_site_type_symbol
_atom_site_label
_atom_site_fract_x
_atom_site_fract_y
_atom_site_fract_z
Si Si1 0.353716 0.738856 0.370342
Si Si2 0.432094 0.176000 0.780249
Si Si3 0.283444 0.899394 0.139633
Si Si4 0.481505 0.175223 0.334161
Si Si5 0.830977 0.599637 0.470782
Si Si6 0.177685 0.743567 0.145433
Si Si7 0.121741 0.599635 0.973704
Si Si8 0.237015 0.899571 0.582727
O O1 0.460187 0.751529 0.393910
O O2 0.314743 0.830991 0.385878
O O3 0.281015 0.711880 0.248877
O O4 0.351199 0.662979 0.440000
O O5 0.477520 0.221010 0.724991
O O6 0.402283 0.250649 0.829976
O O7 0.336896 0.118962 0.696679
O O8 0.511483 0.109587 0.869586
O O9 0.381331 0.877484 0.254380
O O10 0.192049 0.837890 0.108875
O O11 0.253320 0.000000 0.138913
O O12 0.301948 0.883825 0.052896
O O13 0.560583 0.107188 0.420799
O O14 0.818352 0.500000 0.427846
O O15 0.751696 0.619094 0.493183
O O16 0.142406 0.669122 0.059196
O O17 0.132830 0.500000 0.015965
O O18 0.205244 0.000000 0.578401
#
# Coordination Sequence:
#
# PCOD8088285 Si02
#       8
#     8   8   8   8   8   8   8   8
#     4  10  20  31  47  73 104 135 164 198 243 296
#     4   9  18  32  51  76 103 129 160 203 252 293
#     4   9  18  33  52  75 103 132 162 199 245 296
#     4   9  18  32  51  76 103 129 160 203 252 293
#     4  10  19  32  53  78 101 126 161 207 254 296
#     4  10  20  31  47  73 104 135 164 198 243 296
#     4  10  19  32  53  78 101 126 161 207 254 296
#     4   9  18  33  52  75 103 132 162 199 245 296
#
# _framework density 19.452235000000002
#
# number of rings (size 3 to 8) (size 9 to 14) (size 15 to 20)
#    0.000    2.500    0.000    2.250    0.000    9.000 
#    0.000    0.000    0.000    3.750    0.000    3.500 
#    0.000    0.000    0.000    0.000    0.000    0.000 
#
# Total GULP energy -396603.336261 kJ/mol
# GULP energy per Si atom -12393.854258 kJ/mol
# Density = 1.940796 g / cm^3
# Si number density = 19.452235 Si / 1000 Ang^3
#
#
#
# Elastic Constant Matrix: (Units=GPa)
#
#
# Indices 1 2 3 4 5 6 
#
# 1 111.4162 69.1175 12.0641 0.0000 -35.7015 0.0000
# 2 69.1175 96.8377 18.5247 0.0000 -19.1271 0.0000
# 3 12.0641 18.5247 51.3595 0.0000 -15.8598 0.0000
# 4 0.0000 0.0000 0.0000 21.1078 0.0000 -2.1929
# 5 -35.7015 -19.1271 -15.8598 0.0000 24.9136 0.0000
# 6 0.0000 0.0000 0.0000 -2.1929 0.0000 25.6530
#
#
#
# Elastic Compliance Matrix: (Units=1/GPa)
#
#
# Indices 1 2 3 4 5 6 
#
# 1 0.029111 -0.015545 0.009915 0.000000 0.036093 0.000000
# 2 -0.015545 0.020620 -0.007190 0.000000 -0.011023 0.000000
# 3 0.009915 -0.007190 0.027903 0.000000 0.026451 0.000000
# 4 0.000000 0.000000 0.000000 0.047800 0.000000 0.004086
# 5 0.036093 -0.011023 0.026451 0.000000 0.100237 0.000000
# 6 0.000000 0.000000 0.000000 0.004086 0.000000 0.039331
#
#
# Mechanical properties :
#
#
# Convention : Reuss Voigt Hill
#
# Bulk Modulus (GPa) = 19.23334 51.00288 35.11811
# Shear Modulus (GPa) = 16.23511 24.99535 20.61523
#
# Velocity S-wave (km/s) = 2.89210 3.58852 3.25897
# Velocity P-wave (km/s) = 4.58926 6.59139 5.67925
#
# Compressibility (1/GPa) = 0.05199305
#
# Stress axis : x y z
#
# Youngs Moduli (GPa) = 34.35128 48.49610 35.83845
#
# Poissons Ratio (x) = 0.75389 -0.35532
# Poissons Ratio (y) = 0.53401 0.25767
# Poissons Ratio (z) = -0.34058 0.34868
#
# Static dielectric constant tensor:
#      x y z
#    x 3.882280 0.000000 -0.378970 
#    y 0.000000 3.393440 0.000000 
#    z -0.378970 0.000000 3.535600 
# 
# 
# High freq. dielectric constant tensor:
#      x y z
#    x 1.757270 0.000000 -0.028160 
#    y 0.000000 1.727960 0.000000 
#    z -0.028160 0.000000 1.753340 
# 
# From -- ./inp_files/225249.got.cif
#   From: 2010.06.25/outbox.cif.g09.slc.cpg/sg12_113_cif.got.tgz:225249.got - 2010.06.28 00:19:55.
