data_PCOD8088853
_publ_section_title
;
Structure prediction by ZEFSAII (Michael W. Deem and Ramdas Pophale) SiO2 
 PCOD8088853
Probable space group: C 2/M
;
_chemical_formula_sum "Si O2"
_cell_formula_units_Z 48
_cell_length_a 19.201866
_cell_length_b 10.471036
_cell_length_c 13.419395
_cell_angle_alpha 90.000000
_cell_angle_beta 65.893503
_cell_angle_gamma 90.000000
_cell_volume 2462.838214
_symmetry_space_group_name_H-M "C 2/M"
_symmetry_group_IT_number 12
_symmetry_cell_setting 'monoclinic'
loop_
_space_group_symop_operation_xyz
x,y,z
-x,y,-z
-x,-y,-z
x,-y,z
1/2+x,1/2+y,z
1/2-x,1/2+y,-z
1/2-x,1/2-y,-z
1/2+x,1/2-y,z
loop_
_atom_site_type_symbol
_atom_site_label
_atom_site_fract_x
_atom_site_fract_y
_atom_site_fract_z
Si Si1 0.090475 0.000000 0.832224
Si Si2 0.579535 0.500000 0.073973
Si Si3 0.837579 0.256238 0.972801
Si Si4 0.693743 0.727178 0.793346
Si Si5 0.641725 0.860705 0.236704
Si Si6 0.233116 0.856168 0.427805
Si Si7 0.919211 0.856669 0.596329
O O1 0.137629 0.125841 0.772585
O O2 0.006744 0.000000 0.830822
O O3 0.079167 0.000000 0.955915
O O4 0.624216 0.623952 0.083997
O O5 0.871196 0.360336 0.876033
O O6 0.750000 0.250000 0.000000
O O7 0.848633 0.288625 0.084133
O O8 0.769548 0.655716 0.786679
O O9 0.714224 0.835088 0.700826
O O10 0.590901 0.748976 0.313025
O O11 0.615085 0.000000 0.291007
O O12 0.250000 0.750000 0.500000
O O13 0.144761 0.841309 0.451116
O O14 0.249754 0.000000 0.457958
O O15 0.000000 0.831799 0.500000
O O16 0.914405 0.000000 0.645726
#
# Coordination Sequence:
#
# PCOD8088853 Si02
#       7
#     4   4   8   8   8   8   8
#     4   9  16  32  58  76 106 144 193 234 266 318
#     4   9  18  32  50  84 110 146 192 227 268 321
#     4   9  19  31  52  81 118 145 180 224 272 332
#     4   9  18  35  55  80 109 148 185 228 279 328
#     4  10  19  32  55  85 115 144 183 225 280 341
#     4  10  22  38  59  85 109 145 194 237 284 342
#     4   9  20  40  60  81 110 146 189 240 285 327
#
# _framework density 19.489709999999999
#
# number of rings (size 3 to 8) (size 9 to 14) (size 15 to 20)
#    0.000    2.667    0.833    0.000    5.833    1.667 
#    6.000    0.000    0.000    0.000    0.000    4.667 
#    0.000    0.000    0.000    0.000    0.000    0.000 
#
# Total GULP energy -297391.742396 kJ/mol
# GULP energy per Si atom -12391.322600 kJ/mol
# Density = 1.944535 g / cm^3
# Si number density = 19.489710 Si / 1000 Ang^3
#
#
#
# Elastic Constant Matrix: (Units=GPa)
#
#
# Indices 1 2 3 4 5 6 
#
# 1 84.0212 47.2823 33.0068 0.0000 -21.0007 0.0000
# 2 47.2823 144.0762 71.9631 0.0000 -3.5387 0.0000
# 3 33.0068 71.9631 101.2130 0.0000 -1.1741 0.0000
# 4 0.0000 0.0000 0.0000 30.7715 0.0000 0.2347
# 5 -21.0007 -3.5387 -1.1741 0.0000 27.4545 0.0000
# 6 0.0000 0.0000 0.0000 0.2347 0.0000 29.1526
#
#
#
# Elastic Compliance Matrix: (Units=1/GPa)
#
#
# Indices 1 2 3 4 5 6 
#
# 1 0.018995 -0.004466 -0.002859 0.000000 0.013832 0.000000
# 2 -0.004466 0.011844 -0.006990 0.000000 -0.002189 0.000000
# 3 -0.002859 -0.006990 0.015754 0.000000 -0.002414 0.000000
# 4 0.000000 0.000000 0.000000 0.032500 0.000000 -0.000262
# 5 0.013832 -0.002189 -0.002414 0.000000 0.046619 0.000000
# 6 0.000000 0.000000 0.000000 -0.000262 0.000000 0.034304
#
#
# Mechanical properties :
#
#
# Convention : Reuss Voigt Hill
#
# Bulk Modulus (GPa) = 55.66728 70.42387 63.04558
# Shear Modulus (GPa) = 25.68908 29.27960 27.48434
#
# Velocity S-wave (km/s) = 3.63448 3.88017 3.75933
# Velocity P-wave (km/s) = 6.79978 7.50244 7.15974
#
# Compressibility (1/GPa) = 0.01796387
#
# Stress axis : x y z
#
# Youngs Moduli (GPa) = 52.64439 84.42963 63.47409
#
# Poissons Ratio (x) = 0.37708 0.18145
# Poissons Ratio (y) = 0.23512 0.44370
# Poissons Ratio (z) = 0.15049 0.59018
#
# Static dielectric constant tensor:
#      x y z
#    x 3.534240 0.000000 -0.086080 
#    y 0.000000 3.585480 0.000000 
#    z -0.086080 0.000000 3.749300 
# 
# 
# High freq. dielectric constant tensor:
#      x y z
#    x 1.734630 0.000000 -0.005290 
#    y 0.000000 1.752310 0.000000 
#    z -0.005290 0.000000 1.755560 
# 
# From -- ./inp_files/229989.got.cif
#   From: 2010.06.25/outbox.cif.g09.slc.cpg/sg12_115_cif.got.tgz:229989.got - 2010.06.28 00:19:55.
