data_PCOD8088567
_publ_section_title
;
Structure prediction by ZEFSAII (Michael W. Deem and Ramdas Pophale) SiO2 
 PCOD8088567
Probable space group: C 2/M
;
_chemical_formula_sum "Si O2"
_cell_formula_units_Z 56
_cell_length_a 10.102724
_cell_length_b 15.855841
_cell_length_c 25.894210
_cell_angle_alpha 90.000000
_cell_angle_beta 46.104945
_cell_angle_gamma 90.000000
_cell_volume 2989.037034
_symmetry_space_group_name_H-M "C 2/M"
_symmetry_group_IT_number 12
_symmetry_cell_setting 'monoclinic'
loop_
_space_group_symop_operation_xyz
x,y,z
-x,y,-z
-x,-y,-z
x,-y,z
1/2+x,1/2+y,z
1/2-x,1/2+y,-z
1/2-x,1/2-y,-z
1/2+x,1/2-y,z
loop_
_atom_site_type_symbol
_atom_site_label
_atom_site_fract_x
_atom_site_fract_y
_atom_site_fract_z
Si Si1 0.207322 0.595026 0.367408
Si Si2 0.733338 0.821354 0.780702
Si Si3 0.522732 0.905989 0.076739
Si Si4 0.040983 0.820891 0.777873
Si Si5 0.704426 0.593854 0.079472
Si Si6 0.036353 0.754329 0.549316
Si Si7 0.482235 0.594360 0.637280
O O1 0.124025 0.500000 0.386665
O O2 0.347243 0.605810 0.281589
O O3 0.317008 0.606403 0.391440
O O4 0.049229 0.665524 0.408530
O O5 0.538512 0.850012 0.858083
O O6 0.687387 0.751099 0.750875
O O7 0.875415 0.787479 0.785972
O O8 0.828355 0.897305 0.723682
O O9 0.351567 0.911548 0.084978
O O10 0.571954 0.000000 0.082661
O O11 0.699943 0.867481 0.998263
O O12 0.965944 0.851822 0.853925
O O13 0.633954 0.500000 0.085614
O O14 0.250000 0.750000 0.500000
O O15 0.951313 0.834045 0.602772
O O16 0.000000 0.772446 0.500000
O O17 0.464642 0.500000 0.618352
#
# Coordination Sequence:
#
# PCOD8088567 Si02
#       7
#     8   8   8   8   8   8   8
#     4  10  21  39  63  86 111 151 193 225 272 337
#     4  10  19  32  54  78 108 144 183 225 273 321
#     4   8  14  26  46  74 104 137 181 229 268 309
#     4  10  19  32  54  79 108 143 182 227 272 321
#     4   8  14  26  46  74 105 136 180 231 267 307
#     4  12  24  40  63  87 117 144 180 231 285 337
#     4  10  21  39  62  86 113 149 191 229 275 332
#
# _framework density 18.735130999999999
#
# number of rings (size 3 to 8) (size 9 to 14) (size 15 to 20)
#    0.000    2.286    2.857    1.714    0.000    5.143 
#    0.000    0.000    0.000    2.571    0.000    2.000 
#    0.000    0.000    0.000    0.000    0.000    0.000 
#
# Total GULP energy -347003.150353 kJ/mol
# GULP energy per Si atom -12392.969655 kJ/mol
# Density = 1.869249 g / cm^3
# Si number density = 18.735131 Si / 1000 Ang^3
#
#
#
# Elastic Constant Matrix: (Units=GPa)
#
#
# Indices 1 2 3 4 5 6 
#
# 1 60.5412 40.3675 35.9631 0.0001 0.0830 0.0002
# 2 40.3675 127.5106 52.4587 0.0000 0.9844 -0.0001
# 3 35.9631 52.4587 113.7647 -0.0015 1.0925 -0.0006
# 4 0.0001 0.0000 -0.0015 30.5907 -0.0002 0.0395
# 5 0.0830 0.9844 1.0925 -0.0002 20.8563 0.0001
# 6 0.0002 -0.0001 -0.0006 0.0395 0.0001 23.4207
#
#
#
# Elastic Compliance Matrix: (Units=1/GPa)
#
#
# Indices 1 2 3 4 5 6 
#
# 1 0.022888 -0.005271 -0.004809 0.000000 0.000410 0.000000
# 2 -0.005271 0.010893 -0.003354 0.000000 -0.000318 0.000000
# 3 -0.004809 -0.003354 0.011861 0.000001 -0.000444 0.000000
# 4 0.000000 0.000000 0.000001 0.032690 0.000000 -0.000055
# 5 0.000410 -0.000318 -0.000444 0.000000 0.047984 0.000000
# 6 0.000000 0.000000 0.000000 -0.000055 0.000000 0.042697
#
#
# Mechanical properties :
#
#
# Convention : Reuss Voigt Hill
#
# Bulk Modulus (GPa) = 53.26072 62.15503 57.70788
# Shear Modulus (GPa) = 24.73546 26.50867 25.62207
#
# Velocity S-wave (km/s) = 3.63750 3.76562 3.70211
# Velocity P-wave (km/s) = 6.79204 7.22179 7.01021
#
# Compressibility (1/GPa) = 0.01877556
#
# Stress axis : x y z
#
# Youngs Moduli (GPa) = 43.69077 91.79904 84.30960
#
# Poissons Ratio (x) = 0.48385 0.40544
# Poissons Ratio (y) = 0.23028 0.28276
# Poissons Ratio (z) = 0.21010 0.30788
#
# Static dielectric constant tensor:
#      x y z
#    x 2.976010 0.000000 0.015970 
#    y 0.000000 3.367460 0.000000 
#    z 0.015970 0.000000 3.740940 
# 
# 
# High freq. dielectric constant tensor:
#      x y z
#    x 1.679530 0.000000 -0.000240 
#    y 0.000000 1.717570 0.000000 
#    z -0.000240 0.000000 1.749670 
# 
# From -- ./inp_files/358186.got.cif
#   From: 2010.06.25/outbox.cif.g09.slc.cpg/sg12_180_cif.got.tgz:358186.got - 2010.06.28 00:19:55.
