data_PCOD8088859
_publ_section_title
;
Structure prediction by ZEFSAII (Michael W. Deem and Ramdas Pophale) SiO2 
 PCOD8088859
Probable space group: C 2/M
;
_chemical_formula_sum "Si O2"
_cell_formula_units_Z 56
_cell_length_a 15.253687
_cell_length_b 23.996752
_cell_length_c 8.566018
_cell_angle_alpha 90.000000
_cell_angle_beta 110.141134
_cell_angle_gamma 90.000000
_cell_volume 2943.752090
_symmetry_space_group_name_H-M "C 2/M"
_symmetry_group_IT_number 12
_symmetry_cell_setting 'monoclinic'
loop_
_space_group_symop_operation_xyz
x,y,z
-x,y,-z
-x,-y,-z
x,-y,z
1/2+x,1/2+y,z
1/2-x,1/2+y,-z
1/2-x,1/2-y,-z
1/2+x,1/2-y,z
loop_
_atom_site_type_symbol
_atom_site_label
_atom_site_fract_x
_atom_site_fract_y
_atom_site_fract_z
Si Si1 0.098320 0.656278 0.477446
Si Si2 0.649189 0.561600 0.293383
Si Si3 0.802039 0.729680 0.682164
Si Si4 0.545912 0.563359 0.690018
Si Si5 0.264387 0.336694 0.814729
Si Si6 0.695027 0.063069 0.365525
Si Si7 0.774149 0.865486 0.166750
O O1 0.106280 0.698073 0.331938
O O2 0.171218 0.670706 0.657892
O O3 0.118008 0.594379 0.423507
O O4 0.000000 0.660173 0.500000
O O5 0.675854 0.500000 0.245209
O O6 0.537897 0.566062 0.237566
O O7 0.680220 0.607226 0.189148
O O8 0.701996 0.569947 0.492247
O O9 0.750000 0.750000 0.500000
O O10 0.827091 0.781463 0.813114
O O11 0.730149 0.687168 0.720481
O O12 0.500000 0.581166 0.500000
O O13 0.587430 0.500000 0.707071
O O14 0.622771 0.608580 0.786337
O O15 0.237835 0.342113 0.979518
O O16 0.704398 0.087899 0.196354
O O17 0.661003 0.000000 0.332574
#
# Coordination Sequence:
#
# PCOD8088859 Si02
#       7
#     8   8   8   8   8   8   8
#     4   9  19  38  61  79  99 140 189 233 279 335
#     4   9  18  34  54  79 113 151 184 220 263 329
#     4   9  20  39  57  76 104 145 189 229 276 338
#     4  10  19  32  55  85 117 151 192 222 258 332
#     4  10  21  37  55  80 113 141 179 235 290 329
#     4   9  17  32  55  81 109 147 185 217 268 332
#     4  11  20  33  56  79 112 147 179 227 282 327
#
# _framework density 19.023340999999999
#
# number of rings (size 3 to 8) (size 9 to 14) (size 15 to 20)
#    0.000    2.429    1.429    1.714    0.000    2.000 
#    5.143    4.286    3.143    0.857    0.000    0.000 
#    0.000    0.000    0.000    0.000    0.000    0.000 
#
# Total GULP energy -346983.572105 kJ/mol
# GULP energy per Si atom -12392.270432 kJ/mol
# Density = 1.898004 g / cm^3
# Si number density = 19.023341 Si / 1000 Ang^3
#
#
#
# Elastic Constant Matrix: (Units=GPa)
#
#
# Indices 1 2 3 4 5 6 
#
# 1 112.4880 61.7882 33.0036 0.0000 -15.9044 0.0000
# 2 61.7882 152.0709 46.3191 0.0000 -19.8284 0.0000
# 3 33.0036 46.3191 81.7669 0.0000 -24.7094 0.0000
# 4 0.0000 0.0000 0.0000 20.9389 0.0000 -7.5408
# 5 -15.9044 -19.8284 -24.7094 0.0000 22.4624 0.0000
# 6 0.0000 0.0000 0.0000 -7.5408 0.0000 23.7230
#
#
#
# Elastic Compliance Matrix: (Units=1/GPa)
#
#
# Indices 1 2 3 4 5 6 
#
# 1 0.011996 -0.003960 -0.001630 0.000000 0.003205 0.000000
# 2 -0.003960 0.009400 -0.003095 0.000000 0.002089 0.000000
# 3 -0.001630 -0.003095 0.020173 0.000000 0.018304 0.000000
# 4 0.000000 0.000000 0.000000 0.053932 0.000000 0.017143
# 5 0.003205 0.002089 0.018304 0.000000 0.068767 0.000000
# 6 0.000000 0.000000 0.000000 0.017143 0.000000 0.047603
#
#
# Mechanical properties :
#
#
# Convention : Reuss Voigt Hill
#
# Bulk Modulus (GPa) = 41.32568 69.83863 55.58216
# Shear Modulus (GPa) = 21.06971 27.10586 24.08778
#
# Velocity S-wave (km/s) = 3.33163 3.77884 3.56226
# Velocity P-wave (km/s) = 6.04736 7.47204 6.79713
#
# Compressibility (1/GPa) = 0.02419803
#
# Stress axis : x y z
#
# Youngs Moduli (GPa) = 83.35833 106.38340 49.57199
#
# Poissons Ratio (x) = 0.42125 0.08083
# Poissons Ratio (y) = 0.33008 0.15344
# Poissons Ratio (z) = 0.13591 0.32929
#
# Static dielectric constant tensor:
#      x y z
#    x 3.319300 0.000000 -0.280130 
#    y 0.000000 3.918240 0.000000 
#    z -0.280130 0.000000 3.299760 
# 
# 
# High freq. dielectric constant tensor:
#      x y z
#    x 1.715610 0.000000 -0.031460 
#    y 0.000000 1.755970 0.000000 
#    z -0.031460 0.000000 1.716250 
# 
# From -- ./inp_files/65417.got.cif
#   From: 2010.06.25/outbox.cif.g09.slc.cpg/sg12_33_cif.got.tgz:65417.got - 2010.06.28 00:19:55.
