data_PCOD8088964
_publ_section_title
;
Structure prediction by ZEFSAII (Michael W. Deem and Ramdas Pophale) SiO2 
 PCOD8088964
Probable space group: C 2/M
;
_chemical_formula_sum "Si O2"
_cell_formula_units_Z 64
_cell_length_a 20.377606
_cell_length_b 9.180874
_cell_length_c 21.381721
_cell_angle_alpha 90.000000
_cell_angle_beta 60.941055
_cell_angle_gamma 90.000000
_cell_volume 3496.641775
_symmetry_space_group_name_H-M "C 2/M"
_symmetry_group_IT_number 12
_symmetry_cell_setting 'monoclinic'
loop_
_space_group_symop_operation_xyz
x,y,z
-x,y,-z
-x,-y,-z
x,-y,z
1/2+x,1/2+y,z
1/2-x,1/2+y,-z
1/2-x,1/2-y,-z
1/2+x,1/2-y,z
loop_
_atom_site_type_symbol
_atom_site_label
_atom_site_fract_x
_atom_site_fract_y
_atom_site_fract_z
Si Si1 0.665683 0.671342 0.918599
Si Si2 0.034820 0.830231 0.549859
Si Si3 0.082060 0.669174 0.067198
Si Si4 0.827818 0.331233 0.456582
Si Si5 0.584378 0.835294 0.706975
Si Si6 0.049209 0.169450 0.286768
Si Si7 0.337444 0.170742 0.843479
Si Si8 0.906866 0.334192 0.157563
O O1 0.655016 0.500000 0.927091
O O2 0.751372 0.718058 0.889755
O O3 0.640965 0.725429 0.862064
O O4 0.614180 0.742301 0.994670
O O5 0.109899 0.738041 0.526747
O O6 0.000000 0.782629 0.500000
O O7 0.972466 0.795791 0.631470
O O8 0.057122 0.000000 0.540278
O O9 0.098955 0.500000 0.047891
O O10 0.120877 0.722622 0.112985
O O11 0.994428 0.702249 0.111621
O O12 0.818652 0.500000 0.478824
O O13 0.750000 0.250000 0.500000
O O14 0.850883 0.310733 0.373742
O O15 0.516345 0.725159 0.728270
O O16 0.619734 0.808576 0.758789
O O17 0.551592 0.000000 0.718038
O O18 0.126592 0.249348 0.233257
O O19 0.060280 0.000000 0.270054
O O20 0.346312 0.000000 0.828196
O O21 0.891504 0.500000 0.143380
#
# Coordination Sequence:
#
# PCOD8088964 Si02
#       8
#     8   8   8   8   8   8   8   8
#     4  11  24  37  52  80 115 143 172 226 282 316
#     4   9  19  37  58  82 115 148 182 227 275 326
#     4  10  20  37  61  79  99 141 188 222 263 328
#     4  10  20  35  58  85 114 148 186 228 274 325
#     4   9  18  36  59  80 106 147 187 221 266 325
#     4  10  19  32  57  87 108 138 183 230 270 314
#     4  10  21  39  57  76 109 148 181 219 272 326
#     4  10  20  37  59  79 104 143 185 220 265 327
#
# _framework density 18.303276
#
# number of rings (size 3 to 8) (size 9 to 14) (size 15 to 20)
#    0.000    2.125    1.250    1.875    0.000    5.250 
#    2.250    0.000    0.000    0.000    0.000    0.000 
#    0.000    0.000    0.000    0.000    0.000    0.000 
#
# Total GULP energy -396905.998509 kJ/mol
# GULP energy per Si atom -12403.312453 kJ/mol
# Density = 1.826162 g / cm^3
# Si number density = 18.303276 Si / 1000 Ang^3
#
#
#
# Elastic Constant Matrix: (Units=GPa)
#
#
# Indices 1 2 3 4 5 6 
#
# 1 89.2639 44.0533 44.2607 0.0001 10.8702 -0.0008
# 2 44.0533 68.5003 44.8489 -0.0001 1.0748 -0.0019
# 3 44.2607 44.8489 99.6420 -0.0001 9.7784 0.0000
# 4 0.0001 -0.0001 -0.0001 29.2104 0.0001 -2.0361
# 5 10.8702 1.0748 9.7784 0.0001 25.8261 -0.0001
# 6 -0.0008 -0.0019 0.0000 -2.0361 -0.0001 32.3068
#
#
#
# Elastic Compliance Matrix: (Units=1/GPa)
#
#
# Indices 1 2 3 4 5 6 
#
# 1 0.018239 -0.009527 -0.003219 0.000000 -0.006061 0.000000
# 2 -0.009527 0.025867 -0.007996 0.000000 0.005961 0.000001
# 3 -0.003219 -0.007996 0.015474 0.000000 -0.004171 -0.000001
# 4 0.000000 0.000000 0.000000 0.034385 0.000000 0.002167
# 5 -0.006061 0.005961 -0.004171 0.000000 0.042603 0.000000
# 6 0.000000 0.000001 -0.000001 0.002167 0.000000 0.031090
#
#
# Mechanical properties :
#
#
# Convention : Reuss Voigt Hill
#
# Bulk Modulus (GPa) = 55.25906 58.19247 56.72577
# Shear Modulus (GPa) = 23.23716 25.75154 24.49435
#
# Velocity S-wave (km/s) = 3.56696 3.75498 3.66218
# Velocity P-wave (km/s) = 6.87172 7.11775 6.99582
#
# Compressibility (1/GPa) = 0.01809658
#
# Stress axis : x y z
#
# Youngs Moduli (GPa) = 54.82906 38.65942 64.62507
#
# Poissons Ratio (x) = 0.36831 0.20800
# Poissons Ratio (y) = 0.52236 0.51673
# Poissons Ratio (z) = 0.17647 0.30911
#
# Static dielectric constant tensor:
#      x y z
#    x 3.299810 0.000000 0.050830 
#    y 0.000000 3.402870 0.000000 
#    z 0.050830 0.000000 3.528240 
# 
# 
# High freq. dielectric constant tensor:
#      x y z
#    x 1.699430 0.000000 0.000690 
#    y 0.000000 1.711380 0.000000 
#    z 0.000690 0.000000 1.719360 
# 
# From -- ./inp_files/319844.got.cif
#   From: 2010.06.25/outbox.cif.g09.slc.cpg/sg12_160_cif.got.tgz:319844.got - 2010.06.28 00:19:55.
