data_PCOD8088270
_publ_section_title
;
Structure prediction by ZEFSAII (Michael W. Deem and Ramdas Pophale) SiO2 
 PCOD8088270
Probable space group: C 2/M
;
_chemical_formula_sum "Si O2"
_cell_formula_units_Z 64
_cell_length_a 22.865315
_cell_length_b 13.809505
_cell_length_c 11.493356
_cell_angle_alpha 90.000000
_cell_angle_beta 91.484494
_cell_angle_gamma 90.000000
_cell_volume 3627.908906
_symmetry_space_group_name_H-M "C 2/M"
_symmetry_group_IT_number 12
_symmetry_cell_setting 'monoclinic'
loop_
_space_group_symop_operation_xyz
x,y,z
-x,y,-z
-x,-y,-z
x,-y,z
1/2+x,1/2+y,z
1/2-x,1/2+y,-z
1/2-x,1/2-y,-z
1/2+x,1/2-y,z
loop_
_atom_site_type_symbol
_atom_site_label
_atom_site_fract_x
_atom_site_fract_y
_atom_site_fract_z
Si Si1 0.272717 0.889539 0.331033
Si Si2 0.331157 0.610032 0.517539
Si Si3 0.296897 0.384581 0.065745
Si Si4 0.516995 0.264662 0.626876
Si Si5 0.619286 0.612836 0.720228
Si Si6 0.795453 0.241421 0.848167
Si Si7 0.893892 0.611590 0.449536
Si Si8 0.890521 0.266237 0.667972
O O1 0.236171 0.874579 0.448781
O O2 0.251009 0.815348 0.233269
O O3 0.339708 0.867028 0.361734
O O4 0.264712 0.000000 0.285663
O O5 0.351043 0.500000 0.530983
O O6 0.339004 0.645551 0.385175
O O7 0.374106 0.666171 0.605092
O O8 0.288053 0.500000 0.050608
O O9 0.347731 0.359600 0.160099
O O10 0.235333 0.337014 0.101490
O O11 0.317045 0.333778 0.947525
O O12 0.500000 0.311843 0.500000
O O13 0.556911 0.334695 0.706607
O O14 0.550395 0.165128 0.600651
O O15 0.459626 0.239823 0.700353
O O16 0.605944 0.500000 0.715550
O O17 0.852544 0.279050 0.782409
O O18 0.909758 0.500000 0.456106
O O19 0.877819 0.645923 0.578900
#
# Coordination Sequence:
#
# PCOD8088270 Si02
#       8
#     8   8   8   8   8   8   8   8
#     4   9  18  31  52  80 107 135 169 207 259 319
#     4   9  17  29  48  77 105 132 160 206 264 315
#     4  10  22  38  55  78 104 134 174 217 264 310
#     4  10  19  34  49  74 108 143 176 209 247 308
#     4  10  19  32  53  77 106 137 169 214 263 310
#     4  10  21  36  57  76 103 140 172 214 261 305
#     4  10  20  32  49  77 111 144 172 208 256 304
#     4  10  21  33  51  76 105 138 175 212 250 305
#
# _framework density 17.641016
#
# number of rings (size 3 to 8) (size 9 to 14) (size 15 to 20)
#    0.000    2.250    2.500    1.125    1.750    5.000 
#    0.000    0.625    0.000    1.500    0.000    0.000 
#    0.000   12.000    0.000    0.000    0.000    0.000 
#
# Total GULP energy -396757.786347 kJ/mol
# GULP energy per Si atom -12398.680823 kJ/mol
# Density = 1.760086 g / cm^3
# Si number density = 17.641016 Si / 1000 Ang^3
#
#
#
# Elastic Constant Matrix: (Units=GPa)
#
#
# Indices 1 2 3 4 5 6 
#
# 1 104.7851 35.3859 43.8858 0.0000 -4.7248 0.0000
# 2 35.3859 66.8456 30.3384 0.0000 0.5242 0.0000
# 3 43.8858 30.3384 82.7459 0.0000 -3.1517 0.0000
# 4 0.0000 0.0000 0.0000 27.2800 0.0000 3.7662
# 5 -4.7248 0.5242 -3.1517 0.0000 23.2570 0.0000
# 6 0.0000 0.0000 0.0000 3.7662 0.0000 22.4334
#
#
#
# Elastic Compliance Matrix: (Units=1/GPa)
#
#
# Indices 1 2 3 4 5 6 
#
# 1 0.013467 -0.004727 -0.005328 0.000000 0.002120 0.000000
# 2 -0.004727 0.019645 -0.004774 0.000000 -0.002050 0.000000
# 3 -0.005328 -0.004774 0.016711 0.000000 0.001290 0.000000
# 4 0.000000 0.000000 0.000000 0.037527 0.000000 -0.006300
# 5 0.002120 -0.002050 0.001290 0.000000 0.043650 0.000000
# 6 0.000000 0.000000 0.000000 -0.006300 0.000000 0.045634
#
#
# Mechanical properties :
#
#
# Convention : Reuss Voigt Hill
#
# Bulk Modulus (GPa) = 49.59379 52.62187 51.10783
# Shear Modulus (GPa) = 23.47278 24.24519 23.85899
#
# Velocity S-wave (km/s) = 3.65167 3.71126 3.68159
# Velocity P-wave (km/s) = 6.77889 6.94685 6.86338
#
# Compressibility (1/GPa) = 0.02016381
#
# Stress axis : x y z
#
# Youngs Moduli (GPa) = 74.25556 50.90377 59.84229
#
# Poissons Ratio (x) = 0.24064 0.31887
# Poissons Ratio (y) = 0.35102 0.28566
# Poissons Ratio (z) = 0.39567 0.24299
#
# Static dielectric constant tensor:
#      x y z
#    x 3.371080 0.000000 -0.038160 
#    y 0.000000 3.338690 0.000000 
#    z -0.038160 0.000000 3.203520 
# 
# 
# High freq. dielectric constant tensor:
#      x y z
#    x 1.678200 0.000000 0.004980 
#    y 0.000000 1.690400 0.000000 
#    z 0.004980 0.000000 1.660570 
# 
# From -- ./inp_files/167271.got.cif
#   From: 2010.06.25/outbox.cif.g09.slc.cpg/sg12_84_cif.got.tgz:167271.got - 2010.06.28 00:19:55.
