data_PCOD8088452
_publ_section_title
;
Structure prediction by ZEFSAII (Michael W. Deem and Ramdas Pophale) SiO2 
 PCOD8088452
Probable space group: C 2/M
;
_chemical_formula_sum "Si O2"
_cell_formula_units_Z 48
_cell_length_a 24.897746
_cell_length_b 8.547021
_cell_length_c 11.786157
_cell_angle_alpha 90.000000
_cell_angle_beta 69.873381
_cell_angle_gamma 90.000000
_cell_volume 2354.953399
_symmetry_space_group_name_H-M "C 2/M"
_symmetry_group_IT_number 12
_symmetry_cell_setting 'monoclinic'
loop_
_space_group_symop_operation_xyz
x,y,z
-x,y,-z
-x,-y,-z
x,-y,z
1/2+x,1/2+y,z
1/2-x,1/2+y,-z
1/2-x,1/2-y,-z
1/2+x,1/2-y,z
loop_
_atom_site_type_symbol
_atom_site_label
_atom_site_fract_x
_atom_site_fract_y
_atom_site_fract_z
Si Si1 0.763994 0.815517 0.365674
Si Si2 0.107628 0.185830 0.108457
Si Si3 0.873062 0.185931 0.153006
Si Si4 0.444954 0.685241 0.478248
Si Si5 0.520690 0.314679 0.790685
Si Si6 0.661615 0.313854 0.302402
O O1 0.750000 0.750000 0.500000
O O2 0.824576 0.749130 0.273964
O O3 0.719081 0.767542 0.302007
O O4 0.766158 0.000000 0.376372
O O5 0.145498 0.244765 0.187088
O O6 0.043103 0.257600 0.157685
O O7 0.102778 0.000000 0.120012
O O8 0.137815 0.240011 0.969200
O O9 0.936875 0.245221 0.140914
O O10 0.871786 0.000000 0.160899
O O11 0.500000 0.758548 0.500000
O O12 0.446162 0.500000 0.491597
O O13 0.446971 0.737667 0.346974
O O14 0.387501 0.748362 0.577492
O O15 0.514261 0.500000 0.800916
O O16 0.669135 0.500000 0.302198
#
# Coordination Sequence:
#
# PCOD8088452 Si02
#       6
#     8   8   8   8   8   8
#     4  11  23  39  56  75 102 137 176 218 260 307
#     4   9  16  27  46  76 109 136 166 209 261 312
#     4   9  18  30  46  72 105 138 173 214 259 303
#     4   9  14  23  42  73 106 132 166 212 257 296
#     4   9  14  23  42  70 105 137 165 210 264 305
#     4  10  19  32  53  81 110 138 170 211 257 308
#
# _framework density 20.382569
#
# number of rings (size 3 to 8) (size 9 to 14) (size 15 to 20)
#    0.000    2.500    1.667    2.000    0.000    5.333 
#    0.000    0.000    0.000    1.500    0.000    0.000 
#    0.000    8.667    0.000    0.000    0.000    0.000 
#
# Total GULP energy -297417.763318 kJ/mol
# GULP energy per Si atom -12392.406805 kJ/mol
# Density = 2.033618 g / cm^3
# Si number density = 20.382569 Si / 1000 Ang^3
#
#
#
# Elastic Constant Matrix: (Units=GPa)
#
#
# Indices 1 2 3 4 5 6 
#
# 1 139.3984 13.8991 66.2491 0.0000 10.1422 0.0000
# 2 13.8991 18.6074 14.4243 0.0000 -0.9743 0.0000
# 3 66.2491 14.4243 148.6208 0.0000 10.5276 0.0000
# 4 0.0000 0.0000 0.0000 13.2422 0.0000 1.2329
# 5 10.1422 -0.9743 10.5276 0.0000 37.2893 0.0000
# 6 0.0000 0.0000 0.0000 1.2329 0.0000 19.4980
#
#
#
# Elastic Compliance Matrix: (Units=1/GPa)
#
#
# Indices 1 2 3 4 5 6 
#
# 1 0.009476 -0.004305 -0.003690 0.000000 -0.001648 0.000000
# 2 -0.004305 0.060440 -0.004227 0.000000 0.003943 0.000000
# 3 -0.003690 -0.004227 0.008898 0.000000 -0.001619 0.000000
# 4 0.000000 0.000000 0.000000 0.075963 0.000000 -0.004803
# 5 -0.001648 0.003943 -0.001619 0.000000 0.027826 0.000000
# 6 0.000000 0.000000 0.000000 -0.004803 0.000000 0.051591
#
#
# Mechanical properties :
#
#
# Convention : Reuss Voigt Hill
#
# Bulk Modulus (GPa) = 18.39138 55.08573 36.73856
# Shear Modulus (GPa) = 18.06615 28.14285 23.10450
#
# Velocity S-wave (km/s) = 2.98040 3.71985 3.37046
# Velocity P-wave (km/s) = 4.57016 6.74791 5.76284
#
# Compressibility (1/GPa) = 0.05437329
#
# Stress axis : x y z
#
# Youngs Moduli (GPa) = 105.52652 16.54523 112.38360
#
# Poissons Ratio (x) = 0.07122 0.41465
# Poissons Ratio (y) = 0.45425 0.47499
# Poissons Ratio (z) = 0.38935 0.06993
#
# Static dielectric constant tensor:
#      x y z
#    x 3.919650 0.000000 0.016450 
#    y 0.000000 2.907090 0.000000 
#    z 0.016450 0.000000 4.008330 
# 
# 
# High freq. dielectric constant tensor:
#      x y z
#    x 1.807530 0.000000 0.005620 
#    y 0.000000 1.712270 0.000000 
#    z 0.005620 0.000000 1.813360 
# 
# From -- ./inp_files/164283.got.cif
#   From: 2010.06.25/outbox.cif.g09.slc.cpg/sg12_83_cif.got.tgz:164283.got - 2010.06.28 00:19:55.
