data_PCOD8088494
_publ_section_title
;
Structure prediction by ZEFSAII (Michael W. Deem and Ramdas Pophale) SiO2 
 PCOD8088494
Probable space group: C 2/M
;
_chemical_formula_sum "Si O2"
_cell_formula_units_Z 64
_cell_length_a 20.179514
_cell_length_b 8.598328
_cell_length_c 19.159489
_cell_angle_alpha 90.000000
_cell_angle_beta 92.997467
_cell_angle_gamma 90.000000
_cell_volume 3319.816236
_symmetry_space_group_name_H-M "C 2/M"
_symmetry_group_IT_number 12
_symmetry_cell_setting 'monoclinic'
loop_
_space_group_symop_operation_xyz
x,y,z
-x,y,-z
-x,-y,-z
x,-y,z
1/2+x,1/2+y,z
1/2-x,1/2+y,-z
1/2-x,1/2-y,-z
1/2+x,1/2-y,z
loop_
_atom_site_type_symbol
_atom_site_label
_atom_site_fract_x
_atom_site_fract_y
_atom_site_fract_z
Si Si1 0.433453 0.815355 0.911098
Si Si2 0.977548 0.315483 0.296084
Si Si3 0.385464 0.815306 0.761385
Si Si4 0.298573 0.683265 0.444679
Si Si5 0.358344 0.184909 0.196552
Si Si6 0.250189 0.683526 0.703849
Si Si7 0.940411 0.683971 0.446568
Si Si8 0.917853 0.684958 0.061776
O O1 0.391830 0.755904 0.842084
O O2 0.509093 0.753113 0.912689
O O3 0.435775 0.000000 0.907929
O O4 0.399559 0.757723 0.982146
O O5 0.976330 0.500000 0.295061
O O6 0.922299 0.248911 0.240669
O O7 0.960664 0.252969 0.371745
O O8 0.049707 0.258042 0.276441
O O9 0.325400 0.731211 0.720066
O O10 0.375575 0.000000 0.756636
O O11 0.293183 0.500000 0.446019
O O12 0.250000 0.750000 0.500000
O O13 0.278572 0.741745 0.367296
O O14 0.372973 0.735099 0.467849
O O15 0.292017 0.244541 0.231420
O O16 0.364027 0.244576 0.116201
O O17 0.359597 0.000000 0.198031
O O18 0.243653 0.500000 0.694885
O O19 0.928586 0.500000 0.446590
O O20 0.000000 0.733878 0.500000
O O21 0.919964 0.500000 0.062014
#
# Coordination Sequence:
#
# PCOD8088494 Si02
#       8
#     8   8   8   8   8   8   8   8
#     4   8  13  22  41  74 111 137 174 235 287 323
#     4   9  16  30  53  79 107 142 184 228 274 327
#     4  10  19  32  53  82 113 147 186 234 284 332
#     4  12  26  44  64  86 115 151 189 231 282 339
#     4   9  15  28  51  75 102 140 187 229 273 328
#     4  11  23  39  57  79 111 150 188 230 278 340
#     4  10  21  38  61  89 119 150 186 228 278 339
#     4   8  12  21  42  74 106 138 179 231 283 328
#
# _framework density 19.278175999999998
#
# number of rings (size 3 to 8) (size 9 to 14) (size 15 to 20)
#    0.000    2.375    2.500    2.250    1.750    0.250 
#    0.000    1.250    0.000    0.000    0.000    2.625 
#    0.000    0.000    0.000    0.000    0.000    0.000 
#
# Total GULP energy -396612.361199 kJ/mol
# GULP energy per Si atom -12394.136287 kJ/mol
# Density = 1.923430 g / cm^3
# Si number density = 19.278176 Si / 1000 Ang^3
#
#
#
# Elastic Constant Matrix: (Units=GPa)
#
#
# Indices 1 2 3 4 5 6 
#
# 1 129.3044 30.1403 53.6034 0.0000 -13.2730 0.0000
# 2 30.1403 47.2191 27.9692 0.0000 -2.8399 0.0000
# 3 53.6034 27.9692 121.5851 0.0000 -23.1604 0.0000
# 4 0.0000 0.0000 0.0000 11.8828 0.0000 -2.0266
# 5 -13.2730 -2.8399 -23.1604 0.0000 37.5881 0.0000
# 6 0.0000 0.0000 0.0000 -2.0266 0.0000 19.4221
#
#
#
# Elastic Compliance Matrix: (Units=1/GPa)
#
#
# Indices 1 2 3 4 5 6 
#
# 1 0.010270 -0.004563 -0.003232 0.000000 0.001290 0.000000
# 2 -0.004563 0.026659 -0.004582 0.000000 -0.002420 0.000000
# 3 -0.003232 -0.004582 0.011806 0.000000 0.005787 0.000000
# 4 0.000000 0.000000 0.000000 0.085680 0.000000 0.008940
# 5 0.001290 -0.002420 0.005787 0.000000 0.030443 0.000000
# 6 0.000000 0.000000 0.000000 0.008940 0.000000 0.052421
#
#
# Mechanical properties :
#
#
# Convention : Reuss Voigt Hill
#
# Bulk Modulus (GPa) = 41.70087 57.94827 49.82457
# Shear Modulus (GPa) = 19.99797 26.20499 23.10148
#
# Velocity S-wave (km/s) = 3.22427 3.69088 3.46544
# Velocity P-wave (km/s) = 5.96148 6.94894 6.47406
#
# Compressibility (1/GPa) = 0.02398031
#
# Stress axis : x y z
#
# Youngs Moduli (GPa) = 97.37423 37.51089 84.70268
#
# Poissons Ratio (x) = 0.17117 0.27377
# Poissons Ratio (y) = 0.44433 0.38810
# Poissons Ratio (z) = 0.31473 0.17187
#
# Static dielectric constant tensor:
#      x y z
#    x 3.567640 0.000000 -0.204940 
#    y 0.000000 2.985200 0.000000 
#    z -0.204940 0.000000 4.028670 
# 
# 
# High freq. dielectric constant tensor:
#      x y z
#    x 1.743690 0.000000 -0.010880 
#    y 0.000000 1.695320 0.000000 
#    z -0.010880 0.000000 1.770070 
# 
# From -- ./inp_files/314151.got.cif
#   From: 2010.06.25/outbox.cif.g09.slc.cpg/sg12_158_cif.got.tgz:314151.got - 2010.06.28 00:19:55.
