data_PCOD8088883
_publ_section_title
;
Structure prediction by ZEFSAII (Michael W. Deem and Ramdas Pophale) SiO2 
 PCOD8088883
Probable space group: C 2/M
;
_chemical_formula_sum "Si O2"
_cell_formula_units_Z 56
_cell_length_a 23.474780
_cell_length_b 14.404578
_cell_length_c 6.959484
_cell_angle_alpha 90.000000
_cell_angle_beta 109.168049
_cell_angle_gamma 90.000000
_cell_volume 2222.841441
_symmetry_space_group_name_H-M "C 2/M"
_symmetry_group_IT_number 12
_symmetry_cell_setting 'monoclinic'
loop_
_space_group_symop_operation_xyz
x,y,z
-x,y,-z
-x,-y,-z
x,-y,z
1/2+x,1/2+y,z
1/2-x,1/2+y,-z
1/2-x,1/2-y,-z
1/2+x,1/2-y,z
loop_
_atom_site_type_symbol
_atom_site_label
_atom_site_fract_x
_atom_site_fract_y
_atom_site_fract_z
Si Si1 0.188037 0.723637 0.030738
Si Si2 0.489621 0.298482 0.716872
Si Si3 0.123804 0.101774 0.500681
Si Si4 0.651212 0.101463 0.654046
Si Si5 0.391417 0.390633 0.074057
Si Si6 0.257438 0.144781 0.553364
Si Si7 0.469657 0.899903 0.669501
O O1 0.147443 0.675567 0.821313
O O2 0.154558 0.816882 0.079050
O O3 0.250000 0.750000 0.000000
O O4 0.201115 0.645120 0.207965
O O5 0.500000 0.304779 0.500000
O O6 0.421147 0.335140 0.679000
O O7 0.538899 0.360319 0.885807
O O8 0.496828 0.191816 0.803140
O O9 0.124070 0.129120 0.722373
O O10 0.192454 0.099296 0.507524
O O11 0.095883 0.000000 0.445600
O O12 0.712509 0.097618 0.598165
O O13 0.599999 0.125660 0.443069
O O14 0.641043 0.000000 0.735110
O O15 0.381387 0.500000 0.003669
O O16 0.250000 0.250000 0.500000
O O17 0.500000 0.913877 0.500000
O O18 0.476554 0.000000 0.789324
#
# Coordination Sequence:
#
# PCOD8088883 Si02
#       7
#     8   8   8   8   8   8   8
#     4  12  23  41  65  92 131 175 217 268 328 393
#     4   9  16  30  55  85 124 163 210 265 324 381
#     4  10  19  32  55  87 122 165 214 264 320 388
#     4  11  24  41  64  96 128 169 220 272 334 399
#     4  10  20  36  59  92 128 168 216 269 324 390
#     4  12  23  40  61  90 130 172 218 271 331 392
#     4   9  17  32  59  90 122 161 213 270 328 393
#
# _framework density 25.192979999999999
#
# number of rings (size 3 to 8) (size 9 to 14) (size 15 to 20)
#    0.000    1.571    2.857    4.286    0.000    3.429 
#    0.000    0.000    0.000    8.571    0.000   15.000 
#    0.000    0.000    0.000    0.000    0.000    0.000 
#
# Total GULP energy -346888.226535 kJ/mol
# GULP energy per Si atom -12388.865233 kJ/mol
# Density = 2.513564 g / cm^3
# Si number density = 25.192980 Si / 1000 Ang^3
#
#
#
# Elastic Constant Matrix: (Units=GPa)
#
#
# Indices 1 2 3 4 5 6 
#
# 1 102.2160 14.9856 11.5218 0.0000 29.1427 0.0000
# 2 14.9856 158.8413 13.4025 0.0000 19.1151 0.0000
# 3 11.5218 13.4025 62.4904 0.0000 3.3409 0.0000
# 4 0.0000 0.0000 0.0000 12.5651 0.0000 17.7201
# 5 29.1427 19.1151 3.3409 0.0000 24.6946 0.0000
# 6 0.0000 0.0000 0.0000 17.7201 0.0000 33.6061
#
#
#
# Elastic Compliance Matrix: (Units=1/GPa)
#
#
# Indices 1 2 3 4 5 6 
#
# 1 0.015073 0.000943 -0.002006 0.000000 -0.018247 0.000000
# 2 0.000943 0.007093 -0.001352 0.000000 -0.006421 0.000000
# 3 -0.002006 -0.001352 0.016600 0.000000 0.001168 0.000000
# 4 0.000000 0.000000 0.000000 0.310410 0.000000 -0.163675
# 5 -0.018247 -0.006421 0.001168 0.000000 0.066841 0.000000
# 6 0.000000 0.000000 0.000000 -0.163675 0.000000 0.116060
#
#
# Mechanical properties :
#
#
# Convention : Reuss Voigt Hill
#
# Bulk Modulus (GPa) = 29.46628 44.81858 37.14243
# Shear Modulus (GPa) = 9.12044 33.08235 21.10140
#
# Velocity S-wave (km/s) = 1.90475 3.62768 2.89726
# Velocity P-wave (km/s) = 4.06928 5.94773 5.09581
#
# Compressibility (1/GPa) = 0.03393710
#
# Stress axis : x y z
#
# Youngs Moduli (GPa) = 66.34167 140.97686 60.24160
#
# Poissons Ratio (x) = -0.13295 0.12084
# Poissons Ratio (y) = -0.06256 0.08144
# Poissons Ratio (z) = 0.13307 0.19059
#
# Static dielectric constant tensor:
#      x y z
#    x 4.385920 0.000000 0.414680 
#    y 0.000000 4.327790 0.000000 
#    z 0.414680 0.000000 3.761560 
# 
# 
# High freq. dielectric constant tensor:
#      x y z
#    x 2.009830 0.000000 0.010500 
#    y 0.000000 2.016570 0.000000 
#    z 0.010500 0.000000 1.978420 
# 
# From -- ./inp_files/96995.got.cif
#   From: 2010.06.25/outbox.cif.g09.slc.cpg/sg12_49_cif.got.tgz:96995.got - 2010.06.28 00:19:55.
