data_PCOD8088419
_publ_section_title
;
Structure prediction by ZEFSAII (Michael W. Deem and Ramdas Pophale) SiO2 
 PCOD8088419
Probable space group: C 2/M
;
_chemical_formula_sum "Si O2"
_cell_formula_units_Z 48
_cell_length_a 23.247747
_cell_length_b 8.460170
_cell_length_c 23.252363
_cell_angle_alpha 90.000000
_cell_angle_beta 30.847699
_cell_angle_gamma 90.000000
_cell_volume 2344.980899
_symmetry_space_group_name_H-M "C 2/M"
_symmetry_group_IT_number 12
_symmetry_cell_setting 'monoclinic'
loop_
_space_group_symop_operation_xyz
x,y,z
-x,y,-z
-x,-y,-z
x,-y,z
1/2+x,1/2+y,z
1/2-x,1/2+y,-z
1/2-x,1/2-y,-z
1/2+x,1/2-y,z
loop_
_atom_site_type_symbol
_atom_site_label
_atom_site_fract_x
_atom_site_fract_y
_atom_site_fract_z
Si Si1 0.070035 0.315691 0.055715
Si Si2 0.173759 0.182614 0.614462
Si Si3 0.805789 0.186801 0.818349
Si Si4 0.940828 0.316859 0.805517
Si Si5 0.675479 0.814395 0.736120
Si Si6 0.884793 0.812071 0.626845
O O1 0.050218 0.500000 0.066982
O O2 0.104288 0.273901 0.092070
O O3 0.948523 0.239843 0.142477
O O4 0.173535 0.264226 0.925862
O O5 0.250000 0.250000 0.500000
O O6 0.201586 0.281342 0.647478
O O7 0.047312 0.207279 0.701610
O O8 0.198409 0.000000 0.604877
O O9 0.849451 0.279822 0.835966
O O10 0.874026 0.238477 0.702911
O O11 0.815908 0.000000 0.820607
O O12 0.976031 0.500000 0.772150
O O13 0.775849 0.739642 0.687954
O O14 0.674929 0.000000 0.747779
O O15 0.000000 0.743684 0.500000
O O16 0.885331 0.000000 0.620768
#
# Coordination Sequence:
#
# PCOD8088419 Si02
#       6
#     8   8   8   8   8   8
#     4   8  16  31  52  79 108 141 183 232 277 324
#     4  11  22  36  56  82 109 142 182 223 272 327
#     4  10  19  32  53  80 109 147 191 226 272 329
#     4  10  20  35  53  80 114 143 178 226 281 328
#     4   9  18  35  55  76 109 145 181 229 276 321
#     4   9  19  33  51  78 109 144 186 232 275 321
#
# _framework density 20.469249000000001
#
# number of rings (size 3 to 8) (size 9 to 14) (size 15 to 20)
#    0.000    2.500    0.000    3.500    2.333    0.667 
#    0.000    7.500    0.000    1.000    0.000    5.833 
#    0.000    0.000    0.000    0.000    0.000    0.000 
#
# Total GULP energy -297427.822506 kJ/mol
# GULP energy per Si atom -12392.825938 kJ/mol
# Density = 2.042266 g / cm^3
# Si number density = 20.469249 Si / 1000 Ang^3
#
#
#
# Elastic Constant Matrix: (Units=GPa)
#
#
# Indices 1 2 3 4 5 6 
#
# 1 105.0066 5.9228 51.6365 0.0005 -20.7835 0.0000
# 2 5.9228 23.5159 14.5366 -0.0006 -2.8641 -0.0010
# 3 51.6365 14.5366 148.3593 0.0015 1.3735 -0.0005
# 4 0.0005 -0.0006 0.0015 16.2670 -0.0002 -0.5138
# 5 -20.7835 -2.8641 1.3735 -0.0002 24.6963 0.0003
# 6 0.0000 -0.0010 -0.0005 -0.5138 0.0003 21.8709
#
#
#
# Elastic Compliance Matrix: (Units=1/GPa)
#
#
# Indices 1 2 3 4 5 6 
#
# 1 0.014581 0.001154 -0.005305 0.000000 0.012699 0.000000
# 2 0.001154 0.046116 -0.004981 0.000002 0.006597 0.000002
# 3 -0.005305 -0.004981 0.009126 -0.000001 -0.005550 0.000000
# 4 0.000000 0.000002 -0.000001 0.061520 0.000001 0.001445
# 5 0.012699 0.006597 -0.005550 0.000001 0.052253 -0.000001
# 6 0.000000 0.000002 0.000000 0.001445 -0.000001 0.045757
#
#
# Mechanical properties :
#
#
# Convention : Reuss Voigt Hill
#
# Bulk Modulus (GPa) = 19.39566 46.78595 33.09081
# Shear Modulus (GPa) = 18.88188 26.21925 22.55056
#
# Velocity S-wave (km/s) = 3.04048 3.58286 3.32276
# Velocity P-wave (km/s) = 4.67142 6.32631 5.56077
#
# Compressibility (1/GPa) = 0.05155793
#
# Stress axis : x y z
#
# Youngs Moduli (GPa) = 68.58447 21.68428 109.57221
#
# Poissons Ratio (x) = -0.02502 0.58133
# Poissons Ratio (y) = -0.07915 0.54582
# Poissons Ratio (z) = 0.36387 0.10802
#
# Static dielectric constant tensor:
#      x y z
#    x 3.726620 0.000000 -0.233510 
#    y 0.000000 3.292220 0.000000 
#    z -0.233510 0.000000 4.128350 
# 
# 
# High freq. dielectric constant tensor:
#      x y z
#    x 1.795620 0.000000 -0.008030 
#    y 0.000000 1.753840 0.000000 
#    z -0.008030 0.000000 1.813950 
# 
# From -- ./inp_files/180245.got.cif
#   From: 2010.06.25/outbox.cif.g09.slc.cpg/sg12_91_cif.got.tgz:180245.got - 2010.06.28 00:19:55.
