data_PCOD8088239
_publ_section_title
;
Structure prediction by ZEFSAII (Michael W. Deem and Ramdas Pophale) SiO2 
 PCOD8088239
Probable space group: C 2/M
;
_chemical_formula_sum "Si O2"
_cell_formula_units_Z 64
_cell_length_a 20.795776
_cell_length_b 24.404276
_cell_length_c 9.132914
_cell_angle_alpha 90.000000
_cell_angle_beta 46.800154
_cell_angle_gamma 90.000000
_cell_volume 3378.783472
_symmetry_space_group_name_H-M "C 2/M"
_symmetry_group_IT_number 12
_symmetry_cell_setting 'monoclinic'
loop_
_space_group_symop_operation_xyz
x,y,z
-x,y,-z
-x,-y,-z
x,-y,z
1/2+x,1/2+y,z
1/2-x,1/2+y,-z
1/2-x,1/2-y,-z
1/2+x,1/2-y,z
loop_
_atom_site_type_symbol
_atom_site_label
_atom_site_fract_x
_atom_site_fract_y
_atom_site_fract_z
Si Si1 0.456297 0.187229 0.914837
Si Si2 0.249041 0.062681 0.127325
Si Si3 0.649576 0.277899 0.427315
Si Si4 0.294911 0.141996 0.285695
Si Si5 0.129448 0.343334 0.512589
Si Si6 0.092191 0.861693 0.284093
Si Si7 0.020348 0.806850 0.128417
Si Si8 0.394949 0.061825 0.661556
O O1 0.523933 0.168019 0.683758
O O2 0.424616 0.250490 0.962712
O O3 0.500000 0.174137 0.000000
O O4 0.368813 0.151315 0.045220
O O5 0.252380 0.085953 0.289566
O O6 0.168376 0.092977 0.170678
O O7 0.221252 0.000000 0.184125
O O8 0.343095 0.068609 0.896404
O O9 0.731036 0.306468 0.378351
O O10 0.670824 0.212817 0.381601
O O11 0.625240 0.304996 0.308680
O O12 0.570967 0.287784 0.660891
O O13 0.329643 0.138365 0.396198
O O14 0.149522 0.394068 0.376385
O O15 0.073561 0.850710 0.141642
O O16 0.000000 0.882122 0.500000
O O17 0.000000 0.832175 0.000000
O O18 0.500000 0.072701 0.500000
O O19 0.378935 0.000000 0.627066
#
# Coordination Sequence:
#
# PCOD8088239 Si02
#       8
#     8   8   8   8   8   8   8   8
#     4   8  16  29  46  72 102 131 160 198 245 295
#     4  10  22  38  54  73  99 134 174 216 258 301
#     4   9  19  32  48  77 109 133 158 201 254 305
#     4  10  19  33  52  74 102 131 169 209 247 299
#     4  10  19  32  53  76 101 134 169 206 249 299
#     4   9  19  35  54  77 104 133 167 206 254 311
#     4   9  17  31  51  74 105 136 164 201 249 304
#     4  10  22  38  52  71 102 136 171 213 257 296
#
# _framework density 18.941728999999999
#
# number of rings (size 3 to 8) (size 9 to 14) (size 15 to 20)
#    0.000    2.625    0.000    1.875    0.000    6.250 
#    0.000    2.500    0.000    4.875    0.000    0.000 
#    0.000    0.000    0.000    0.000    0.000    0.000 
#
# Total GULP energy -396485.363662 kJ/mol
# GULP energy per Si atom -12390.167614 kJ/mol
# Density = 1.889862 g / cm^3
# Si number density = 18.941729 Si / 1000 Ang^3
#
#
#
# Elastic Constant Matrix: (Units=GPa)
#
#
# Indices 1 2 3 4 5 6 
#
# 1 84.0964 59.2326 28.6573 0.0000 10.2862 0.0000
# 2 59.2326 140.4555 42.6748 0.0000 12.6532 0.0000
# 3 28.6573 42.6748 39.5398 0.0000 8.9434 0.0000
# 4 0.0000 0.0000 0.0000 21.8070 0.0000 -3.2176
# 5 10.2862 12.6532 8.9434 0.0000 27.6752 0.0000
# 6 0.0000 0.0000 0.0000 -3.2176 0.0000 19.2111
#
#
#
# Elastic Compliance Matrix: (Units=1/GPa)
#
#
# Indices 1 2 3 4 5 6 
#
# 1 0.018345 -0.005434 -0.006959 0.000000 -0.002085 0.000000
# 2 -0.005434 0.012243 -0.009133 0.000000 -0.000626 0.000000
# 3 -0.006959 -0.009133 0.041712 0.000000 -0.006717 0.000000
# 4 0.000000 0.000000 0.000000 0.047019 0.000000 0.007875
# 5 -0.002085 -0.000626 -0.006717 0.000000 0.039365 0.000000
# 6 0.000000 0.000000 0.000000 0.007875 0.000000 0.053372
#
#
# Mechanical properties :
#
#
# Convention : Reuss Voigt Hill
#
# Bulk Modulus (GPa) = 34.19286 58.35791 46.27538
# Shear Modulus (GPa) = 18.87801 22.64046 20.75924
#
# Velocity S-wave (km/s) = 3.16038 3.46102 3.31411
# Velocity P-wave (km/s) = 5.60429 6.84453 6.25523
#
# Compressibility (1/GPa) = 0.02924587
#
# Stress axis : x y z
#
# Youngs Moduli (GPa) = 54.51018 81.68087 23.97406
#
# Poissons Ratio (x) = 0.44387 0.16685
# Poissons Ratio (y) = 0.29622 0.21896
# Poissons Ratio (z) = 0.37936 0.74602
#
# Static dielectric constant tensor:
#      x y z
#    x 3.387060 0.000000 -0.163720 
#    y 0.000000 3.432460 0.000000 
#    z -0.163720 0.000000 3.580210 
# 
# 
# High freq. dielectric constant tensor:
#      x y z
#    x 1.731850 0.000000 -0.006290 
#    y 0.000000 1.721030 0.000000 
#    z -0.006290 0.000000 1.730400 
# 
# From -- ./inp_files/90631.got.cif
#   From: 2010.06.25/outbox.cif.g09.slc.cpg/sg12_46_cif.got.tgz:90631.got - 2010.06.28 00:19:55.
