data_PCOD8088191
_publ_section_title
;
Structure prediction by ZEFSAII (Michael W. Deem and Ramdas Pophale) SiO2 
 PCOD8088191
Probable space group: C 2/M
;
_chemical_formula_sum "Si O2"
_cell_formula_units_Z 64
_cell_length_a 23.989742
_cell_length_b 8.649483
_cell_length_c 21.354747
_cell_angle_alpha 90.000000
_cell_angle_beta 128.347699
_cell_angle_gamma 90.000000
_cell_volume 3475.123907
_symmetry_space_group_name_H-M "C 2/M"
_symmetry_group_IT_number 12
_symmetry_cell_setting 'monoclinic'
loop_
_space_group_symop_operation_xyz
x,y,z
-x,y,-z
-x,-y,-z
x,-y,z
1/2+x,1/2+y,z
1/2-x,1/2+y,-z
1/2-x,1/2-y,-z
1/2+x,1/2-y,z
loop_
_atom_site_type_symbol
_atom_site_label
_atom_site_fract_x
_atom_site_fract_y
_atom_site_fract_z
Si Si1 0.136722 0.821561 0.925249
Si Si2 0.136989 0.181100 0.345446
Si Si3 0.960815 0.179927 0.323576
Si Si4 0.194631 0.820987 0.743793
Si Si5 0.602449 0.818526 0.452644
Si Si6 0.276357 0.818927 0.367119
Si Si7 0.994534 0.679823 0.216448
Si Si8 0.739532 0.820480 0.899011
O O1 0.063149 0.726112 0.876534
O O2 0.181093 0.780133 0.894131
O O3 0.116475 0.000000 0.906881
O O4 0.182295 0.782739 0.018962
O O5 0.137333 0.271751 0.411059
O O6 0.206346 0.230809 0.355820
O O7 0.067709 0.227316 0.256668
O O8 0.136245 0.000000 0.359448
O O9 0.889196 0.217968 0.311334
O O10 0.961107 0.278846 0.260412
O O11 0.028119 0.230000 0.412738
O O12 0.966849 0.000000 0.310320
O O13 0.223655 0.775896 0.696603
O O14 0.238561 0.723679 0.825583
O O15 0.209132 0.000000 0.766626
O O16 0.655237 0.770821 0.544837
O O17 0.587728 0.000000 0.441603
O O18 0.276296 0.000000 0.351858
O O19 0.011494 0.500000 0.224284
O O20 0.721168 0.000000 0.896271
#
# Coordination Sequence:
#
# PCOD8088191 Si02
#       8
#     8   8   8   8   8   8   8   8
#     4  10  19  32  52  81 112 141 175 214 261 314
#     4  10  20  36  57  79 105 138 175 226 274 316
#     4  10  20  34  51  76 108 142 176 217 267 319
#     4  11  23  36  54  76 108 147 181 219 263 316
#     4  10  20  35  56  81 105 134 175 227 273 317
#     4  10  23  39  55  76 104 141 183 221 270 322
#     4  11  20  31  53  82 109 141 175 219 268 313
#     4  10  20  33  53  79 110 144 176 215 260 311
#
# _framework density 18.416609000000001
#
# number of rings (size 3 to 8) (size 9 to 14) (size 15 to 20)
#    0.000    1.750    1.250    5.250    0.000    5.500 
#    0.000    2.500    0.000    0.750    0.000    5.250 
#    0.000    0.000    0.000    0.000    0.000    0.000 
#
# Total GULP energy -396905.047048 kJ/mol
# GULP energy per Si atom -12403.282720 kJ/mol
# Density = 1.837469 g / cm^3
# Si number density = 18.416609 Si / 1000 Ang^3
#
#
#
# Elastic Constant Matrix: (Units=GPa)
#
#
# Indices 1 2 3 4 5 6 
#
# 1 38.1973 12.6436 28.5173 0.0000 -8.7643 0.0000
# 2 12.6436 49.0947 25.4236 0.0000 0.9410 0.0000
# 3 28.5173 25.4236 117.7343 0.0000 2.5030 0.0000
# 4 0.0000 0.0000 0.0000 30.5549 0.0000 1.9763
# 5 -8.7643 0.9410 2.5030 0.0000 18.5330 0.0000
# 6 0.0000 0.0000 0.0000 1.9763 0.0000 27.5007
#
#
#
# Elastic Compliance Matrix: (Units=1/GPa)
#
#
# Indices 1 2 3 4 5 6 
#
# 1 0.039197 -0.006014 -0.008621 0.000000 0.020006 0.000000
# 2 -0.006014 0.023861 -0.003620 0.000000 -0.003567 0.000000
# 3 -0.008621 -0.003620 0.011479 0.000000 -0.005443 0.000000
# 4 0.000000 0.000000 0.000000 0.032881 0.000000 -0.002363
# 5 0.020006 -0.003567 -0.005443 0.000000 0.064335 0.000000
# 6 0.000000 0.000000 0.000000 -0.002363 0.000000 0.036533
#
#
# Mechanical properties :
#
#
# Convention : Reuss Voigt Hill
#
# Bulk Modulus (GPa) = 26.29676 37.57726 31.93701
# Shear Modulus (GPa) = 19.41971 24.54718 21.98345
#
# Velocity S-wave (km/s) = 3.25078 3.65483 3.45871
# Velocity P-wave (km/s) = 5.32916 6.18536 5.77315
#
# Compressibility (1/GPa) = 0.03802750
#
# Stress axis : x y z
#
# Youngs Moduli (GPa) = 25.51211 41.91018 87.11363
#
# Poissons Ratio (x) = 0.25204 0.75100
# Poissons Ratio (y) = 0.15342 0.31535
# Poissons Ratio (z) = 0.21994 0.15171
#
# Static dielectric constant tensor:
#      x y z
#    x 3.194320 0.000000 0.287310 
#    y 0.000000 3.429790 0.000000 
#    z 0.287310 0.000000 3.574110 
# 
# 
# High freq. dielectric constant tensor:
#      x y z
#    x 1.684600 0.000000 0.021760 
#    y 0.000000 1.727120 0.000000 
#    z 0.021760 0.000000 1.719480 
# 
# From -- ./inp_files/324218.got.cif
#   From: 2010.06.25/outbox.cif.g09.slc.cpg/sg12_163_cif.got.tgz:324218.got - 2010.06.28 00:19:55.
