data_PCOD8088348
_publ_section_title
;
Structure prediction by ZEFSAII (Michael W. Deem and Ramdas Pophale) SiO2 
 PCOD8088348
Probable space group: C 2/M
;
_chemical_formula_sum "Si O2"
_cell_formula_units_Z 40
_cell_length_a 14.955041
_cell_length_b 9.135873
_cell_length_c 14.796384
_cell_angle_alpha 90.000000
_cell_angle_beta 87.546801
_cell_angle_gamma 90.000000
_cell_volume 2019.738062
_symmetry_space_group_name_H-M "C 2/M"
_symmetry_group_IT_number 12
_symmetry_cell_setting 'monoclinic'
loop_
_space_group_symop_operation_xyz
x,y,z
-x,y,-z
-x,-y,-z
x,-y,z
1/2+x,1/2+y,z
1/2-x,1/2+y,-z
1/2-x,1/2-y,-z
1/2+x,1/2-y,z
loop_
_atom_site_type_symbol
_atom_site_label
_atom_site_fract_x
_atom_site_fract_y
_atom_site_fract_z
Si Si1 0.863456 0.661747 0.569188
Si Si2 0.176875 0.672001 0.774389
Si Si3 0.489383 0.828360 0.100158
Si Si4 0.362318 0.174441 0.768671
Si Si5 0.151704 0.162955 0.598026
O O1 0.901763 0.500000 0.547862
O O2 0.895822 0.718526 0.666260
O O3 0.897332 0.767913 0.487775
O O4 0.756642 0.655935 0.575618
O O5 0.191962 0.500000 0.758890
O O6 0.109446 0.705724 0.859271
O O7 0.269228 0.748522 0.796860
O O8 0.132522 0.736597 0.685583
O O9 0.564655 0.764581 0.164253
O O10 0.506601 0.000000 0.094101
O O11 0.500000 0.757700 0.000000
O O12 0.347318 0.000000 0.773437
O O13 0.113348 0.000000 0.615779
#
# Coordination Sequence:
#
# PCOD8088348 Si02
#       5
#     8   8   8   8   8
#     4   8  14  25  44  71 100 132 171 208 244 294
#     4  10  19  32  53  79 105 135 172 213 255 302
#     4   9  19  36  56  77 102 134 173 215 259 309
#     4   9  18  34  55  77 104 138 172 209 255 305
#     4   9  16  27  46  72 103 138 171 205 249 300
#
# _framework density 19.804549000000002
#
# number of rings (size 3 to 8) (size 9 to 14) (size 15 to 20)
#    0.000    3.000    0.000    2.400    0.000    5.600 
#    0.000    3.000    0.000   10.200    0.000    0.000 
#    0.000    0.000    0.000    0.000    0.000    0.000 
#
# Total GULP energy -247930.564969 kJ/mol
# GULP energy per Si atom -12396.528248 kJ/mol
# Density = 1.975947 g / cm^3
# Si number density = 19.804549 Si / 1000 Ang^3
#
#
#
# Elastic Constant Matrix: (Units=GPa)
#
#
# Indices 1 2 3 4 5 6 
#
# 1 45.3565 14.2509 26.4239 0.0000 16.5853 0.0000
# 2 14.2509 65.5940 23.6348 0.0000 3.9950 0.0000
# 3 26.4239 23.6348 118.0563 0.0000 23.0275 0.0000
# 4 0.0000 0.0000 0.0000 21.0811 0.0000 -1.2629
# 5 16.5853 3.9950 23.0275 0.0000 28.9188 0.0000
# 6 0.0000 0.0000 0.0000 -1.2629 0.0000 17.2686
#
#
#
# Elastic Compliance Matrix: (Units=1/GPa)
#
#
# Indices 1 2 3 4 5 6 
#
# 1 0.030593 -0.004650 -0.003101 0.000000 -0.014434 0.000000
# 2 -0.004650 0.017142 -0.002900 0.000000 0.002608 0.000000
# 3 -0.003101 -0.002900 0.011034 0.000000 -0.006607 0.000000
# 4 0.000000 0.000000 0.000000 0.047645 0.000000 0.003484
# 5 -0.014434 0.002608 -0.006607 0.000000 0.047758 0.000000
# 6 0.000000 0.000000 0.000000 0.003484 0.000000 0.058163
#
#
# Mechanical properties :
#
#
# Convention : Reuss Voigt Hill
#
# Bulk Modulus (GPa) = 26.69027 39.73622 33.21325
# Shear Modulus (GPa) = 20.31485 24.43353 22.37419
#
# Velocity S-wave (km/s) = 3.20623 3.51626 3.36482
# Velocity P-wave (km/s) = 5.21658 6.04923 5.64827
#
# Compressibility (1/GPa) = 0.03746683
#
# Stress axis : x y z
#
# Youngs Moduli (GPa) = 32.68697 58.33788 90.63008
#
# Poissons Ratio (x) = 0.27128 0.28106
# Poissons Ratio (y) = 0.15200 0.26279
# Poissons Ratio (z) = 0.10137 0.16915
#
# Static dielectric constant tensor:
#      x y z
#    x 3.283240 0.000000 0.154530 
#    y 0.000000 3.532700 0.000000 
#    z 0.154530 0.000000 3.955700 
# 
# 
# High freq. dielectric constant tensor:
#      x y z
#    x 1.751360 0.000000 0.005090 
#    y 0.000000 1.751170 0.000000 
#    z 0.005090 0.000000 1.776230 
# 
# From -- ./inp_files/211335.got.cif
#   From: 2010.06.25/outbox.cif.g09.slc.cpg/sg12_106_cif.got.tgz:211335.got - 2010.06.28 00:19:55.
