data_PCOD8088296
_publ_section_title
;
Structure prediction by ZEFSAII (Michael W. Deem and Ramdas Pophale) SiO2 
 PCOD8088296
Probable space group: C 2/M
;
_chemical_formula_sum "Si O2"
_cell_formula_units_Z 64
_cell_length_a 28.569400
_cell_length_b 9.251143
_cell_length_c 13.662800
_cell_angle_alpha 90.000000
_cell_angle_beta 102.320679
_cell_angle_gamma 90.000000
_cell_volume 3527.904671
_symmetry_space_group_name_H-M "C 2/M"
_symmetry_group_IT_number 12
_symmetry_cell_setting 'monoclinic'
loop_
_space_group_symop_operation_xyz
x,y,z
-x,y,-z
-x,-y,-z
x,-y,z
1/2+x,1/2+y,z
1/2-x,1/2+y,-z
1/2-x,1/2-y,-z
1/2+x,1/2-y,z
loop_
_atom_site_type_symbol
_atom_site_label
_atom_site_fract_x
_atom_site_fract_y
_atom_site_fract_z
Si Si1 0.018357 0.334476 0.202630
Si Si2 0.802290 0.669778 0.309007
Si Si3 0.024542 0.669082 0.611850
Si Si4 0.702361 0.832463 0.269340
Si Si5 0.434080 0.334459 0.078801
Si Si6 0.608196 0.166972 0.119207
Si Si7 0.202542 0.662918 0.481595
Si Si8 0.612067 0.333304 0.733222
O O1 0.003433 0.500000 0.178704
O O2 0.072959 0.304953 0.195669
O O3 0.011337 0.294428 0.313980
O O4 0.985273 0.240341 0.116470
O O5 0.801499 0.500000 0.282524
O O6 0.748478 0.731559 0.274592
O O7 0.824621 0.699924 0.428728
O O8 0.836860 0.754209 0.251101
O O9 0.037573 0.500000 0.614314
O O10 0.073491 0.757345 0.645555
O O11 0.000000 0.718887 0.500000
O O12 0.661903 0.788779 0.173673
O O13 0.676750 0.810322 0.365607
O O14 0.717831 0.000000 0.263929
O O15 0.443895 0.500000 0.057330
O O16 0.402535 0.316269 0.161237
O O17 0.405120 0.263599 0.978287
O O18 0.605716 0.000000 0.086609
O O19 0.219772 0.500000 0.498281
O O20 0.250000 0.750000 0.500000
O O21 0.616583 0.500000 0.703855
#
# Coordination Sequence:
#
# PCOD8088296 Si02
#       8
#     8   8   8   8   8   8   8   8
#     4   9  18  33  53  77 104 134 168 203 245 302
#     4  10  19  32  53  78 102 133 173 211 247 294
#     4   9  18  33  54  80 109 138 168 205 246 291
#     4   9  18  33  51  74 106 137 165 203 251 300
#     4  10  21  36  53  73  98 129 168 214 258 301
#     4  10  20  33  52  76 101 132 167 206 254 304
#     4   8  15  28  47  70  97 128 160 196 238 287
#     4  10  21  36  53  73 100 136 174 210 253 303
#
# _framework density 18.141079000000001
#
# number of rings (size 3 to 8) (size 9 to 14) (size 15 to 20)
#    0.000    2.625    0.000    1.500    0.000    5.750 
#    0.000    4.375    0.000    1.500    0.000    0.000 
#    0.000    0.000    0.000    0.000    0.000    0.000 
#
# Total GULP energy -396589.956001 kJ/mol
# GULP energy per Si atom -12393.436125 kJ/mol
# Density = 1.809979 g / cm^3
# Si number density = 18.141079 Si / 1000 Ang^3
#
#
#
# Elastic Constant Matrix: (Units=GPa)
#
#
# Indices 1 2 3 4 5 6 
#
# 1 93.8334 50.1752 37.3355 0.0000 7.2117 0.0000
# 2 50.1752 89.6934 47.8474 0.0000 6.0342 0.0000
# 3 37.3355 47.8474 105.1889 0.0000 14.0397 0.0000
# 4 0.0000 0.0000 0.0000 25.4695 0.0000 0.9115
# 5 7.2117 6.0342 14.0397 0.0000 16.7385 0.0000
# 6 0.0000 0.0000 0.0000 0.9115 0.0000 26.1660
#
#
#
# Elastic Compliance Matrix: (Units=1/GPa)
#
#
# Indices 1 2 3 4 5 6 
#
# 1 0.015631 -0.007651 -0.001731 0.000000 -0.002525 0.000000
# 2 -0.007651 0.018468 -0.005896 0.000000 0.001584 0.000000
# 3 -0.001731 -0.005896 0.013986 0.000000 -0.008859 0.000000
# 4 0.000000 0.000000 0.000000 0.039312 0.000000 -0.001369
# 5 -0.002525 0.001584 -0.008859 0.000000 0.067690 0.000000
# 6 0.000000 0.000000 0.000000 -0.001369 0.000000 0.038265
#
#
# Mechanical properties :
#
#
# Convention : Reuss Voigt Hill
#
# Bulk Modulus (GPa) = 57.05107 62.15910 59.60509
# Shear Modulus (GPa) = 21.76273 23.89864 22.83069
#
# Velocity S-wave (km/s) = 3.46734 3.63351 3.55139
# Velocity P-wave (km/s) = 6.89541 7.20707 7.05296
#
# Compressibility (1/GPa) = 0.01752816
#
# Stress axis : x y z
#
# Youngs Moduli (GPa) = 63.97498 54.14779 71.50203
#
# Poissons Ratio (x) = 0.41428 0.12376
# Poissons Ratio (y) = 0.48947 0.42160
# Poissons Ratio (z) = 0.11074 0.31928
#
# Static dielectric constant tensor:
#      x y z
#    x 3.193190 0.000000 -0.118730 
#    y 0.000000 3.423880 0.000000 
#    z -0.118730 0.000000 4.386500 
# 
# 
# High freq. dielectric constant tensor:
#      x y z
#    x 1.689700 0.000000 -0.009680 
#    y 0.000000 1.706420 0.000000 
#    z -0.009680 0.000000 1.701140 
# 
# From -- ./inp_files/243890.got.cif
#   From: 2010.06.25/outbox.cif.g09.slc.cpg/sg12_122_cif.got.tgz:243890.got - 2010.06.28 00:19:55.
