data_PCOD8088235
_publ_section_title
;
Structure prediction by ZEFSAII (Michael W. Deem and Ramdas Pophale) SiO2 
 PCOD8088235
Probable space group: C 2/M
;
_chemical_formula_sum "Si O2"
_cell_formula_units_Z 56
_cell_length_a 19.787840
_cell_length_b 8.904091
_cell_length_c 24.675929
_cell_angle_alpha 90.000000
_cell_angle_beta 44.344095
_cell_angle_gamma 90.000000
_cell_volume 3038.907400
_symmetry_space_group_name_H-M "C 2/M"
_symmetry_group_IT_number 12
_symmetry_cell_setting 'monoclinic'
loop_
_space_group_symop_operation_xyz
x,y,z
-x,y,-z
-x,-y,-z
x,-y,z
1/2+x,1/2+y,z
1/2-x,1/2+y,-z
1/2-x,1/2-y,-z
1/2+x,1/2-y,z
loop_
_atom_site_type_symbol
_atom_site_label
_atom_site_fract_x
_atom_site_fract_y
_atom_site_fract_z
Si Si1 0.291889 0.677184 0.528819
Si Si2 0.825457 0.324710 0.996265
Si Si3 0.497833 0.677461 0.561292
Si Si4 0.325883 0.178651 0.300238
Si Si5 0.283192 0.178388 0.853550
Si Si6 0.197801 0.821681 0.273003
Si Si7 0.040908 0.325030 0.173237
O O1 0.279384 0.500000 0.533033
O O2 0.250000 0.750000 0.500000
O O3 0.403877 0.724557 0.465476
O O4 0.236895 0.740162 0.613417
O O5 0.803553 0.500000 0.015894
O O6 0.813182 0.243279 0.061297
O O7 0.750000 0.250000 0.000000
O O8 0.928688 0.298431 0.907344
O O9 0.500000 0.748579 0.500000
O O10 0.487356 0.500000 0.561586
O O11 0.406882 0.737527 0.647325
O O12 0.276537 0.229133 0.272380
O O13 0.434529 0.247274 0.242269
O O14 0.328399 0.000000 0.300393
O O15 0.278801 0.237410 0.795508
O O16 0.379897 0.239605 0.829324
O O17 0.278470 0.000000 0.857395
O O18 0.199015 0.000000 0.262804
O O19 0.033907 0.500000 0.189472
#
# Coordination Sequence:
#
# PCOD8088235 Si02
#       7
#     8   8   8   8   8   8   8
#     4  10  20  33  52  75 103 133 166 207 248 296
#     4   9  16  30  52  76 103 132 166 208 251 299
#     4   9  16  31  52  74  98 131 172 208 244 292
#     4   9  17  32  52  73  98 132 169 205 247 297
#     4  10  20  33  51  75 104 133 166 209 251 301
#     4  10  19  32  53  75  98 131 172 211 248 294
#     4   8  16  30  50  75  99 126 164 206 247 292
#
# _framework density 18.427675000000001
#
# number of rings (size 3 to 8) (size 9 to 14) (size 15 to 20)
#    0.000    2.714    1.429    1.714    2.000    0.000 
#    0.000    1.429    0.000   11.143    0.000    0.000 
#    0.000    0.000    0.000    0.000    0.000    0.000 
#
# Total GULP energy -347004.943159 kJ/mol
# GULP energy per Si atom -12393.033684 kJ/mol
# Density = 1.838573 g / cm^3
# Si number density = 18.427675 Si / 1000 Ang^3
#
#
#
# Elastic Constant Matrix: (Units=GPa)
#
#
# Indices 1 2 3 4 5 6 
#
# 1 109.6949 23.7105 51.6918 0.0000 14.3806 0.0001
# 2 23.7105 38.5416 26.3915 0.0000 6.7110 0.0003
# 3 51.6918 26.3915 109.6612 0.0000 18.9807 0.0001
# 4 0.0000 0.0000 0.0000 19.7102 0.0000 7.0602
# 5 14.3806 6.7110 18.9807 0.0000 36.0804 0.0000
# 6 0.0001 0.0003 0.0001 7.0602 0.0000 21.9952
#
#
#
# Elastic Compliance Matrix: (Units=1/GPa)
#
#
# Indices 1 2 3 4 5 6 
#
# 1 0.012390 -0.004220 -0.004517 0.000000 -0.001777 0.000000
# 2 -0.004220 0.032638 -0.005618 0.000000 -0.001434 -0.000001
# 3 -0.004517 -0.005618 0.013321 0.000000 -0.004162 0.000000
# 4 0.000000 0.000000 0.000000 0.057326 0.000000 -0.018401
# 5 -0.001777 -0.001434 -0.004162 0.000000 0.030880 0.000000
# 6 0.000000 -0.000001 0.000000 -0.018401 0.000000 0.051371
#
#
# Mechanical properties :
#
#
# Convention : Reuss Voigt Hill
#
# Bulk Modulus (GPa) = 33.73835 51.27613 42.50724
# Shear Modulus (GPa) = 21.14025 25.96408 23.55216
#
# Velocity S-wave (km/s) = 3.39071 3.75770 3.57891
# Velocity P-wave (km/s) = 5.80323 6.83470 6.33998
#
# Compressibility (1/GPa) = 0.02963986
#
# Stress axis : x y z
#
# Youngs Moduli (GPa) = 80.71106 30.63896 75.07103
#
# Poissons Ratio (x) = 0.12928 0.33911
# Poissons Ratio (y) = 0.34056 0.42173
# Poissons Ratio (z) = 0.36459 0.17212
#
# Static dielectric constant tensor:
#      x y z
#    x 3.396320 0.000000 -0.154120 
#    y 0.000000 3.060280 0.000000 
#    z -0.154120 0.000000 4.000670 
# 
# 
# High freq. dielectric constant tensor:
#      x y z
#    x 1.702780 0.000000 0.003190 
#    y 0.000000 1.671340 0.000000 
#    z 0.003190 0.000000 1.732580 
# 
# From -- ./inp_files/346638.got.cif
#   From: 2010.06.25/outbox.cif.g09.slc.cpg/sg12_174_cif.got.tgz:346638.got - 2010.06.28 00:19:55.
