data_PCOD8088980
_publ_section_title
;
Structure prediction by ZEFSAII (Michael W. Deem and Ramdas Pophale) SiO2 
 PCOD8088980
Probable space group: C 2/M
;
_chemical_formula_sum "Si O2"
_cell_formula_units_Z 48
_cell_length_a 13.756553
_cell_length_b 20.672745
_cell_length_c 9.444573
_cell_angle_alpha 90.000000
_cell_angle_beta 72.390031
_cell_angle_gamma 90.000000
_cell_volume 2560.035015
_symmetry_space_group_name_H-M "C 2/M"
_symmetry_group_IT_number 12
_symmetry_cell_setting 'monoclinic'
loop_
_space_group_symop_operation_xyz
x,y,z
-x,y,-z
-x,-y,-z
x,-y,z
1/2+x,1/2+y,z
1/2-x,1/2+y,-z
1/2-x,1/2-y,-z
1/2+x,1/2-y,z
loop_
_atom_site_type_symbol
_atom_site_label
_atom_site_fract_x
_atom_site_fract_y
_atom_site_fract_z
Si Si1 0.555292 0.283279 0.665569
Si Si2 0.814331 0.424735 0.225104
Si Si3 0.839270 0.181853 0.655428
Si Si4 0.981125 0.365300 0.348161
Si Si5 0.824102 0.226523 0.125412
Si Si6 0.657062 0.845974 0.058733
O O1 0.636674 0.312451 0.520742
O O2 0.443309 0.312614 0.698168
O O3 0.560404 0.207133 0.632868
O O4 0.590215 0.301332 0.808349
O O5 0.791201 0.500000 0.231066
O O6 0.708620 0.388861 0.304780
O O7 0.899177 0.410564 0.306836
O O8 0.852083 0.401864 0.053946
O O9 0.761395 0.236386 0.743884
O O10 0.000000 0.389970 0.500000
O O11 0.087869 0.367713 0.218989
O O12 0.772907 0.166756 0.063012
O O13 0.878134 0.277077 0.993679
#
# Coordination Sequence:
#
# PCOD8088980 Si02
#       6
#     8   8   8   8   8   8
#     4  11  19  32  60  97 126 144 189 256 321 352
#     4  11  26  44  59  80 122 174 211 236 285 363
#     4  10  20  35  60  93 118 159 189 248 310 357
#     4  12  22  35  63  95 124 149 193 253 313 360
#     4  10  19  32  57  90 127 148 191 242 312 361
#     4  10  21  36  57  90 121 160 192 241 301 364
#
# _framework density 18.749742999999999
#
# number of rings (size 3 to 8) (size 9 to 14) (size 15 to 20)
#    0.000    1.333    6.667    1.000    2.333    1.667 
#    0.000    1.667    0.000    2.000    0.000    0.000 
#    0.000    0.000    0.000    0.000    0.000    0.000 
#
# Total GULP energy -297589.814150 kJ/mol
# GULP energy per Si atom -12399.575590 kJ/mol
# Density = 1.870707 g / cm^3
# Si number density = 18.749743 Si / 1000 Ang^3
#
#
#
# Elastic Constant Matrix: (Units=GPa)
#
#
# Indices 1 2 3 4 5 6 
#
# 1 74.0702 32.4236 27.1005 0.0000 30.2746 0.0000
# 2 32.4236 93.8014 24.8871 0.0000 5.5823 0.0000
# 3 27.1005 24.8871 90.3660 0.0000 18.4581 0.0000
# 4 0.0000 0.0000 0.0000 10.8616 0.0000 -3.2289
# 5 30.2746 5.5823 18.4581 0.0000 47.2508 0.0000
# 6 0.0000 0.0000 0.0000 -3.2289 0.0000 13.6561
#
#
#
# Elastic Compliance Matrix: (Units=1/GPa)
#
#
# Indices 1 2 3 4 5 6 
#
# 1 0.022290 -0.006326 -0.002367 0.000000 -0.012610 0.000000
# 2 -0.006326 0.013298 -0.002469 0.000000 0.003447 0.000000
# 3 -0.002367 -0.002469 0.013135 0.000000 -0.003323 0.000000
# 4 0.000000 0.000000 0.000000 0.099028 0.000000 0.023414
# 5 -0.012610 0.003447 -0.003323 0.000000 0.030134 0.000000
# 6 0.000000 0.000000 0.000000 0.023414 0.000000 0.078763
#
#
# Mechanical properties :
#
#
# Convention : Reuss Voigt Hill
#
# Bulk Modulus (GPa) = 37.88199 47.45112 42.66656
# Shear Modulus (GPa) = 17.37495 25.94213 21.65854
#
# Velocity S-wave (km/s) = 3.04744 3.72371 3.40242
# Velocity P-wave (km/s) = 5.71230 6.62198 6.18389
#
# Compressibility (1/GPa) = 0.02639777
#
# Stress axis : x y z
#
# Youngs Moduli (GPa) = 44.86329 75.20176 76.13503
#
# Poissons Ratio (x) = 0.47576 0.18019
# Poissons Ratio (y) = 0.28382 0.18798
# Poissons Ratio (z) = 0.10618 0.18567
#
# Static dielectric constant tensor:
#      x y z
#    x 3.726430 0.000000 0.251560 
#    y 0.000000 3.010800 0.000000 
#    z 0.251560 0.000000 3.799740 
# 
# 
# High freq. dielectric constant tensor:
#      x y z
#    x 1.736860 0.000000 0.007280 
#    y 0.000000 1.669190 0.000000 
#    z 0.007280 0.000000 1.749190 
# 
# From -- ./inp_files/63345.got.cif
#   From: 2010.06.25/outbox.cif.g09.slc.cpg/sg12_32_cif.got.tgz:63345.got - 2010.06.28 00:19:55.
