data_PCOD8088999
_publ_section_title
;
Structure prediction by ZEFSAII (Michael W. Deem and Ramdas Pophale) SiO2 
 PCOD8088999
Probable space group: C 2/M
;
_chemical_formula_sum "Si O2"
_cell_formula_units_Z 56
_cell_length_a 29.592514
_cell_length_b 16.772667
_cell_length_c 9.578423
_cell_angle_alpha 90.000000
_cell_angle_beta 36.929627
_cell_angle_gamma 90.000000
_cell_volume 2856.486977
_symmetry_space_group_name_H-M "C 2/M"
_symmetry_group_IT_number 12
_symmetry_cell_setting 'monoclinic'
loop_
_space_group_symop_operation_xyz
x,y,z
-x,y,-z
-x,-y,-z
x,-y,z
1/2+x,1/2+y,z
1/2-x,1/2+y,-z
1/2-x,1/2-y,-z
1/2+x,1/2-y,z
loop_
_atom_site_type_symbol
_atom_site_label
_atom_site_fract_x
_atom_site_fract_y
_atom_site_fract_z
Si Si1 0.179843 0.748244 0.774490
Si Si2 0.664228 0.587637 0.219428
Si Si3 0.940122 0.409255 0.526182
Si Si4 0.484126 0.324964 0.389273
Si Si5 0.205586 0.684297 0.020346
Si Si6 0.525568 0.184481 0.093789
Si Si7 0.371306 0.587771 0.002648
O O1 0.250000 0.750000 0.500000
O O2 0.154015 0.840645 0.834997
O O3 0.197124 0.719623 0.887637
O O4 0.116691 0.686738 0.873248
O O5 0.638648 0.500000 0.328853
O O6 0.601428 0.650350 0.419225
O O7 0.741010 0.607012 0.111533
O O8 0.676450 0.591950 0.022450
O O9 0.908394 0.500000 0.591062
O O10 0.874090 0.344106 0.716980
O O11 0.000000 0.403940 0.500000
O O12 0.986460 0.388510 0.271474
O O13 0.500000 0.281449 0.500000
O O14 0.499065 0.266821 0.225748
O O15 0.539904 0.401206 0.249472
O O16 0.250000 0.750000 0.000000
O O17 0.500000 0.178094 0.000000
O O18 0.359779 0.500000 0.100463
#
# Coordination Sequence:
#
# PCOD8088999 Si02
#       7
#     8   8   8   8   8   8   8
#     4  11  25  42  60  91 127 164 209 256 319 387
#     4  10  19  32  58  94 121 151 200 252 310 367
#     4  11  24  45  69  94 127 170 224 281 323 375
#     4   9  18  34  62  90 121 159 204 253 300 373
#     4  12  23  40  66  94 124 164 208 267 319 376
#     4  11  24  40  66  90 122 166 215 262 316 381
#     4   9  18  36  59  88 121 159 199 251 305 365
#
# _framework density 19.604500999999999
#
# number of rings (size 3 to 8) (size 9 to 14) (size 15 to 20)
#    0.000    1.571    2.857    2.143    6.000    2.000 
#    0.000    2.143    0.000    2.143    0.000    0.000 
#    0.000    0.000    0.000    0.000    0.000    0.000 
#
# Total GULP energy -347030.487286 kJ/mol
# GULP energy per Si atom -12393.945974 kJ/mol
# Density = 1.955988 g / cm^3
# Si number density = 19.604501 Si / 1000 Ang^3
#
#
#
# Elastic Constant Matrix: (Units=GPa)
#
#
# Indices 1 2 3 4 5 6 
#
# 1 118.2910 33.8525 51.8955 0.0000 4.0840 0.0000
# 2 33.8525 99.5553 39.9242 0.0000 2.8600 0.0000
# 3 51.8955 39.9242 131.8293 0.0000 -3.8430 0.0000
# 4 0.0000 0.0000 0.0000 16.8214 0.0000 -1.5811
# 5 4.0840 2.8600 -3.8430 0.0000 35.6148 0.0000
# 6 0.0000 0.0000 0.0000 -1.5811 0.0000 17.1817
#
#
#
# Elastic Compliance Matrix: (Units=1/GPa)
#
#
# Indices 1 2 3 4 5 6 
#
# 1 0.010700 -0.002152 -0.003602 0.000000 -0.001443 0.000000
# 2 -0.002152 0.011926 -0.002794 0.000000 -0.001012 0.000000
# 3 -0.003602 -0.002794 0.009900 0.000000 0.001706 0.000000
# 4 0.000000 0.000000 0.000000 0.059967 0.000000 0.005518
# 5 -0.001443 -0.001012 0.001706 0.000000 0.028509 0.000000
# 6 0.000000 0.000000 0.000000 0.005518 0.000000 0.058709
#
#
# Mechanical properties :
#
#
# Convention : Reuss Voigt Hill
#
# Bulk Modulus (GPa) = 64.81636 66.77999 65.79817
# Shear Modulus (GPa) = 24.75855 28.85715 26.80785
#
# Velocity S-wave (km/s) = 3.55759 3.84078 3.70189
# Velocity P-wave (km/s) = 7.07170 7.33528 7.20470
#
# Compressibility (1/GPa) = 0.01542820
#
# Stress axis : x y z
#
# Youngs Moduli (GPa) = 93.45921 83.84981 101.01489
#
# Poissons Ratio (x) = 0.18047 0.36389
# Poissons Ratio (y) = 0.20115 0.28224
# Poissons Ratio (z) = 0.33667 0.23428
#
# Static dielectric constant tensor:
#      x y z
#    x 4.007970 0.000000 -0.784970 
#    y 0.000000 3.774020 0.000000 
#    z -0.784970 0.000000 4.464250 
# 
# 
# High freq. dielectric constant tensor:
#      x y z
#    x 1.759810 0.000000 -0.020010 
#    y 0.000000 1.769430 0.000000 
#    z -0.020010 0.000000 1.751650 
# 
# From -- ./inp_files/112603.got.cif
#   From: 2010.06.25/outbox.cif.g09.slc.cpg/sg12_57_cif.got.tgz:112603.got - 2010.06.28 00:19:55.
