data_PCOD8088172
_publ_section_title
;
Structure prediction by ZEFSAII (Michael W. Deem and Ramdas Pophale) SiO2 
 PCOD8088172
Probable space group: C 2/M
;
_chemical_formula_sum "Si O2"
_cell_formula_units_Z 52
_cell_length_a 5.100462
_cell_length_b 24.326131
_cell_length_c 26.886774
_cell_angle_alpha 90.000000
_cell_angle_beta 57.409328
_cell_angle_gamma 90.000000
_cell_volume 2810.682787
_symmetry_space_group_name_H-M "C 2/M"
_symmetry_group_IT_number 12
_symmetry_cell_setting 'monoclinic'
loop_
_space_group_symop_operation_xyz
x,y,z
-x,y,-z
-x,-y,-z
x,-y,z
1/2+x,1/2+y,z
1/2-x,1/2+y,-z
1/2-x,1/2-y,-z
1/2+x,1/2-y,z
loop_
_atom_site_type_symbol
_atom_site_label
_atom_site_fract_x
_atom_site_fract_y
_atom_site_fract_z
Si Si1 0.718819 0.369610 0.791895
Si Si2 0.842726 0.559813 0.943988
Si Si3 0.500000 0.149111 0.000000
Si Si4 0.483591 0.787135 0.688076
Si Si5 0.741801 0.714804 0.439631
Si Si6 0.037407 0.786437 0.103135
Si Si7 0.863055 0.562627 0.186363
O O1 0.804332 0.334892 0.734700
O O2 0.648055 0.330114 0.845331
O O3 0.436246 0.409036 0.806957
O O4 0.015127 0.406669 0.776998
O O5 0.988538 0.500000 0.944084
O O6 0.857777 0.565318 0.882901
O O7 0.500000 0.563529 0.000000
O O8 0.023812 0.610866 0.948947
O O9 0.190837 0.186376 0.037861
O O10 0.744960 0.760868 0.696794
O O11 0.639641 0.815159 0.622776
O O12 0.500000 0.680215 0.500000
O O13 0.540971 0.767747 0.441347
O O14 0.309124 0.761606 0.109552
O O15 0.778464 0.500000 0.208821
#
# Coordination Sequence:
#
# PCOD8088172 Si02
#       7
#     8   8   4   8   8   8   8
#     4  12  22  40  59  77 108 139 174 217 263 309
#     4  10  22  38  59  81  98 124 166 219 278 330
#     4  12  23  38  58  72 104 128 171 206 266 308
#     4  10  19  32  52  80 112 149 186 212 248 307
#     4   8  14  25  43  70 107 146 180 216 252 287
#     4  12  26  40  55  76 104 139 174 205 244 304
#     4  11  24  41  60  82 102 129 168 221 281 328
#
# _framework density 18.500841999999999
#
# number of rings (size 3 to 8) (size 9 to 14) (size 15 to 20)
#    0.000    1.385    1.538    4.846    2.154    0.000 
#    0.000    0.000    0.000    0.000    0.000    0.000 
#    0.000    3.692    0.000    0.000    0.000    0.000 
#
# Total GULP energy -322256.346614 kJ/mol
# GULP energy per Si atom -12394.474870 kJ/mol
# Density = 1.845873 g / cm^3
# Si number density = 18.500842 Si / 1000 Ang^3
#
#
#
# Elastic Constant Matrix: (Units=GPa)
#
#
# Indices 1 2 3 4 5 6 
#
# 1 73.7381 19.3821 3.1569 0.0000 3.5953 0.0000
# 2 19.3821 84.1731 33.4270 0.0000 3.7805 0.0000
# 3 3.1569 33.4270 95.5265 0.0000 5.2590 0.0000
# 4 0.0000 0.0000 0.0000 7.3358 0.0000 0.8128
# 5 3.5953 3.7805 5.2590 0.0000 22.1473 0.0000
# 6 0.0000 0.0000 0.0000 0.8128 0.0000 25.3655
#
#
#
# Elastic Compliance Matrix: (Units=1/GPa)
#
#
# Indices 1 2 3 4 5 6 
#
# 1 0.014571 -0.003622 0.000894 0.000000 -0.001959 0.000000
# 2 -0.003622 0.014731 -0.004994 0.000000 -0.000741 0.000000
# 3 0.000894 -0.004994 0.012308 0.000000 -0.002215 0.000000
# 4 0.000000 0.000000 0.000000 0.136804 0.000000 -0.004384
# 5 -0.001959 -0.000741 -0.002215 0.000000 0.046123 0.000000
# 6 0.000000 0.000000 0.000000 -0.004384 0.000000 0.039564
#
#
# Mechanical properties :
#
#
# Convention : Reuss Voigt Hill
#
# Bulk Modulus (GPa) = 38.21896 40.59662 39.40779
# Shear Modulus (GPa) = 17.34496 24.13448 20.73972
#
# Velocity S-wave (km/s) = 3.06522 3.61571 3.35179
# Velocity P-wave (km/s) = 5.76457 6.27869 6.02711
#
# Compressibility (1/GPa) = 0.02616502
#
# Stress axis : x y z
#
# Youngs Moduli (GPa) = 68.63016 67.88447 81.24590
#
# Poissons Ratio (x) = 0.24589 -0.07262
# Poissons Ratio (y) = 0.24859 0.40576
# Poissons Ratio (z) = -0.06134 0.33903
#
# Static dielectric constant tensor:
#      x y z
#    x 3.503550 0.000000 -0.024810 
#    y 0.000000 3.408300 0.000000 
#    z -0.024810 0.000000 3.672300 
# 
# 
# High freq. dielectric constant tensor:
#      x y z
#    x 1.727550 0.000000 -0.001570 
#    y 0.000000 1.690520 0.000000 
#    z -0.001570 0.000000 1.709250 
# 
# From -- ./inp_files/331166.got.cif
#   From: 2010.06.25/outbox.cif.g09.slc.cpg/sg12_166_cif.got.tgz:331166.got - 2010.06.28 00:19:55.
