data_PCOD8088237
_publ_section_title
;
Structure prediction by ZEFSAII (Michael W. Deem and Ramdas Pophale) SiO2 
 PCOD8088237
Probable space group: C 2/M
;
_chemical_formula_sum "Si O2"
_cell_formula_units_Z 56
_cell_length_a 20.338985
_cell_length_b 9.180732
_cell_length_c 30.069653
_cell_angle_alpha 90.000000
_cell_angle_beta 30.778975
_cell_angle_gamma 90.000000
_cell_volume 2873.253003
_symmetry_space_group_name_H-M "C 2/M"
_symmetry_group_IT_number 12
_symmetry_cell_setting 'monoclinic'
loop_
_space_group_symop_operation_xyz
x,y,z
-x,y,-z
-x,-y,-z
x,-y,z
1/2+x,1/2+y,z
1/2-x,1/2+y,-z
1/2-x,1/2-y,-z
1/2+x,1/2-y,z
loop_
_atom_site_type_symbol
_atom_site_label
_atom_site_fract_x
_atom_site_fract_y
_atom_site_fract_z
Si Si1 0.144295 0.658853 0.514373
Si Si2 0.543596 0.827038 0.220660
Si Si3 0.865423 0.671791 0.241666
Si Si4 0.928907 0.159473 0.369589
Si Si5 0.067798 0.328232 0.894672
Si Si6 0.303223 0.827443 0.090921
Si Si7 0.150202 0.667816 0.414858
O O1 0.078688 0.500000 0.544320
O O2 0.039707 0.754053 0.602849
O O3 0.277075 0.635553 0.462942
O O4 0.184387 0.728312 0.443959
O O5 0.474873 0.785263 0.214033
O O6 0.465548 0.754471 0.306003
O O7 0.686177 0.761845 0.137967
O O8 0.547984 0.000000 0.225119
O O9 0.848277 0.500000 0.249655
O O10 0.901412 0.736124 0.172065
O O11 0.727840 0.738959 0.333990
O O12 0.997754 0.000000 0.327927
O O13 0.061023 0.500000 0.895750
O O14 0.175527 0.286166 0.869127
O O15 0.927976 0.273563 0.991367
O O16 0.278945 0.000000 0.099649
O O17 0.190549 0.500000 0.385124
O O18 0.000000 0.693841 0.500000
#
# Coordination Sequence:
#
# PCOD8088237 Si02
#       7
#     8   8   8   8   8   8   8
#     4   9  18  33  51  73 102 134 173 221 269 316
#     4  11  22  34  52  82 118 147 179 228 278 323
#     4  10  21  37  57  80 111 147 184 227 273 326
#     4  10  19  32  53  75  99 137 180 219 263 319
#     4   8  17  37  61  84 109 142 185 227 271 324
#     4   9  18  36  62  84 108 144 184 227 271 326
#     4  10  21  37  55  77 108 143 180 224 275 327
#
# _framework density 19.490103000000001
#
# number of rings (size 3 to 8) (size 9 to 14) (size 15 to 20)
#    0.000    2.429    1.429    1.714    0.000    3.714 
#    0.000    5.714    0.000    0.000    0.000    0.000 
#    0.000    0.000    0.000    0.000    0.000    0.000 
#
# Total GULP energy -346953.160625 kJ/mol
# GULP energy per Si atom -12391.184308 kJ/mol
# Density = 1.944574 g / cm^3
# Si number density = 19.490103 Si / 1000 Ang^3
#
#
#
# Elastic Constant Matrix: (Units=GPa)
#
#
# Indices 1 2 3 4 5 6 
#
# 1 84.5247 34.7576 70.4477 -0.0015 17.6061 0.0090
# 2 34.7576 67.4823 40.9699 0.0048 9.0706 0.0098
# 3 70.4477 40.9699 104.7097 0.0037 27.8852 -0.0020
# 4 -0.0015 0.0048 0.0037 27.9411 -0.0031 -1.5289
# 5 17.6061 9.0706 27.8852 -0.0031 38.1474 0.0011
# 6 0.0090 0.0098 -0.0020 -1.5289 0.0011 18.7741
#
#
#
# Elastic Compliance Matrix: (Units=1/GPa)
#
#
# Indices 1 2 3 4 5 6 
#
# 1 0.027704 -0.003844 -0.017351 0.000004 0.000811 -0.000013
# 2 -0.003844 0.020011 -0.005524 -0.000003 0.001054 -0.000010
# 3 -0.017351 -0.005524 0.025955 -0.000004 -0.009652 0.000014
# 4 0.000004 -0.000003 -0.000004 0.035950 0.000005 0.002928
# 5 0.000811 0.001054 -0.009652 0.000005 0.032644 -0.000004
# 6 -0.000013 -0.000010 0.000014 0.002928 -0.000004 0.053503
#
#
# Mechanical properties :
#
#
# Convention : Reuss Voigt Hill
#
# Bulk Modulus (GPa) = 49.42665 61.00747 55.21706
# Shear Modulus (GPa) = 19.53515 24.34196 21.93855
#
# Velocity S-wave (km/s) = 3.16936 3.53787 3.35867
# Velocity P-wave (km/s) = 6.22961 6.93242 6.59039
#
# Compressibility (1/GPa) = 0.02023200
#
# Stress axis : x y z
#
# Youngs Moduli (GPa) = 36.09619 49.97313 38.52782
#
# Poissons Ratio (x) = 0.19211 0.66848
# Poissons Ratio (y) = 0.13876 0.21283
# Poissons Ratio (z) = 0.62629 0.27605
#
# Static dielectric constant tensor:
#      x y z
#    x 4.376040 -0.000120 0.274520 
#    y -0.000120 3.611820 -0.000010 
#    z 0.274520 -0.000010 3.570790 
# 
# 
# High freq. dielectric constant tensor:
#      x y z
#    x 1.758860 0.000000 0.011560 
#    y 0.000000 1.741220 0.000000 
#    z 0.011560 0.000000 1.754790 
# 
# From -- ./inp_files/319723.got.cif
#   From: 2010.06.25/outbox.cif.g09.slc.cpg/sg12_160_cif.got.tgz:319723.got - 2010.06.28 00:19:55.
