data_PCOD8088592
_publ_section_title
;
Structure prediction by ZEFSAII (Michael W. Deem and Ramdas Pophale) SiO2 
 PCOD8088592
Probable space group: C 2/M
;
_chemical_formula_sum "Si O2"
_cell_formula_units_Z 48
_cell_length_a 27.314685
_cell_length_b 8.877813
_cell_length_c 18.650252
_cell_angle_alpha 90.000000
_cell_angle_beta 147.181419
_cell_angle_gamma 90.000000
_cell_volume 2451.155012
_symmetry_space_group_name_H-M "C 2/M"
_symmetry_group_IT_number 12
_symmetry_cell_setting 'monoclinic'
loop_
_space_group_symop_operation_xyz
x,y,z
-x,y,-z
-x,-y,-z
x,-y,z
1/2+x,1/2+y,z
1/2-x,1/2+y,-z
1/2-x,1/2-y,-z
1/2+x,1/2-y,z
loop_
_atom_site_type_symbol
_atom_site_label
_atom_site_fract_x
_atom_site_fract_y
_atom_site_fract_z
Si Si1 0.844763 0.179304 0.421591
Si Si2 0.711316 0.821718 0.380878
Si Si3 0.619818 0.324267 0.949470
Si Si4 0.305164 0.321165 0.214554
Si Si5 0.958773 0.821141 0.297262
Si Si6 0.026120 0.824701 0.112219
O O1 0.771380 0.236970 0.388351
O O2 0.817522 0.242465 0.310099
O O3 0.942739 0.245377 0.563173
O O4 0.847963 0.000000 0.424376
O O5 0.750000 0.750000 0.500000
O O6 0.609044 0.772734 0.242280
O O7 0.716507 0.000000 0.394723
O O8 0.642374 0.500000 0.972111
O O9 0.567599 0.267338 0.814656
O O10 0.559558 0.286811 0.944221
O O11 0.712312 0.234773 0.067223
O O12 0.304673 0.500000 0.213935
O O13 0.386883 0.258941 0.266362
O O14 0.962151 0.000000 0.305059
O O15 0.052712 0.000000 0.149546
O O16 0.000000 0.775979 0.000000
#
# Coordination Sequence:
#
# PCOD8088592 Si02
#       6
#     8   8   8   8   8   8
#     4   9  18  33  53  77 103 132 169 213 259 305
#     4  11  22  36  56  80 108 141 177 220 266 314
#     4  10  20  34  52  74 105 141 170 206 259 312
#     4  10  19  32  54  80 102 129 170 216 255 300
#     4   9  17  31  52  76 102 134 171 209 252 305
#     4  10  21  37  56  78 107 144 182 219 263 315
#
# _framework density 19.582605000000001
#
# number of rings (size 3 to 8) (size 9 to 14) (size 15 to 20)
#    0.000    2.167    0.000    3.500    0.000    5.667 
#    0.000    0.833    0.000    5.000    0.000    0.000 
#    0.000    0.000    0.000    0.000    0.000    0.000 
#
# Total GULP energy -297673.389075 kJ/mol
# GULP energy per Si atom -12403.057878 kJ/mol
# Density = 1.953803 g / cm^3
# Si number density = 19.582605 Si / 1000 Ang^3
#
#
#
# Elastic Constant Matrix: (Units=GPa)
#
#
# Indices 1 2 3 4 5 6 
#
# 1 85.5953 15.6266 7.8283 0.0000 -8.1703 0.0000
# 2 15.6266 27.4827 16.0169 0.0000 0.5258 0.0000
# 3 7.8283 16.0169 97.8901 0.0000 -2.3380 0.0000
# 4 0.0000 0.0000 0.0000 32.4984 0.0000 3.2236
# 5 -8.1703 0.5258 -2.3380 0.0000 43.6340 0.0000
# 6 0.0000 0.0000 0.0000 3.2236 0.0000 17.1948
#
#
#
# Elastic Compliance Matrix: (Units=1/GPa)
#
#
# Indices 1 2 3 4 5 6 
#
# 1 0.013328 -0.007786 0.000270 0.000000 0.002604 0.000000
# 2 -0.007786 0.044801 -0.006764 0.000000 -0.002360 0.000000
# 3 0.000270 -0.006764 0.011318 0.000000 0.000739 0.000000
# 4 0.000000 0.000000 0.000000 0.031354 0.000000 -0.005878
# 5 0.002604 -0.002360 0.000739 0.000000 0.023474 0.000000
# 6 0.000000 0.000000 0.000000 -0.005878 0.000000 0.059259
#
#
# Mechanical properties :
#
#
# Convention : Reuss Voigt Hill
#
# Bulk Modulus (GPa) = 24.45700 32.21241 28.33471
# Shear Modulus (GPa) = 22.15116 30.09852 26.12484
#
# Velocity S-wave (km/s) = 3.36693 3.92472 3.65647
# Velocity P-wave (km/s) = 5.25654 6.08466 5.68570
#
# Compressibility (1/GPa) = 0.04088808
#
# Stress axis : x y z
#
# Youngs Moduli (GPa) = 75.02939 22.32110 88.35243
#
# Poissons Ratio (x) = 0.17378 -0.02388
# Poissons Ratio (y) = 0.58415 0.59762
# Poissons Ratio (z) = -0.02028 0.15098
#
# Static dielectric constant tensor:
#      x y z
#    x 3.881300 0.000000 -0.178930 
#    y 0.000000 3.139860 0.000000 
#    z -0.178930 0.000000 3.269850 
# 
# 
# High freq. dielectric constant tensor:
#      x y z
#    x 1.784050 0.000000 -0.003040 
#    y 0.000000 1.718690 0.000000 
#    z -0.003040 0.000000 1.779930 
# 
# From -- ./inp_files/244645.got.cif
#   From: 2010.06.25/outbox.cif.g09.slc.cpg/sg12_123_cif.got.tgz:244645.got - 2010.06.28 00:19:55.
