data_PCOD8088313
_publ_section_title
;
Structure prediction by ZEFSAII (Michael W. Deem and Ramdas Pophale) SiO2 
 PCOD8088313
Probable space group: C 2/M
;
_chemical_formula_sum "Si O2"
_cell_formula_units_Z 40
_cell_length_a 20.349659
_cell_length_b 9.437423
_cell_length_c 15.259074
_cell_angle_alpha 90.000000
_cell_angle_beta 131.926777
_cell_angle_gamma 90.000000
_cell_volume 2180.275105
_symmetry_space_group_name_H-M "C 2/M"
_symmetry_group_IT_number 12
_symmetry_cell_setting 'monoclinic'
loop_
_space_group_symop_operation_xyz
x,y,z
-x,y,-z
-x,-y,-z
x,-y,z
1/2+x,1/2+y,z
1/2-x,1/2+y,-z
1/2-x,1/2-y,-z
1/2+x,1/2-y,z
loop_
_atom_site_type_symbol
_atom_site_label
_atom_site_fract_x
_atom_site_fract_y
_atom_site_fract_z
Si Si1 0.553547 0.158602 0.135964
Si Si2 0.997829 0.163471 0.243729
Si Si3 0.301891 0.666602 0.121257
Si Si4 0.821388 0.165821 0.507123
Si Si5 0.743423 0.166682 0.257793
O O1 0.498405 0.250086 0.154780
O O2 0.648843 0.229719 0.202880
O O3 0.565002 0.000000 0.184385
O O4 0.500000 0.154571 0.000000
O O5 0.079583 0.210031 0.377935
O O6 0.906368 0.196147 0.210712
O O7 0.005726 0.000000 0.225463
O O8 0.281028 0.500000 0.091968
O O9 0.272758 0.728580 0.190010
O O10 0.250000 0.750000 0.000000
O O11 0.750000 0.250000 0.500000
O O12 0.812898 0.204281 0.396453
O O13 0.803367 0.000000 0.506635
O O14 0.733467 0.000000 0.236312
#
# Coordination Sequence:
#
# PCOD8088313 Si02
#       5
#     8   8   8   8   8
#     4  10  19  32  53  78 103 139 184 220 257 314
#     4  10  21  34  53  81 109 137 173 223 275 312
#     4  10  21  38  56  78 109 142 178 220 267 319
#     4  10  19  34  55  80 108 139 177 222 268 315
#     4   9  18  33  54  77 104 141 180 216 259 315
#
# _framework density 18.346308000000001
#
# number of rings (size 3 to 8) (size 9 to 14) (size 15 to 20)
#    0.000    2.200    2.000    1.200    0.000    3.600 
#    0.000    6.000    0.000    0.000    0.000    4.200 
#    0.000    0.000    0.000    0.000    0.000    0.000 
#
# Total GULP energy -247983.086317 kJ/mol
# GULP energy per Si atom -12399.154316 kJ/mol
# Density = 1.830455 g / cm^3
# Si number density = 18.346308 Si / 1000 Ang^3
#
#
#
# Elastic Constant Matrix: (Units=GPa)
#
#
# Indices 1 2 3 4 5 6 
#
# 1 101.3026 34.9070 37.9579 0.0000 -7.9353 0.0000
# 2 34.9070 38.1556 31.2412 0.0000 -2.1012 0.0000
# 3 37.9579 31.2412 107.2619 0.0000 -1.6384 0.0000
# 4 0.0000 0.0000 0.0000 6.3164 0.0000 8.8005
# 5 -7.9353 -2.1012 -1.6384 0.0000 39.6075 0.0000
# 6 0.0000 0.0000 0.0000 8.8005 0.0000 22.0407
#
#
#
# Elastic Compliance Matrix: (Units=1/GPa)
#
#
# Indices 1 2 3 4 5 6 
#
# 1 0.014843 -0.012057 -0.001706 0.000000 0.002264 0.000000
# 2 -0.012057 0.044290 -0.008640 0.000000 -0.000423 0.000000
# 3 -0.001706 -0.008640 0.012439 0.000000 -0.000286 0.000000
# 4 0.000000 0.000000 0.000000 0.356821 0.000000 -0.142473
# 5 0.002264 -0.000423 -0.000286 0.000000 0.025667 0.000000
# 6 0.000000 0.000000 0.000000 -0.142473 0.000000 0.102257
#
#
# Mechanical properties :
#
#
# Convention : Reuss Voigt Hill
#
# Bulk Modulus (GPa) = 37.36186 50.54804 43.95495
# Shear Modulus (GPa) = 8.19612 23.10053 15.64832
#
# Velocity S-wave (km/s) = 2.11593 3.55228 2.92368
# Velocity P-wave (km/s) = 5.13600 6.66610 5.95044
#
# Compressibility (1/GPa) = 0.02676526
#
# Stress axis : x y z
#
# Youngs Moduli (GPa) = 67.37276 22.57847 80.39407
#
# Poissons Ratio (x) = 0.27224 0.13716
# Poissons Ratio (y) = 0.81235 0.69457
# Poissons Ratio (z) = 0.11495 0.19507
#
# Static dielectric constant tensor:
#      x y z
#    x 3.553080 0.000000 0.079810 
#    y 0.000000 3.220720 0.000000 
#    z 0.079810 0.000000 3.561770 
# 
# 
# High freq. dielectric constant tensor:
#      x y z
#    x 1.714920 0.000000 0.004260 
#    y 0.000000 1.682220 0.000000 
#    z 0.004260 0.000000 1.726530 
# 
# From -- ./inp_files/220588.got.cif
#   From: 2010.06.25/outbox.cif.g09.slc.cpg/sg12_111_cif.got.tgz:220588.got - 2010.06.28 00:19:55.
