data_PCOD8088840
_publ_section_title
;
Structure prediction by ZEFSAII (Michael W. Deem and Ramdas Pophale) SiO2 
 PCOD8088840
Probable space group: C 2/M
;
_chemical_formula_sum "Si O2"
_cell_formula_units_Z 64
_cell_length_a 14.941129
_cell_length_b 9.088513
_cell_length_c 32.983710
_cell_angle_alpha 90.000000
_cell_angle_beta 134.122369
_cell_angle_gamma 90.000000
_cell_volume 3215.231210
_symmetry_space_group_name_H-M "C 2/M"
_symmetry_group_IT_number 12
_symmetry_cell_setting 'monoclinic'
loop_
_space_group_symop_operation_xyz
x,y,z
-x,y,-z
-x,-y,-z
x,-y,z
1/2+x,1/2+y,z
1/2-x,1/2+y,-z
1/2-x,1/2-y,-z
1/2+x,1/2-y,z
loop_
_atom_site_type_symbol
_atom_site_label
_atom_site_fract_x
_atom_site_fract_y
_atom_site_fract_z
Si Si1 0.280495 0.830952 0.950181
Si Si2 0.437424 0.668848 0.559273
Si Si3 0.180329 0.831065 0.682635
Si Si4 0.946518 0.171116 0.064450
Si Si5 0.126049 0.325512 0.745293
Si Si6 0.342185 0.168181 0.659957
Si Si7 0.298771 0.172945 0.861945
Si Si8 0.286559 0.168865 0.449875
O O1 0.144956 0.800026 0.926500
O O2 0.276596 0.790921 0.901942
O O3 0.320294 0.000000 0.969912
O O4 0.384175 0.728990 0.003493
O O5 0.447445 0.500000 0.549386
O O6 0.565800 0.725560 0.619037
O O7 0.407864 0.759862 0.509223
O O8 0.332178 0.695770 0.559369
O O9 0.195338 0.729519 0.726691
O O10 0.305922 0.815741 0.695830
O O11 0.157611 0.000000 0.689048
O O12 0.071994 0.259586 0.113110
O O13 0.977804 0.000000 0.068983
O O14 0.139496 0.500000 0.753544
O O15 0.186009 0.249013 0.803002
O O16 0.982377 0.273731 0.698344
O O17 0.242875 0.258533 0.602451
O O18 0.332366 0.000000 0.642510
O O19 0.299310 0.000000 0.853315
O O20 0.316596 0.000000 0.451915
#
# Coordination Sequence:
#
# PCOD8088840 Si02
#       8
#     8   8   8   8   8   8   8   8
#     4   9  20  38  59  87 123 160 193 228 281 341
#     4   9  18  33  55  81 111 147 184 225 278 343
#     4  10  21  40  62  83 109 148 191 229 282 348
#     4  10  20  36  60  91 124 154 191 239 284 328
#     4  11  24  41  59  83 113 145 188 243 290 330
#     4  10  22  39  60  83 111 146 186 234 287 342
#     4  11  23  39  60  83 114 157 197 234 279 340
#     4  10  19  32  55  84 113 146 184 228 280 339
#
# _framework density 19.905256000000001
#
# number of rings (size 3 to 8) (size 9 to 14) (size 15 to 20)
#    0.000    2.000    1.250    1.875    0.000    6.500 
#    0.000    5.000    0.000    0.000    0.000    0.000 
#    0.000    0.000    0.000    0.000    0.000    0.000 
#
# Total GULP energy -396952.925339 kJ/mol
# GULP energy per Si atom -12404.778917 kJ/mol
# Density = 1.985995 g / cm^3
# Si number density = 19.905256 Si / 1000 Ang^3
#
#
#
# Elastic Constant Matrix: (Units=GPa)
#
#
# Indices 1 2 3 4 5 6 
#
# 1 53.9485 29.7800 29.4723 0.0000 -8.6902 0.0000
# 2 29.7800 87.7845 45.1632 0.0000 -4.2726 0.0000
# 3 29.4723 45.1632 93.1512 0.0000 -4.6925 0.0000
# 4 0.0000 0.0000 0.0000 40.4347 0.0000 -1.7211
# 5 -8.6902 -4.2726 -4.6925 0.0000 18.2568 0.0000
# 6 0.0000 0.0000 0.0000 -1.7211 0.0000 26.7589
#
#
#
# Elastic Compliance Matrix: (Units=1/GPa)
#
#
# Indices 1 2 3 4 5 6 
#
# 1 0.026004 -0.005818 -0.004915 0.000000 0.009753 0.000000
# 2 -0.005818 0.016530 -0.006199 0.000000 -0.000494 0.000000
# 3 -0.004915 -0.006199 0.015303 0.000000 0.000143 0.000000
# 4 0.000000 0.000000 0.000000 0.024799 0.000000 0.001595
# 5 0.009753 -0.000494 0.000143 0.000000 0.059338 0.000000
# 6 0.000000 0.000000 0.000000 0.001595 0.000000 0.037473
#
#
# Mechanical properties :
#
#
# Convention : Reuss Voigt Hill
#
# Bulk Modulus (GPa) = 41.71316 49.30169 45.50742
# Shear Modulus (GPa) = 22.59348 25.78798 24.19073
#
# Velocity S-wave (km/s) = 3.37271 3.60326 3.48989
# Velocity P-wave (km/s) = 6.01400 6.49101 6.25705
#
# Compressibility (1/GPa) = 0.02397325
#
# Stress axis : x y z
#
# Youngs Moduli (GPa) = 38.45535 60.49518 65.34699
#
# Poissons Ratio (x) = 0.35197 0.32121
# Poissons Ratio (y) = 0.22374 0.40506
# Poissons Ratio (z) = 0.18902 0.37498
#
# Static dielectric constant tensor:
#      x y z
#    x 3.617610 0.000000 0.030670 
#    y 0.000000 3.601130 0.000000 
#    z 0.030670 0.000000 3.547540 
# 
# 
# High freq. dielectric constant tensor:
#      x y z
#    x 1.779880 0.000000 -0.000820 
#    y 0.000000 1.777360 0.000000 
#    z -0.000820 0.000000 1.771030 
# 
# From -- ./inp_files/375624.got.cif
#   From: 2010.06.25/outbox.cif.g09.slc.cpg/sg12_188_cif.got.tgz:375624.got - 2010.06.28 00:19:55.
