data_PCOD8088498
_publ_section_title
;
Structure prediction by ZEFSAII (Michael W. Deem and Ramdas Pophale) SiO2 
 PCOD8088498
Probable space group: C 2/M
;
_chemical_formula_sum "Si O2"
_cell_formula_units_Z 48
_cell_length_a 24.130506
_cell_length_b 9.363548
_cell_length_c 11.430936
_cell_angle_alpha 90.000000
_cell_angle_beta 110.924809
_cell_angle_gamma 90.000000
_cell_volume 2412.452387
_symmetry_space_group_name_H-M "C 2/M"
_symmetry_group_IT_number 12
_symmetry_cell_setting 'monoclinic'
loop_
_space_group_symop_operation_xyz
x,y,z
-x,y,-z
-x,-y,-z
x,-y,z
1/2+x,1/2+y,z
1/2-x,1/2+y,-z
1/2-x,1/2-y,-z
1/2+x,1/2-y,z
loop_
_atom_site_type_symbol
_atom_site_label
_atom_site_fract_x
_atom_site_fract_y
_atom_site_fract_z
Si Si1 0.141636 0.665201 0.105812
Si Si2 0.761170 0.660431 0.196669
Si Si3 0.121532 0.334487 0.832432
Si Si4 0.481788 0.331041 0.354248
Si Si5 0.198298 0.338968 0.517266
Si Si6 0.081872 0.331840 0.298677
O O1 0.156695 0.500000 0.130986
O O2 0.205085 0.739060 0.158380
O O3 0.099183 0.714142 0.179632
O O4 0.107733 0.696571 0.958603
O O5 0.737057 0.500000 0.162192
O O6 0.808317 0.700608 0.131046
O O7 0.800315 0.674640 0.343052
O O8 0.108671 0.500000 0.790236
O O9 0.083149 0.232120 0.720715
O O10 0.500000 0.290902 0.500000
O O11 0.481585 0.500000 0.334589
O O12 0.525087 0.258165 0.293273
O O13 0.207564 0.500000 0.480302
O O14 0.250000 0.250000 0.500000
O O15 0.134747 0.284623 0.424775
O O16 0.066988 0.500000 0.296200
#
# Coordination Sequence:
#
# PCOD8088498 Si02
#       6
#     8   8   8   8   8   8
#     4  10  21  37  59  88 119 154 195 235 283 343
#     4  10  20  34  56  86 119 156 196 237 286 340
#     4  10  22  40  61  85 116 156 197 236 283 344
#     4  11  25  43  62  86 113 146 192 244 295 344
#     4  10  19  32  53  82 114 149 189 231 281 335
#     4  10  21  38  60  86 118 156 194 234 285 344
#
# _framework density 19.896766
#
# number of rings (size 3 to 8) (size 9 to 14) (size 15 to 20)
#    0.000    1.833    1.667    2.000    0.000    6.000 
#    0.000    3.333    0.000    0.000    0.000    0.000 
#    0.000    0.000    0.000    0.000    0.000    0.000 
#
# Total GULP energy -297642.717907 kJ/mol
# GULP energy per Si atom -12401.779913 kJ/mol
# Density = 1.985148 g / cm^3
# Si number density = 19.896766 Si / 1000 Ang^3
#
#
#
# Elastic Constant Matrix: (Units=GPa)
#
#
# Indices 1 2 3 4 5 6 
#
# 1 100.8454 47.6952 32.0143 0.0000 -10.7121 0.0000
# 2 47.6952 71.1307 38.1489 0.0000 -1.9972 0.0000
# 3 32.0143 38.1489 88.4694 0.0000 -10.3339 0.0000
# 4 0.0000 0.0000 0.0000 26.0677 0.0000 2.6402
# 5 -10.7121 -1.9972 -10.3339 0.0000 32.0377 0.0000
# 6 0.0000 0.0000 0.0000 2.6402 0.0000 37.5459
#
#
#
# Elastic Compliance Matrix: (Units=1/GPa)
#
#
# Indices 1 2 3 4 5 6 
#
# 1 0.015173 -0.009593 -0.000864 0.000000 0.004197 0.000000
# 2 -0.009593 0.024419 -0.007539 0.000000 -0.004117 0.000000
# 3 -0.000864 -0.007539 0.015357 0.000000 0.004195 0.000000
# 4 0.000000 0.000000 0.000000 0.038637 0.000000 -0.002717
# 5 0.004197 -0.004117 0.004195 0.000000 0.033713 0.000000
# 6 0.000000 0.000000 0.000000 -0.002717 0.000000 0.026825
#
#
# Mechanical properties :
#
#
# Convention : Reuss Voigt Hill
#
# Bulk Modulus (GPa) = 52.75132 55.12914 53.94023
# Shear Modulus (GPa) = 25.45379 28.63608 27.04493
#
# Velocity S-wave (km/s) = 3.58060 3.79784 3.69082
# Velocity P-wave (km/s) = 6.60790 6.85559 6.73289
#
# Compressibility (1/GPa) = 0.01895687
#
# Stress axis : x y z
#
# Youngs Moduli (GPa) = 65.90562 40.95212 65.11732
#
# Poissons Ratio (x) = 0.39285 0.05626
# Poissons Ratio (y) = 0.63223 0.49093
# Poissons Ratio (z) = 0.05694 0.30874
#
# Static dielectric constant tensor:
#      x y z
#    x 3.701570 0.000000 -0.014240 
#    y 0.000000 3.635730 0.000000 
#    z -0.014240 0.000000 4.151380 
# 
# 
# High freq. dielectric constant tensor:
#      x y z
#    x 1.776330 0.000000 -0.009360 
#    y 0.000000 1.765400 0.000000 
#    z -0.009360 0.000000 1.787590 
# 
# From -- ./inp_files/173083.got.cif
#   From: 2010.06.25/outbox.cif.g09.slc.cpg/sg12_87_cif.got.tgz:173083.got - 2010.06.28 00:19:55.
