data_PCOD8088747
_publ_section_title
;
Structure prediction by ZEFSAII (Michael W. Deem and Ramdas Pophale) SiO2 
 PCOD8088747
Probable space group: C 2/M
;
_chemical_formula_sum "Si O2"
_cell_formula_units_Z 56
_cell_length_a 26.517289
_cell_length_b 8.811567
_cell_length_c 14.187400
_cell_angle_alpha 90.000000
_cell_angle_beta 57.576094
_cell_angle_gamma 90.000000
_cell_volume 2798.215692
_symmetry_space_group_name_H-M "C 2/M"
_symmetry_group_IT_number 12
_symmetry_cell_setting 'monoclinic'
loop_
_space_group_symop_operation_xyz
x,y,z
-x,y,-z
-x,-y,-z
x,-y,z
1/2+x,1/2+y,z
1/2-x,1/2+y,-z
1/2-x,1/2-y,-z
1/2+x,1/2-y,z
loop_
_atom_site_type_symbol
_atom_site_label
_atom_site_fract_x
_atom_site_fract_y
_atom_site_fract_z
Si Si1 0.144072 0.673821 0.810264
Si Si2 0.476267 0.328461 0.381411
Si Si3 0.587523 0.174239 0.057588
Si Si4 0.642485 0.675571 0.389321
Si Si5 0.099072 0.675650 0.256722
Si Si6 0.963999 0.826876 0.178712
Si Si7 0.252911 0.821935 0.599650
O O1 0.159207 0.500000 0.770146
O O2 0.080429 0.715803 0.830374
O O3 0.195302 0.780323 0.718794
O O4 0.139321 0.697017 0.928073
O O5 0.500298 0.500000 0.371992
O O6 0.423701 0.291587 0.506353
O O7 0.530063 0.214096 0.347135
O O8 0.450301 0.308592 0.302870
O O9 0.614089 0.219151 0.133272
O O10 0.531628 0.279869 0.087141
O O11 0.565108 0.000000 0.082454
O O12 0.660437 0.500000 0.377500
O O13 0.643485 0.729973 0.279710
O O14 0.688314 0.769604 0.405449
O O15 0.109864 0.500000 0.266692
O O16 0.954353 0.000000 0.155305
O O17 0.250000 0.750000 0.500000
O O18 0.254778 0.000000 0.584131
#
# Coordination Sequence:
#
# PCOD8088747 Si02
#       7
#     8   8   8   8   8   8   8
#     4  11  22  38  59  82 112 152 194 236 286 339
#     4   9  19  34  53  80 115 151 185 226 280 340
#     4   9  20  37  56  81 116 154 191 235 287 341
#     4  11  22  38  59  83 114 152 192 233 281 335
#     4  10  20  35  56  84 116 149 189 235 282 334
#     4  10  19  32  54  85 118 151 189 235 288 345
#     4  12  26  44  64  87 114 145 185 231 280 335
#
# _framework density 20.012753
#
# number of rings (size 3 to 8) (size 9 to 14) (size 15 to 20)
#    0.000    1.714    0.000    4.714    0.000    8.000 
#    0.000    0.714    0.000    0.000    0.000    0.000 
#    0.000    0.000    0.000    0.000    0.000    0.000 
#
# Total GULP energy -347312.492574 kJ/mol
# GULP energy per Si atom -12404.017592 kJ/mol
# Density = 1.996720 g / cm^3
# Si number density = 20.012753 Si / 1000 Ang^3
#
#
#
# Elastic Constant Matrix: (Units=GPa)
#
#
# Indices 1 2 3 4 5 6 
#
# 1 83.7756 47.3662 41.7990 0.0000 26.1635 0.0000
# 2 47.3662 114.0470 49.9867 0.0000 7.5609 0.0000
# 3 41.7990 49.9867 107.9687 0.0000 16.0816 0.0000
# 4 0.0000 0.0000 0.0000 30.5674 0.0000 -0.4343
# 5 26.1635 7.5609 16.0816 0.0000 20.1187 0.0000
# 6 0.0000 0.0000 0.0000 -0.4343 0.0000 37.1419
#
#
#
# Elastic Compliance Matrix: (Units=1/GPa)
#
#
# Indices 1 2 3 4 5 6 
#
# 1 0.027314 -0.008378 -0.002127 0.000000 -0.030672 0.000000
# 2 -0.008378 0.013571 -0.004430 0.000000 0.009337 0.000000
# 3 -0.002127 -0.004430 0.013027 0.000000 -0.005983 0.000000
# 4 0.000000 0.000000 0.000000 0.032720 0.000000 0.000383
# 5 -0.030672 0.009337 -0.005983 0.000000 0.090865 0.000000
# 6 0.000000 0.000000 0.000000 0.000383 0.000000 0.026928
#
#
# Mechanical properties :
#
#
# Convention : Reuss Voigt Hill
#
# Bulk Modulus (GPa) = 41.59479 64.89945 53.24712
# Shear Modulus (GPa) = 20.63476 28.67488 24.65482
#
# Velocity S-wave (km/s) = 3.21453 3.78938 3.51373
# Velocity P-wave (km/s) = 5.88276 7.18647 6.56705
#
# Compressibility (1/GPa) = 0.02404147
#
# Stress axis : x y z
#
# Youngs Moduli (GPa) = 36.61155 73.68816 76.76161
#
# Poissons Ratio (x) = 0.61739 0.16326
# Poissons Ratio (y) = 0.30675 0.34005
# Poissons Ratio (z) = 0.07787 0.32643
#
# Static dielectric constant tensor:
#      x y z
#    x 3.527340 0.000000 0.268500 
#    y 0.000000 3.821880 0.000000 
#    z 0.268500 0.000000 3.797440 
# 
# 
# High freq. dielectric constant tensor:
#      x y z
#    x 1.769340 0.000000 0.022660 
#    y 0.000000 1.788810 0.000000 
#    z 0.022660 0.000000 1.784510 
# 
# From -- ./inp_files/238272.got.cif
#   From: 2010.06.25/outbox.cif.g09.slc.cpg/sg12_120_cif.got.tgz:238272.got - 2010.06.28 00:19:55.
