data_PCOD8088558
_publ_section_title
;
Structure prediction by ZEFSAII (Michael W. Deem and Ramdas Pophale) SiO2 
 PCOD8088558
Probable space group: C 2/M
;
_chemical_formula_sum "Si O2"
_cell_formula_units_Z 40
_cell_length_a 30.566561
_cell_length_b 12.401723
_cell_length_c 12.265676
_cell_angle_alpha 90.000000
_cell_angle_beta 24.122391
_cell_angle_gamma 90.000000
_cell_volume 1900.251528
_symmetry_space_group_name_H-M "C 2/M"
_symmetry_group_IT_number 12
_symmetry_cell_setting 'monoclinic'
loop_
_space_group_symop_operation_xyz
x,y,z
-x,y,-z
-x,-y,-z
x,-y,z
1/2+x,1/2+y,z
1/2-x,1/2+y,-z
1/2-x,1/2-y,-z
1/2+x,1/2-y,z
loop_
_atom_site_type_symbol
_atom_site_label
_atom_site_fract_x
_atom_site_fract_y
_atom_site_fract_z
Si Si1 0.505190 0.210511 0.231704
Si Si2 0.709213 0.123341 0.873527
Si Si3 0.360800 0.375152 0.178137
Si Si4 0.392508 0.881475 0.679344
Si Si5 0.849604 0.730428 0.410757
O O1 0.413188 0.203554 0.534513
O O2 0.452464 0.175142 0.235178
O O3 0.602792 0.131251 0.039718
O O4 0.557772 0.330666 0.100278
O O5 0.804439 0.191952 0.607564
O O6 0.745143 0.000000 0.792475
O O7 0.690713 0.163856 0.040748
O O8 0.383649 0.500000 0.148262
O O9 0.236739 0.359730 0.426647
O O10 0.385081 0.304338 0.229533
O O11 0.500000 0.901181 0.500000
O O12 0.356004 0.000000 0.716738
#
# Coordination Sequence:
#
# PCOD8088558 Si02
#       5
#     8   8   8   8   8
#     4  10  19  32  54  78 103 135 172 208 252 305
#     4   9  18  34  56  80 105 134 170 212 255 301
#     4  10  22  38  52  73 107 139 170 213 261 307
#     4   8  15  30  53  79 105 132 166 211 256 298
#     4  10  21  35  54  78 103 135 174 215 257 302
#
# _framework density 21.049844
#
# number of rings (size 3 to 8) (size 9 to 14) (size 15 to 20)
#    0.000    2.600    0.000    3.000    0.000    4.800 
#    0.000    1.000    0.000   25.800    0.000    0.000 
#    0.000    0.000    0.000    0.000    0.000    0.000 
#
# Total GULP energy -247772.790000 kJ/mol
# GULP energy per Si atom -12388.639500 kJ/mol
# Density = 2.100193 g / cm^3
# Si number density = 21.049844 Si / 1000 Ang^3
#
#
#
# Elastic Constant Matrix: (Units=GPa)
#
#
# Indices 1 2 3 4 5 6 
#
# 1 90.6259 29.2265 13.3370 0.0000 4.3814 0.0000
# 2 29.2265 66.5285 36.8026 0.0000 24.1658 0.0000
# 3 13.3370 36.8026 68.3933 0.0000 25.6601 0.0000
# 4 0.0000 0.0000 0.0000 11.5262 0.0000 3.7296
# 5 4.3814 24.1658 25.6601 0.0000 33.1315 0.0000
# 6 0.0000 0.0000 0.0000 3.7296 0.0000 11.8638
#
#
#
# Elastic Compliance Matrix: (Units=1/GPa)
#
#
# Indices 1 2 3 4 5 6 
#
# 1 0.013125 -0.006950 -0.000099 0.000000 0.003410 0.000000
# 2 -0.006950 0.027399 -0.008789 0.000000 -0.012258 0.000000
# 3 -0.000099 -0.008789 0.023907 0.000000 -0.012092 0.000000
# 4 0.000000 0.000000 0.000000 0.096583 0.000000 -0.030362
# 5 0.003410 -0.012258 -0.012092 0.000000 0.048038 0.000000
# 6 0.000000 0.000000 0.000000 -0.030362 0.000000 0.093835
#
#
# Mechanical properties :
#
#
# Convention : Reuss Voigt Hill
#
# Bulk Modulus (GPa) = 30.52996 42.69778 36.61387
# Shear Modulus (GPa) = 14.47252 21.04974 17.76113
#
# Velocity S-wave (km/s) = 2.62494 3.16570 2.90792
# Velocity P-wave (km/s) = 4.87054 5.80434 5.35782
#
# Compressibility (1/GPa) = 0.03275471
#
# Stress axis : x y z
#
# Youngs Moduli (GPa) = 76.18791 36.49764 41.82919
#
# Poissons Ratio (x) = 0.25366 0.00415
# Poissons Ratio (y) = 0.52951 0.36764
# Poissons Ratio (z) = 0.00756 0.32078
#
# Static dielectric constant tensor:
#      x y z
#    x 3.874580 0.000000 0.360100 
#    y 0.000000 3.450260 0.000000 
#    z 0.360100 0.000000 4.190500 
# 
# 
# High freq. dielectric constant tensor:
#      x y z
#    x 1.818790 0.000000 0.010090 
#    y 0.000000 1.786900 0.000000 
#    z 0.010090 0.000000 1.832410 
# 
# From -- ./inp_files/140294.got.cif
#   From: 2010.06.25/outbox.cif.g09.slc.cpg/sg12_71_cif.got.tgz:140294.got - 2010.06.28 00:19:55.
