data_PCOD8088137
_publ_section_title
;
Structure prediction by ZEFSAII (Michael W. Deem and Ramdas Pophale) SiO2 
 PCOD8088137
Probable space group: C 2/M
;
_chemical_formula_sum "Si O2"
_cell_formula_units_Z 64
_cell_length_a 24.637878
_cell_length_b 9.427765
_cell_length_c 19.288236
_cell_angle_alpha 90.000000
_cell_angle_beta 48.227488
_cell_angle_gamma 90.000000
_cell_volume 3341.368912
_symmetry_space_group_name_H-M "C 2/M"
_symmetry_group_IT_number 12
_symmetry_cell_setting 'monoclinic'
loop_
_space_group_symop_operation_xyz
x,y,z
-x,y,-z
-x,-y,-z
x,-y,z
1/2+x,1/2+y,z
1/2-x,1/2+y,-z
1/2-x,1/2-y,-z
1/2+x,1/2-y,z
loop_
_atom_site_type_symbol
_atom_site_label
_atom_site_fract_x
_atom_site_fract_y
_atom_site_fract_z
Si Si1 0.911175 0.168930 0.787252
Si Si2 0.600334 0.842224 0.775213
Si Si3 0.222768 0.833912 0.727337
Si Si4 0.705004 0.163844 0.190214
Si Si5 0.791997 0.335064 0.523718
Si Si6 0.940367 0.336780 0.338857
Si Si7 0.652918 0.661934 0.010751
Si Si8 0.457792 0.160078 0.970419
O O1 0.864424 0.237643 0.765240
O O2 0.870991 0.214622 0.892855
O O3 0.992442 0.229892 0.712122
O O4 0.914165 0.000000 0.776082
O O5 0.643684 0.738295 0.789242
O O6 0.608429 0.803875 0.687818
O O7 0.513445 0.832379 0.859275
O O8 0.628921 0.000000 0.767355
O O9 0.262428 0.784765 0.763952
O O10 0.267887 0.786420 0.621086
O O11 0.208977 0.000000 0.741834
O O12 0.680178 0.000000 0.216036
O O13 0.761833 0.183039 0.078013
O O14 0.774165 0.500000 0.526289
O O15 0.750000 0.250000 0.500000
O O16 0.879756 0.309723 0.449553
O O17 0.968840 0.500000 0.314624
O O18 0.629477 0.500000 0.021508
O O19 0.612670 0.748918 0.985457
O O20 0.431836 0.000000 0.008476
O O21 0.500000 0.224467 0.000000
#
# Coordination Sequence:
#
# PCOD8088137 Si02
#       8
#     8   8   8   8   8   8   8   8
#     4  11  23  38  58  84 109 142 190 235 272 318
#     4  10  19  32  52  79 111 147 181 217 271 327
#     4  10  21  36  57  84 112 144 184 227 273 328
#     4  10  22  40  58  79 110 148 185 226 279 330
#     4  10  20  35  57  85 114 144 181 223 271 328
#     4  10  20  36  57  81 111 147 181 220 274 328
#     4  10  21  36  55  80 109 142 184 228 272 324
#     4  10  20  32  48  75 111 148 184 220 264 322
#
# _framework density 19.153825000000001
#
# number of rings (size 3 to 8) (size 9 to 14) (size 15 to 20)
#    0.000    1.875    2.500    1.500    0.000    3.250 
#    0.000    0.625    0.000    3.750    0.000    0.000 
#    0.000    0.000    0.000    0.000    0.000    0.000 
#
# Total GULP energy -396736.333665 kJ/mol
# GULP energy per Si atom -12398.010427 kJ/mol
# Density = 1.911023 g / cm^3
# Si number density = 19.153825 Si / 1000 Ang^3
#
#
#
# Elastic Constant Matrix: (Units=GPa)
#
#
# Indices 1 2 3 4 5 6 
#
# 1 107.5987 56.6646 28.4780 0.0011 -7.9795 -0.0026
# 2 56.6646 66.3197 22.2629 0.0070 -9.8881 -0.0188
# 3 28.4780 22.2629 67.5238 -0.0004 -4.1589 -0.0013
# 4 0.0011 0.0070 -0.0004 22.0719 0.0015 -4.2855
# 5 -7.9795 -9.8881 -4.1589 0.0015 22.1515 -0.0007
# 6 -0.0026 -0.0188 -0.0013 -4.2855 -0.0007 38.6913
#
#
#
# Elastic Compliance Matrix: (Units=1/GPa)
#
#
# Indices 1 2 3 4 5 6 
#
# 1 0.017338 -0.013970 -0.002737 0.000003 -0.000504 -0.000005
# 2 -0.013970 0.029221 -0.003287 -0.000007 0.007394 0.000013
# 3 -0.002737 -0.003287 0.017094 0.000001 0.000756 -0.000001
# 4 0.000003 -0.000007 0.000001 0.046302 -0.000005 0.005129
# 5 -0.000504 0.007394 0.000756 -0.000005 0.048405 0.000004
# 6 -0.000005 0.000013 -0.000001 0.005129 0.000004 0.026414
#
#
# Mechanical properties :
#
#
# Convention : Reuss Voigt Hill
#
# Bulk Modulus (GPa) = 42.25783 50.69478 46.47630
# Shear Modulus (GPa) = 21.49151 25.51871 23.50511
#
# Velocity S-wave (km/s) = 3.35333 3.65403 3.50691
# Velocity P-wave (km/s) = 6.09125 6.65787 6.38085
#
# Compressibility (1/GPa) = 0.02366425
#
# Stress axis : x y z
#
# Youngs Moduli (GPa) = 57.67703 34.22247 58.49907
#
# Poissons Ratio (x) = 0.47809 0.16013
# Poissons Ratio (y) = 0.80575 0.19228
# Poissons Ratio (z) = 0.15788 0.11248
#
# Static dielectric constant tensor:
#      x y z
#    x 3.292500 0.000000 0.087040 
#    y 0.000000 3.402410 0.000000 
#    z 0.087040 0.000000 3.677850 
# 
# 
# High freq. dielectric constant tensor:
#      x y z
#    x 1.732430 0.000000 0.000540 
#    y 0.000000 1.738060 0.000000 
#    z 0.000540 0.000000 1.749070 
# 
# From -- ./inp_files/295747.got.cif
#   From: 2010.06.25/outbox.cif.g09.slc.cpg/sg12_148_cif.got.tgz:295747.got - 2010.06.28 00:19:55.
