data_PCOD8088561
_publ_section_title
;
Structure prediction by ZEFSAII (Michael W. Deem and Ramdas Pophale) SiO2 
 PCOD8088561
Probable space group: C 2/M
;
_chemical_formula_sum "Si O2"
_cell_formula_units_Z 64
_cell_length_a 23.416353
_cell_length_b 13.237860
_cell_length_c 13.138938
_cell_angle_alpha 90.000000
_cell_angle_beta 121.743176
_cell_angle_gamma 90.000000
_cell_volume 3463.603422
_symmetry_space_group_name_H-M "C 2/M"
_symmetry_group_IT_number 12
_symmetry_cell_setting 'monoclinic'
loop_
_space_group_symop_operation_xyz
x,y,z
-x,y,-z
-x,-y,-z
x,-y,z
1/2+x,1/2+y,z
1/2-x,1/2+y,-z
1/2-x,1/2-y,-z
1/2+x,1/2-y,z
loop_
_atom_site_type_symbol
_atom_site_label
_atom_site_fract_x
_atom_site_fract_y
_atom_site_fract_z
Si Si1 0.802313 0.384437 0.566431
Si Si2 0.299601 0.699359 0.179898
Si Si3 0.423473 0.385889 0.176723
Si Si4 0.078882 0.619214 0.170666
Si Si5 0.311448 0.113140 0.057303
Si Si6 0.934453 0.692625 0.064007
Si Si7 0.039963 0.114800 0.440838
Si Si8 0.682577 0.707794 0.566408
O O1 0.811838 0.500000 0.543395
O O2 0.860151 0.350104 0.699276
O O3 0.729848 0.370050 0.550199
O O4 0.807358 0.320009 0.468192
O O5 0.367036 0.645433 0.205039
O O6 0.292975 0.813240 0.132411
O O7 0.296916 0.704678 0.297634
O O8 0.236039 0.634624 0.083838
O O9 0.409537 0.500000 0.124943
O O10 0.424671 0.311338 0.081063
O O11 0.494914 0.379466 0.298425
O O12 0.076707 0.500000 0.146173
O O13 0.009612 0.654908 0.157098
O O14 0.087563 0.678376 0.073016
O O15 0.388082 0.126659 0.094644
O O16 0.300425 0.000000 0.086764
O O17 0.105543 0.179058 0.479237
O O18 0.000000 0.160824 0.500000
O O19 0.061082 0.000000 0.486645
#
# Coordination Sequence:
#
# PCOD8088561 Si02
#       8
#     8   8   8   8   8   8   8   8
#     4  10  23  38  56  80 107 142 181 224 270 317
#     4  10  21  34  53  78 107 140 174 215 266 319
#     4  10  20  34  51  78 110 140 173 217 267 319
#     4  10  19  35  56  78 104 137 179 225 265 310
#     4  10  20  34  52  79 108 137 174 217 264 318
#     4  10  19  32  54  78 104 137 179 220 266 314
#     4  10  19  32  55  82 107 139 179 220 263 311
#     4  11  21  37  58  80 109 141 180 225 267 319
#
# _framework density 18.477865999999999
#
# number of rings (size 3 to 8) (size 9 to 14) (size 15 to 20)
#    0.000    1.875    1.250    3.750    0.000    3.000 
#    0.000    1.250    0.000    8.625    0.000    0.000 
#    0.000    0.000    0.000    0.000    0.000    0.000 
#
# Total GULP energy -396906.659132 kJ/mol
# GULP energy per Si atom -12403.333098 kJ/mol
# Density = 1.843581 g / cm^3
# Si number density = 18.477866 Si / 1000 Ang^3
#
#
#
# Elastic Constant Matrix: (Units=GPa)
#
#
# Indices 1 2 3 4 5 6 
#
# 1 99.6629 33.8618 17.1801 0.0000 1.6077 0.0000
# 2 33.8618 121.2151 36.5389 0.0000 -5.2897 0.0000
# 3 17.1801 36.5389 49.3114 0.0000 -5.3370 0.0000
# 4 0.0000 0.0000 0.0000 25.8915 0.0000 2.8917
# 5 1.6077 -5.2897 -5.3370 0.0000 27.3222 0.0000
# 6 0.0000 0.0000 0.0000 2.8917 0.0000 19.3952
#
#
#
# Elastic Compliance Matrix: (Units=1/GPa)
#
#
# Indices 1 2 3 4 5 6 
#
# 1 0.011312 -0.002562 -0.002215 0.000000 -0.001594 0.000000
# 2 -0.002562 0.011210 -0.007317 0.000000 0.000892 0.000000
# 3 -0.002215 -0.007317 0.026903 0.000000 0.003969 0.000000
# 4 0.000000 0.000000 0.000000 0.039277 0.000000 -0.005856
# 5 -0.001594 0.000892 0.003969 0.000000 0.037642 0.000000
# 6 0.000000 0.000000 0.000000 -0.005856 0.000000 0.052432
#
#
# Mechanical properties :
#
#
# Convention : Reuss Voigt Hill
#
# Bulk Modulus (GPa) = 39.62672 49.48345 44.55508
# Shear Modulus (GPa) = 23.65443 26.69568 25.17506
#
# Velocity S-wave (km/s) = 3.58180 3.80510 3.69513
# Velocity P-wave (km/s) = 6.21271 6.79286 6.50925
#
# Compressibility (1/GPa) = 0.02523550
#
# Stress axis : x y z
#
# Youngs Moduli (GPa) = 88.40308 89.20508 37.17086
#
# Poissons Ratio (x) = 0.22852 0.08235
# Poissons Ratio (y) = 0.22647 0.27200
# Poissons Ratio (z) = 0.19585 0.65276
#
# Static dielectric constant tensor:
#      x y z
#    x 3.508800 0.000000 0.159080 
#    y 0.000000 3.411890 0.000000 
#    z 0.159080 0.000000 3.265910 
# 
# 
# High freq. dielectric constant tensor:
#      x y z
#    x 1.729790 0.000000 0.012890 
#    y 0.000000 1.714340 0.000000 
#    z 0.012890 0.000000 1.706290 
# 
# From -- ./inp_files/175291.got.cif
#   From: 2010.06.25/outbox.cif.g09.slc.cpg/sg12_88_cif.got.tgz:175291.got - 2010.06.28 00:19:55.
