data_PCOD8088870
_publ_section_title
;
Structure prediction by ZEFSAII (Michael W. Deem and Ramdas Pophale) SiO2 
 PCOD8088870
Probable space group: C 2/M
;
_chemical_formula_sum "Si O2"
_cell_formula_units_Z 48
_cell_length_a 18.672345
_cell_length_b 14.070979
_cell_length_c 20.435555
_cell_angle_alpha 90.000000
_cell_angle_beta 28.268786
_cell_angle_gamma 90.000000
_cell_volume 2542.898771
_symmetry_space_group_name_H-M "C 2/M"
_symmetry_group_IT_number 12
_symmetry_cell_setting 'monoclinic'
loop_
_space_group_symop_operation_xyz
x,y,z
-x,y,-z
-x,-y,-z
x,-y,z
1/2+x,1/2+y,z
1/2-x,1/2+y,-z
1/2-x,1/2-y,-z
1/2+x,1/2-y,z
loop_
_atom_site_type_symbol
_atom_site_label
_atom_site_fract_x
_atom_site_fract_y
_atom_site_fract_z
Si Si1 0.151193 0.890741 0.700244
Si Si2 0.954777 0.209128 0.961736
Si Si3 0.529644 0.604275 0.286515
Si Si4 0.864819 0.394305 0.973017
Si Si5 0.654365 0.110180 0.163665
Si Si6 0.618396 0.780891 0.557940
O O1 0.304758 0.828694 0.567502
O O2 0.037651 0.874589 0.731143
O O3 0.199226 0.000000 0.667976
O O4 0.068576 0.860730 0.832937
O O5 0.973766 0.315063 0.916376
O O6 0.783524 0.172113 0.094128
O O7 0.000000 0.211914 0.000000
O O8 0.477046 0.500000 0.353314
O O9 0.708822 0.609075 0.137886
O O10 0.473952 0.683718 0.383456
O O11 0.937710 0.500000 0.921059
O O12 0.835533 0.369904 0.921299
O O13 0.490579 0.141867 0.320891
O O14 0.680041 0.000000 0.159598
O O15 0.750000 0.750000 0.500000
#
# Coordination Sequence:
#
# PCOD8088870 Si02
#       6
#     8   8   8   8   8   8
#     4  10  20  35  53  81 117 149 182 231 291 340
#     4  12  24  38  58  84 117 159 197 238 285 344
#     4   9  16  30  56  85 111 140 182 236 288 335
#     4  10  19  35  61  87 111 144 191 246 290 334
#     4  11  21  36  61  89 115 149 198 242 286 345
#     4  10  19  32  55  86 119 147 183 239 295 347
#
# _framework density 18.876094999999999
#
# number of rings (size 3 to 8) (size 9 to 14) (size 15 to 20)
#    0.000    1.667    3.333    3.500    0.000    2.333 
#    0.000    1.667    0.000    2.000    0.000    2.333 
#    0.000    0.000    0.000    0.000    0.000    0.000 
#
# Total GULP energy -297548.329147 kJ/mol
# GULP energy per Si atom -12397.847048 kJ/mol
# Density = 1.883313 g / cm^3
# Si number density = 18.876095 Si / 1000 Ang^3
#
#
#
# Elastic Constant Matrix: (Units=GPa)
#
#
# Indices 1 2 3 4 5 6 
#
# 1 65.8236 40.8591 24.0028 -0.0005 8.9695 -0.0002
# 2 40.8591 128.4855 33.1638 0.0025 8.5686 -0.0005
# 3 24.0028 33.1638 80.1413 0.0066 -9.2209 -0.0011
# 4 -0.0005 0.0025 0.0066 40.3513 -0.0001 -0.5876
# 5 8.9695 8.5686 -9.2209 -0.0001 7.4044 -0.0002
# 6 -0.0002 -0.0005 -0.0011 -0.5876 -0.0002 12.0742
#
#
#
# Elastic Compliance Matrix: (Units=1/GPa)
#
#
# Indices 1 2 3 4 5 6 
#
# 1 0.027602 -0.002445 -0.012579 0.000002 -0.046272 -0.000001
# 2 -0.002445 0.011256 -0.005934 0.000000 -0.017454 0.000000
# 3 -0.012579 -0.005934 0.024797 -0.000004 0.052986 0.000003
# 4 0.000002 0.000000 -0.000004 0.024800 -0.000008 0.001207
# 5 -0.046272 -0.017454 0.052986 -0.000008 0.277290 0.000008
# 6 -0.000001 0.000000 0.000003 0.001207 0.000008 0.082880
#
#
# Mechanical properties :
#
#
# Convention : Reuss Voigt Hill
#
# Bulk Modulus (GPa) = 45.99896 52.27799 49.13848
# Shear Modulus (GPa) = 10.04444 23.72763 16.88604
#
# Velocity S-wave (km/s) = 2.30929 3.54929 2.99419
# Velocity P-wave (km/s) = 5.61535 6.67474 6.16783
#
# Compressibility (1/GPa) = 0.02173962
#
# Stress axis : x y z
#
# Youngs Moduli (GPa) = 36.22910 88.84122 40.32674
#
# Poissons Ratio (x) = 0.21721 0.50728
# Poissons Ratio (y) = 0.08858 0.23929
# Poissons Ratio (z) = 0.45573 0.52717
#
# Static dielectric constant tensor:
#      x y z
#    x 2.925340 0.000000 -0.109310 
#    y 0.000000 4.088900 0.000010 
#    z -0.109310 0.000010 3.671690 
# 
# 
# High freq. dielectric constant tensor:
#      x y z
#    x 1.670440 0.000000 -0.011080 
#    y 0.000000 1.762770 0.000000 
#    z -0.011080 0.000000 1.734850 
# 
# From -- ./inp_files/73599.got.cif
#   From: 2010.06.25/outbox.cif.g09.slc.cpg/sg12_37_cif.got.tgz:73599.got - 2010.06.28 00:19:55.
