data_PCOD8088536
_publ_section_title
;
Structure prediction by ZEFSAII (Michael W. Deem and Ramdas Pophale) SiO2 
 PCOD8088536
Probable space group: C 2/M
;
_chemical_formula_sum "Si O2"
_cell_formula_units_Z 48
_cell_length_a 8.695872
_cell_length_b 20.519197
_cell_length_c 18.135292
_cell_angle_alpha 90.000000
_cell_angle_beta 134.410876
_cell_angle_gamma 90.000000
_cell_volume 2311.548093
_symmetry_space_group_name_H-M "C 2/M"
_symmetry_group_IT_number 12
_symmetry_cell_setting 'monoclinic'
loop_
_space_group_symop_operation_xyz
x,y,z
-x,y,-z
-x,-y,-z
x,-y,z
1/2+x,1/2+y,z
1/2-x,1/2+y,-z
1/2-x,1/2-y,-z
1/2+x,1/2-y,z
loop_
_atom_site_type_symbol
_atom_site_label
_atom_site_fract_x
_atom_site_fract_y
_atom_site_fract_z
Si Si1 0.161768 0.179695 0.183440
Si Si2 0.417805 0.926079 0.202515
Si Si3 0.962619 0.287722 0.404112
Si Si4 0.763226 0.700843 0.886893
Si Si5 0.885620 0.429936 0.883418
Si Si6 0.212320 0.841151 0.601154
O O1 0.200718 0.112342 0.152319
O O2 0.269617 0.171687 0.300155
O O3 0.285913 0.237286 0.180953
O O4 0.910107 0.197417 0.104973
O O5 0.435058 0.923806 0.120047
O O6 0.628293 0.891979 0.307826
O O7 0.402130 0.000000 0.226612
O O8 0.178321 0.299578 0.428608
O O9 0.000000 0.313224 0.500000
O O10 0.882459 0.212714 0.374325
O O11 0.733159 0.633632 0.829749
O O12 0.000000 0.707394 0.000000
O O13 0.762310 0.500000 0.831935
O O14 0.000000 0.429645 0.000000
O O15 0.000000 0.879594 0.500000
#
# Coordination Sequence:
#
# PCOD8088536 Si02
#       6
#     8   8   8   8   8   8
#     4  11  22  37  60  84 117 154 191 241 291 340
#     4  10  22  39  58  82 113 152 198 241 288 345
#     4  10  19  32  53  86 117 145 185 231 285 343
#     4  11  22  37  59  88 118 147 190 239 289 349
#     4   9  19  37  58  81 111 145 183 228 279 339
#     4  10  19  32  55  83 115 150 188 233 285 342
#
# _framework density 20.765304
#
# number of rings (size 3 to 8) (size 9 to 14) (size 15 to 20)
#    0.000    1.833    0.000    6.500    0.000    3.667 
#    0.000    0.000    0.000   17.500    0.000    0.000 
#    0.000    0.667    0.000    0.000    0.000    0.000 
#
# Total GULP energy -297401.203321 kJ/mol
# GULP energy per Si atom -12391.716805 kJ/mol
# Density = 2.071804 g / cm^3
# Si number density = 20.765304 Si / 1000 Ang^3
#
#
#
# Elastic Constant Matrix: (Units=GPa)
#
#
# Indices 1 2 3 4 5 6 
#
# 1 135.2358 65.2562 49.1206 0.0000 7.4764 0.0000
# 2 65.2562 157.1808 27.9268 0.0000 -14.5683 0.0000
# 3 49.1206 27.9268 81.6175 0.0000 -5.8592 0.0000
# 4 0.0000 0.0000 0.0000 14.3667 0.0000 4.3590
# 5 7.4764 -14.5683 -5.8592 0.0000 35.1092 0.0000
# 6 0.0000 0.0000 0.0000 4.3590 0.0000 33.1080
#
#
#
# Elastic Compliance Matrix: (Units=1/GPa)
#
#
# Indices 1 2 3 4 5 6 
#
# 1 0.012053 -0.004417 -0.006132 0.000000 -0.005423 0.000000
# 2 -0.004417 0.008608 0.000037 0.000000 0.004519 0.000000
# 3 -0.006132 0.000037 0.016219 0.000000 0.004028 0.000000
# 4 0.000000 0.000000 0.000000 0.072502 0.000000 -0.009546
# 5 -0.005423 0.004519 0.004028 0.000000 0.032185 0.000000
# 6 0.000000 0.000000 0.000000 -0.009546 0.000000 0.031461
#
#
# Mechanical properties :
#
#
# Convention : Reuss Voigt Hill
#
# Bulk Modulus (GPa) = 63.06396 73.18238 68.12317
# Shear Modulus (GPa) = 25.08327 31.96547 28.52437
#
# Velocity S-wave (km/s) = 3.47932 3.92774 3.71031
# Velocity P-wave (km/s) = 6.82471 7.47587 7.15770
#
# Compressibility (1/GPa) = 0.01585692
#
# Stress axis : x y z
#
# Youngs Moduli (GPa) = 82.96745 116.16945 61.65602
#
# Poissons Ratio (x) = 0.51313 0.37806
# Poissons Ratio (y) = 0.36648 -0.00230
# Poissons Ratio (z) = 0.50874 -0.00434
#
# Static dielectric constant tensor:
#      x y z
#    x 3.867410 0.000000 -0.112470 
#    y 0.000000 4.177300 0.000000 
#    z -0.112470 0.000000 3.628040 
# 
# 
# High freq. dielectric constant tensor:
#      x y z
#    x 1.816950 0.000000 -0.009620 
#    y 0.000000 1.801650 0.000000 
#    z -0.009620 0.000000 1.801980 
# 
# From -- ./inp_files/258293.got.cif
#   From: 2010.06.25/outbox.cif.g09.slc.cpg/sg12_130_cif.got.tgz:258293.got - 2010.06.28 00:19:55.
