data_PCOD8088127
_publ_section_title
;
Structure prediction by ZEFSAII (Michael W. Deem and Ramdas Pophale) SiO2 
 PCOD8088127
Probable space group: C 2/M
;
_chemical_formula_sum "Si O2"
_cell_formula_units_Z 56
_cell_length_a 18.058589
_cell_length_b 8.341410
_cell_length_c 20.797479
_cell_angle_alpha 90.000000
_cell_angle_beta 61.279883
_cell_angle_gamma 90.000000
_cell_volume 2747.403375
_symmetry_space_group_name_H-M "C 2/M"
_symmetry_group_IT_number 12
_symmetry_cell_setting 'monoclinic'
loop_
_space_group_symop_operation_xyz
x,y,z
-x,y,-z
-x,-y,-z
x,-y,z
1/2+x,1/2+y,z
1/2-x,1/2+y,-z
1/2-x,1/2-y,-z
1/2+x,1/2-y,z
loop_
_atom_site_type_symbol
_atom_site_label
_atom_site_fract_x
_atom_site_fract_y
_atom_site_fract_z
Si Si1 0.757577 0.188795 0.776050
Si Si2 0.144067 0.687711 0.082300
Si Si3 0.569900 0.813768 0.242953
Si Si4 0.258903 0.816818 0.638244
Si Si5 0.811205 0.681992 0.067315
Si Si6 0.086688 0.184781 0.496008
Si Si7 0.605448 0.185570 0.626255
O O1 0.855043 0.219240 0.753565
O O2 0.730933 0.276919 0.722292
O O3 0.695558 0.262356 0.858758
O O4 0.744616 0.000000 0.772425
O O5 0.171739 0.500000 0.070480
O O6 0.069019 0.713049 0.165359
O O7 0.219878 0.800270 0.073064
O O8 0.121920 0.739828 0.016585
O O9 0.481644 0.749107 0.307034
O O10 0.581892 0.000000 0.255081
O O11 0.338100 0.706725 0.586253
O O12 0.181144 0.788249 0.623362
O O13 0.287289 0.000000 0.621132
O O14 0.831063 0.500000 0.074798
O O15 0.104548 0.293557 0.550266
O O16 0.000000 0.243114 0.500000
O O17 0.080729 0.000000 0.519478
O O18 0.619632 0.000000 0.637572
#
# Coordination Sequence:
#
# PCOD8088127 Si02
#       7
#     8   8   8   8   8   8   8
#     4  10  19  32  52  79 110 142 179 223 269 317
#     4   8  13  24  43  70 103 136 173 215 261 311
#     4   9  18  32  53  80 109 142 179 221 266 314
#     4  12  25  40  58  79 107 143 181 220 264 314
#     4   8  14  24  42  70 103 137 172 215 264 311
#     4  11  24  42  64  88 112 138 170 211 259 312
#     4  11  23  39  58  81 111 144 179 218 262 313
#
# _framework density 20.382881000000001
#
# number of rings (size 3 to 8) (size 9 to 14) (size 15 to 20)
#    0.000    2.143    0.000    3.857    0.000    5.143 
#    0.000    0.000    0.000    0.857    0.000    6.000 
#    0.000    0.000    0.000    0.000    0.000    0.000 
#
# Total GULP energy -346917.864001 kJ/mol
# GULP energy per Si atom -12389.923714 kJ/mol
# Density = 2.033649 g / cm^3
# Si number density = 20.382881 Si / 1000 Ang^3
#
#
#
# Elastic Constant Matrix: (Units=GPa)
#
#
# Indices 1 2 3 4 5 6 
#
# 1 75.4697 14.3584 35.8156 -0.0001 18.0893 0.0004
# 2 14.3584 40.8375 12.1667 -0.0004 0.4806 0.0003
# 3 35.8156 12.1667 135.3299 0.0000 31.7802 -0.0001
# 4 -0.0001 -0.0004 0.0000 24.2544 0.0000 4.9020
# 5 18.0893 0.4806 31.7802 0.0000 18.3975 -0.0001
# 6 0.0004 0.0003 -0.0001 4.9020 -0.0001 22.8748
#
#
#
# Elastic Compliance Matrix: (Units=1/GPa)
#
#
# Indices 1 2 3 4 5 6 
#
# 1 0.018884 -0.006375 -0.000174 0.000000 -0.018101 0.000000
# 2 -0.006375 0.027645 -0.003534 0.000000 0.011651 0.000000
# 3 -0.000174 -0.003534 0.012941 0.000000 -0.022091 0.000000
# 4 0.000000 0.000000 0.000000 0.043096 0.000000 -0.009235
# 5 -0.018101 0.011651 -0.022091 0.000000 0.110009 0.000000
# 6 0.000000 0.000000 0.000000 -0.009235 0.000000 0.045695
#
#
# Mechanical properties :
#
#
# Convention : Reuss Voigt Hill
#
# Bulk Modulus (GPa) = 25.44299 41.81315 33.62807
# Shear Modulus (GPa) = 17.15042 25.72510 21.43776
#
# Velocity S-wave (km/s) = 2.90386 3.55645 3.24659
# Velocity P-wave (km/s) = 4.87369 6.11742 5.53063
#
# Compressibility (1/GPa) = 0.03930355
#
# Stress axis : x y z
#
# Youngs Moduli (GPa) = 52.95374 36.17348 77.27456
#
# Poissons Ratio (x) = 0.23060 0.01344
# Poissons Ratio (y) = 0.33757 0.27311
# Poissons Ratio (z) = 0.00921 0.12785
#
# Static dielectric constant tensor:
#      x y z
#    x 3.237730 0.000000 0.125770 
#    y 0.000000 3.515600 0.000000 
#    z 0.125770 0.000000 4.381940 
# 
# 
# High freq. dielectric constant tensor:
#      x y z
#    x 1.744820 0.000000 0.015530 
#    y 0.000000 1.786090 0.000000 
#    z 0.015530 0.000000 1.830490 
# 
# From -- ./inp_files/313772.got.cif
#   From: 2010.06.25/outbox.cif.g09.slc.cpg/sg12_157_cif.got.tgz:313772.got - 2010.06.28 00:19:55.
