data_PCOD8088680
_publ_section_title
;
Structure prediction by ZEFSAII (Michael W. Deem and Ramdas Pophale) SiO2 
 PCOD8088680
Probable space group: C 2/M
;
_chemical_formula_sum "Si O2"
_cell_formula_units_Z 48
_cell_length_a 28.252123
_cell_length_b 9.155495
_cell_length_c 17.345619
_cell_angle_alpha 90.000000
_cell_angle_beta 144.385261
_cell_angle_gamma 90.000000
_cell_volume 2612.723572
_symmetry_space_group_name_H-M "C 2/M"
_symmetry_group_IT_number 12
_symmetry_cell_setting 'monoclinic'
loop_
_space_group_symop_operation_xyz
x,y,z
-x,y,-z
-x,-y,-z
x,-y,z
1/2+x,1/2+y,z
1/2-x,1/2+y,-z
1/2-x,1/2-y,-z
1/2+x,1/2-y,z
loop_
_atom_site_type_symbol
_atom_site_label
_atom_site_fract_x
_atom_site_fract_y
_atom_site_fract_z
Si Si1 0.459517 0.173392 0.869624
Si Si2 0.511664 0.827994 0.771229
Si Si3 0.335378 0.172074 0.126175
Si Si4 0.625907 0.669022 0.508315
Si Si5 0.905059 0.166169 0.362516
Si Si6 0.778356 0.669400 0.612028
O O1 0.502143 0.229526 0.846826
O O2 0.366931 0.227929 0.751762
O O3 0.466140 0.000000 0.880862
O O4 0.500000 0.241418 0.000000
O O5 0.601532 0.787322 0.859018
O O6 0.443244 0.758693 0.626615
O O7 0.496966 0.000000 0.748088
O O8 0.373204 0.223203 0.256628
O O9 0.320380 0.000000 0.109692
O O10 0.250000 0.250000 0.000000
O O11 0.601672 0.500000 0.466336
O O12 0.634659 0.711194 0.609149
O O13 0.715376 0.704475 0.596032
O O14 0.000000 0.184009 0.500000
O O15 0.882562 0.000000 0.308869
O O16 0.782501 0.500000 0.597541
O O17 0.750000 0.750000 0.500000
#
# Coordination Sequence:
#
# PCOD8088680 Si02
#       6
#     8   8   8   8   8   8
#     4   9  18  33  54  80 109 142 181 225 273 325
#     4  10  20  35  57  82 107 144 187 232 280 334
#     4  11  24  39  58  84 115 151 191 236 286 342
#     4  10  20  33  55  85 113 147 186 230 281 333
#     4  10  20  36  58  84 114 149 189 234 282 331
#     4  10  19  32  54  82 109 142 182 228 274 325
#
# _framework density 18.371635000000001
#
# number of rings (size 3 to 8) (size 9 to 14) (size 15 to 20)
#    0.000    2.000    3.333    0.500    0.000    3.000 
#    0.000    5.000    0.000    2.000    0.000    0.000 
#    0.000    0.000    0.000    0.000    0.000    0.000 
#
# Total GULP energy -297559.618017 kJ/mol
# GULP energy per Si atom -12398.317417 kJ/mol
# Density = 1.832982 g / cm^3
# Si number density = 18.371635 Si / 1000 Ang^3
#
#
#
# Elastic Constant Matrix: (Units=GPa)
#
#
# Indices 1 2 3 4 5 6 
#
# 1 180.0911 49.9942 81.1969 0.0000 6.2074 0.0000
# 2 49.9942 45.5690 44.8129 0.0000 1.3996 0.0000
# 3 81.1969 44.8129 126.3664 0.0000 3.1059 0.0000
# 4 0.0000 0.0000 0.0000 30.5514 0.0000 -3.7357
# 5 6.2074 1.3996 3.1059 0.0000 26.7349 0.0000
# 6 0.0000 0.0000 0.0000 -3.7357 0.0000 20.2290
#
#
#
# Elastic Compliance Matrix: (Units=1/GPa)
#
#
# Indices 1 2 3 4 5 6 
#
# 1 0.008915 -0.006355 -0.003442 0.000000 -0.001337 0.000000
# 2 -0.006355 0.038230 -0.009488 0.000000 0.000576 0.000000
# 3 -0.003442 -0.009488 0.013496 0.000000 -0.000272 0.000000
# 4 0.000000 0.000000 0.000000 0.033488 0.000000 0.006184
# 5 -0.001337 0.000576 -0.000272 0.000000 0.037716 0.000000
# 6 0.000000 0.000000 0.000000 0.006184 0.000000 0.050576
#
#
# Mechanical properties :
#
#
# Convention : Reuss Voigt Hill
#
# Bulk Modulus (GPa) = 45.30733 78.22608 61.76670
# Shear Modulus (GPa) = 21.89649 27.23790 24.56719
#
# Velocity S-wave (km/s) = 3.45608 3.85464 3.66079
# Velocity P-wave (km/s) = 6.37504 7.90463 7.18068
#
# Compressibility (1/GPa) = 0.02207149
#
# Stress axis : x y z
#
# Youngs Moduli (GPa) = 112.17429 26.15777 74.09367
#
# Poissons Ratio (x) = 0.16622 0.25501
# Poissons Ratio (y) = 0.71283 0.70301
# Poissons Ratio (z) = 0.38607 0.24819
#
# Static dielectric constant tensor:
#      x y z
#    x 3.778140 0.000000 0.111250 
#    y 0.000000 3.241790 0.000000 
#    z 0.111250 0.000000 3.303400 
# 
# 
# High freq. dielectric constant tensor:
#      x y z
#    x 1.735130 0.000000 0.003560 
#    y 0.000000 1.689920 0.000000 
#    z 0.003560 0.000000 1.709790 
# 
# From -- ./inp_files/274581.got.cif
#   From: 2010.06.25/outbox.cif.g09.slc.cpg/sg12_138_cif.got.tgz:274581.got - 2010.06.28 00:19:55.
