data_PCOD8088764
_publ_section_title
;
Structure prediction by ZEFSAII (Michael W. Deem and Ramdas Pophale) SiO2 
 PCOD8088764
Probable space group: C 2/M
;
_chemical_formula_sum "Si O2"
_cell_formula_units_Z 48
_cell_length_a 20.683914
_cell_length_b 9.002226
_cell_length_c 14.159526
_cell_angle_alpha 90.000000
_cell_angle_beta 90.373672
_cell_angle_gamma 90.000000
_cell_volume 2636.465630
_symmetry_space_group_name_H-M "C 2/M"
_symmetry_group_IT_number 12
_symmetry_cell_setting 'monoclinic'
loop_
_space_group_symop_operation_xyz
x,y,z
-x,y,-z
-x,-y,-z
x,-y,z
1/2+x,1/2+y,z
1/2-x,1/2+y,-z
1/2-x,1/2-y,-z
1/2+x,1/2-y,z
loop_
_atom_site_type_symbol
_atom_site_label
_atom_site_fract_x
_atom_site_fract_y
_atom_site_fract_z
Si Si1 0.074275 0.175700 0.608503
Si Si2 0.499380 0.329376 0.888993
Si Si3 0.616684 0.824978 0.789697
Si Si4 0.427163 0.676051 0.600281
Si Si5 0.754503 0.676339 0.101574
Si Si6 0.869462 0.176095 0.789042
O O1 0.119772 0.255182 0.685154
O O2 0.094899 0.231742 0.503614
O O3 0.000203 0.225990 0.625560
O O4 0.082543 0.000000 0.619047
O O5 0.511630 0.500000 0.858606
O O6 0.554426 0.228950 0.845217
O O7 0.430183 0.272140 0.852183
O O8 0.500000 0.309798 0.000000
O O9 0.679714 0.773225 0.847538
O O10 0.614531 0.000000 0.778932
O O11 0.427430 0.500000 0.597892
O O12 0.379108 0.736477 0.681575
O O13 0.750200 0.500000 0.088939
O O14 0.695957 0.739173 0.165710
O O15 0.750000 0.750000 0.000000
O O16 0.865586 0.000000 0.787046
#
# Coordination Sequence:
#
# PCOD8088764 Si02
#       6
#     8   8   8   8   8   8
#     4   9  16  30  54  80 102 130 173 218 255 299
#     4  10  19  32  55  80  97 125 177 228 258 293
#     4  11  22  34  49  76 112 142 164 201 265 323
#     4   8  14  27  53  82 101 124 171 226 260 286
#     4  10  22  38  55  74 102 141 177 210 254 308
#     4   9  16  31  54  77  99 129 175 221 254 291
#
# _framework density 18.206192000000001
#
# number of rings (size 3 to 8) (size 9 to 14) (size 15 to 20)
#    0.000    2.500    1.667    2.500    0.000    3.000 
#    0.000    3.333    0.000    0.000    0.000    0.000 
#    0.000    0.000    0.000    0.000    0.000    0.000 
#
# Total GULP energy -297521.445944 kJ/mol
# GULP energy per Si atom -12396.726914 kJ/mol
# Density = 1.816475 g / cm^3
# Si number density = 18.206192 Si / 1000 Ang^3
#
#
#
# Elastic Constant Matrix: (Units=GPa)
#
#
# Indices 1 2 3 4 5 6 
#
# 1 106.7535 26.1658 73.0153 0.0000 1.6624 0.0000
# 2 26.1658 32.3674 35.3141 0.0000 8.4590 0.0000
# 3 73.0153 35.3141 161.9380 0.0000 3.4078 0.0000
# 4 0.0000 0.0000 0.0000 23.8628 0.0000 1.7191
# 5 1.6624 8.4590 3.4078 0.0000 36.9173 0.0000
# 6 0.0000 0.0000 0.0000 1.7191 0.0000 20.8377
#
#
#
# Elastic Compliance Matrix: (Units=1/GPa)
#
#
# Indices 1 2 3 4 5 6 
#
# 1 0.014429 -0.006396 -0.005138 0.000000 0.001290 0.000000
# 2 -0.006396 0.046218 -0.006992 0.000000 -0.009657 0.000000
# 3 -0.005138 -0.006992 0.009998 0.000000 0.000911 0.000000
# 4 0.000000 0.000000 0.000000 0.042157 0.000000 -0.003478
# 5 0.001290 -0.009657 0.000911 0.000000 0.029158 0.000000
# 6 0.000000 0.000000 0.000000 -0.003478 0.000000 0.048277
#
#
# Mechanical properties :
#
#
# Convention : Reuss Voigt Hill
#
# Bulk Modulus (GPa) = 29.76828 63.33881 46.55354
# Shear Modulus (GPa) = 20.96562 27.42781 24.19671
#
# Velocity S-wave (km/s) = 3.39715 3.88559 3.64955
# Velocity P-wave (km/s) = 5.63681 7.41590 6.58670
#
# Compressibility (1/GPa) = 0.03359280
#
# Stress axis : x y z
#
# Youngs Moduli (GPa) = 69.30314 21.63674 100.02394
#
# Poissons Ratio (x) = 0.13838 0.51396
# Poissons Ratio (y) = 0.44324 0.69936
# Poissons Ratio (z) = 0.35611 0.15128
#
# Static dielectric constant tensor:
#      x y z
#    x 3.456800 0.000000 -0.088280 
#    y 0.000000 2.959270 0.000000 
#    z -0.088280 0.000000 3.811700 
# 
# 
# High freq. dielectric constant tensor:
#      x y z
#    x 1.692100 0.000000 -0.000820 
#    y 0.000000 1.663810 0.000000 
#    z -0.000820 0.000000 1.729860 
# 
# From -- ./inp_files/229291.got.cif
#   From: 2010.06.25/outbox.cif.g09.slc.cpg/sg12_115_cif.got.tgz:229291.got - 2010.06.28 00:19:55.
