data_PCOD8088402
_publ_section_title
;
Structure prediction by ZEFSAII (Michael W. Deem and Ramdas Pophale) SiO2 
 PCOD8088402
Probable space group: C 2/M
;
_chemical_formula_sum "Si O2"
_cell_formula_units_Z 64
_cell_length_a 24.927840
_cell_length_b 8.873837
_cell_length_c 15.082327
_cell_angle_alpha 90.000000
_cell_angle_beta 92.645278
_cell_angle_gamma 90.000000
_cell_volume 3332.739903
_symmetry_space_group_name_H-M "C 2/M"
_symmetry_group_IT_number 12
_symmetry_cell_setting 'monoclinic'
loop_
_space_group_symop_operation_xyz
x,y,z
-x,y,-z
-x,-y,-z
x,-y,z
1/2+x,1/2+y,z
1/2-x,1/2+y,-z
1/2-x,1/2-y,-z
1/2+x,1/2-y,z
loop_
_atom_site_type_symbol
_atom_site_label
_atom_site_fract_x
_atom_site_fract_y
_atom_site_fract_z
Si Si1 0.195050 0.835513 0.904829
Si Si2 0.748689 0.319446 0.598705
Si Si3 0.338984 0.176973 0.742203
Si Si4 0.183015 0.664694 0.067488
Si Si5 0.830036 0.677845 0.270491
Si Si6 0.548486 0.826625 0.323005
Si Si7 0.062196 0.838074 0.493990
Si Si8 0.935994 0.176878 0.310223
O O1 0.254513 0.861412 0.945077
O O2 0.200461 0.725872 0.820875
O O3 0.170332 0.000000 0.877373
O O4 0.160326 0.763882 0.983475
O O5 0.746533 0.500000 0.590662
O O6 0.750000 0.250000 0.500000
O O7 0.800794 0.261662 0.659579
O O8 0.695824 0.261166 0.646323
O O9 0.325434 0.246192 0.837661
O O10 0.401830 0.214559 0.735730
O O11 0.327769 0.000000 0.744169
O O12 0.154163 0.500000 0.063921
O O13 0.827177 0.500000 0.285300
O O14 0.891133 0.731639 0.253290
O O15 0.571782 0.790561 0.422585
O O16 0.496327 0.730738 0.292168
O O17 0.532013 0.000000 0.317645
O O18 0.082530 0.783682 0.590831
O O19 0.000000 0.869603 0.500000
O O20 0.088729 0.000000 0.468395
O O21 0.933546 0.000000 0.289862
#
# Coordination Sequence:
#
# PCOD8088402 Si02
#       8
#     8   8   8   8   8   8   8   8
#     4  10  19  34  57  84 113 143 179 231 285 334
#     4  11  23  41  57  81 118 160 196 231 278 333
#     4   9  19  36  57  80 114 152 186 226 277 333
#     4   9  17  34  57  81 111 146 182 225 277 336
#     4  12  24  38  58  84 112 149 193 235 280 340
#     4  10  19  32  53  80 107 142 187 232 274 326
#     4   8  16  31  48  68  97 135 180 227 276 319
#     4  10  21  37  54  75 107 146 186 235 286 330
#
# _framework density 19.203417999999999
#
# number of rings (size 3 to 8) (size 9 to 14) (size 15 to 20)
#    0.000    2.125    1.250    3.375    1.750    3.250 
#    0.000    3.125    0.000    0.750    0.000    5.250 
#    0.000    0.000    0.000    0.000    0.000    0.000 
#
# Total GULP energy -396475.081592 kJ/mol
# GULP energy per Si atom -12389.846300 kJ/mol
# Density = 1.915971 g / cm^3
# Si number density = 19.203418 Si / 1000 Ang^3
#
#
#
# Elastic Constant Matrix: (Units=GPa)
#
#
# Indices 1 2 3 4 5 6 
#
# 1 68.8964 36.5295 25.5835 0.0000 -6.6923 0.0000
# 2 36.5295 102.1323 42.7440 0.0000 -6.0154 0.0000
# 3 25.5835 42.7440 119.9788 0.0000 -19.4104 0.0000
# 4 0.0000 0.0000 0.0000 28.8441 0.0000 -0.4404
# 5 -6.6923 -6.0154 -19.4104 0.0000 17.8494 0.0000
# 6 0.0000 0.0000 0.0000 -0.4404 0.0000 20.2696
#
#
#
# Elastic Compliance Matrix: (Units=1/GPa)
#
#
# Indices 1 2 3 4 5 6 
#
# 1 0.018435 -0.005852 -0.001270 0.000000 0.003558 0.000000
# 2 -0.005852 0.013372 -0.003813 0.000000 -0.001834 0.000000
# 3 -0.001270 -0.003813 0.011745 0.000000 0.011011 0.000000
# 4 0.000000 0.000000 0.000000 0.034681 0.000000 0.000753
# 5 0.003558 -0.001834 0.011011 0.000000 0.068715 0.000000
# 6 0.000000 0.000000 0.000000 0.000753 0.000000 0.049351
#
#
# Mechanical properties :
#
#
# Convention : Reuss Voigt Hill
#
# Bulk Modulus (GPa) = 46.12204 55.63569 50.87887
# Shear Modulus (GPa) = 22.18304 25.80264 23.99284
#
# Velocity S-wave (km/s) = 3.40245 3.66956 3.53853
# Velocity P-wave (km/s) = 6.28533 6.85484 6.57625
#
# Compressibility (1/GPa) = 0.02168161
#
# Stress axis : x y z
#
# Youngs Moduli (GPa) = 54.24511 74.78252 85.13910
#
# Poissons Ratio (x) = 0.43765 0.10815
# Poissons Ratio (y) = 0.31746 0.32462
# Poissons Ratio (z) = 0.06891 0.28513
#
# Static dielectric constant tensor:
#      x y z
#    x 3.300990 0.000000 0.066000 
#    y 0.000000 3.611370 0.000000 
#    z 0.066000 0.000000 4.516450 
# 
# 
# High freq. dielectric constant tensor:
#      x y z
#    x 1.721660 0.000000 0.000710 
#    y 0.000000 1.744370 0.000000 
#    z 0.000710 0.000000 1.738180 
# 
# From -- ./inp_files/238816.got.cif
#   From: 2010.06.25/outbox.cif.g09.slc.cpg/sg12_120_cif.got.tgz:238816.got - 2010.06.28 00:19:55.
