data_PCOD8088830
_publ_section_title
;
Structure prediction by ZEFSAII (Michael W. Deem and Ramdas Pophale) SiO2 
 PCOD8088830
Probable space group: C 2/M
;
_chemical_formula_sum "Si O2"
_cell_formula_units_Z 64
_cell_length_a 25.594901
_cell_length_b 9.017770
_cell_length_c 14.287681
_cell_angle_alpha 90.000000
_cell_angle_beta 90.243901
_cell_angle_gamma 90.000000
_cell_volume 3297.694490
_symmetry_space_group_name_H-M "C 2/M"
_symmetry_group_IT_number 12
_symmetry_cell_setting 'monoclinic'
loop_
_space_group_symop_operation_xyz
x,y,z
-x,y,-z
-x,-y,-z
x,-y,z
1/2+x,1/2+y,z
1/2-x,1/2+y,-z
1/2-x,1/2-y,-z
1/2+x,1/2-y,z
loop_
_atom_site_type_symbol
_atom_site_label
_atom_site_fract_x
_atom_site_fract_y
_atom_site_fract_z
Si Si1 0.521573 0.824941 0.597351
Si Si2 0.546112 0.337149 0.926646
Si Si3 0.727243 0.328180 0.718350
Si Si4 0.724480 0.175088 0.088669
Si Si5 0.205862 0.671023 0.443741
Si Si6 0.385737 0.676250 0.905899
Si Si7 0.363014 0.825427 0.396567
Si Si8 0.476340 0.173809 0.792640
O O1 0.500000 0.755897 0.500000
O O2 0.579223 0.759343 0.619335
O O3 0.482983 0.787408 0.683018
O O4 0.527149 0.000000 0.585184
O O5 0.556296 0.500000 0.881690
O O6 0.530028 0.220906 0.846219
O O7 0.500000 0.351675 0.000000
O O8 0.596387 0.284392 0.987289
O O9 0.713951 0.500000 0.705441
O O10 0.736216 0.288362 0.826190
O O11 0.782825 0.289701 0.665166
O O12 0.677566 0.241173 0.678194
O O13 0.668848 0.245203 0.112178
O O14 0.717938 0.000000 0.073242
O O15 0.750000 0.250000 0.000000
O O16 0.214638 0.500000 0.460699
O O17 0.250000 0.750000 0.500000
O O18 0.151261 0.714849 0.493869
O O19 0.381046 0.500000 0.892937
O O20 0.426765 0.736518 0.829857
O O21 0.362106 0.000000 0.379208
O O22 0.467329 0.000000 0.809130
#
# Coordination Sequence:
#
# PCOD8088830 Si02
#       8
#     8   8   8   8   8   8   8   8
#     4   9  19  34  51  76 111 146 181 222 268 319
#     4   8  16  32  53  76 104 138 175 219 272 324
#     4   9  19  35  54  78 107 139 176 219 269 323
#     4  11  24  40  57  80 110 144 181 221 269 323
#     4   8  14  27  49  75 101 129 168 216 260 308
#     4  10  21  38  58  80 109 145 180 219 273 327
#     4   9  17  31  54  80 104 138 181 222 265 311
#     4  10  19  32  55  84 109 140 185 230 270 319
#
# _framework density 19.407498
#
# number of rings (size 3 to 8) (size 9 to 14) (size 15 to 20)
#    0.000    2.750    0.000    1.875    0.000    5.750 
#    0.000    7.500    0.000    7.875    0.000    0.000 
#    0.000    0.000    0.000    0.000    0.000    0.000 
#
# Total GULP energy -396436.508230 kJ/mol
# GULP energy per Si atom -12388.640882 kJ/mol
# Density = 1.936333 g / cm^3
# Si number density = 19.407498 Si / 1000 Ang^3
#
#
#
# Elastic Constant Matrix: (Units=GPa)
#
#
# Indices 1 2 3 4 5 6 
#
# 1 115.3220 43.3556 58.6374 0.0000 1.6239 0.0000
# 2 43.3556 66.1030 50.6068 0.0000 -1.7029 0.0000
# 3 58.6374 50.6068 131.5770 0.0000 -3.3016 0.0000
# 4 0.0000 0.0000 0.0000 22.6847 0.0000 0.6839
# 5 1.6239 -1.7029 -3.3016 0.0000 26.0365 0.0000
# 6 0.0000 0.0000 0.0000 0.6839 0.0000 23.0926
#
#
#
# Elastic Compliance Matrix: (Units=1/GPa)
#
#
# Indices 1 2 3 4 5 6 
#
# 1 0.012579 -0.005626 -0.003482 0.000000 -0.001594 0.000000
# 2 -0.005626 0.023961 -0.006682 0.000000 0.001071 0.000000
# 3 -0.003482 -0.006682 0.011754 0.000000 0.001271 0.000000
# 4 0.000000 0.000000 0.000000 0.044122 0.000000 -0.001307
# 5 -0.001594 0.001071 0.001271 0.000000 0.038738 0.000000
# 6 0.000000 0.000000 0.000000 -0.001307 0.000000 0.043343
#
#
# Mechanical properties :
#
#
# Convention : Reuss Voigt Hill
#
# Bulk Modulus (GPa) = 59.82854 68.68909 64.25881
# Shear Modulus (GPa) = 23.62418 25.05623 24.34020
#
# Velocity S-wave (km/s) = 3.49273 3.59703 3.54526
# Velocity P-wave (km/s) = 6.86731 7.26095 7.06687
#
# Compressibility (1/GPa) = 0.01671443
#
# Stress axis : x y z
#
# Youngs Moduli (GPa) = 79.49473 41.73516 85.07898
#
# Poissons Ratio (x) = 0.23479 0.29627
# Poissons Ratio (y) = 0.44721 0.56847
# Poissons Ratio (z) = 0.27682 0.27886
#
# Static dielectric constant tensor:
#      x y z
#    x 3.359790 0.000000 0.388710 
#    y 0.000000 3.452890 0.000000 
#    z 0.388710 0.000000 3.104630 
# 
# 
# High freq. dielectric constant tensor:
#      x y z
#    x 1.748850 0.000000 -0.007810 
#    y 0.000000 1.741740 0.000000 
#    z -0.007810 0.000000 1.755710 
# 
# From -- ./inp_files/244034.got.cif
#   From: 2010.06.25/outbox.cif.g09.slc.cpg/sg12_123_cif.got.tgz:244034.got - 2010.06.28 00:19:55.
