data_PCOD8088921
_publ_section_title
;
Structure prediction by ZEFSAII (Michael W. Deem and Ramdas Pophale) SiO2 
 PCOD8088921
Probable space group: C 2/M
;
_chemical_formula_sum "Si O2"
_cell_formula_units_Z 56
_cell_length_a 19.431215
_cell_length_b 8.896498
_cell_length_c 27.960986
_cell_angle_alpha 90.000000
_cell_angle_beta 37.794454
_cell_angle_gamma 90.000000
_cell_volume 2962.183399
_symmetry_space_group_name_H-M "C 2/M"
_symmetry_group_IT_number 12
_symmetry_cell_setting 'monoclinic'
loop_
_space_group_symop_operation_xyz
x,y,z
-x,y,-z
-x,-y,-z
x,-y,z
1/2+x,1/2+y,z
1/2-x,1/2+y,-z
1/2-x,1/2-y,-z
1/2+x,1/2-y,z
loop_
_atom_site_type_symbol
_atom_site_label
_atom_site_fract_x
_atom_site_fract_y
_atom_site_fract_z
Si Si1 0.365411 0.676155 0.951692
Si Si2 0.512603 0.322311 0.642671
Si Si3 0.574449 0.322592 0.502491
Si Si4 0.619013 0.832364 0.958710
Si Si5 0.322966 0.172613 0.806140
Si Si6 0.514806 0.829831 0.195321
Si Si7 0.827606 0.678016 0.371168
O O1 0.349682 0.500000 0.959804
O O2 0.464914 0.722428 0.860861
O O3 0.250000 0.750000 0.000000
O O4 0.397244 0.727992 0.986739
O O5 0.508223 0.500000 0.652670
O O6 0.520346 0.277826 0.582766
O O7 0.398466 0.249005 0.724174
O O8 0.621686 0.259197 0.610145
O O9 0.500000 0.252917 0.500000
O O10 0.579326 0.500000 0.493658
O O11 0.702222 0.261757 0.430407
O O12 0.705347 0.758944 0.873715
O O13 0.661449 0.000000 0.949540
O O14 0.500000 0.843903 0.000000
O O15 0.381335 0.185321 0.825581
O O16 0.303096 0.000000 0.802678
O O17 0.400615 0.780057 0.284400
O O18 0.504828 0.000000 0.181953
O O19 0.832990 0.500000 0.378209
#
# Coordination Sequence:
#
# PCOD8088921 Si02
#       7
#     8   8   8   8   8   8   8
#     4  12  23  36  59  85 115 152 191 236 283 334
#     4  10  19  32  56  85 111 141 185 235 278 328
#     4   9  18  34  55  81 112 146 184 227 277 334
#     4  11  24  41  60  84 114 149 192 238 284 339
#     4  10  20  36  59  83 114 150 186 230 281 339
#     4   9  18  33  54  83 111 143 188 236 283 329
#     4   9  18  34  57  81 109 145 187 230 277 332
#
# _framework density 18.904973999999999
#
# number of rings (size 3 to 8) (size 9 to 14) (size 15 to 20)
#    0.000    2.000    1.429    3.857    0.000    3.429 
#    2.571    0.714    0.000    3.857    0.000    0.000 
#    0.000    0.000    0.000    0.000    0.000    0.000 
#
# Total GULP energy -347251.109398 kJ/mol
# GULP energy per Si atom -12401.825336 kJ/mol
# Density = 1.886195 g / cm^3
# Si number density = 18.904974 Si / 1000 Ang^3
#
#
#
# Elastic Constant Matrix: (Units=GPa)
#
#
# Indices 1 2 3 4 5 6 
#
# 1 97.3444 44.7657 67.9827 0.0000 4.6521 0.0000
# 2 44.7657 113.8875 60.0193 0.0000 5.9920 0.0008
# 3 67.9827 60.0193 141.7105 0.0000 1.7699 -0.0002
# 4 0.0000 0.0000 0.0000 28.2048 0.0000 2.8936
# 5 4.6521 5.9920 1.7699 0.0000 28.6873 0.0001
# 6 0.0000 0.0008 -0.0002 2.8936 0.0001 23.9169
#
#
#
# Elastic Compliance Matrix: (Units=1/GPa)
#
#
# Indices 1 2 3 4 5 6 
#
# 1 0.016244 -0.002836 -0.006571 0.000000 -0.001636 0.000000
# 2 -0.002836 0.011923 -0.003667 0.000000 -0.001804 0.000000
# 3 -0.006571 -0.003667 0.011748 0.000000 0.001107 0.000000
# 4 0.000000 0.000000 0.000000 0.035901 0.000000 -0.004343
# 5 -0.001636 -0.001804 0.001107 0.000000 0.035433 0.000000
# 6 0.000000 0.000000 0.000000 -0.004343 0.000000 0.042337
#
#
# Mechanical properties :
#
#
# Convention : Reuss Voigt Hill
#
# Bulk Modulus (GPa) = 72.63538 77.60866 75.12202
# Shear Modulus (GPa) = 27.12638 28.17343 27.64990
#
# Velocity S-wave (km/s) = 3.79209 3.86458 3.82851
# Velocity P-wave (km/s) = 7.59460 7.81373 7.70495
#
# Compressibility (1/GPa) = 0.01376739
#
# Stress axis : x y z
#
# Youngs Moduli (GPa) = 61.55942 83.87457 85.11909
#
# Poissons Ratio (x) = 0.23786 0.55935
# Poissons Ratio (y) = 0.17458 0.31210
# Poissons Ratio (z) = 0.40453 0.30753
#
# Static dielectric constant tensor:
#      x y z
#    x 3.215140 0.000000 -0.062500 
#    y 0.000000 3.538760 0.000000 
#    z -0.062500 0.000000 3.646500 
# 
# 
# High freq. dielectric constant tensor:
#      x y z
#    x 1.712850 0.000000 0.002370 
#    y 0.000000 1.728820 0.000000 
#    z 0.002370 0.000000 1.750740 
# 
# From -- ./inp_files/362879.got.cif
#   From: 2010.06.25/outbox.cif.g09.slc.cpg/sg12_182_cif.got.tgz:362879.got - 2010.06.28 00:19:55.
