data_PCOD8088158
_publ_section_title
;
Structure prediction by ZEFSAII (Michael W. Deem and Ramdas Pophale) SiO2 
 PCOD8088158
Probable space group: C 2/M
;
_chemical_formula_sum "Si O2"
_cell_formula_units_Z 64
_cell_length_a 20.538822
_cell_length_b 9.153987
_cell_length_c 18.554706
_cell_angle_alpha 90.000000
_cell_angle_beta 98.397236
_cell_angle_gamma 90.000000
_cell_volume 3451.110430
_symmetry_space_group_name_H-M "C 2/M"
_symmetry_group_IT_number 12
_symmetry_cell_setting 'monoclinic'
loop_
_space_group_symop_operation_xyz
x,y,z
-x,y,-z
-x,-y,-z
x,-y,z
1/2+x,1/2+y,z
1/2-x,1/2+y,-z
1/2-x,1/2-y,-z
1/2+x,1/2-y,z
loop_
_atom_site_type_symbol
_atom_site_label
_atom_site_fract_x
_atom_site_fract_y
_atom_site_fract_z
Si Si1 0.205019 0.665639 0.702705
Si Si2 0.097582 0.827530 0.771252
Si Si3 0.064638 0.170990 0.464192
Si Si4 0.044019 0.173323 0.298319
Si Si5 0.157090 0.173156 0.209893
Si Si6 0.306424 0.167442 0.466876
Si Si7 0.168613 0.169632 0.926355
Si Si8 0.179791 0.670374 0.071060
O O1 0.191039 0.500000 0.724568
O O2 0.145081 0.764043 0.718412
O O3 0.272366 0.722673 0.748815
O O4 0.213069 0.678223 0.619140
O O5 0.119857 0.780621 0.854833
O O6 0.024551 0.766587 0.744888
O O7 0.101085 0.000000 0.763353
O O8 0.053877 0.229823 0.381313
O O9 0.123544 0.258624 0.509591
O O10 0.000000 0.203659 0.500000
O O11 0.082414 0.000000 0.467550
O O12 0.102675 0.230904 0.257352
O O13 0.042846 0.000000 0.298706
O O14 0.144102 0.250651 0.131664
O O15 0.152262 0.000000 0.198595
O O16 0.250000 0.250000 0.500000
O O17 0.309560 0.000000 0.493208
O O18 0.242544 0.203466 0.912470
O O19 0.160452 0.000000 0.944906
O O20 0.149788 0.264574 0.992776
O O21 0.163982 0.500000 0.071435
#
# Coordination Sequence:
#
# PCOD8088158 Si02
#       8
#     8   8   8   8   8   8   8   8
#     4  10  21  35  54  79 108 139 175 222 275 326
#     4  10  19  35  58  83 107 136 181 228 264 310
#     4  10  20  37  60  84 111 148 190 230 279 338
#     4   9  19  35  56  80 109 144 181 222 270 324
#     4  10  19  34  54  76 106 144 179 215 266 324
#     4  11  23  38  56  81 112 146 185 233 283 334
#     4   9  18  32  52  80 109 137 174 221 266 315
#     4  10  19  32  52  80 109 138 175 221 266 315
#
# _framework density 18.544756
#
# number of rings (size 3 to 8) (size 9 to 14) (size 15 to 20)
#    0.000    2.125    1.250    2.250    0.000    5.250 
#    0.000    3.750    0.000    3.750    0.000    0.000 
#    0.000    0.000    0.000    0.000    0.000    0.000 
#
# Total GULP energy -396907.105543 kJ/mol
# GULP energy per Si atom -12403.347048 kJ/mol
# Density = 1.850255 g / cm^3
# Si number density = 18.544756 Si / 1000 Ang^3
#
#
#
# Elastic Constant Matrix: (Units=GPa)
#
#
# Indices 1 2 3 4 5 6 
#
# 1 86.9364 34.3806 33.6760 0.0000 -11.7994 0.0000
# 2 34.3806 58.9517 38.6302 0.0000 -6.9056 0.0000
# 3 33.6760 38.6302 108.5718 0.0000 -16.9693 0.0000
# 4 0.0000 0.0000 0.0000 29.8470 0.0000 -0.5352
# 5 -11.7994 -6.9056 -16.9693 0.0000 30.5852 0.0000
# 6 0.0000 0.0000 0.0000 -0.5352 0.0000 21.9807
#
#
#
# Elastic Compliance Matrix: (Units=1/GPa)
#
#
# Indices 1 2 3 4 5 6 
#
# 1 0.015611 -0.007669 -0.001580 0.000000 0.003414 0.000000
# 2 -0.007669 0.025901 -0.006992 0.000000 -0.000990 0.000000
# 3 -0.001580 -0.006992 0.012971 0.000000 0.005008 0.000000
# 4 0.000000 0.000000 0.000000 0.033519 0.000000 0.000816
# 5 0.003414 -0.000990 0.005008 0.000000 0.036568 0.000000
# 6 0.000000 0.000000 0.000000 0.000816 0.000000 0.045514
#
#
# Mechanical properties :
#
#
# Convention : Reuss Voigt Hill
#
# Bulk Modulus (GPa) = 45.45026 51.98149 48.71588
# Shear Modulus (GPa) = 23.82091 26.33413 25.07752
#
# Velocity S-wave (km/s) = 3.58789 3.77242 3.68131
# Velocity P-wave (km/s) = 6.45953 6.86047 6.66302
#
# Compressibility (1/GPa) = 0.02200208
#
# Stress axis : x y z
#
# Youngs Moduli (GPa) = 64.05773 38.60806 77.09534
#
# Poissons Ratio (x) = 0.29609 0.12179
# Poissons Ratio (y) = 0.49127 0.53903
# Poissons Ratio (z) = 0.10119 0.26994
#
# Static dielectric constant tensor:
#      x y z
#    x 3.363850 0.000000 0.035600 
#    y 0.000000 3.273340 0.000000 
#    z 0.035600 0.000000 3.513910 
# 
# 
# High freq. dielectric constant tensor:
#      x y z
#    x 1.712760 0.000000 0.001620 
#    y 0.000000 1.703480 0.000000 
#    z 0.001620 0.000000 1.734650 
# 
# From -- ./inp_files/281371.got.cif
#   From: 2010.06.25/outbox.cif.g09.slc.cpg/sg12_141_cif.got.tgz:281371.got - 2010.06.28 00:19:55.
