data_PCOD8088774
_publ_section_title
;
Structure prediction by ZEFSAII (Michael W. Deem and Ramdas Pophale) SiO2 
 PCOD8088774
Probable space group: C 2/M
;
_chemical_formula_sum "Si O2"
_cell_formula_units_Z 56
_cell_length_a 21.261653
_cell_length_b 9.345009
_cell_length_c 25.754729
_cell_angle_alpha 90.000000
_cell_angle_beta 142.999982
_cell_angle_gamma 90.000000
_cell_volume 3079.618645
_symmetry_space_group_name_H-M "C 2/M"
_symmetry_group_IT_number 12
_symmetry_cell_setting 'monoclinic'
loop_
_space_group_symop_operation_xyz
x,y,z
-x,y,-z
-x,-y,-z
x,-y,z
1/2+x,1/2+y,z
1/2-x,1/2+y,-z
1/2-x,1/2-y,-z
1/2+x,1/2-y,z
loop_
_atom_site_type_symbol
_atom_site_label
_atom_site_fract_x
_atom_site_fract_y
_atom_site_fract_z
Si Si1 0.233034 0.330936 0.739545
Si Si2 0.162508 0.329511 0.475469
Si Si3 0.371308 0.162909 0.035470
Si Si4 0.179876 0.332070 0.883694
Si Si5 0.937498 0.664567 0.908020
Si Si6 0.438501 0.830749 0.293320
Si Si7 0.614990 0.169175 0.560396
O O1 0.250508 0.500000 0.755778
O O2 0.336538 0.256795 0.829013
O O3 0.137591 0.275566 0.711741
O O4 0.202454 0.286308 0.660581
O O5 0.179052 0.500000 0.482311
O O6 0.250000 0.250000 0.500000
O O7 0.157752 0.278164 0.532597
O O8 0.054873 0.275284 0.379015
O O9 0.292206 0.258560 0.949764
O O10 0.333292 0.000000 0.004825
O O11 0.370291 0.212256 0.094572
O O12 0.488161 0.182760 0.092580
O O13 0.198038 0.500000 0.890017
O O14 0.101453 0.273299 0.788392
O O15 0.903968 0.500000 0.894536
O O16 0.000000 0.720164 0.000000
O O17 0.439326 0.000000 0.295398
O O18 0.500000 0.232767 0.500000
O O19 0.601712 0.000000 0.549603
#
# Coordination Sequence:
#
# PCOD8088774 Si02
#       7
#     8   8   8   8   8   8   8
#     4  10  19  32  55  81  98 128 180 225 258 301
#     4  10  20  35  55  79 108 139 172 215 269 321
#     4   9  18  32  47  66  96 133 165 198 250 309
#     4   9  17  30  50  72  93 123 166 210 250 296
#     4  10  21  35  49  70 106 144 171 204 261 322
#     4   9  17  31  52  75  97 126 167 211 256 307
#     4   9  16  32  57  79 103 138 178 220 265 318
#
# _framework density 18.184069999999998
#
# number of rings (size 3 to 8) (size 9 to 14) (size 15 to 20)
#    0.000    2.571    1.429    0.857    0.000    2.000 
#    0.000    3.571    0.000    0.857    0.000    0.000 
#    0.000    0.000    0.000    0.000    0.000    0.000 
#
# Total GULP energy -347100.150503 kJ/mol
# GULP energy per Si atom -12396.433947 kJ/mol
# Density = 1.814268 g / cm^3
# Si number density = 18.184070 Si / 1000 Ang^3
#
#
#
# Elastic Constant Matrix: (Units=GPa)
#
#
# Indices 1 2 3 4 5 6 
#
# 1 129.4099 33.6300 82.1106 0.0000 -1.3233 0.0000
# 2 33.6300 35.2815 45.4087 0.0000 1.9139 0.0001
# 3 82.1106 45.4087 171.1589 0.0000 -7.4946 0.0000
# 4 0.0000 0.0000 0.0000 21.8717 0.0000 2.4292
# 5 -1.3233 1.9139 -7.4946 0.0000 32.8795 0.0000
# 6 0.0000 0.0001 0.0000 2.4292 0.0000 21.7909
#
#
#
# Elastic Compliance Matrix: (Units=1/GPa)
#
#
# Indices 1 2 3 4 5 6 
#
# 1 0.011908 -0.006054 -0.004111 0.000000 -0.000105 0.000000
# 2 -0.006054 0.047001 -0.009794 0.000000 -0.005212 0.000000
# 3 -0.004111 -0.009794 0.010536 0.000000 0.002806 0.000000
# 4 0.000000 0.000000 0.000000 0.046294 0.000000 -0.005161
# 5 -0.000105 -0.005212 0.002806 0.000000 0.031353 0.000000
# 6 0.000000 0.000000 0.000000 -0.005161 0.000000 0.046466
#
#
# Mechanical properties :
#
#
# Convention : Reuss Voigt Hill
#
# Bulk Modulus (GPa) = 33.86582 73.12764 53.49673
# Shear Modulus (GPa) = 20.54922 26.95513 23.75218
#
# Velocity S-wave (km/s) = 3.36529 3.85431 3.61807
# Velocity P-wave (km/s) = 5.81073 7.75307 6.85108
#
# Compressibility (1/GPa) = 0.02952830
#
# Stress axis : x y z
#
# Youngs Moduli (GPa) = 83.97667 21.27611 94.91283
#
# Poissons Ratio (x) = 0.12880 0.39022
# Poissons Ratio (y) = 0.50835 0.92954
# Poissons Ratio (z) = 0.34525 0.20837
#
# Static dielectric constant tensor:
#      x y z
#    x 3.581870 0.000000 -0.197790 
#    y 0.000000 3.001160 0.000000 
#    z -0.197790 0.000000 3.554700 
# 
# 
# High freq. dielectric constant tensor:
#      x y z
#    x 1.715740 0.000000 -0.009060 
#    y 0.000000 1.664490 0.000000 
#    z -0.009060 0.000000 1.711230 
# 
# From -- ./inp_files/365878.got.cif
#   From: 2010.06.25/outbox.cif.g09.slc.cpg/sg12_183_cif.got.tgz:365878.got - 2010.06.28 00:19:55.
