data_PCOD8088128
_publ_section_title
;
Structure prediction by ZEFSAII (Michael W. Deem and Ramdas Pophale) SiO2 
 PCOD8088128
Probable space group: C 2/M
;
_chemical_formula_sum "Si O2"
_cell_formula_units_Z 64
_cell_length_a 31.166446
_cell_length_b 9.225172
_cell_length_c 15.068118
_cell_angle_alpha 90.000000
_cell_angle_beta 47.679267
_cell_angle_gamma 90.000000
_cell_volume 3203.265059
_symmetry_space_group_name_H-M "C 2/M"
_symmetry_group_IT_number 12
_symmetry_cell_setting 'monoclinic'
loop_
_space_group_symop_operation_xyz
x,y,z
-x,y,-z
-x,-y,-z
x,-y,z
1/2+x,1/2+y,z
1/2-x,1/2+y,-z
1/2-x,1/2-y,-z
1/2+x,1/2-y,z
loop_
_atom_site_type_symbol
_atom_site_label
_atom_site_fract_x
_atom_site_fract_y
_atom_site_fract_z
Si Si1 0.129153 0.661287 0.291272
Si Si2 0.241967 0.837072 0.921130
Si Si3 0.166613 0.826022 0.865018
Si Si4 0.579648 0.328786 0.709220
Si Si5 0.544655 0.338468 0.080044
Si Si6 0.555423 0.662888 0.272462
Si Si7 0.798165 0.830600 0.374629
Si Si8 0.941065 0.670458 0.439204
O O1 0.107926 0.500000 0.293812
O O2 0.197239 0.662106 0.214594
O O3 0.113940 0.772662 0.233567
O O4 0.100347 0.710893 0.422493
O O5 0.197243 0.766683 0.912156
O O6 0.222184 0.000000 0.973564
O O7 0.250000 0.750000 0.000000
O O8 0.202907 0.779033 0.726815
O O9 0.164460 0.000000 0.872090
O O10 0.099775 0.763820 0.953365
O O11 0.571531 0.500000 0.701554
O O12 0.520209 0.269605 0.841220
O O13 0.636545 0.293980 0.685849
O O14 0.586840 0.247456 0.606736
O O15 0.540278 0.500000 0.048022
O O16 0.562335 0.336181 0.158028
O O17 0.544904 0.500000 0.321768
O O18 0.503572 0.765758 0.376633
O O19 0.750000 0.750000 0.500000
O O20 0.784944 0.000000 0.402640
O O21 0.945963 0.500000 0.414454
#
# Coordination Sequence:
#
# PCOD8088128 Si02
#       8
#     8   8   8   8   8   8   8   8
#     4  10  21  33  48  72 105 145 188 232 272 332
#     4  10  21  37  55  79 110 144 189 236 281 336
#     4   9  18  34  58  83 108 146 190 231 279 336
#     4   9  19  35  54  82 113 140 179 233 283 328
#     4   8  15  30  53  80 108 136 175 226 276 327
#     4  10  19  32  52  79 110 143 180 230 283 328
#     4  10  22  38  59  84 113 149 188 233 281 334
#     4  10  20  33  52  77 107 147 187 224 273 333
#
# _framework density 19.979614000000002
#
# number of rings (size 3 to 8) (size 9 to 14) (size 15 to 20)
#    0.000    2.500    0.000    2.625    1.750    5.000 
#    0.000    3.125    0.000    3.750    0.000    4.375 
#    0.000    0.000    0.000    0.000    0.000    0.000 
#
# Total GULP energy -396560.513072 kJ/mol
# GULP energy per Si atom -12392.516033 kJ/mol
# Density = 1.993414 g / cm^3
# Si number density = 19.979614 Si / 1000 Ang^3
#
#
#
# Elastic Constant Matrix: (Units=GPa)
#
#
# Indices 1 2 3 4 5 6 
#
# 1 114.2375 31.5065 48.0826 0.0000 -4.0491 0.0001
# 2 31.5065 50.6071 25.2314 0.0001 2.0960 0.0002
# 3 48.0826 25.2314 121.8970 0.0000 -8.5426 0.0000
# 4 0.0000 0.0001 0.0000 22.9928 0.0000 -0.7625
# 5 -4.0491 2.0960 -8.5426 0.0000 23.5483 0.0000
# 6 0.0001 0.0002 0.0000 -0.7625 0.0000 25.9353
#
#
#
# Elastic Compliance Matrix: (Units=1/GPa)
#
#
# Indices 1 2 3 4 5 6 
#
# 1 0.011799 -0.005715 -0.003379 0.000000 0.001312 0.000000
# 2 -0.005715 0.025123 -0.003254 0.000000 -0.004399 0.000000
# 3 -0.003379 -0.003254 0.010456 0.000000 0.003502 0.000000
# 4 0.000000 0.000000 0.000000 0.043534 0.000000 0.001280
# 5 0.001312 -0.004399 0.003502 0.000000 0.044353 0.000000
# 6 0.000000 0.000000 0.000000 0.001280 0.000000 0.038595
#
#
# Mechanical properties :
#
#
# Convention : Reuss Voigt Hill
#
# Bulk Modulus (GPa) = 44.09122 55.15363 49.62243
# Shear Modulus (GPa) = 24.25812 26.62334 25.44073
#
# Velocity S-wave (km/s) = 3.48824 3.65434 3.57225
# Velocity P-wave (km/s) = 6.19191 6.74318 6.47341
#
# Compressibility (1/GPa) = 0.02268025
#
# Stress axis : x y z
#
# Youngs Moduli (GPa) = 84.75525 39.80453 95.64325
#
# Poissons Ratio (x) = 0.22749 0.32319
# Poissons Ratio (y) = 0.48438 0.31123
# Poissons Ratio (z) = 0.28640 0.12953
#
# Static dielectric constant tensor:
#      x y z
#    x 3.727120 0.000000 -0.189650 
#    y 0.000000 3.379820 0.000000 
#    z -0.189650 0.000000 3.790030 
# 
# 
# High freq. dielectric constant tensor:
#      x y z
#    x 1.783660 0.000000 -0.010530 
#    y 0.000000 1.739500 0.000000 
#    z -0.010530 0.000000 1.789740 
# 
# From -- ./inp_files/249850.got.cif
#   From: 2010.06.25/outbox.cif.g09.slc.cpg/sg12_125_cif.got.tgz:249850.got - 2010.06.28 00:19:55.
