data_PCOD8088023
_publ_section_title
;
Structure prediction by ZEFSAII (Michael W. Deem and Ramdas Pophale) SiO2 
 PCOD8088023
Probable space group: C 2/M
;
_chemical_formula_sum "Si O2"
_cell_formula_units_Z 60
_cell_length_a 17.070957
_cell_length_b 17.384243
_cell_length_c 12.045876
_cell_angle_alpha 90.000000
_cell_angle_beta 111.425632
_cell_angle_gamma 90.000000
_cell_volume 3327.756707
_symmetry_space_group_name_H-M "C 2/M"
_symmetry_group_IT_number 12
_symmetry_cell_setting 'monoclinic'
loop_
_space_group_symop_operation_xyz
x,y,z
-x,y,-z
-x,-y,-z
x,-y,z
1/2+x,1/2+y,z
1/2-x,1/2+y,-z
1/2-x,1/2-y,-z
1/2+x,1/2-y,z
loop_
_atom_site_type_symbol
_atom_site_label
_atom_site_fract_x
_atom_site_fract_y
_atom_site_fract_z
Si Si1 0.673171 0.677381 0.293977
Si Si2 0.132028 0.788328 0.915726
Si Si3 0.474777 0.774080 0.716348
Si Si4 0.824668 0.586215 0.475558
Si Si5 0.787017 0.694424 0.860720
Si Si6 0.598397 0.585509 0.068317
Si Si7 0.622550 0.087540 0.251662
Si Si8 0.000000 0.341704 0.500000
O O1 0.609819 0.723095 0.343257
O O2 0.752657 0.644456 0.400358
O O3 0.705753 0.737094 0.221551
O O4 0.622690 0.609705 0.205847
O O5 0.188686 0.809914 0.839116
O O6 0.037842 0.773818 0.825803
O O7 0.162405 0.712543 0.998909
O O8 0.141722 0.860684 0.000947
O O9 0.456155 0.854593 0.771191
O O10 0.513856 0.788934 0.615570
O O11 0.804161 0.500000 0.423737
O O12 0.822954 0.590007 0.607740
O O13 0.916500 0.607282 0.474279
O O14 0.820949 0.615520 0.823338
O O15 0.632515 0.500000 0.065835
O O16 0.500000 0.590869 0.000000
O O17 0.591198 0.000000 0.212304
#
# Coordination Sequence:
#
# PCOD8088023 Si02
#       8
#     8   8   8   8   8   8   8   4
#     4  10  19  33  54  79 102 138 171 216 256 307
#     4  10  19  35  52  78 104 137 169 215 261 299
#     4  10  20  34  54  77 107 135 172 216 257 310
#     4  10  20  35  54  77 106 137 175 216 261 308
#     4   9  20  33  54  75 105 136 175 212 254 310
#     4  10  19  32  52  77 102 132 170 209 256 309
#     4   9  20  36  53  74 102 139 173 209 259 309
#     4  10  21  34  54  78 103 138 174 218 263 304
#
# _framework density 18.030165
#
# number of rings (size 3 to 8) (size 9 to 14) (size 15 to 20)
#    0.000    2.267    1.333    1.400    0.000    6.933 
#    0.000    1.333    0.000    0.800    0.000    3.267 
#    0.000    0.000    0.000    0.000    0.000    0.000 
#
# Total GULP energy -371902.385518 kJ/mol
# GULP energy per Si atom -12396.746184 kJ/mol
# Density = 1.798913 g / cm^3
# Si number density = 18.030165 Si / 1000 Ang^3
#
#
#
# Elastic Constant Matrix: (Units=GPa)
#
#
# Indices 1 2 3 4 5 6 
#
# 1 95.7028 41.2688 31.5910 0.0000 -7.0433 0.0000
# 2 41.2688 97.1264 27.8589 0.0000 -0.6741 0.0000
# 3 31.5910 27.8589 53.9515 0.0000 -8.6789 0.0000
# 4 0.0000 0.0000 0.0000 19.8010 0.0000 1.7418
# 5 -7.0433 -0.6741 -8.6789 0.0000 31.3990 0.0000
# 6 0.0000 0.0000 0.0000 1.7418 0.0000 16.5888
#
#
#
# Elastic Compliance Matrix: (Units=1/GPa)
#
#
# Indices 1 2 3 4 5 6 
#
# 1 0.014419 -0.004418 -0.005920 0.000000 0.001503 0.000000
# 2 -0.004418 0.013511 -0.004712 0.000000 -0.002003 0.000000
# 3 -0.005920 -0.004712 0.025331 0.000000 0.005573 0.000000
# 4 0.000000 0.000000 0.000000 0.050973 0.000000 -0.005352
# 5 0.001503 -0.002003 0.005573 0.000000 0.033683 0.000000
# 6 0.000000 0.000000 0.000000 -0.005352 0.000000 0.060844
#
#
# Mechanical properties :
#
#
# Convention : Reuss Voigt Hill
#
# Bulk Modulus (GPa) = 43.17555 49.80201 46.48878
# Shear Modulus (GPa) = 21.13455 23.29524 22.21489
#
# Velocity S-wave (km/s) = 3.42742 3.59836 3.51393
# Velocity P-wave (km/s) = 6.29772 6.70416 6.50411
#
# Compressibility (1/GPa) = 0.02316126
#
# Stress axis : x y z
#
# Youngs Moduli (GPa) = 69.35337 74.01530 39.47755
#
# Poissons Ratio (x) = 0.32701 0.23369
# Poissons Ratio (y) = 0.30642 0.18601
# Poissons Ratio (z) = 0.41055 0.34874
#
# Static dielectric constant tensor:
#      x y z
#    x 3.273970 0.000000 -0.094940 
#    y 0.000000 3.493790 0.000000 
#    z -0.094940 0.000000 3.287050 
# 
# 
# High freq. dielectric constant tensor:
#      x y z
#    x 1.695030 0.000000 -0.003770 
#    y 0.000000 1.696370 0.000000 
#    z -0.003770 0.000000 1.692370 
# 
# From -- ./inp_files/146184.got.cif
#   From: 2010.06.25/outbox.cif.g09.slc.cpg/sg12_74_cif.got.tgz:146184.got - 2010.06.28 00:19:55.
