data_PCOD8088788
_publ_section_title
;
Structure prediction by ZEFSAII (Michael W. Deem and Ramdas Pophale) SiO2 
 PCOD8088788
Probable space group: C 2/M
;
_chemical_formula_sum "Si O2"
_cell_formula_units_Z 64
_cell_length_a 19.868433
_cell_length_b 9.038985
_cell_length_c 24.197370
_cell_angle_alpha 90.000000
_cell_angle_beta 54.355687
_cell_angle_gamma 90.000000
_cell_volume 3531.466956
_symmetry_space_group_name_H-M "C 2/M"
_symmetry_group_IT_number 12
_symmetry_cell_setting 'monoclinic'
loop_
_space_group_symop_operation_xyz
x,y,z
-x,y,-z
-x,-y,-z
x,-y,z
1/2+x,1/2+y,z
1/2-x,1/2+y,-z
1/2-x,1/2-y,-z
1/2+x,1/2-y,z
loop_
_atom_site_type_symbol
_atom_site_label
_atom_site_fract_x
_atom_site_fract_y
_atom_site_fract_z
Si Si1 0.053317 0.829117 0.420862
Si Si2 0.632333 0.672434 0.185415
Si Si3 0.275463 0.174689 0.674842
Si Si4 0.484206 0.329897 0.337145
Si Si5 0.478916 0.826281 0.844794
Si Si6 0.625568 0.826538 0.692647
Si Si7 0.536569 0.671499 0.923088
Si Si8 0.773006 0.173174 0.179374
O O1 0.132985 0.725746 0.384270
O O2 0.996188 0.790916 0.395561
O O3 0.000000 0.793429 0.500000
O O4 0.081909 0.000000 0.404820
O O5 0.642310 0.500000 0.169073
O O6 0.569974 0.706943 0.265394
O O7 0.600236 0.749046 0.144999
O O8 0.720830 0.739580 0.158683
O O9 0.212461 0.247973 0.661937
O O10 0.252855 0.227281 0.747336
O O11 0.268366 0.000000 0.672322
O O12 0.459276 0.500000 0.339875
O O13 0.410466 0.229386 0.348585
O O14 0.561818 0.782614 0.771719
O O15 0.486398 0.768551 0.903309
O O16 0.463737 0.000000 0.851807
O O17 0.640505 0.000000 0.681894
O O18 0.525028 0.500000 0.913131
O O19 0.632379 0.716037 0.876375
O O20 0.500000 0.709648 0.000000
O O21 0.756216 0.000000 0.179949
#
# Coordination Sequence:
#
# PCOD8088788 Si02
#       8
#     8   8   8   8   8   8   8   8
#     4  10  21  38  58  81 113 149 183 223 274 331
#     4  10  19  32  55  82 109 141 180 226 272 323
#     4  11  21  34  56  83 112 143 182 230 272 321
#     4   9  18  33  53  79 109 141 178 221 271 322
#     4  10  20  34  54  81 113 144 179 227 276 324
#     4  10  20  33  54  82 110 141 180 227 274 321
#     4  10  21  38  58  80 111 149 185 223 273 332
#     4  10  20  34  54  82 111 140 179 227 273 318
#
# _framework density 18.122779999999999
#
# number of rings (size 3 to 8) (size 9 to 14) (size 15 to 20)
#    0.000    2.000    2.500    1.500    0.000    3.500 
#    0.000    1.250    0.000    0.000    0.000    0.000 
#    0.000    0.000    0.000    0.000    0.000    0.000 
#
# Total GULP energy -396973.844074 kJ/mol
# GULP energy per Si atom -12405.432627 kJ/mol
# Density = 1.808153 g / cm^3
# Si number density = 18.122780 Si / 1000 Ang^3
#
#
#
# Elastic Constant Matrix: (Units=GPa)
#
#
# Indices 1 2 3 4 5 6 
#
# 1 146.9536 63.8959 57.7096 0.0000 11.6935 0.0001
# 2 63.8959 74.6612 35.1134 0.0000 5.9572 0.0001
# 3 57.7096 35.1134 87.9573 0.0000 8.2350 -0.0001
# 4 0.0000 0.0000 0.0000 22.2356 -0.0001 1.0815
# 5 11.6935 5.9572 8.2350 -0.0001 23.3584 0.0000
# 6 0.0001 0.0001 -0.0001 1.0815 0.0000 37.4251
#
#
#
# Elastic Compliance Matrix: (Units=1/GPa)
#
#
# Indices 1 2 3 4 5 6 
#
# 1 0.012397 -0.008243 -0.004611 0.000000 -0.002478 0.000000
# 2 -0.008243 0.022057 -0.003368 0.000000 -0.000311 0.000000
# 3 -0.004611 -0.003368 0.015970 0.000000 -0.002463 0.000000
# 4 0.000000 0.000000 0.000000 0.045036 0.000000 -0.001301
# 5 -0.002478 -0.000311 -0.002463 0.000000 0.044999 0.000000
# 6 0.000000 0.000000 0.000000 -0.001301 0.000000 0.026758
#
#
# Mechanical properties :
#
#
# Convention : Reuss Voigt Hill
#
# Bulk Modulus (GPa) = 55.61850 69.22332 62.42091
# Shear Modulus (GPa) = 24.31263 26.79403 25.55333
#
# Velocity S-wave (km/s) = 3.66669 3.84926 3.75909
# Velocity P-wave (km/s) = 6.97729 7.61811 7.30473
#
# Compressibility (1/GPa) = 0.01797963
#
# Stress axis : x y z
#
# Youngs Moduli (GPa) = 80.66471 45.33667 62.61919
#
# Poissons Ratio (x) = 0.37372 0.28874
# Poissons Ratio (y) = 0.66493 0.21089
# Poissons Ratio (z) = 0.37195 0.15269
#
# Static dielectric constant tensor:
#      x y z
#    x 3.386030 0.000000 0.086950 
#    y 0.000000 3.302150 0.000000 
#    z 0.086950 0.000000 3.127250 
# 
# 
# High freq. dielectric constant tensor:
#      x y z
#    x 1.714370 0.000000 0.006950 
#    y 0.000000 1.706270 0.000000 
#    z 0.006950 0.000000 1.673750 
# 
# From -- ./inp_files/345927.got.cif
#   From: 2010.06.25/outbox.cif.g09.slc.cpg/sg12_173_cif.got.tgz:345927.got - 2010.06.28 00:19:55.
