data_PCOD8088211
_publ_section_title
;
Structure prediction by ZEFSAII (Michael W. Deem and Ramdas Pophale) SiO2 
 PCOD8088211
Probable space group: C 2/M
;
_chemical_formula_sum "Si O2"
_cell_formula_units_Z 64
_cell_length_a 26.302780
_cell_length_b 12.618201
_cell_length_c 13.924073
_cell_angle_alpha 90.000000
_cell_angle_beta 135.014185
_cell_angle_gamma 90.000000
_cell_volume 3266.952652
_symmetry_space_group_name_H-M "C 2/M"
_symmetry_group_IT_number 12
_symmetry_cell_setting 'monoclinic'
loop_
_space_group_symop_operation_xyz
x,y,z
-x,y,-z
-x,-y,-z
x,-y,z
1/2+x,1/2+y,z
1/2-x,1/2+y,-z
1/2-x,1/2-y,-z
1/2+x,1/2-y,z
loop_
_atom_site_type_symbol
_atom_site_label
_atom_site_fract_x
_atom_site_fract_y
_atom_site_fract_z
Si Si1 0.120069 0.880846 0.384489
Si Si2 0.165323 0.238964 0.273312
Si Si3 0.281362 0.778044 0.147945
Si Si4 0.778385 0.878355 0.313054
Si Si5 0.646287 0.376683 0.055912
Si Si6 0.061611 0.621785 0.662321
Si Si7 0.525183 0.746796 0.791382
Si Si8 0.037360 0.621948 0.143058
O O1 0.178785 0.835931 0.384763
O O2 0.146469 0.876469 0.530013
O O3 0.043786 0.824065 0.280206
O O4 0.105830 0.000000 0.333276
O O5 0.230864 0.303891 0.317643
O O6 0.131531 0.168393 0.142665
O O7 0.113647 0.323912 0.253017
O O8 0.285830 0.668822 0.215731
O O9 0.227831 0.858105 0.130565
O O10 0.358388 0.836615 0.256545
O O11 0.250000 0.750000 0.000000
O O12 0.749316 0.000000 0.265721
O O13 0.628318 0.500000 0.031882
O O14 0.596248 0.317957 0.912054
O O15 0.069255 0.500000 0.710144
O O16 0.030778 0.708913 0.692937
O O17 0.000000 0.623335 0.500000
O O18 0.517223 0.852849 0.843923
O O19 0.052984 0.500000 0.157416
O O20 0.000000 0.668900 0.000000
#
# Coordination Sequence:
#
# PCOD8088211 Si02
#       8
#     8   8   8   8   8   8   8   8
#     4  10  21  37  59  86 122 163 201 239 293 362
#     4  10  20  36  57  85 120 157 195 244 293 356
#     4  11  23  43  62  90 120 156 201 258 310 363
#     4  10  22  39  60  88 118 156 200 249 302 359
#     4  11  22  37  58  87 119 154 198 245 300 357
#     4  11  24  43  66  90 120 159 203 255 313 369
#     4  11  21  38  57  86 118 158 197 248 297 355
#     4  10  19  32  52  82 116 150 189 236 290 348
#
# _framework density 19.590121
#
# number of rings (size 3 to 8) (size 9 to 14) (size 15 to 20)
#    0.000    1.500    2.500    3.000    0.000    1.000 
#    0.000    1.875    0.000   14.625    0.000    0.000 
#    0.000    0.000    0.000    0.000    0.000    0.000 
#
# Total GULP energy -396462.012864 kJ/mol
# GULP energy per Si atom -12389.437902 kJ/mol
# Density = 1.954553 g / cm^3
# Si number density = 19.590121 Si / 1000 Ang^3
#
#
#
# Elastic Constant Matrix: (Units=GPa)
#
#
# Indices 1 2 3 4 5 6 
#
# 1 92.2614 38.6430 34.9370 0.0000 -0.6486 0.0000
# 2 38.6430 48.4081 38.8159 0.0000 -9.7420 0.0000
# 3 34.9370 38.8159 95.5846 0.0000 -7.2494 0.0000
# 4 0.0000 0.0000 0.0000 36.1448 0.0000 -5.3512
# 5 -0.6486 -9.7420 -7.2494 0.0000 35.0206 0.0000
# 6 0.0000 0.0000 0.0000 -5.3512 0.0000 28.5947
#
#
#
# Elastic Compliance Matrix: (Units=1/GPa)
#
#
# Indices 1 2 3 4 5 6 
#
# 1 0.016765 -0.013308 -0.000996 0.000000 -0.003598 0.000000
# 2 -0.013308 0.042508 -0.011704 0.000000 0.009156 0.000000
# 3 -0.000996 -0.011704 0.015575 0.000000 -0.000050 0.000000
# 4 0.000000 0.000000 0.000000 0.028455 0.000000 0.005325
# 5 -0.003598 0.009156 -0.000050 0.000000 0.031025 0.000000
# 6 0.000000 0.000000 0.000000 0.005325 0.000000 0.035968
#
#
# Mechanical properties :
#
#
# Convention : Reuss Voigt Hill
#
# Bulk Modulus (GPa) = 43.79777 51.22732 47.51255
# Shear Modulus (GPa) = 21.74652 28.20920 24.97786
#
# Velocity S-wave (km/s) = 3.33539 3.79881 3.57462
# Velocity P-wave (km/s) = 6.10236 6.74149 6.42987
#
# Compressibility (1/GPa) = 0.02283221
#
# Stress axis : x y z
#
# Youngs Moduli (GPa) = 59.64910 23.52487 64.20558
#
# Poissons Ratio (x) = 0.31307 0.06397
# Poissons Ratio (y) = 0.79381 0.75143
# Poissons Ratio (z) = 0.05943 0.27532
#
# Static dielectric constant tensor:
#      x y z
#    x 3.943010 0.000000 0.219650 
#    y 0.000000 3.702450 0.000000 
#    z 0.219650 0.000000 4.038670 
# 
# 
# High freq. dielectric constant tensor:
#      x y z
#    x 1.764830 0.000000 -0.003480 
#    y 0.000000 1.774620 0.000000 
#    z -0.003480 0.000000 1.764010 
# 
# From -- ./inp_files/245969.got.cif
#   From: 2010.06.25/outbox.cif.g09.slc.cpg/sg12_123_cif.got.tgz:245969.got - 2010.06.28 00:19:55.
