data_PCOD8088269
_publ_section_title
;
Structure prediction by ZEFSAII (Michael W. Deem and Ramdas Pophale) SiO2 
 PCOD8088269
Probable space group: C 2/M
;
_chemical_formula_sum "Si O2"
_cell_formula_units_Z 52
_cell_length_a 5.143740
_cell_length_b 16.382495
_cell_length_c 31.194229
_cell_angle_alpha 90.000000
_cell_angle_beta 89.998450
_cell_angle_gamma 90.000000
_cell_volume 2628.653291
_symmetry_space_group_name_H-M "C 2/M"
_symmetry_group_IT_number 12
_symmetry_cell_setting 'monoclinic'
loop_
_space_group_symop_operation_xyz
x,y,z
-x,y,-z
-x,-y,-z
x,-y,z
1/2+x,1/2+y,z
1/2-x,1/2+y,-z
1/2-x,1/2-y,-z
1/2+x,1/2-y,z
loop_
_atom_site_type_symbol
_atom_site_label
_atom_site_fract_x
_atom_site_fract_y
_atom_site_fract_z
Si Si1 0.982316 0.903297 0.228512
Si Si2 0.462031 0.804691 0.907937
Si Si3 0.020720 0.903148 0.599542
Si Si4 0.483088 0.096745 0.452156
Si Si5 0.500000 0.194834 0.000000
Si Si6 0.985347 0.595983 0.176395
Si Si7 0.970176 0.196210 0.314538
O O1 0.722049 0.871619 0.205408
O O2 0.013120 0.860172 0.273656
O O3 0.220198 0.875618 0.198625
O O4 0.979771 0.000000 0.236296
O O5 0.175611 0.766511 0.903805
O O6 0.501594 0.870423 0.871292
O O7 0.493379 0.852748 0.954168
O O8 0.784863 0.875563 0.569202
O O9 0.280986 0.870340 0.576797
O O10 0.986473 0.861115 0.644921
O O11 0.024818 0.000000 0.606769
O O12 0.500000 0.134018 0.500000
O O13 0.503657 0.000000 0.455001
O O14 0.750000 0.250000 0.000000
O O15 0.002788 0.500000 0.172168
O O16 0.679772 0.231501 0.314701
#
# Coordination Sequence:
#
# PCOD8088269 Si02
#       7
#     8   8   8   8   4   8   8
#     4  10  22  40  58  77 106 142 177 215 266 324
#     4  10  19  32  53  77 105 141 180 219 259 312
#     4  10  20  36  58  81 109 144 177 213 264 316
#     4   9  17  31  56  87 110 134 178 226 256 295
#     4   8  16  30  47  72 103 138 178 216 256 304
#     4  10  21  36  55  80 108 136 171 220 272 318
#     4  12  25  39  57  81 110 140 177 224 263 308
#
# _framework density 19.781993
#
# number of rings (size 3 to 8) (size 9 to 14) (size 15 to 20)
#    0.000    2.000    0.000    3.692    0.000    5.538 
#    0.000    6.538    0.000    9.231    0.000    9.692 
#    0.000    0.000    0.000    0.000    0.000    0.000 
#
# Total GULP energy -322359.494211 kJ/mol
# GULP energy per Si atom -12398.442085 kJ/mol
# Density = 1.973697 g / cm^3
# Si number density = 19.781993 Si / 1000 Ang^3
#
#
#
# Elastic Constant Matrix: (Units=GPa)
#
#
# Indices 1 2 3 4 5 6 
#
# 1 90.8561 20.0632 7.6342 0.0000 -2.1613 0.0000
# 2 20.0632 23.9498 43.1039 0.0000 -1.9432 0.0000
# 3 7.6342 43.1039 154.7827 0.0000 -3.4568 0.0000
# 4 0.0000 0.0000 0.0000 36.8434 0.0000 -0.2917
# 5 -2.1613 -1.9432 -3.4568 0.0000 29.4024 0.0000
# 6 0.0000 0.0000 0.0000 -0.2917 0.0000 12.3170
#
#
#
# Elastic Compliance Matrix: (Units=1/GPa)
#
#
# Indices 1 2 3 4 5 6 
#
# 1 0.015739 -0.023609 0.005804 0.000000 0.000279 0.000000
# 2 -0.023609 0.119352 -0.032020 0.000000 0.002388 0.000000
# 3 0.005804 -0.032020 0.015093 0.000000 0.000085 0.000000
# 4 0.000000 0.000000 0.000000 0.027147 0.000000 0.000643
# 5 0.000279 0.002388 0.000085 0.000000 0.034199 0.000000
# 6 0.000000 0.000000 0.000000 0.000643 0.000000 0.081204
#
#
# Mechanical properties :
#
#
# Convention : Reuss Voigt Hill
#
# Bulk Modulus (GPa) = 19.78749 45.68791 32.73770
# Shear Modulus (GPa) = 12.21816 28.96506 20.59161
#
# Velocity S-wave (km/s) = 2.48793 3.83066 3.22984
# Velocity P-wave (km/s) = 4.27523 6.53537 5.52217
#
# Compressibility (1/GPa) = 0.05053697
#
# Stress axis : x y z
#
# Youngs Moduli (GPa) = 63.53778 8.37854 66.25553
#
# Poissons Ratio (x) = 0.19781 -0.38458
# Poissons Ratio (y) = 1.50004 2.12147
# Poissons Ratio (z) = -0.36880 0.26828
#
# Static dielectric constant tensor:
#      x y z
#    x 4.076270 0.000000 -0.011540 
#    y 0.000000 3.173860 0.000000 
#    z -0.011540 0.000000 4.025650 
# 
# 
# High freq. dielectric constant tensor:
#      x y z
#    x 1.794950 0.000000 -0.000530 
#    y 0.000000 1.730220 0.000000 
#    z -0.000530 0.000000 1.796420 
# 
# From -- ./inp_files/354894.got.cif
#   From: 2010.06.25/outbox.cif.g09.slc.cpg/sg12_178_cif.got.tgz:354894.got - 2010.06.28 00:19:55.
