data_PCOD8088130
_publ_section_title
;
Structure prediction by ZEFSAII (Michael W. Deem and Ramdas Pophale) SiO2 
 PCOD8088130
Probable space group: C 2/M
;
_chemical_formula_sum "Si O2"
_cell_formula_units_Z 64
_cell_length_a 20.434364
_cell_length_b 8.963661
_cell_length_c 24.265391
_cell_angle_alpha 90.000000
_cell_angle_beta 52.245864
_cell_angle_gamma 90.000000
_cell_volume 3514.111836
_symmetry_space_group_name_H-M "C 2/M"
_symmetry_group_IT_number 12
_symmetry_cell_setting 'monoclinic'
loop_
_space_group_symop_operation_xyz
x,y,z
-x,y,-z
-x,-y,-z
x,-y,z
1/2+x,1/2+y,z
1/2-x,1/2+y,-z
1/2-x,1/2-y,-z
1/2+x,1/2-y,z
loop_
_atom_site_type_symbol
_atom_site_label
_atom_site_fract_x
_atom_site_fract_y
_atom_site_fract_z
Si Si1 0.413295 0.827061 0.780967
Si Si2 0.046471 0.176091 0.349677
Si Si3 0.178297 0.324154 0.768192
Si Si4 0.010267 0.675795 0.143754
Si Si5 0.069190 0.173447 0.006359
Si Si6 0.177585 0.676035 0.361856
Si Si7 0.225724 0.170856 0.854279
Si Si8 0.078693 0.835628 0.498751
O O1 0.456867 0.730387 0.711136
O O2 0.450981 0.769995 0.818814
O O3 0.315331 0.798975 0.833711
O O4 0.434055 0.000000 0.759621
O O5 0.119933 0.260458 0.343233
O O6 0.956896 0.214865 0.423303
O O7 0.064154 0.000000 0.344477
O O8 0.186918 0.500000 0.755587
O O9 0.230841 0.241957 0.693626
O O10 0.212474 0.280417 0.810255
O O11 0.084237 0.269027 0.810790
O O12 0.016038 0.500000 0.134663
O O13 0.063667 0.745194 0.067331
O O14 0.053195 0.000000 0.024803
O O15 0.159698 0.206894 0.935704
O O16 0.000000 0.236885 0.000000
O O17 0.179314 0.500000 0.355991
O O18 0.145603 0.721242 0.439393
O O19 0.216465 0.000000 0.838415
O O20 0.000000 0.842466 0.500000
O O21 0.119719 0.000000 0.481101
#
# Coordination Sequence:
#
# PCOD8088130 Si02
#       8
#     8   8   8   8   8   8   8   8
#     4  10  21  37  55  78 111 146 182 223 270 321
#     4  10  19  32  52  79 110 144 181 219 266 319
#     4  11  21  34  54  78 107 141 183 227 270 320
#     4  10  23  39  55  79 109 144 183 225 272 323
#     4  10  20  35  56  81 109 140 179 225 273 324
#     4  11  20  30  50  80 110 140 179 225 269 318
#     4  10  20  35  56  80 106 140 180 223 272 321
#     4   8  16  30  47  73 110 143 174 219 268 315
#
# _framework density 18.212282999999999
#
# number of rings (size 3 to 8) (size 9 to 14) (size 15 to 20)
#    0.000    2.000    2.500    2.625    0.000    5.000 
#    0.000    0.000    0.000    0.750    0.000    0.000 
#    0.000    0.000    0.000    0.000    0.000    0.000 
#
# Total GULP energy -396845.912281 kJ/mol
# GULP energy per Si atom -12401.434759 kJ/mol
# Density = 1.817083 g / cm^3
# Si number density = 18.212283 Si / 1000 Ang^3
#
#
#
# Elastic Constant Matrix: (Units=GPa)
#
#
# Indices 1 2 3 4 5 6 
#
# 1 71.8145 27.3890 49.1513 -0.0001 3.6141 0.0000
# 2 27.3890 77.9505 57.3958 0.0001 -0.9258 0.0001
# 3 49.1513 57.3958 159.4897 0.0000 4.3169 -0.0001
# 4 -0.0001 0.0001 0.0000 34.4593 0.0000 3.2590
# 5 3.6141 -0.9258 4.3169 0.0000 22.6050 0.0000
# 6 0.0000 0.0001 -0.0001 3.2590 0.0000 18.3997
#
#
#
# Elastic Compliance Matrix: (Units=1/GPa)
#
#
# Indices 1 2 3 4 5 6 
#
# 1 0.018282 -0.003191 -0.004426 0.000000 -0.002208 0.000000
# 2 -0.003191 0.018094 -0.005591 0.000000 0.002319 0.000000
# 3 -0.004426 -0.005591 0.009683 0.000000 -0.001371 0.000000
# 4 0.000000 0.000000 0.000000 0.029514 0.000000 -0.005228
# 5 -0.002208 0.002319 -0.001371 0.000000 0.044948 0.000000
# 6 0.000000 0.000000 0.000000 -0.005228 0.000000 0.055275
#
#
# Mechanical properties :
#
#
# Convention : Reuss Voigt Hill
#
# Bulk Modulus (GPa) = 50.90754 64.12522 57.51638
# Shear Modulus (GPa) = 23.95099 26.78069 25.36584
#
# Velocity S-wave (km/s) = 3.63037 3.83884 3.73606
# Velocity P-wave (km/s) = 6.75172 7.41183 7.08946
#
# Compressibility (1/GPa) = 0.01964345
#
# Stress axis : x y z
#
# Youngs Moduli (GPa) = 54.69806 55.26684 103.27247
#
# Poissons Ratio (x) = 0.17635 0.45709
# Poissons Ratio (y) = 0.17454 0.57739
# Poissons Ratio (z) = 0.24210 0.30899
#
# Static dielectric constant tensor:
#      x y z
#    x 3.128700 0.000000 -0.066480 
#    y 0.000000 3.305430 0.000000 
#    z -0.066480 0.000000 3.728610 
# 
# 
# High freq. dielectric constant tensor:
#      x y z
#    x 1.668580 0.000000 -0.005110 
#    y 0.000000 1.704420 0.000000 
#    z -0.005110 0.000000 1.725380 
# 
# From -- ./inp_files/365183.got.cif
#   From: 2010.06.25/outbox.cif.g09.slc.cpg/sg12_183_cif.got.tgz:365183.got - 2010.06.28 00:19:55.
