data_PCOD8088742
_publ_section_title
;
Structure prediction by ZEFSAII (Michael W. Deem and Ramdas Pophale) SiO2 
 PCOD8088742
Probable space group: C 2/M
;
_chemical_formula_sum "Si O2"
_cell_formula_units_Z 56
_cell_length_a 22.380188
_cell_length_b 9.185345
_cell_length_c 14.397596
_cell_angle_alpha 90.000000
_cell_angle_beta 75.552797
_cell_angle_gamma 90.000000
_cell_volume 2866.118077
_symmetry_space_group_name_H-M "C 2/M"
_symmetry_group_IT_number 12
_symmetry_cell_setting 'monoclinic'
loop_
_space_group_symop_operation_xyz
x,y,z
-x,y,-z
-x,-y,-z
x,-y,z
1/2+x,1/2+y,z
1/2-x,1/2+y,-z
1/2-x,1/2-y,-z
1/2+x,1/2-y,z
loop_
_atom_site_type_symbol
_atom_site_label
_atom_site_fract_x
_atom_site_fract_y
_atom_site_fract_z
Si Si1 0.901189 0.834196 0.376067
Si Si2 0.342474 0.331081 0.208504
Si Si3 0.875035 0.666629 0.865070
Si Si4 0.026207 0.668732 0.326842
Si Si5 0.782945 0.828529 0.779654
Si Si6 0.880554 0.832082 0.590647
Si Si7 0.929655 0.669095 0.042344
O O1 0.850833 0.807394 0.315548
O O2 0.868018 0.800587 0.487147
O O3 0.958533 0.729868 0.337349
O O4 0.925475 0.000000 0.364116
O O5 0.334833 0.500000 0.186323
O O6 0.283190 0.244849 0.197274
O O7 0.402620 0.267684 0.134511
O O8 0.854324 0.500000 0.858177
O O9 0.935908 0.700262 0.781515
O O10 0.819318 0.770837 0.855713
O O11 0.890070 0.699421 0.965599
O O12 0.021080 0.500000 0.351746
O O13 0.059228 0.743220 0.401820
O O14 0.820433 0.783727 0.672175
O O15 0.773769 0.000000 0.792848
O O16 0.895152 0.000000 0.604887
O O17 0.926483 0.500000 0.072783
O O18 0.000000 0.717160 0.000000
#
# Coordination Sequence:
#
# PCOD8088742 Si02
#       7
#     8   8   8   8   8   8   8
#     4  10  21  36  53  76 110 150 184 219 271 327
#     4  11  24  39  56  80 111 145 182 226 272 321
#     4   9  19  36  58  82 111 145 178 220 272 322
#     4  10  19  32  54  85 114 140 178 226 272 320
#     4  10  21  38  59  81 106 141 186 229 269 317
#     4   9  19  36  56  78 108 146 184 222 268 324
#     4  10  21  39  62  86 112 143 178 218 268 323
#
# _framework density 19.538623000000001
#
# number of rings (size 3 to 8) (size 9 to 14) (size 15 to 20)
#    0.000    2.143    0.000    2.571    0.000    7.714 
#    0.000    0.000    0.000    0.000    0.000    0.000 
#    0.000    0.000    0.000    0.000    0.000    0.000 
#
# Total GULP energy -347324.005508 kJ/mol
# GULP energy per Si atom -12404.428768 kJ/mol
# Density = 1.949415 g / cm^3
# Si number density = 19.538623 Si / 1000 Ang^3
#
#
#
# Elastic Constant Matrix: (Units=GPa)
#
#
# Indices 1 2 3 4 5 6 
#
# 1 101.4467 47.1361 18.2429 0.0000 1.1932 0.0000
# 2 47.1361 84.5011 30.5998 0.0000 3.1794 0.0000
# 3 18.2429 30.5998 79.0207 0.0000 9.3525 0.0000
# 4 0.0000 0.0000 0.0000 24.7828 0.0000 -4.4786
# 5 1.1932 3.1794 9.3525 0.0000 20.8217 0.0000
# 6 0.0000 0.0000 0.0000 -4.4786 0.0000 31.6103
#
#
#
# Elastic Compliance Matrix: (Units=1/GPa)
#
#
# Indices 1 2 3 4 5 6 
#
# 1 0.013314 -0.007341 -0.000289 0.000000 0.000488 0.000000
# 2 -0.007341 0.017813 -0.005208 0.000000 0.000040 0.000000
# 3 -0.000289 -0.005208 0.015464 0.000000 -0.006134 0.000000
# 4 0.000000 0.000000 0.000000 0.041411 0.000000 0.005867
# 5 0.000488 0.000040 -0.006134 0.000000 0.050748 0.000000
# 6 0.000000 0.000000 0.000000 0.005867 0.000000 0.032466
#
#
# Mechanical properties :
#
#
# Convention : Reuss Voigt Hill
#
# Bulk Modulus (GPa) = 47.80838 50.76957 49.28898
# Shear Modulus (GPa) = 24.52599 26.70894 25.61747
#
# Velocity S-wave (km/s) = 3.54680 3.70128 3.62487
# Velocity P-wave (km/s) = 6.42611 6.65632 6.54223
#
# Compressibility (1/GPa) = 0.02091683
#
# Stress axis : x y z
#
# Youngs Moduli (GPa) = 75.10665 56.13754 64.66466
#
# Poissons Ratio (x) = 0.41209 0.01868
# Poissons Ratio (y) = 0.55134 0.33678
# Poissons Ratio (z) = 0.02170 0.29237
#
# Static dielectric constant tensor:
#      x y z
#    x 3.399240 0.000000 0.025290 
#    y 0.000000 3.587410 0.000000 
#    z 0.025290 0.000000 3.701940 
# 
# 
# High freq. dielectric constant tensor:
#      x y z
#    x 1.753920 0.000000 0.002720 
#    y 0.000000 1.763290 0.000000 
#    z 0.002720 0.000000 1.767400 
# 
# From -- ./inp_files/230878.got.cif
#   From: 2010.06.25/outbox.cif.g09.slc.cpg/sg12_116_cif.got.tgz:230878.got - 2010.06.28 00:19:55.
