data_PCOD8088517
_publ_section_title
;
Structure prediction by ZEFSAII (Michael W. Deem and Ramdas Pophale) SiO2 
 PCOD8088517
Probable space group: C 2/M
;
_chemical_formula_sum "Si O2"
_cell_formula_units_Z 64
_cell_length_a 28.332669
_cell_length_b 20.750289
_cell_length_c 11.745605
_cell_angle_alpha 90.000000
_cell_angle_beta 28.305270
_cell_angle_gamma 90.000000
_cell_volume 3274.314286
_symmetry_space_group_name_H-M "C 2/M"
_symmetry_group_IT_number 12
_symmetry_cell_setting 'monoclinic'
loop_
_space_group_symop_operation_xyz
x,y,z
-x,y,-z
-x,-y,-z
x,-y,z
1/2+x,1/2+y,z
1/2-x,1/2+y,-z
1/2-x,1/2-y,-z
1/2+x,1/2-y,z
loop_
_atom_site_type_symbol
_atom_site_label
_atom_site_fract_x
_atom_site_fract_y
_atom_site_fract_z
Si Si1 0.005325 0.572960 0.112086
Si Si2 0.191506 0.652370 0.096971
Si Si3 0.310588 0.076853 0.131473
Si Si4 0.310822 0.327709 0.473125
Si Si5 0.108141 0.212691 0.309889
Si Si6 0.963461 0.235788 0.294158
Si Si7 0.857912 0.639422 0.550335
Si Si8 0.814370 0.797005 0.212835
O O1 0.035779 0.500000 0.024920
O O2 0.896677 0.575472 0.404429
O O3 0.000000 0.608459 0.000000
O O4 0.091530 0.600909 0.010323
O O5 0.141690 0.721819 0.172701
O O6 0.136404 0.625885 0.326773
O O7 0.180367 0.603808 0.016262
O O8 0.307428 0.659068 0.886988
O O9 0.217767 0.107031 0.398699
O O10 0.296455 0.000000 0.154180
O O11 0.419841 0.304756 0.281421
O O12 0.230305 0.273244 0.673362
O O13 0.316336 0.338034 0.325623
O O14 0.105609 0.222909 0.450001
O O15 0.000000 0.188315 0.500000
O O16 0.944624 0.311912 0.317146
O O17 0.076822 0.214452 0.071482
O O18 0.748243 0.662187 0.745886
#
# Coordination Sequence:
#
# PCOD8088517 Si02
#       8
#     8   8   8   8   8   8   8   8
#     4  10  22  39  58  81 111 151 193 230 280 345
#     4  10  22  36  54  88 116 148 196 229 287 347
#     4  11  23  39  61  82 115 159 195 239 284 340
#     4  10  20  35  54  83 119 146 188 239 284 350
#     4  10  20  33  57  83 116 153 179 236 291 345
#     4  10  19  32  53  84 113 144 183 231 292 344
#     4  10  21  34  55  83 115 149 183 235 284 343
#     4  10  20  33  56  86 115 148 182 235 301 344
#
# _framework density 19.546075999999999
#
# number of rings (size 3 to 8) (size 9 to 14) (size 15 to 20)
#    0.000    1.875    1.250    2.625    7.000    2.500 
#    0.000    1.250    0.000    2.625    0.000    0.000 
#    0.000    0.000    0.000    0.000    0.000    0.000 
#
# Total GULP energy -396643.204337 kJ/mol
# GULP energy per Si atom -12395.100136 kJ/mol
# Density = 1.950159 g / cm^3
# Si number density = 19.546076 Si / 1000 Ang^3
#
#
#
# Elastic Constant Matrix: (Units=GPa)
#
#
# Indices 1 2 3 4 5 6 
#
# 1 113.6829 35.8459 30.5008 0.0000 5.0094 0.0000
# 2 35.8459 54.3781 22.7328 0.0000 6.0334 0.0000
# 3 30.5008 22.7328 94.3673 0.0000 -7.4281 0.0000
# 4 0.0000 0.0000 0.0000 24.4203 0.0000 3.1108
# 5 5.0094 6.0334 -7.4281 0.0000 40.0992 0.0000
# 6 0.0000 0.0000 0.0000 3.1108 0.0000 24.1944
#
#
#
# Elastic Compliance Matrix: (Units=1/GPa)
#
#
# Indices 1 2 3 4 5 6 
#
# 1 0.011494 -0.006561 -0.002202 0.000000 -0.000857 0.000000
# 2 -0.006561 0.024863 -0.004159 0.000000 -0.003692 0.000000
# 3 -0.002202 -0.004159 0.012565 0.000000 0.003228 0.000000
# 4 0.000000 0.000000 0.000000 0.041631 0.000000 -0.005353
# 5 -0.000857 -0.003692 0.003228 0.000000 0.026199 0.000000
# 6 0.000000 0.000000 0.000000 -0.005353 0.000000 0.042020
#
#
# Mechanical properties :
#
#
# Convention : Reuss Voigt Hill
#
# Bulk Modulus (GPa) = 43.33328 48.95415 46.14372
# Shear Modulus (GPa) = 25.99985 29.29938 27.64962
#
# Velocity S-wave (km/s) = 3.65112 3.87588 3.76518
# Velocity P-wave (km/s) = 6.32394 6.71787 6.52388
#
# Compressibility (1/GPa) = 0.02307695
#
# Stress axis : x y z
#
# Youngs Moduli (GPa) = 87.00426 40.21986 79.58833
#
# Poissons Ratio (x) = 0.26389 0.17524
# Poissons Ratio (y) = 0.57085 0.33104
# Poissons Ratio (z) = 0.19156 0.16729
#
# Static dielectric constant tensor:
#      x y z
#    x 3.794280 0.000000 0.051680 
#    y 0.000000 3.209120 0.000000 
#    z 0.051680 0.000000 3.482420 
# 
# 
# High freq. dielectric constant tensor:
#      x y z
#    x 1.781160 0.000000 0.007600 
#    y 0.000000 1.712290 0.000000 
#    z 0.007600 0.000000 1.764640 
# 
# From -- ./inp_files/184693.got.cif
#   From: 2010.06.25/outbox.cif.g09.slc.cpg/sg12_93_cif.got.tgz:184693.got - 2010.06.28 00:19:55.
