data_PCOD8088275
_publ_section_title
;
Structure prediction by ZEFSAII (Michael W. Deem and Ramdas Pophale) SiO2 
 PCOD8088275
Probable space group: C 2/M
;
_chemical_formula_sum "Si O2"
_cell_formula_units_Z 40
_cell_length_a 22.998511
_cell_length_b 9.330905
_cell_length_c 28.583284
_cell_angle_alpha 90.000000
_cell_angle_beta 21.844136
_cell_angle_gamma 90.000000
_cell_volume 2282.313963
_symmetry_space_group_name_H-M "C 2/M"
_symmetry_group_IT_number 12
_symmetry_cell_setting 'monoclinic'
loop_
_space_group_symop_operation_xyz
x,y,z
-x,y,-z
-x,-y,-z
x,-y,z
1/2+x,1/2+y,z
1/2-x,1/2+y,-z
1/2-x,1/2-y,-z
1/2+x,1/2-y,z
loop_
_atom_site_type_symbol
_atom_site_label
_atom_site_fract_x
_atom_site_fract_y
_atom_site_fract_z
Si Si1 0.256316 0.834086 0.425531
Si Si2 0.781508 0.835149 0.124323
Si Si3 0.368035 0.335555 0.163516
Si Si4 0.988935 0.166999 0.311658
Si Si5 0.672210 0.331172 0.383711
O O1 0.106995 0.802724 0.569437
O O2 0.403137 0.739805 0.331856
O O3 0.210460 0.786183 0.407934
O O4 0.305043 0.000000 0.391843
O O5 0.794435 0.789751 0.168872
O O6 0.659402 0.734112 0.189499
O O7 0.727640 0.000000 0.160695
O O8 0.946382 0.812712 0.975753
O O9 0.327309 0.500000 0.204552
O O10 0.299511 0.237912 0.255118
O O11 0.006276 0.000000 0.287959
O O12 0.500000 0.273083 0.500000
O O13 0.680825 0.500000 0.369905
#
# Coordination Sequence:
#
# PCOD8088275 Si02
#       5
#     8   8   8   8   8
#     4   9  19  34  50  72 104 135 161 198 250 298
#     4   9  18  34  53  73 101 133 163 202 252 294
#     4   9  19  34  52  75 101 131 167 203 242 295
#     4  10  19  32  53  77  98 127 170 210 242 287
#     4  10  20  34  52  75 104 133 160 199 251 297
#
# _framework density 17.526073
#
# number of rings (size 3 to 8) (size 9 to 14) (size 15 to 20)
#    0.000    2.600    0.000    3.000    0.000    5.200 
#    0.000    3.000    0.000    0.000    0.000    0.000 
#    0.000    0.000    0.000    0.000    0.000    0.000 
#
# Total GULP energy -248059.153909 kJ/mol
# GULP energy per Si atom -12402.957695 kJ/mol
# Density = 1.748618 g / cm^3
# Si number density = 17.526073 Si / 1000 Ang^3
#
#
#
# Elastic Constant Matrix: (Units=GPa)
#
#
# Indices 1 2 3 4 5 6 
#
# 1 135.9994 61.9552 65.5389 -0.0131 -7.9485 0.0022
# 2 61.9552 69.6785 47.9361 -0.0470 -11.3269 0.0123
# 3 65.5389 47.9361 82.5179 -0.0528 -9.9748 0.0169
# 4 -0.0131 -0.0470 -0.0528 33.5505 0.0033 3.7346
# 5 -7.9485 -11.3269 -9.9748 0.0033 34.0571 0.0065
# 6 0.0022 0.0123 0.0169 3.7346 0.0065 21.9802
#
#
#
# Elastic Compliance Matrix: (Units=1/GPa)
#
#
# Indices 1 2 3 4 5 6 
#
# 1 0.014285 -0.008340 -0.006669 -0.000018 -0.001393 0.000012
# 2 -0.008340 0.029319 -0.009812 0.000023 0.004931 -0.000014
# 3 -0.006669 -0.009812 0.023360 0.000022 0.002022 -0.000016
# 4 -0.000018 0.000023 0.000022 0.030380 0.000008 -0.005162
# 5 -0.001393 0.004931 0.002022 0.000008 0.031269 -0.000015
# 6 0.000012 -0.000014 -0.000016 -0.005162 -0.000015 0.046373
#
#
# Mechanical properties :
#
#
# Convention : Reuss Voigt Hill
#
# Bulk Modulus (GPa) = 57.73148 71.00625 64.36887
# Shear Modulus (GPa) = 21.70126 25.43525 23.56826
#
# Velocity S-wave (km/s) = 3.52266 3.81370 3.67107
# Velocity P-wave (km/s) = 7.03970 7.74564 7.40109
#
# Compressibility (1/GPa) = 0.01732157
#
# Stress axis : x y z
#
# Youngs Moduli (GPa) = 70.00531 34.10790 42.80837
#
# Poissons Ratio (x) = 0.28445 0.28550
# Poissons Ratio (y) = 0.58382 0.42004
# Poissons Ratio (z) = 0.46688 0.33467
#
# Static dielectric constant tensor:
#      x y z
#    x 3.240530 -0.000030 -0.075220 
#    y -0.000030 3.186840 0.000090 
#    z -0.075220 0.000090 3.117250 
# 
# 
# High freq. dielectric constant tensor:
#      x y z
#    x 1.676660 0.000000 -0.008770 
#    y 0.000000 1.676840 0.000010 
#    z -0.008770 0.000010 1.672900 
# 
# From -- ./inp_files/162357.got.cif
#   From: 2010.06.25/outbox.cif.g09.slc.cpg/sg12_82_cif.got.tgz:162357.got - 2010.06.28 00:19:55.
