data_PCOD8088279
_publ_section_title
;
Structure prediction by ZEFSAII (Michael W. Deem and Ramdas Pophale) SiO2 
 PCOD8088279
Probable space group: C 2/M
;
_chemical_formula_sum "Si O2"
_cell_formula_units_Z 56
_cell_length_a 27.455660
_cell_length_b 9.154475
_cell_length_c 13.684133
_cell_angle_alpha 90.000000
_cell_angle_beta 119.908540
_cell_angle_gamma 90.000000
_cell_volume 2981.348622
_symmetry_space_group_name_H-M "C 2/M"
_symmetry_group_IT_number 12
_symmetry_cell_setting 'monoclinic'
loop_
_space_group_symop_operation_xyz
x,y,z
-x,y,-z
-x,-y,-z
x,-y,z
1/2+x,1/2+y,z
1/2-x,1/2+y,-z
1/2-x,1/2-y,-z
1/2+x,1/2-y,z
loop_
_atom_site_type_symbol
_atom_site_label
_atom_site_fract_x
_atom_site_fract_y
_atom_site_fract_z
Si Si1 0.774293 0.673060 0.738441
Si Si2 0.440265 0.670267 0.398170
Si Si3 0.345495 0.671189 0.459665
Si Si4 0.131417 0.326247 0.315459
Si Si5 0.917169 0.672388 0.173917
Si Si6 0.488762 0.826293 0.880780
Si Si7 0.294805 0.827232 0.977038
O O1 0.777058 0.500000 0.743380
O O2 0.713444 0.727325 0.642692
O O3 0.821333 0.733342 0.711500
O O4 0.786508 0.732746 0.858963
O O5 0.500000 0.721129 0.500000
O O6 0.440385 0.500000 0.372385
O O7 0.393306 0.709732 0.430062
O O8 0.427112 0.757506 0.288047
O O9 0.343830 0.500000 0.482262
O O10 0.357923 0.759115 0.569053
O O11 0.133249 0.500000 0.326360
O O12 0.071503 0.270744 0.216416
O O13 0.922418 0.500000 0.190876
O O14 0.856580 0.718507 0.073261
O O15 0.963493 0.732814 0.144541
O O16 0.490430 0.000000 0.886377
O O17 0.500000 0.762166 0.000000
O O18 0.285398 0.000000 0.973444
O O19 0.250000 0.750000 0.000000
#
# Coordination Sequence:
#
# PCOD8088279 Si02
#       7
#     8   8   8   8   8   8   8
#     4   9  18  33  52  73  99 133 168 202 248 305
#     4  10  21  36  53  73 101 140 177 206 247 305
#     4  10  20  34  51  71  99 134 168 205 250 297
#     4  10  19  32  53  77  99 128 166 206 248 296
#     4  10  20  33  53  80 104 129 166 214 258 293
#     4   9  17  31  52  77 103 130 162 202 250 302
#     4  10  20  35  54  76 103 134 170 209 250 300
#
# _framework density 18.783443999999999
#
# number of rings (size 3 to 8) (size 9 to 14) (size 15 to 20)
#    0.000    2.286    0.000    3.000    0.000    6.000 
#    0.000    1.429    0.000    3.429    0.000    0.000 
#    0.000    0.000    0.000    0.000    0.000    0.000 
#
# Total GULP energy -347273.076056 kJ/mol
# GULP energy per Si atom -12402.609859 kJ/mol
# Density = 1.874069 g / cm^3
# Si number density = 18.783444 Si / 1000 Ang^3
#
#
#
# Elastic Constant Matrix: (Units=GPa)
#
#
# Indices 1 2 3 4 5 6 
#
# 1 198.7767 36.1155 106.2078 0.0000 9.9354 0.0000
# 2 36.1155 21.2276 40.6881 0.0000 0.2110 0.0000
# 3 106.2078 40.6881 200.5609 0.0000 6.8657 0.0000
# 4 0.0000 0.0000 0.0000 23.7687 0.0000 0.7694
# 5 9.9354 0.2110 6.8657 0.0000 38.2905 0.0000
# 6 0.0000 0.0000 0.0000 0.7694 0.0000 12.7529
#
#
#
# Elastic Compliance Matrix: (Units=1/GPa)
#
#
# Indices 1 2 3 4 5 6 
#
# 1 0.008023 -0.009157 -0.002336 0.000000 -0.001612 0.000000
# 2 -0.009157 0.087752 -0.013098 0.000000 0.004241 0.000000
# 3 -0.002336 -0.013098 0.008912 0.000000 -0.000920 0.000000
# 4 0.000000 0.000000 0.000000 0.042155 0.000000 -0.002543
# 5 -0.001612 0.004241 -0.000920 0.000000 0.026676 0.000000
# 6 0.000000 0.000000 0.000000 -0.002543 0.000000 0.078567
#
#
# Mechanical properties :
#
#
# Convention : Reuss Voigt Hill
#
# Bulk Modulus (GPa) = 18.01653 87.39865 52.70759
# Shear Modulus (GPa) = 15.63629 30.79933 23.21781
#
# Velocity S-wave (km/s) = 2.88835 4.05372 3.51960
# Velocity P-wave (km/s) = 4.55368 8.27894 6.68120
#
# Compressibility (1/GPa) = 0.05550459
#
# Stress axis : x y z
#
# Youngs Moduli (GPa) = 124.63991 11.39572 112.21160
#
# Poissons Ratio (x) = 0.10435 0.26210
# Poissons Ratio (y) = 1.14132 1.46980
# Poissons Ratio (z) = 0.29113 0.14927
#
# Static dielectric constant tensor:
#      x y z
#    x 3.648790 0.000000 0.068940 
#    y 0.000000 3.050550 0.000000 
#    z 0.068940 0.000000 3.601500 
# 
# 
# High freq. dielectric constant tensor:
#      x y z
#    x 1.752990 0.000000 0.001620 
#    y 0.000000 1.687400 0.000000 
#    z 0.001620 0.000000 1.748480 
# 
# From -- ./inp_files/181059.got.cif
#   From: 2010.06.25/outbox.cif.g09.slc.cpg/sg12_91_cif.got.tgz:181059.got - 2010.06.28 00:19:55.
