data_PCOD8088950
_publ_section_title
;
Structure prediction by ZEFSAII (Michael W. Deem and Ramdas Pophale) SiO2 
 PCOD8088950
Probable space group: C 2/M
;
_chemical_formula_sum "Si O2"
_cell_formula_units_Z 64
_cell_length_a 24.303188
_cell_length_b 14.085657
_cell_length_c 14.869768
_cell_angle_alpha 90.000000
_cell_angle_beta 143.539445
_cell_angle_gamma 90.000000
_cell_volume 3025.016829
_symmetry_space_group_name_H-M "C 2/M"
_symmetry_group_IT_number 12
_symmetry_cell_setting 'monoclinic'
loop_
_space_group_symop_operation_xyz
x,y,z
-x,y,-z
-x,-y,-z
x,-y,z
1/2+x,1/2+y,z
1/2-x,1/2+y,-z
1/2-x,1/2-y,-z
1/2+x,1/2-y,z
loop_
_atom_site_type_symbol
_atom_site_label
_atom_site_fract_x
_atom_site_fract_y
_atom_site_fract_z
Si Si1 0.943591 0.265726 0.291566
Si Si2 0.201623 0.649278 0.439374
Si Si3 0.562057 0.272056 0.998790
Si Si4 0.986990 0.612509 0.188472
Si Si5 0.692242 0.396321 0.586804
Si Si6 0.860391 0.267414 0.363137
Si Si7 0.998281 0.890944 0.239861
Si Si8 0.728730 0.395832 0.280886
O O1 0.858904 0.270812 0.251834
O O2 0.929361 0.172559 0.210621
O O3 0.951555 0.361426 0.242153
O O4 0.036306 0.251546 0.469222
O O5 0.250000 0.750000 0.500000
O O6 0.091675 0.650738 0.312320
O O7 0.220343 0.602327 0.366630
O O8 0.250610 0.594850 0.585978
O O9 0.577508 0.173472 0.964346
O O10 0.510580 0.353582 0.873420
O O11 0.500000 0.242842 0.000000
O O12 0.656977 0.314071 0.161118
O O13 0.978038 0.500000 0.159757
O O14 0.684375 0.500000 0.622061
O O15 0.701556 0.319542 0.678686
O O16 0.603417 0.374594 0.407976
O O17 0.822433 0.366802 0.351663
O O18 0.967121 0.000000 0.205614
O O19 0.696241 0.500000 0.205086
#
# Coordination Sequence:
#
# PCOD8088950 Si02
#       8
#     8   8   8   8   8   8   8   8
#     4   9  19  37  60  87 121 158 203 255 306 361
#     4  12  20  37  62  92 129 161 200 255 312 368
#     4  11  24  40  58  87 123 164 199 246 305 364
#     4  11  23  41  64  90 122 168 211 246 304 375
#     4  10  19  32  56  89 121 158 203 252 306 366
#     4  10  20  36  58  89 124 156 197 259 315 355
#     4   9  18  35  56  82 117 162 208 244 297 362
#     4  12  24  38  60  92 124 158 205 257 309 362
#
# _framework density 21.156905999999999
#
# number of rings (size 3 to 8) (size 9 to 14) (size 15 to 20)
#    0.000    1.500    2.500    4.500    0.000    3.250 
#    0.000    6.875    0.000    1.500    0.000    0.000 
#    0.000    0.000    0.000    0.000    0.000    0.000 
#
# Total GULP energy -396626.263928 kJ/mol
# GULP energy per Si atom -12394.570748 kJ/mol
# Density = 2.110875 g / cm^3
# Si number density = 21.156906 Si / 1000 Ang^3
#
#
#
# Elastic Constant Matrix: (Units=GPa)
#
#
# Indices 1 2 3 4 5 6 
#
# 1 153.2716 49.7362 22.7883 0.0000 -23.9157 0.0000
# 2 49.7362 146.6065 17.6148 0.0000 -6.0534 0.0000
# 3 22.7883 17.6148 44.6914 0.0000 -5.3099 0.0000
# 4 0.0000 0.0000 0.0000 6.8630 0.0000 -5.7809
# 5 -23.9157 -6.0534 -5.3099 0.0000 21.2839 0.0000
# 6 0.0000 0.0000 0.0000 -5.7809 0.0000 10.9711
#
#
#
# Elastic Compliance Matrix: (Units=1/GPa)
#
#
# Indices 1 2 3 4 5 6 
#
# 1 0.009076 -0.002397 -0.002630 0.000000 0.008860 0.000000
# 2 -0.002397 0.007832 -0.001979 0.000000 -0.000960 0.000000
# 3 -0.002630 -0.001979 0.024814 0.000000 0.002672 0.000000
# 4 0.000000 0.000000 0.000000 0.261991 0.000000 0.138048
# 5 0.008860 -0.000960 0.002672 0.000000 0.057333 0.000000
# 6 0.000000 0.000000 0.000000 0.138048 0.000000 0.163888
#
#
# Mechanical properties :
#
#
# Convention : Reuss Voigt Hill
#
# Bulk Modulus (GPa) = 36.08794 58.31644 47.20219
# Shear Modulus (GPa) = 9.12104 24.78562 16.95333
#
# Velocity S-wave (km/s) = 2.07858 3.42645 2.83382
# Velocity P-wave (km/s) = 4.78069 6.57858 5.75033
#
# Compressibility (1/GPa) = 0.02771008
#
# Stress axis : x y z
#
# Youngs Moduli (GPa) = 110.18370 127.67605 40.29934
#
# Poissons Ratio (x) = 0.30605 0.10600
# Poissons Ratio (y) = 0.26412 0.07974
# Poissons Ratio (z) = 0.28981 0.25264
#
# Static dielectric constant tensor:
#      x y z
#    x 4.221010 0.000000 -0.204330 
#    y 0.000000 3.892910 0.000000 
#    z -0.204330 0.000000 3.528170 
# 
# 
# High freq. dielectric constant tensor:
#      x y z
#    x 1.825620 0.000000 -0.013180 
#    y 0.000000 1.833380 0.000000 
#    z -0.013180 0.000000 1.802480 
# 
# From -- ./inp_files/240701.got.cif
#   From: 2010.06.25/outbox.cif.g09.slc.cpg/sg12_121_cif.got.tgz:240701.got - 2010.06.28 00:19:55.
