data_PCOD8088596
_publ_section_title
;
Structure prediction by ZEFSAII (Michael W. Deem and Ramdas Pophale) SiO2 
 PCOD8088596
Probable space group: C 2/M
;
_chemical_formula_sum "Si O2"
_cell_formula_units_Z 56
_cell_length_a 14.963402
_cell_length_b 9.192080
_cell_length_c 21.442432
_cell_angle_alpha 90.000000
_cell_angle_beta 91.538785
_cell_angle_gamma 90.000000
_cell_volume 2948.231183
_symmetry_space_group_name_H-M "C 2/M"
_symmetry_group_IT_number 12
_symmetry_cell_setting 'monoclinic'
loop_
_space_group_symop_operation_xyz
x,y,z
-x,y,-z
-x,-y,-z
x,-y,z
1/2+x,1/2+y,z
1/2-x,1/2+y,-z
1/2-x,1/2-y,-z
1/2+x,1/2-y,z
loop_
_atom_site_type_symbol
_atom_site_label
_atom_site_fract_x
_atom_site_fract_y
_atom_site_fract_z
Si Si1 0.848437 0.333218 0.931562
Si Si2 0.250060 0.672218 0.730537
Si Si3 0.330439 0.164051 0.069327
Si Si4 0.089655 0.171903 0.182095
Si Si5 0.395625 0.329319 0.493914
Si Si6 0.078461 0.333237 0.800781
Si Si7 0.746648 0.829160 0.590171
O O1 0.855121 0.500000 0.910352
O O2 0.746415 0.282095 0.923858
O O3 0.909829 0.238043 0.887383
O O4 0.880412 0.313617 0.003936
O O5 0.256384 0.500000 0.731030
O O6 0.327514 0.733224 0.776475
O O7 0.157430 0.724540 0.758378
O O8 0.260302 0.730547 0.660419
O O9 0.400582 0.184922 0.125705
O O10 0.289095 0.000000 0.071811
O O11 0.003308 0.228700 0.217104
O O12 0.088490 0.000000 0.176959
O O13 0.500000 0.276097 0.500000
O O14 0.394509 0.500000 0.479110
O O15 0.342075 0.248329 0.438096
O O16 0.339391 0.293547 0.555782
O O17 0.054813 0.500000 0.784815
O O18 0.726437 0.000000 0.587981
#
# Coordination Sequence:
#
# PCOD8088596 Si02
#       7
#     8   8   8   8   8   8   8
#     4  10  19  32  54  80 103 134 179 224 273 329
#     4   9  19  37  57  74 105 146 179 217 266 321
#     4   9  18  34  55  76 103 139 175 222 279 331
#     4  11  22  37  55  78 107 141 179 222 275 325
#     4   9  18  33  54  82 115 144 172 216 266 308
#     4  10  20  37  56  75 102 139 180 222 273 325
#     4   9  18  34  56  80 105 143 186 215 256 313
#
# _framework density 18.994440000000001
#
# number of rings (size 3 to 8) (size 9 to 14) (size 15 to 20)
#    0.000    2.429    1.429    0.857    0.000    3.143 
#    0.000    6.429    0.000    0.000    0.000    0.000 
#    0.000    0.000    0.000    0.000    0.000    0.000 
#
# Total GULP energy -347118.055639 kJ/mol
# GULP energy per Si atom -12397.073416 kJ/mol
# Density = 1.895121 g / cm^3
# Si number density = 18.994440 Si / 1000 Ang^3
#
#
#
# Elastic Constant Matrix: (Units=GPa)
#
#
# Indices 1 2 3 4 5 6 
#
# 1 124.7685 39.4994 51.7087 0.0000 -18.7152 0.0000
# 2 39.4994 60.8213 34.9949 0.0000 -5.1121 0.0000
# 3 51.7087 34.9949 121.3641 0.0000 -15.4387 0.0000
# 4 0.0000 0.0000 0.0000 22.6482 0.0000 -0.2996
# 5 -18.7152 -5.1121 -15.4387 0.0000 12.7735 0.0000
# 6 0.0000 0.0000 0.0000 -0.2996 0.0000 31.9568
#
#
#
# Elastic Compliance Matrix: (Units=1/GPa)
#
#
# Indices 1 2 3 4 5 6 
#
# 1 0.012839 -0.006040 -0.001942 0.000000 0.014047 0.000000
# 2 -0.006040 0.022569 -0.004622 0.000000 -0.005403 0.000000
# 3 -0.001942 -0.004622 0.011583 0.000000 0.009306 0.000000
# 4 0.000000 0.000000 0.000000 0.044159 0.000000 0.000414
# 5 0.014047 -0.005403 0.009306 0.000000 0.107952 0.000000
# 6 0.000000 0.000000 0.000000 0.000414 0.000000 0.031296
#
#
# Mechanical properties :
#
#
# Convention : Reuss Voigt Hill
#
# Bulk Modulus (GPa) = 45.90387 62.15109 54.02748
# Shear Modulus (GPa) = 19.02102 25.52577 22.27340
#
# Velocity S-wave (km/s) = 3.16792 3.66984 3.42808
# Velocity P-wave (km/s) = 6.13192 7.12381 6.64639
#
# Compressibility (1/GPa) = 0.02178466
#
# Stress axis : x y z
#
# Youngs Moduli (GPa) = 77.88960 44.30796 86.33097
#
# Poissons Ratio (x) = 0.26763 0.16762
# Poissons Ratio (y) = 0.47046 0.39899
# Poissons Ratio (z) = 0.15123 0.20478
#
# Static dielectric constant tensor:
#      x y z
#    x 3.434700 0.000000 -0.083040 
#    y 0.000000 3.316900 0.000000 
#    z -0.083040 0.000000 3.676190 
# 
# 
# High freq. dielectric constant tensor:
#      x y z
#    x 1.734150 0.000000 -0.007710 
#    y 0.000000 1.721840 0.000000 
#    z -0.007710 0.000000 1.738570 
# 
# From -- ./inp_files/308973.got.cif
#   From: 2010.06.25/outbox.cif.g09.slc.cpg/sg12_155_cif.got.tgz:308973.got - 2010.06.28 00:19:55.
