data_PCOD8088311
_publ_section_title
;
Structure prediction by ZEFSAII (Michael W. Deem and Ramdas Pophale) SiO2 
 PCOD8088311
Probable space group: C 2/M
;
_chemical_formula_sum "Si O2"
_cell_formula_units_Z 56
_cell_length_a 18.589812
_cell_length_b 9.440733
_cell_length_c 20.629811
_cell_angle_alpha 90.000000
_cell_angle_beta 55.431749
_cell_angle_gamma 90.000000
_cell_volume 2981.354848
_symmetry_space_group_name_H-M "C 2/M"
_symmetry_group_IT_number 12
_symmetry_cell_setting 'monoclinic'
loop_
_space_group_symop_operation_xyz
x,y,z
-x,y,-z
-x,-y,-z
x,-y,z
1/2+x,1/2+y,z
1/2-x,1/2+y,-z
1/2-x,1/2-y,-z
1/2+x,1/2-y,z
loop_
_atom_site_type_symbol
_atom_site_label
_atom_site_fract_x
_atom_site_fract_y
_atom_site_fract_z
Si Si1 0.410423 0.332681 0.867748
Si Si2 0.092765 0.839137 0.462146
Si Si3 0.744221 0.336399 0.293370
Si Si4 0.906116 0.833086 0.018710
Si Si5 0.831260 0.158247 0.440488
Si Si6 0.242680 0.163475 0.146843
Si Si7 0.100340 0.168033 0.731796
O O1 0.411372 0.500000 0.860409
O O2 0.331824 0.273121 0.863012
O O3 0.503552 0.273965 0.796073
O O4 0.397948 0.285298 0.948202
O O5 0.171788 0.770614 0.380020
O O6 0.103331 0.833597 0.533434
O O7 0.000000 0.759999 0.500000
O O8 0.086130 0.000000 0.439559
O O9 0.764829 0.500000 0.300374
O O10 0.709145 0.322328 0.237916
O O11 0.832249 0.245724 0.255187
O O12 0.831470 0.751512 0.095590
O O13 0.891168 0.000000 0.034664
O O14 0.000000 0.789433 0.000000
O O15 0.750000 0.250000 0.500000
O O16 0.879945 0.213943 0.351923
O O17 0.797075 0.000000 0.445792
O O18 0.262543 0.000000 0.119549
O O19 0.107246 0.000000 0.740188
#
# Coordination Sequence:
#
# PCOD8088311 Si02
#       7
#     8   8   8   8   8   8   8
#     4   9  19  35  54  79 107 135 171 214 257 303
#     4   9  18  31  50  75 103 135 173 213 254 303
#     4  10  20  34  52  76 106 137 170 215 263 303
#     4  10  20  36  58  79 104 139 172 207 255 310
#     4  10  19  32  53  78 103 135 173 215 258 301
#     4  10  21  35  54  79 107 136 170 215 259 301
#     4  10  20  34  55  78 103 137 176 213 253 308
#
# _framework density 18.783405999999999
#
# number of rings (size 3 to 8) (size 9 to 14) (size 15 to 20)
#    0.000    2.286    1.429    1.286    2.000    2.000 
#    0.000    1.429    0.000    1.714    0.000    0.000 
#    0.000    0.000    0.000    0.000    0.000    0.000 
#
# Total GULP energy -347155.161422 kJ/mol
# GULP energy per Si atom -12398.398622 kJ/mol
# Density = 1.874065 g / cm^3
# Si number density = 18.783406 Si / 1000 Ang^3
#
#
#
# Elastic Constant Matrix: (Units=GPa)
#
#
# Indices 1 2 3 4 5 6 
#
# 1 129.1651 28.2710 40.5013 0.0000 -3.6963 0.0000
# 2 28.2710 30.9984 20.6995 0.0000 -4.0014 -0.0001
# 3 40.5013 20.6995 95.3838 0.0000 2.0597 0.0000
# 4 0.0000 0.0000 0.0000 24.1673 0.0000 -1.6810
# 5 -3.6963 -4.0014 2.0597 0.0000 39.0068 0.0000
# 6 0.0000 -0.0001 0.0000 -1.6810 0.0000 22.0563
#
#
#
# Elastic Compliance Matrix: (Units=1/GPa)
#
#
# Indices 1 2 3 4 5 6 
#
# 1 0.010245 -0.007472 -0.002736 0.000000 0.000349 0.000000
# 2 -0.007472 0.043913 -0.006446 0.000000 0.004137 0.000000
# 3 -0.002736 -0.006446 0.013080 0.000000 -0.001611 0.000000
# 4 0.000000 0.000000 0.000000 0.041599 0.000000 0.003170
# 5 0.000349 0.004137 -0.001611 0.000000 0.026179 0.000000
# 6 0.000000 0.000000 0.000000 0.003170 0.000000 0.045580
#
#
# Mechanical properties :
#
#
# Convention : Reuss Voigt Hill
#
# Bulk Modulus (GPa) = 29.47351 48.27677 38.87514
# Shear Modulus (GPa) = 22.20109 28.11777 25.15943
#
# Velocity S-wave (km/s) = 3.44168 3.87324 3.66382
# Velocity P-wave (km/s) = 5.61417 6.76463 6.21607
#
# Compressibility (1/GPa) = 0.03392877
#
# Stress axis : x y z
#
# Youngs Moduli (GPa) = 97.60465 22.77248 76.45473
#
# Poissons Ratio (x) = 0.17015 0.20921
# Poissons Ratio (y) = 0.72927 0.49286
# Poissons Ratio (z) = 0.26709 0.14680
#
# Static dielectric constant tensor:
#      x y z
#    x 3.814890 0.000000 -0.032060 
#    y 0.000000 3.067810 0.000000 
#    z -0.032060 0.000000 3.394410 
# 
# 
# High freq. dielectric constant tensor:
#      x y z
#    x 1.738490 0.000000 0.005440 
#    y 0.000000 1.687360 0.000000 
#    z 0.005440 0.000000 1.744520 
# 
# From -- ./inp_files/313677.got.cif
#   From: 2010.06.25/outbox.cif.g09.slc.cpg/sg12_157_cif.got.tgz:313677.got - 2010.06.28 00:19:55.
