data_PCOD8088164
_publ_section_title
;
Structure prediction by ZEFSAII (Michael W. Deem and Ramdas Pophale) SiO2 
 PCOD8088164
Probable space group: C 2/M
;
_chemical_formula_sum "Si O2"
_cell_formula_units_Z 56
_cell_length_a 26.964940
_cell_length_b 8.938408
_cell_length_c 14.112491
_cell_angle_alpha 90.000000
_cell_angle_beta 121.168782
_cell_angle_gamma 90.000000
_cell_volume 2910.433160
_symmetry_space_group_name_H-M "C 2/M"
_symmetry_group_IT_number 12
_symmetry_cell_setting 'monoclinic'
loop_
_space_group_symop_operation_xyz
x,y,z
-x,y,-z
-x,-y,-z
x,-y,z
1/2+x,1/2+y,z
1/2-x,1/2+y,-z
1/2-x,1/2-y,-z
1/2+x,1/2-y,z
loop_
_atom_site_type_symbol
_atom_site_label
_atom_site_fract_x
_atom_site_fract_y
_atom_site_fract_z
Si Si1 0.498761 0.823814 0.391428
Si Si2 0.383558 0.823063 0.167107
Si Si3 0.844283 0.177253 0.953339
Si Si4 0.724079 0.673432 0.839805
Si Si5 0.894146 0.174291 0.601648
Si Si6 0.163736 0.827069 0.266648
Si Si7 0.781039 0.171386 0.385259
O O1 0.500000 0.759719 0.500000
O O2 0.439066 0.775907 0.283155
O O3 0.550069 0.759231 0.379457
O O4 0.506560 0.000000 0.401086
O O5 0.328991 0.736462 0.154145
O O6 0.373604 0.000000 0.158907
O O7 0.390708 0.762738 0.066204
O O8 0.780314 0.229586 0.921718
O O9 0.856288 0.230378 0.856864
O O10 0.850642 0.000000 0.972089
O O11 0.735331 0.500000 0.876472
O O12 0.708395 0.694248 0.714994
O O13 0.887095 0.203134 0.707586
O O14 0.837078 0.239020 0.493236
O O15 0.901915 0.000000 0.586222
O O16 0.222633 0.751463 0.361308
O O17 0.179102 0.000000 0.273968
O O18 0.773619 0.000000 0.406885
#
# Coordination Sequence:
#
# PCOD8088164 Si02
#       7
#     8   8   8   8   8   8   8
#     4  10  23  41  58  78 104 135 173 215 260 312
#     4  11  22  36  54  76 103 136 176 219 261 308
#     4  10  20  35  54  77 107 141 175 212 258 308
#     4  10  19  32  52  80 111 140 172 211 260 313
#     4  10  20  35  55  80 108 138 176 217 258 306
#     4   9  19  34  53  79 109 140 174 213 256 307
#     4   9  18  31  51  81 112 140 171 211 258 310
#
# _framework density 19.241122000000001
#
# number of rings (size 3 to 8) (size 9 to 14) (size 15 to 20)
#    0.000    2.143    0.000    3.000    0.000    3.714 
#    0.000    0.714    0.000    4.286    0.000    0.000 
#    0.000    0.000    0.000    0.000    0.000    0.000 
#
# Total GULP energy -347223.850330 kJ/mol
# GULP energy per Si atom -12400.851797 kJ/mol
# Density = 1.919733 g / cm^3
# Si number density = 19.241122 Si / 1000 Ang^3
#
#
#
# Elastic Constant Matrix: (Units=GPa)
#
#
# Indices 1 2 3 4 5 6 
#
# 1 97.8256 23.7579 53.0897 0.0000 -9.4080 0.0000
# 2 23.7579 40.1586 34.5011 0.0000 -0.6896 0.0000
# 3 53.0897 34.5011 133.3686 0.0000 1.6232 0.0000
# 4 0.0000 0.0000 0.0000 28.9097 0.0000 1.5045
# 5 -9.4080 -0.6896 1.6232 0.0000 13.9361 0.0000
# 6 0.0000 0.0000 0.0000 1.5045 0.0000 31.5836
#
#
#
# Elastic Compliance Matrix: (Units=1/GPa)
#
#
# Indices 1 2 3 4 5 6 
#
# 1 0.014993 -0.004440 -0.004947 0.000000 0.010478 0.000000
# 2 -0.004440 0.033423 -0.006872 0.000000 -0.000543 0.000000
# 3 -0.004947 -0.006872 0.011306 0.000000 -0.004997 0.000000
# 4 0.000000 0.000000 0.000000 0.034676 0.000000 -0.001652
# 5 0.010478 -0.000543 -0.004997 0.000000 0.079385 0.000000
# 6 0.000000 0.000000 0.000000 -0.001652 0.000000 0.031741
#
#
# Mechanical properties :
#
#
# Convention : Reuss Voigt Hill
#
# Bulk Modulus (GPa) = 36.76031 54.89446 45.82739
# Shear Modulus (GPa) = 20.23398 25.55284 22.89341
#
# Velocity S-wave (km/s) = 3.24636 3.64817 3.45311
# Velocity P-wave (km/s) = 5.76180 6.80715 6.30617
#
# Compressibility (1/GPa) = 0.02720325
#
# Stress axis : x y z
#
# Youngs Moduli (GPa) = 66.69755 29.91996 88.44921
#
# Poissons Ratio (x) = 0.13284 0.43758
# Poissons Ratio (y) = 0.29612 0.60784
# Poissons Ratio (z) = 0.32997 0.20561
#
# Static dielectric constant tensor:
#      x y z
#    x 3.365780 0.000000 -0.215430 
#    y 0.000000 3.467500 0.000000 
#    z -0.215430 0.000000 4.000460 
# 
# 
# High freq. dielectric constant tensor:
#      x y z
#    x 1.734150 0.000000 -0.018110 
#    y 0.000000 1.745210 0.000000 
#    z -0.018110 0.000000 1.762230 
# 
# From -- ./inp_files/238924.got.cif
#   From: 2010.06.25/outbox.cif.g09.slc.cpg/sg12_120_cif.got.tgz:238924.got - 2010.06.28 00:19:55.
