data_PCOD8088930
_publ_section_title
;
Structure prediction by ZEFSAII (Michael W. Deem and Ramdas Pophale) SiO2 
 PCOD8088930
Probable space group: C 2/M
;
_chemical_formula_sum "Si O2"
_cell_formula_units_Z 56
_cell_length_a 31.503331
_cell_length_b 8.954130
_cell_length_c 11.869264
_cell_angle_alpha 90.000000
_cell_angle_beta 123.679711
_cell_angle_gamma 90.000000
_cell_volume 2786.156862
_symmetry_space_group_name_H-M "C 2/M"
_symmetry_group_IT_number 12
_symmetry_cell_setting 'monoclinic'
loop_
_space_group_symop_operation_xyz
x,y,z
-x,y,-z
-x,-y,-z
x,-y,z
1/2+x,1/2+y,z
1/2-x,1/2+y,-z
1/2-x,1/2-y,-z
1/2+x,1/2-y,z
loop_
_atom_site_type_symbol
_atom_site_label
_atom_site_fract_x
_atom_site_fract_y
_atom_site_fract_z
Si Si1 0.073009 0.673105 0.842792
Si Si2 0.243926 0.676555 0.870137
Si Si3 0.632233 0.175061 0.325470
Si Si4 0.519272 0.822065 0.146394
Si Si5 0.644381 0.174830 0.590890
Si Si6 0.441675 0.676342 0.405140
Si Si7 0.331183 0.173952 0.858398
O O1 0.071471 0.500000 0.805956
O O2 0.084534 0.767858 0.748589
O O3 0.019080 0.730703 0.812150
O O4 0.116064 0.701440 0.999259
O O5 0.246377 0.500000 0.887920
O O6 0.189937 0.727661 0.738738
O O7 0.287686 0.728261 0.850604
O O8 0.250000 0.750000 0.000000
O O9 0.575410 0.243809 0.251013
O O10 0.660397 0.212248 0.484753
O O11 0.662678 0.235293 0.261050
O O12 0.626138 0.000000 0.296061
O O13 0.518800 0.000000 0.141679
O O14 0.500000 0.756232 0.000000
O O15 0.591897 0.258687 0.542411
O O16 0.633499 0.000000 0.587598
O O17 0.500000 0.734619 0.500000
O O18 0.439456 0.500000 0.407168
O O19 0.315501 0.000000 0.839645
#
# Coordination Sequence:
#
# PCOD8088930 Si02
#       7
#     8   8   8   8   8   8   8
#     4  10  19  32  56  86 113 145 190 236 275 327
#     4  11  24  41  60  83 111 145 191 239 284 333
#     4   9  17  32  55  84 117 146 179 228 281 332
#     4   9  14  25  49  83 115 141 175 222 271 319
#     4  10  22  40  61  84 110 146 192 237 277 327
#     4  11  24  39  55  80 116 152 186 227 280 338
#     4  10  20  35  58  88 116 144 183 230 283 339
#
# _framework density 20.09937
#
# number of rings (size 3 to 8) (size 9 to 14) (size 15 to 20)
#    0.000    2.000    1.429    2.571    0.000    8.000 
#    0.000    0.714    0.000    1.286    0.000    0.000 
#    0.000    0.000    0.000    0.000    0.000    0.000 
#
# Total GULP energy -347191.861519 kJ/mol
# GULP energy per Si atom -12399.709340 kJ/mol
# Density = 2.005362 g / cm^3
# Si number density = 20.099370 Si / 1000 Ang^3
#
#
#
# Elastic Constant Matrix: (Units=GPa)
#
#
# Indices 1 2 3 4 5 6 
#
# 1 145.2209 37.9523 58.3218 0.0000 -9.6126 0.0000
# 2 37.9523 43.0586 37.0874 0.0000 0.8296 0.0000
# 3 58.3218 37.0874 131.0739 0.0000 -13.0357 0.0000
# 4 0.0000 0.0000 0.0000 15.4014 0.0000 1.7225
# 5 -9.6126 0.8296 -13.0357 0.0000 36.7797 0.0000
# 6 0.0000 0.0000 0.0000 1.7225 0.0000 30.3666
#
#
#
# Elastic Compliance Matrix: (Units=1/GPa)
#
#
# Indices 1 2 3 4 5 6 
#
# 1 0.009632 -0.006605 -0.002230 0.000000 0.001876 0.000000
# 2 -0.006605 0.035789 -0.007712 0.000000 -0.005267 0.000000
# 3 -0.002230 -0.007712 0.011156 0.000000 0.003545 0.000000
# 4 0.000000 0.000000 0.000000 0.065344 0.000000 -0.003707
# 5 0.001876 -0.005267 0.003545 0.000000 0.029054 0.000000
# 6 0.000000 0.000000 0.000000 -0.003707 0.000000 0.033141
#
#
# Mechanical properties :
#
#
# Convention : Reuss Voigt Hill
#
# Bulk Modulus (GPa) = 42.58205 65.11962 53.85083
# Shear Modulus (GPa) = 22.21841 28.90902 25.56371
#
# Velocity S-wave (km/s) = 3.32840 3.79661 3.57019
# Velocity P-wave (km/s) = 6.00023 7.18945 6.62159
#
# Compressibility (1/GPa) = 0.02348407
#
# Stress axis : x y z
#
# Youngs Moduli (GPa) = 103.81936 27.94126 89.63555
#
# Poissons Ratio (x) = 0.18455 0.19993
# Poissons Ratio (y) = 0.68571 0.69123
# Poissons Ratio (z) = 0.23156 0.21547
#
# Static dielectric constant tensor:
#      x y z
#    x 3.811850 0.000000 -0.049710 
#    y 0.000000 3.237880 0.000000 
#    z -0.049710 0.000000 3.798300 
# 
# 
# High freq. dielectric constant tensor:
#      x y z
#    x 1.794840 0.000000 -0.009500 
#    y 0.000000 1.741060 0.000000 
#    z -0.009500 0.000000 1.795980 
# 
# From -- ./inp_files/187768.got.cif
#   From: 2010.06.25/outbox.cif.g09.slc.cpg/sg12_94_cif.got.tgz:187768.got - 2010.06.28 00:19:55.
