data_PCOD8088331
_publ_section_title
;
Structure prediction by ZEFSAII (Michael W. Deem and Ramdas Pophale) SiO2 
 PCOD8088331
Probable space group: C 2/M
;
_chemical_formula_sum "Si O2"
_cell_formula_units_Z 64
_cell_length_a 30.227823
_cell_length_b 8.872810
_cell_length_c 15.558730
_cell_angle_alpha 90.000000
_cell_angle_beta 131.791215
_cell_angle_gamma 90.000000
_cell_volume 3111.253449
_symmetry_space_group_name_H-M "C 2/M"
_symmetry_group_IT_number 12
_symmetry_cell_setting 'monoclinic'
loop_
_space_group_symop_operation_xyz
x,y,z
-x,y,-z
-x,-y,-z
x,-y,z
1/2+x,1/2+y,z
1/2-x,1/2+y,-z
1/2-x,1/2-y,-z
1/2+x,1/2-y,z
loop_
_atom_site_type_symbol
_atom_site_label
_atom_site_fract_x
_atom_site_fract_y
_atom_site_fract_z
Si Si1 0.707105 0.678559 0.583581
Si Si2 0.123170 0.170471 0.622187
Si Si3 0.968842 0.829409 0.632262
Si Si4 0.603241 0.320876 0.783767
Si Si5 0.183180 0.321653 0.170019
Si Si6 0.704929 0.177496 0.009064
Si Si7 0.933629 0.320565 0.894876
Si Si8 0.117047 0.323571 0.351390
O O1 0.698647 0.500000 0.563387
O O2 0.669020 0.744875 0.614630
O O3 0.775063 0.724140 0.694114
O O4 0.680813 0.751665 0.462069
O O5 0.056953 0.178270 0.497675
O O6 0.122996 0.244722 0.716168
O O7 0.144329 0.000000 0.663415
O O8 0.933773 0.714228 0.646417
O O9 0.036018 0.777360 0.715174
O O10 0.961810 0.000000 0.659071
O O11 0.613660 0.500000 0.804080
O O12 0.639050 0.228751 0.900477
O O13 0.181137 0.500000 0.162188
O O14 0.211881 0.264472 0.116967
O O15 0.115350 0.264616 0.097993
O O16 0.713213 0.000000 0.013534
O O17 0.750000 0.250000 0.000000
O O18 0.938157 0.500000 0.899361
O O19 0.907506 0.260631 0.770794
O O20 0.000000 0.254104 0.000000
O O21 0.128097 0.500000 0.359849
#
# Coordination Sequence:
#
# PCOD8088331 Si02
#       8
#     8   8   8   8   8   8   8   8
#     4   9  17  33  57  79 104 139 182 228 272 330
#     4   8  14  28  50  74 101 140 183 218 259 317
#     4   9  18  32  52  77 108 146 185 225 270 328
#     4  10  19  32  53  78 106 141 187 234 274 321
#     4   9  19  36  58  81 105 147 197 229 266 331
#     4  11  23  38  57  80 110 144 185 230 277 331
#     4   9  19  35  56  82 112 145 185 232 273 323
#     4  10  20  33  54  83 112 141 178 229 283 328
#
# _framework density 20.570488999999998
#
# number of rings (size 3 to 8) (size 9 to 14) (size 15 to 20)
#    0.000    2.625    0.000    2.625    1.750    4.500 
#    0.000    6.250    0.000    9.000    0.000    0.000 
#    0.000    0.000    0.000    0.000    0.000    0.000 
#
# Total GULP energy -396480.440655 kJ/mol
# GULP energy per Si atom -12390.013770 kJ/mol
# Density = 2.052367 g / cm^3
# Si number density = 20.570489 Si / 1000 Ang^3
#
#
#
# Elastic Constant Matrix: (Units=GPa)
#
#
# Indices 1 2 3 4 5 6 
#
# 1 90.1657 14.3712 54.7237 0.0000 11.2506 0.0000
# 2 14.3712 31.3131 24.1410 0.0000 -0.6552 0.0000
# 3 54.7237 24.1410 144.0695 0.0000 8.6450 0.0000
# 4 0.0000 0.0000 0.0000 29.4579 0.0000 3.1482
# 5 11.2506 -0.6552 8.6450 0.0000 39.3464 0.0000
# 6 0.0000 0.0000 0.0000 3.1482 0.0000 17.3350
#
#
#
# Elastic Compliance Matrix: (Units=1/GPa)
#
#
# Indices 1 2 3 4 5 6 
#
# 1 0.015020 -0.003116 -0.004988 0.000000 -0.003251 0.000000
# 2 -0.003116 0.037473 -0.005256 0.000000 0.002670 0.000000
# 3 -0.004988 -0.005256 0.009765 0.000000 -0.000807 0.000000
# 4 0.000000 0.000000 0.000000 0.034619 0.000000 -0.006287
# 5 -0.003251 0.002670 -0.000807 0.000000 0.026567 0.000000
# 6 0.000000 0.000000 0.000000 -0.006287 0.000000 0.058829
#
#
# Mechanical properties :
#
#
# Convention : Reuss Voigt Hill
#
# Bulk Modulus (GPa) = 28.13833 50.22445 39.18139
# Shear Modulus (GPa) = 22.64096 28.71537 25.67816
#
# Velocity S-wave (km/s) = 3.32121 3.74029 3.53696
# Velocity P-wave (km/s) = 5.33066 6.56672 5.98071
#
# Compressibility (1/GPa) = 0.03553871
#
# Stress axis : x y z
#
# Youngs Moduli (GPa) = 66.57605 26.68557 102.40733
#
# Poissons Ratio (x) = 0.08315 0.51083
# Poissons Ratio (y) = 0.20745 0.53824
# Poissons Ratio (z) = 0.33209 0.14026
#
# Static dielectric constant tensor:
#      x y z
#    x 3.861500 0.000000 0.041180 
#    y 0.000000 3.214460 0.000000 
#    z 0.041180 0.000000 4.101560 
# 
# 
# High freq. dielectric constant tensor:
#      x y z
#    x 1.808250 0.000000 0.006820 
#    y 0.000000 1.746940 0.000000 
#    z 0.006820 0.000000 1.819650 
# 
# From -- ./inp_files/250086.got.cif
#   From: 2010.06.25/outbox.cif.g09.slc.cpg/sg12_126_cif.got.tgz:250086.got - 2010.06.28 00:19:55.
