data_PCOD8088909
_publ_section_title
;
Structure prediction by ZEFSAII (Michael W. Deem and Ramdas Pophale) SiO2 
 PCOD8088909
Probable space group: C 2/M
;
_chemical_formula_sum "Si O2"
_cell_formula_units_Z 64
_cell_length_a 18.496154
_cell_length_b 13.445393
_cell_length_c 14.917548
_cell_angle_alpha 90.000000
_cell_angle_beta 118.881405
_cell_angle_gamma 90.000000
_cell_volume 3248.394067
_symmetry_space_group_name_H-M "C 2/M"
_symmetry_group_IT_number 12
_symmetry_cell_setting 'monoclinic'
loop_
_space_group_symop_operation_xyz
x,y,z
-x,y,-z
-x,-y,-z
x,-y,z
1/2+x,1/2+y,z
1/2-x,1/2+y,-z
1/2-x,1/2-y,-z
1/2+x,1/2-y,z
loop_
_atom_site_type_symbol
_atom_site_label
_atom_site_fract_x
_atom_site_fract_y
_atom_site_fract_z
Si Si1 0.952170 0.805792 0.882811
Si Si2 0.237188 0.800568 0.212694
Si Si3 0.001565 0.613503 0.828961
Si Si4 0.520311 0.612522 0.740701
Si Si5 0.122128 0.382555 0.592801
Si Si6 0.524673 0.808228 0.375025
Si Si7 0.285366 0.387332 0.161366
Si Si8 0.191497 0.384519 0.925601
O O1 0.856662 0.834587 0.834101
O O2 0.991340 0.864957 0.823830
O O3 0.958283 0.686222 0.874363
O O4 0.000000 0.840528 0.000000
O O5 0.285709 0.852855 0.323206
O O6 0.250906 0.680833 0.222313
O O7 0.272438 0.829416 0.137700
O O8 0.989301 0.500000 0.853111
O O9 0.960966 0.630197 0.707282
O O10 0.096792 0.646432 0.882484
O O11 0.494564 0.500000 0.698814
O O12 0.478538 0.689830 0.646432
O O13 0.617822 0.626368 0.794360
O O14 0.113434 0.500000 0.575589
O O15 0.060116 0.345711 0.632196
O O16 0.101449 0.329102 0.486512
O O17 0.261857 0.500000 0.172413
O O18 0.242145 0.353672 0.043409
O O19 0.198701 0.500000 0.908780
#
# Coordination Sequence:
#
# PCOD8088909 Si02
#       8
#     8   8   8   8   8   8   8   8
#     4  11  24  37  55  84 120 160 192 231 281 338
#     4  12  21  35  55  84 120 143 188 245 284 334
#     4  10  19  36  58  82 115 153 194 237 289 345
#     4  10  21  40  59  80 116 160 196 224 273 345
#     4  11  21  35  61  92 116 138 180 245 300 336
#     4  10  19  37  60  88 113 143 187 238 295 336
#     4  10  20  35  55  78 110 154 195 235 281 337
#     4  10  19  32  56  83 107 143 193 244 290 331
#
# _framework density 19.702043
#
# number of rings (size 3 to 8) (size 9 to 14) (size 15 to 20)
#    0.000    1.500    2.500    4.500    0.000    2.000 
#    0.000    4.375    0.000    1.500    0.000    0.000 
#    0.000    0.000    0.000    0.000    0.000    0.000 
#
# Total GULP energy -396877.307017 kJ/mol
# GULP energy per Si atom -12402.415844 kJ/mol
# Density = 1.965720 g / cm^3
# Si number density = 19.702043 Si / 1000 Ang^3
#
#
#
# Elastic Constant Matrix: (Units=GPa)
#
#
# Indices 1 2 3 4 5 6 
#
# 1 51.4713 14.3248 36.6503 0.0000 18.2588 0.0000
# 2 14.3248 110.8208 51.9521 0.0000 4.2013 0.0000
# 3 36.6503 51.9521 116.5710 0.0000 12.8961 0.0000
# 4 0.0000 0.0000 0.0000 27.0652 0.0000 3.4804
# 5 18.2588 4.2013 12.8961 0.0000 21.9705 0.0000
# 6 0.0000 0.0000 0.0000 3.4804 0.0000 14.7217
#
#
#
# Elastic Compliance Matrix: (Units=1/GPa)
#
#
# Indices 1 2 3 4 5 6 
#
# 1 0.033204 0.000357 -0.008061 0.000000 -0.022931 0.000000
# 2 0.000357 0.011426 -0.005272 0.000000 0.000613 0.000000
# 3 -0.008061 -0.005272 0.013486 0.000000 -0.000208 0.000000
# 4 0.000000 0.000000 0.000000 0.038106 0.000000 -0.009009
# 5 -0.022931 0.000613 -0.000208 0.000000 0.064577 0.000000
# 6 0.000000 0.000000 0.000000 -0.009009 0.000000 0.070057
#
#
# Mechanical properties :
#
#
# Convention : Reuss Voigt Hill
#
# Bulk Modulus (GPa) = 31.09354 53.85752 42.47553
# Shear Modulus (GPa) = 18.68956 24.48054 21.58505
#
# Velocity S-wave (km/s) = 3.08329 3.52879 3.31354
# Velocity P-wave (km/s) = 5.33777 6.63314 6.02039
#
# Compressibility (1/GPa) = 0.03216102
#
# Stress axis : x y z
#
# Youngs Moduli (GPa) = 30.11722 87.52168 74.15307
#
# Poissons Ratio (x) = -0.03120 0.59778
# Poissons Ratio (y) = -0.01074 0.39094
# Poissons Ratio (z) = 0.24279 0.46142
#
# Static dielectric constant tensor:
#      x y z
#    x 3.392550 0.000000 0.102150 
#    y 0.000000 3.884580 0.000000 
#    z 0.102150 0.000000 3.639290 
# 
# 
# High freq. dielectric constant tensor:
#      x y z
#    x 1.745960 0.000000 0.007210 
#    y 0.000000 1.783880 0.000000 
#    z 0.007210 0.000000 1.762440 
# 
# From -- ./inp_files/225301.got.cif
#   From: 2010.06.25/outbox.cif.g09.slc.cpg/sg12_113_cif.got.tgz:225301.got - 2010.06.28 00:19:55.
