data_PCOD8088808
_publ_section_title
;
Structure prediction by ZEFSAII (Michael W. Deem and Ramdas Pophale) SiO2 
 PCOD8088808
Probable space group: C 2/M
;
_chemical_formula_sum "Si O2"
_cell_formula_units_Z 56
_cell_length_a 19.501466
_cell_length_b 9.102067
_cell_length_c 21.009514
_cell_angle_alpha 90.000000
_cell_angle_beta 125.599822
_cell_angle_gamma 90.000000
_cell_volume 3032.275297
_symmetry_space_group_name_H-M "C 2/M"
_symmetry_group_IT_number 12
_symmetry_cell_setting 'monoclinic'
loop_
_space_group_symop_operation_xyz
x,y,z
-x,y,-z
-x,-y,-z
x,-y,z
1/2+x,1/2+y,z
1/2-x,1/2+y,-z
1/2-x,1/2-y,-z
1/2+x,1/2-y,z
loop_
_atom_site_type_symbol
_atom_site_label
_atom_site_fract_x
_atom_site_fract_y
_atom_site_fract_z
Si Si1 0.019196 0.832907 0.809835
Si Si2 0.146294 0.170130 0.201077
Si Si3 0.736474 0.174350 0.361249
Si Si4 0.923347 0.173388 0.500824
Si Si5 0.598003 0.326728 0.367708
Si Si6 0.335961 0.834533 0.047377
Si Si7 0.093818 0.333115 0.054770
O O1 0.099021 0.731949 0.866766
O O2 0.948226 0.806970 0.824634
O O3 0.981178 0.791196 0.720528
O O4 0.050871 0.000000 0.827737
O O5 0.211073 0.259373 0.279649
O O6 0.150503 0.234170 0.132194
O O7 0.172633 0.000000 0.215600
O O8 0.833702 0.219137 0.423172
O O9 0.681090 0.242281 0.388388
O O10 0.723368 0.000000 0.354096
O O11 0.927198 0.229976 0.575816
O O12 0.000000 0.241859 0.500000
O O13 0.933561 0.000000 0.507121
O O14 0.619470 0.500000 0.377615
O O15 0.319616 0.000000 0.060357
O O16 0.250000 0.750000 0.000000
O O17 0.369645 0.824415 0.994982
O O18 0.092368 0.500000 0.080302
O O19 0.000000 0.267879 0.000000
#
# Coordination Sequence:
#
# PCOD8088808 Si02
#       7
#     8   8   8   8   8   8   8
#     4   9  18  33  53  79 108 141 181 223 270 320
#     4  10  20  34  56  84 113 143 178 227 274 322
#     4  10  19  32  55  83 110 141 181 226 268 319
#     4   9  18  34  55  80 110 143 180 221 268 323
#     4   9  18  34  57  82 107 140 182 225 269 321
#     4  11  23  38  56  78 110 147 182 226 270 322
#     4  10  20  36  58  83 109 140 182 229 273 316
#
# _framework density 18.467981999999999
#
# number of rings (size 3 to 8) (size 9 to 14) (size 15 to 20)
#    0.000    2.286    1.429    2.571    0.000    3.714 
#    2.571    0.714    0.000    3.857    0.000    0.000 
#    0.000    0.000    0.000    0.000    0.000    0.000 
#
# Total GULP energy -347210.180464 kJ/mol
# GULP energy per Si atom -12400.363588 kJ/mol
# Density = 1.842595 g / cm^3
# Si number density = 18.467982 Si / 1000 Ang^3
#
#
#
# Elastic Constant Matrix: (Units=GPa)
#
#
# Indices 1 2 3 4 5 6 
#
# 1 94.0900 48.2931 62.4574 0.0000 14.8705 0.0000
# 2 48.2931 92.9662 61.3604 0.0000 13.5711 0.0000
# 3 62.4574 61.3604 136.5006 0.0000 8.8019 0.0000
# 4 0.0000 0.0000 0.0000 27.4893 0.0000 1.8541
# 5 14.8705 13.5711 8.8019 0.0000 27.5739 0.0000
# 6 0.0000 0.0000 0.0000 1.8541 0.0000 26.4575
#
#
#
# Elastic Compliance Matrix: (Units=1/GPa)
#
#
# Indices 1 2 3 4 5 6 
#
# 1 0.017593 -0.004644 -0.005613 0.000000 -0.005410 0.000000
# 2 -0.004644 0.017365 -0.005403 0.000000 -0.004318 0.000000
# 3 -0.005613 -0.005403 0.012208 0.000000 0.001790 0.000000
# 4 0.000000 0.000000 0.000000 0.036551 0.000000 -0.002561
# 5 -0.005410 -0.004318 0.001790 0.000000 0.040738 0.000000
# 6 0.000000 0.000000 0.000000 -0.002561 0.000000 0.037976
#
#
# Mechanical properties :
#
#
# Convention : Reuss Voigt Hill
#
# Bulk Modulus (GPa) = 63.10954 74.19760 68.65357
# Shear Modulus (GPa) = 25.12145 26.40051 25.76098
#
# Velocity S-wave (km/s) = 3.69219 3.78501 3.73889
# Velocity P-wave (km/s) = 7.24037 7.70489 7.47624
#
# Compressibility (1/GPa) = 0.01584547
#
# Stress axis : x y z
#
# Youngs Moduli (GPa) = 56.84043 57.58572 81.91572
#
# Poissons Ratio (x) = 0.26745 0.45982
# Poissons Ratio (y) = 0.26399 0.44257
# Poissons Ratio (z) = 0.31906 0.31112
#
# Static dielectric constant tensor:
#      x y z
#    x 3.455090 0.000000 -0.012800 
#    y 0.000000 3.389730 0.000000 
#    z -0.012800 0.000000 3.500480 
# 
# 
# High freq. dielectric constant tensor:
#      x y z
#    x 1.699450 0.000000 -0.001580 
#    y 0.000000 1.707150 0.000000 
#    z -0.001580 0.000000 1.729660 
# 
# From -- ./inp_files/314427.got.cif
#   From: 2010.06.25/outbox.cif.g09.slc.cpg/sg12_158_cif.got.tgz:314427.got - 2010.06.28 00:19:55.
