data_PCOD8088676
_publ_section_title
;
Structure prediction by ZEFSAII (Michael W. Deem and Ramdas Pophale) SiO2 
 PCOD8088676
Probable space group: C 2/M
;
_chemical_formula_sum "Si O2"
_cell_formula_units_Z 64
_cell_length_a 12.560234
_cell_length_b 22.494793
_cell_length_c 26.762518
_cell_angle_alpha 90.000000
_cell_angle_beta 152.612422
_cell_angle_gamma 90.000000
_cell_volume 3478.335102
_symmetry_space_group_name_H-M "C 2/M"
_symmetry_group_IT_number 12
_symmetry_cell_setting 'monoclinic'
loop_
_space_group_symop_operation_xyz
x,y,z
-x,y,-z
-x,-y,-z
x,-y,z
1/2+x,1/2+y,z
1/2-x,1/2+y,-z
1/2-x,1/2-y,-z
1/2+x,1/2-y,z
loop_
_atom_site_type_symbol
_atom_site_label
_atom_site_fract_x
_atom_site_fract_y
_atom_site_fract_z
Si Si1 0.438268 0.932812 0.292816
Si Si2 0.442296 0.762245 0.233446
Si Si3 0.284933 0.138801 0.873500
Si Si4 0.526155 0.568022 0.843241
Si Si5 0.551635 0.765268 0.576198
Si Si6 0.349111 0.820541 0.585261
Si Si7 0.938789 0.569848 0.089018
Si Si8 0.731301 0.882367 0.879720
O O1 0.647808 0.889344 0.396340
O O2 0.358418 0.922411 0.203090
O O3 0.228528 0.918730 0.242914
O O4 0.526861 0.000000 0.335359
O O5 0.280922 0.704887 0.170239
O O6 0.679192 0.747946 0.302809
O O7 0.494914 0.782369 0.311650
O O8 0.305108 0.812677 0.146020
O O9 0.070558 0.108170 0.812964
O O10 0.346780 0.100681 0.850171
O O11 0.500000 0.140724 0.000000
O O12 0.558360 0.500000 0.840114
O O13 0.702773 0.583406 0.961222
O O14 0.500000 0.792397 0.500000
O O15 0.461012 0.813704 0.577434
O O16 0.414201 0.702584 0.524691
O O17 0.988920 0.500000 0.114249
O O18 0.917734 0.598782 0.134569
O O19 0.000000 0.896260 0.000000
#
# Coordination Sequence:
#
# PCOD8088676 Si02
#       8
#     8   8   8   8   8   8   8   8
#     4  10  19  32  54  82 109 141 181 224 265 311
#     4  10  21  33  52  78 108 140 177 219 274 316
#     4  10  20  34  48  77 111 148 181 221 270 313
#     4   9  17  31  50  72 102 144 191 223 254 311
#     4   9  18  36  58  78  98 132 172 220 268 335
#     4   9  19  34  55  81 102 132 175 216 271 327
#     4  10  20  33  51  72 104 150 190 226 259 305
#     4  11  21  34  50  79 113 150 187 222 258 314
#
# _framework density 18.399608000000001
#
# number of rings (size 3 to 8) (size 9 to 14) (size 15 to 20)
#    0.000    2.250    1.250    1.875    1.750    2.000 
#    0.000    1.875    0.000   10.500    0.000    0.000 
#    0.000    0.000    0.000    0.000    0.000    0.000 
#
# Total GULP energy -396851.812617 kJ/mol
# GULP energy per Si atom -12401.619144 kJ/mol
# Density = 1.835773 g / cm^3
# Si number density = 18.399608 Si / 1000 Ang^3
#
#
#
# Elastic Constant Matrix: (Units=GPa)
#
#
# Indices 1 2 3 4 5 6 
#
# 1 111.0970 39.2355 22.5103 0.0048 -14.9461 0.0016
# 2 39.2355 112.4430 23.4252 0.0044 -10.8668 0.0001
# 3 22.5103 23.4252 36.6511 -0.0125 -2.2964 0.0009
# 4 0.0048 0.0044 -0.0125 20.4896 0.0007 2.7484
# 5 -14.9461 -10.8668 -2.2964 0.0007 17.1320 0.0003
# 6 0.0016 0.0001 0.0009 2.7484 0.0003 22.8769
#
#
#
# Elastic Compliance Matrix: (Units=1/GPa)
#
#
# Indices 1 2 3 4 5 6 
#
# 1 0.012016 -0.002261 -0.005414 -0.000006 0.008323 0.000000
# 2 -0.002261 0.011263 -0.005533 -0.000006 0.004430 0.000001
# 3 -0.005414 -0.005533 0.033914 0.000024 -0.003686 -0.000004
# 4 -0.000006 -0.000006 0.000024 0.049605 -0.000007 -0.005959
# 5 0.008323 0.004430 -0.003686 -0.000007 0.067948 0.000000
# 6 0.000000 0.000001 -0.000004 -0.005959 0.000000 0.044428
#
#
# Mechanical properties :
#
#
# Convention : Reuss Voigt Hill
#
# Bulk Modulus (GPa) = 32.48895 47.83702 40.16298
# Shear Modulus (GPa) = 19.54284 23.76771 21.65528
#
# Velocity S-wave (km/s) = 3.26257 3.59799 3.43438
# Velocity P-wave (km/s) = 5.64697 6.58150 6.13206
#
# Compressibility (1/GPa) = 0.03077969
#
# Stress axis : x y z
#
# Youngs Moduli (GPa) = 83.22078 88.78642 29.48593
#
# Poissons Ratio (x) = 0.20072 0.15963
# Poissons Ratio (y) = 0.18813 0.16313
# Poissons Ratio (z) = 0.45053 0.49122
#
# Static dielectric constant tensor:
#      x y z
#    x 3.536200 0.000000 -0.016760 
#    y 0.000000 3.346220 -0.000010 
#    z -0.016760 -0.000010 3.178480 
# 
# 
# High freq. dielectric constant tensor:
#      x y z
#    x 1.727030 0.000000 -0.002450 
#    y 0.000000 1.710630 0.000000 
#    z -0.002450 0.000000 1.687070 
# 
# From -- ./inp_files/135390.got.cif
#   From: 2010.06.25/outbox.cif.g09.slc.cpg/sg12_68_cif.got.tgz:135390.got - 2010.06.28 00:19:55.
