data_PCOD8088865
_publ_section_title
;
Structure prediction by ZEFSAII (Michael W. Deem and Ramdas Pophale) SiO2 
 PCOD8088865
Probable space group: C 2/M
;
_chemical_formula_sum "Si O2"
_cell_formula_units_Z 64
_cell_length_a 26.751556
_cell_length_b 13.682998
_cell_length_c 9.894896
_cell_angle_alpha 90.000000
_cell_angle_beta 114.466380
_cell_angle_gamma 90.000000
_cell_volume 3296.708126
_symmetry_space_group_name_H-M "C 2/M"
_symmetry_group_IT_number 12
_symmetry_cell_setting 'monoclinic'
loop_
_space_group_symop_operation_xyz
x,y,z
-x,y,-z
-x,-y,-z
x,-y,z
1/2+x,1/2+y,z
1/2-x,1/2+y,-z
1/2-x,1/2-y,-z
1/2+x,1/2-y,z
loop_
_atom_site_type_symbol
_atom_site_label
_atom_site_fract_x
_atom_site_fract_y
_atom_site_fract_z
Si Si1 0.698729 0.692153 0.881410
Si Si2 0.762361 0.392713 0.474001
Si Si3 0.870657 0.239192 0.955733
Si Si4 0.220963 0.604416 0.205709
Si Si5 0.458879 0.112039 0.565393
Si Si6 0.533317 0.889198 0.903388
Si Si7 0.640179 0.387630 0.304713
Si Si8 0.147596 0.742275 0.547478
O O1 0.729968 0.599682 0.850843
O O2 0.666658 0.743236 0.722272
O O3 0.750000 0.750000 0.000000
O O4 0.653230 0.672615 0.947066
O O5 0.788351 0.500000 0.473399
O O6 0.748859 0.380943 0.617520
O O7 0.704190 0.384233 0.333794
O O8 0.802884 0.308280 0.476341
O O9 0.822795 0.311063 0.856388
O O10 0.889773 0.170547 0.852111
O O11 0.920122 0.307154 0.062856
O O12 0.190111 0.500000 0.164742
O O13 0.500000 0.155570 0.500000
O O14 0.487744 0.124152 0.739874
O O15 0.403185 0.170653 0.502402
O O16 0.444355 0.000000 0.515210
O O17 0.558204 0.000000 0.927725
O O18 0.500000 0.868883 0.000000
O O19 0.618938 0.500000 0.288592
O O20 0.629659 0.337363 0.439353
#
# Coordination Sequence:
#
# PCOD8088865 Si02
#       8
#     8   8   8   8   8   8   8   8
#     4  10  22  34  52  81 117 157 191 224 277 340
#     4  10  19  32  55  86 115 147 190 235 279 333
#     4  11  21  38  56  83 117 156 191 233 296 350
#     4  10  19  33  55  84 116 150 189 233 283 345
#     4  10  22  39  60  89 120 149 186 235 289 346
#     4  10  21  37  59  88 117 147 189 239 290 346
#     4  11  23  37  57  85 116 151 197 244 281 333
#     4  12  20  37  61  83 116 157 197 233 285 348
#
# _framework density 19.413305999999999
#
# number of rings (size 3 to 8) (size 9 to 14) (size 15 to 20)
#    0.000    1.500    2.500    4.125    0.000    0.500 
#    0.000    6.875    0.000    3.750    0.000    0.000 
#    0.000    0.000    0.000    0.000    0.000    0.000 
#
# Total GULP energy -396523.987889 kJ/mol
# GULP energy per Si atom -12391.374622 kJ/mol
# Density = 1.936912 g / cm^3
# Si number density = 19.413306 Si / 1000 Ang^3
#
#
#
# Elastic Constant Matrix: (Units=GPa)
#
#
# Indices 1 2 3 4 5 6 
#
# 1 51.2391 11.6524 25.3543 0.0000 2.2306 0.0000
# 2 11.6524 84.7370 26.2453 0.0000 3.9130 0.0000
# 3 25.3543 26.2453 94.9684 0.0000 -16.8474 0.0000
# 4 0.0000 0.0000 0.0000 22.4641 0.0000 4.9770
# 5 2.2306 3.9130 -16.8474 0.0000 25.9791 0.0000
# 6 0.0000 0.0000 0.0000 4.9770 0.0000 29.4148
#
#
#
# Elastic Compliance Matrix: (Units=1/GPa)
#
#
# Indices 1 2 3 4 5 6 
#
# 1 0.023563 -0.000678 -0.007282 0.000000 -0.006643 0.000000
# 2 -0.000678 0.013480 -0.004400 0.000000 -0.004826 0.000000
# 3 -0.007282 -0.004400 0.015728 0.000000 0.011488 0.000000
# 4 0.000000 0.000000 0.000000 0.046249 0.000000 -0.007825
# 5 -0.006643 -0.004826 0.011488 0.000000 0.047240 0.000000
# 6 0.000000 0.000000 0.000000 -0.007825 0.000000 0.035320
#
#
# Mechanical properties :
#
#
# Convention : Reuss Voigt Hill
#
# Bulk Modulus (GPa) = 35.65020 39.71651 37.68335
# Shear Modulus (GPa) = 23.18556 26.75109 24.96832
#
# Velocity S-wave (km/s) = 3.45963 3.71614 3.59018
# Velocity P-wave (km/s) = 5.86194 6.23825 6.05302
#
# Compressibility (1/GPa) = 0.02805034
#
# Stress axis : x y z
#
# Youngs Moduli (GPa) = 42.43940 74.18261 63.58106
#
# Poissons Ratio (x) = 0.05030 0.46299
# Poissons Ratio (y) = 0.02877 0.27979
# Poissons Ratio (z) = 0.30904 0.32644
#
# Static dielectric constant tensor:
#      x y z
#    x 3.429250 0.000000 -0.197310 
#    y 0.000000 3.642720 0.000000 
#    z -0.197310 0.000000 3.814630 
# 
# 
# High freq. dielectric constant tensor:
#      x y z
#    x 1.734110 0.000000 -0.007910 
#    y 0.000000 1.747310 0.000000 
#    z -0.007910 0.000000 1.768460 
# 
# From -- ./inp_files/104658.got.cif
#   From: 2010.06.25/outbox.cif.g09.slc.cpg/sg12_53_cif.got.tgz:104658.got - 2010.06.28 00:19:55.
