data_PCOD8088752
_publ_section_title
;
Structure prediction by ZEFSAII (Michael W. Deem and Ramdas Pophale) SiO2 
 PCOD8088752
Probable space group: C 2/M
;
_chemical_formula_sum "Si O2"
_cell_formula_units_Z 52
_cell_length_a 18.017119
_cell_length_b 19.487704
_cell_length_c 11.341865
_cell_angle_alpha 90.000000
_cell_angle_beta 140.258464
_cell_angle_gamma 90.000000
_cell_volume 2545.965220
_symmetry_space_group_name_H-M "C 2/M"
_symmetry_group_IT_number 12
_symmetry_cell_setting 'monoclinic'
loop_
_space_group_symop_operation_xyz
x,y,z
-x,y,-z
-x,-y,-z
x,-y,z
1/2+x,1/2+y,z
1/2-x,1/2+y,-z
1/2-x,1/2-y,-z
1/2+x,1/2-y,z
loop_
_atom_site_type_symbol
_atom_site_label
_atom_site_fract_x
_atom_site_fract_y
_atom_site_fract_z
Si Si1 0.500000 0.736308 0.500000
Si Si2 0.039300 0.422714 0.420642
Si Si3 0.153891 0.777609 0.296749
Si Si4 0.733691 0.424048 0.418147
Si Si5 0.131549 0.577750 0.175238
Si Si6 0.257365 0.800984 0.813427
Si Si7 0.466382 0.798205 0.210997
O O1 0.380658 0.694601 0.335749
O O2 0.516254 0.776806 0.398899
O O3 0.992307 0.500000 0.346830
O O4 0.180098 0.420785 0.588878
O O5 0.000000 0.393120 0.500000
O O6 0.987831 0.380064 0.246324
O O7 0.250000 0.750000 0.500000
O O8 0.141920 0.861040 0.295517
O O9 0.196639 0.757693 0.219224
O O10 0.034096 0.740501 0.187302
O O11 0.671921 0.500000 0.347686
O O12 0.819140 0.414335 0.633244
O O13 0.138977 0.500000 0.139607
O O14 0.212143 0.623209 0.191285
O O15 0.000000 0.605621 0.000000
O O16 0.328989 0.785931 0.022074
#
# Coordination Sequence:
#
# PCOD8088752 Si02
#       7
#     4   8   8   8   8   8   8
#     4  12  24  42  56  82 124 160 202 252 310 370
#     4  10  19  32  54  86 125 164 195 239 304 365
#     4  12  20  38  62  88 119 158 201 257 302 357
#     4  10  19  33  54  84 119 159 197 243 307 358
#     4  10  19  33  57  90 120 148 196 254 304 358
#     4  12  24  38  62  90 118 159 204 255 310 365
#     4  12  23  39  62  88 121 160 206 254 305 365
#
# _framework density 20.424474
#
# number of rings (size 3 to 8) (size 9 to 14) (size 15 to 20)
#    0.000    0.923    5.385    2.769    0.000    1.846 
#    0.000    0.385    0.000    2.769    0.000    0.000 
#    0.000    0.000    0.000    0.000    0.000    0.000 
#
# Total GULP energy -322111.852513 kJ/mol
# GULP energy per Si atom -12388.917404 kJ/mol
# Density = 2.037799 g / cm^3
# Si number density = 20.424474 Si / 1000 Ang^3
#
#
#
# Elastic Constant Matrix: (Units=GPa)
#
#
# Indices 1 2 3 4 5 6 
#
# 1 68.7055 29.1929 21.3126 0.0000 15.4700 0.0000
# 2 29.1929 134.1175 36.3274 0.0000 8.8762 0.0000
# 3 21.3126 36.3274 91.3517 0.0000 19.6784 0.0000
# 4 0.0000 0.0000 0.0000 18.3844 0.0000 5.8971
# 5 15.4700 8.8762 19.6784 0.0000 30.6835 0.0000
# 6 0.0000 0.0000 0.0000 5.8971 0.0000 20.4268
#
#
#
# Elastic Compliance Matrix: (Units=1/GPa)
#
#
# Indices 1 2 3 4 5 6 
#
# 1 0.017915 -0.003038 -0.001410 0.000000 -0.007249 0.000000
# 2 -0.003038 0.008874 -0.003013 0.000000 0.000897 0.000000
# 3 -0.001410 -0.003013 0.014078 0.000000 -0.007446 0.000000
# 4 0.000000 0.000000 0.000000 0.059945 0.000000 -0.017306
# 5 -0.007249 0.000897 -0.007446 0.000000 0.040762 0.000000
# 6 0.000000 0.000000 0.000000 -0.017306 0.000000 0.053951
#
#
# Mechanical properties :
#
#
# Convention : Reuss Voigt Hill
#
# Bulk Modulus (GPa) = 38.54327 51.98227 45.26277
# Shear Modulus (GPa) = 22.82097 27.72175 25.27136
#
# Velocity S-wave (km/s) = 3.34628 3.68813 3.52135
# Velocity P-wave (km/s) = 5.81741 6.60625 6.22434
#
# Compressibility (1/GPa) = 0.02594487
#
# Stress axis : x y z
#
# Youngs Moduli (GPa) = 55.81807 112.68551 71.03280
#
# Poissons Ratio (x) = 0.34232 0.10016
# Poissons Ratio (y) = 0.16957 0.21406
# Poissons Ratio (z) = 0.07870 0.33958
#
# Static dielectric constant tensor:
#      x y z
#    x 3.711430 0.000000 -0.088230 
#    y 0.000000 4.135200 0.000000 
#    z -0.088230 0.000000 3.985630 
# 
# 
# High freq. dielectric constant tensor:
#      x y z
#    x 1.785340 0.000000 -0.016770 
#    y 0.000000 1.803870 0.000000 
#    z -0.016770 0.000000 1.782020 
# 
# From -- ./inp_files/159618.got.cif
#   From: 2010.06.25/outbox.cif.g09.slc.cpg/sg12_80_cif.got.tgz:159618.got - 2010.06.28 00:19:55.
