data_PCOD8088761
_publ_section_title
;
Structure prediction by ZEFSAII (Michael W. Deem and Ramdas Pophale) SiO2 
 PCOD8088761
Probable space group: C 2/M
;
_chemical_formula_sum "Si O2"
_cell_formula_units_Z 48
_cell_length_a 15.947519
_cell_length_b 17.008089
_cell_length_c 15.213786
_cell_angle_alpha 90.000000
_cell_angle_beta 141.256914
_cell_angle_gamma 90.000000
_cell_volume 2582.509233
_symmetry_space_group_name_H-M "C 2/M"
_symmetry_group_IT_number 12
_symmetry_cell_setting 'monoclinic'
loop_
_space_group_symop_operation_xyz
x,y,z
-x,y,-z
-x,-y,-z
x,-y,z
1/2+x,1/2+y,z
1/2-x,1/2+y,-z
1/2-x,1/2-y,-z
1/2+x,1/2-y,z
loop_
_atom_site_type_symbol
_atom_site_label
_atom_site_fract_x
_atom_site_fract_y
_atom_site_fract_z
Si Si1 0.711773 0.713067 0.831223
Si Si2 0.777960 0.284920 0.617922
Si Si3 0.549951 0.274479 0.871202
Si Si4 0.158421 0.908145 0.635974
Si Si5 0.354208 0.165930 0.355476
Si Si6 0.591142 0.414755 0.158948
O O1 0.641522 0.696004 0.866143
O O2 0.713126 0.637182 0.768112
O O3 0.632635 0.786727 0.724984
O O4 0.863962 0.741586 0.976362
O O5 0.750000 0.250000 0.500000
O O6 0.721557 0.371743 0.597289
O O7 0.701694 0.228184 0.621656
O O8 0.939110 0.291654 0.759497
O O9 0.459979 0.350578 0.815680
O O10 0.000000 0.897291 0.500000
O O11 0.198569 0.000000 0.675724
O O12 0.500000 0.131970 0.500000
O O13 0.247265 0.095895 0.259845
O O14 0.577998 0.500000 0.193141
O O15 0.500000 0.409371 0.000000
#
# Coordination Sequence:
#
# PCOD8088761 Si02
#       6
#     8   8   8   8   8   8
#     4  10  19  35  55  81 107 140 184 229 270 320
#     4  10  19  34  55  80 109 142 184 225 270 325
#     4  10  20  33  57  81 105 144 190 226 264 331
#     4  10  21  36  56  81 112 145 179 227 283 332
#     4  10  19  32  55  79 107 139 182 224 266 321
#     4  10  20  35  52  75 108 141 175 222 272 317
#
# _framework density 18.586573999999999
#
# number of rings (size 3 to 8) (size 9 to 14) (size 15 to 20)
#    0.000    2.000    1.667    4.000    0.000    1.000 
#    0.000    6.667    0.000    4.000    0.000    0.000 
#    0.000    0.000    0.000    0.000    0.000    0.000 
#
# Total GULP energy -297396.316406 kJ/mol
# GULP energy per Si atom -12391.513184 kJ/mol
# Density = 1.854427 g / cm^3
# Si number density = 18.586574 Si / 1000 Ang^3
#
#
#
# Elastic Constant Matrix: (Units=GPa)
#
#
# Indices 1 2 3 4 5 6 
#
# 1 62.2446 41.2108 34.1627 0.0001 2.3007 0.0000
# 2 41.2108 110.0171 47.9297 0.0001 4.0718 0.0000
# 3 34.1627 47.9297 140.1710 0.0003 16.3355 0.0001
# 4 0.0001 0.0001 0.0003 3.6670 0.0001 -4.9097
# 5 2.3007 4.0718 16.3355 0.0001 37.4682 0.0001
# 6 0.0000 0.0000 0.0001 -4.9097 0.0001 16.9325
#
#
#
# Elastic Compliance Matrix: (Units=1/GPa)
#
#
# Indices 1 2 3 4 5 6 
#
# 1 0.022439 -0.007065 -0.003142 -0.000001 0.000760 0.000000
# 2 -0.007065 0.012912 -0.002718 0.000000 0.000216 0.000000
# 3 -0.003142 -0.002718 0.009242 -0.000001 -0.003541 0.000000
# 4 -0.000001 0.000000 -0.000001 0.445745 -0.000001 0.129246
# 5 0.000760 0.000216 -0.003541 -0.000001 0.028163 0.000000
# 6 0.000000 0.000000 0.000000 0.129246 0.000000 0.096534
#
#
# Mechanical properties :
#
#
# Convention : Reuss Voigt Hill
#
# Bulk Modulus (GPa) = 53.35172 62.11547 57.73359
# Shear Modulus (GPa) = 7.72638 24.22217 15.97428
#
# Velocity S-wave (km/s) = 2.04108 3.61391 2.93482
# Velocity P-wave (km/s) = 5.85845 7.13484 6.52791
#
# Compressibility (1/GPa) = 0.01874354
#
# Stress axis : x y z
#
# Youngs Moduli (GPa) = 44.56444 77.44599 108.20083
#
# Poissons Ratio (x) = 0.54715 0.33994
# Poissons Ratio (y) = 0.31484 0.29414
# Poissons Ratio (z) = 0.14001 0.21053
#
# Static dielectric constant tensor:
#      x y z
#    x 4.927590 0.000020 -0.556220 
#    y 0.000020 3.735720 -0.000010 
#    z -0.556220 -0.000010 4.034480 
# 
# 
# High freq. dielectric constant tensor:
#      x y z
#    x 1.720040 0.000000 0.007090 
#    y 0.000000 1.698260 0.000000 
#    z 0.007090 0.000000 1.735200 
# 
# From -- ./inp_files/87737.got.cif
#   From: 2010.06.25/outbox.cif.g09.slc.cpg/sg12_44_cif.got.tgz:87737.got - 2010.06.28 00:19:55.
