data_PCOD8088948
_publ_section_title
;
Structure prediction by ZEFSAII (Michael W. Deem and Ramdas Pophale) SiO2 
 PCOD8088948
Probable space group: C 2/M
;
_chemical_formula_sum "Si O2"
_cell_formula_units_Z 64
_cell_length_a 19.965824
_cell_length_b 8.767244
_cell_length_c 36.048075
_cell_angle_alpha 90.000000
_cell_angle_beta 148.870118
_cell_angle_gamma 90.000000
_cell_volume 3262.165677
_symmetry_space_group_name_H-M "C 2/M"
_symmetry_group_IT_number 12
_symmetry_cell_setting 'monoclinic'
loop_
_space_group_symop_operation_xyz
x,y,z
-x,y,-z
-x,-y,-z
x,-y,z
1/2+x,1/2+y,z
1/2-x,1/2+y,-z
1/2-x,1/2-y,-z
1/2+x,1/2-y,z
loop_
_atom_site_type_symbol
_atom_site_label
_atom_site_fract_x
_atom_site_fract_y
_atom_site_fract_z
Si Si1 0.836664 0.322166 0.708285
Si Si2 0.562157 0.674554 0.911490
Si Si3 0.646483 0.174864 0.562092
Si Si4 0.097047 0.821620 0.805287
Si Si5 0.441001 0.820063 0.290735
Si Si6 0.792955 0.824916 0.558351
Si Si7 0.777038 0.176599 0.755643
Si Si8 0.265344 0.175340 0.066550
O O1 0.870351 0.500000 0.723317
O O2 0.738826 0.285336 0.628828
O O3 0.771270 0.277478 0.716057
O O4 0.967508 0.226729 0.765488
O O5 0.593200 0.500000 0.914435
O O6 0.409068 0.703760 0.841299
O O7 0.622392 0.786260 0.909684
O O8 0.625125 0.708732 0.981651
O O9 0.500000 0.226207 0.500000
O O10 0.676948 0.193670 0.532939
O O11 0.669165 0.000000 0.585551
O O12 0.111800 0.737132 0.773453
O O13 0.218918 0.776753 0.889011
O O14 0.094183 0.000000 0.796430
O O15 0.580299 0.751731 0.364968
O O16 0.340836 0.767849 0.274766
O O17 0.454021 0.000000 0.295337
O O18 0.750000 0.750000 0.500000
O O19 0.824592 0.000000 0.565569
O O20 0.761992 0.000000 0.737243
O O21 0.280534 0.000000 0.085256
#
# Coordination Sequence:
#
# PCOD8088948 Si02
#       8
#     8   8   8   8   8   8   8   8
#     4  12  24  38  62  93 122 154 200 254 300 348
#     4   9  18  34  56  85 121 158 196 244 301 359
#     4  10  23  43  65  89 120 160 200 241 295 354
#     4  12  23  39  61  86 119 162 204 247 304 359
#     4  11  24  42  64  89 120 159 204 249 297 357
#     4  11  24  42  64  89 122 162 199 244 298 357
#     4  10  22  40  62  88 122 162 199 243 301 360
#     4  10  19  32  56  89 119 153 200 250 300 354
#
# _framework density 19.618867000000002
#
# number of rings (size 3 to 8) (size 9 to 14) (size 15 to 20)
#    0.000    1.375    2.500    3.375    1.750    2.250 
#    0.000    0.625    0.000    3.750    0.000    0.000 
#    0.000    0.000    0.000    0.000    0.000    0.000 
#
# Total GULP energy -396950.304887 kJ/mol
# GULP energy per Si atom -12404.697028 kJ/mol
# Density = 1.957421 g / cm^3
# Si number density = 19.618867 Si / 1000 Ang^3
#
#
#
# Elastic Constant Matrix: (Units=GPa)
#
#
# Indices 1 2 3 4 5 6 
#
# 1 95.1639 34.3795 26.2746 0.0014 -11.3135 -0.0006
# 2 34.3795 78.1490 28.9843 0.0026 -5.7690 -0.0012
# 3 26.2746 28.9843 91.6251 0.0027 -19.1857 -0.0016
# 4 0.0014 0.0026 0.0027 34.5981 -0.0008 -6.9363
# 5 -11.3135 -5.7690 -19.1857 -0.0008 32.3498 0.0005
# 6 -0.0006 -0.0012 -0.0016 -6.9363 0.0005 26.4671
#
#
#
# Elastic Compliance Matrix: (Units=1/GPa)
#
#
# Indices 1 2 3 4 5 6 
#
# 1 0.013065 -0.004949 -0.001609 0.000000 0.002732 0.000000
# 2 -0.004949 0.016372 -0.004009 -0.000001 -0.001189 0.000000
# 3 -0.001609 -0.004009 0.014131 0.000000 0.007103 0.000000
# 4 0.000000 -0.000001 0.000000 0.030506 0.000000 0.007995
# 5 0.002732 -0.001189 0.007103 0.000000 0.035868 0.000000
# 6 0.000000 0.000000 0.000000 0.007995 0.000000 0.039878
#
#
# Mechanical properties :
#
#
# Convention : Reuss Voigt Hill
#
# Bulk Modulus (GPa) = 44.57386 49.35721 46.96554
# Shear Modulus (GPa) = 28.02171 30.36963 29.19567
#
# Velocity S-wave (km/s) = 3.78339 3.93871 3.86183
# Velocity P-wave (km/s) = 6.46951 6.77475 6.62389
#
# Compressibility (1/GPa) = 0.02243467
#
# Stress axis : x y z
#
# Youngs Moduli (GPa) = 76.53893 61.07825 70.76723
#
# Poissons Ratio (x) = 0.30229 0.11385
# Poissons Ratio (y) = 0.37881 0.28369
# Poissons Ratio (z) = 0.12314 0.24485
#
# Static dielectric constant tensor:
#      x y z
#    x 3.514110 0.000000 -0.031890 
#    y 0.000000 3.595150 0.000000 
#    z -0.031890 0.000000 3.785680 
# 
# 
# High freq. dielectric constant tensor:
#      x y z
#    x 1.750430 0.000000 -0.008570 
#    y 0.000000 1.769180 0.000000 
#    z -0.008570 0.000000 1.776830 
# 
# From -- ./inp_files/378485.got.cif
#   From: 2010.06.25/outbox.cif.g09.slc.cpg/sg12_190_cif.got.tgz:378485.got - 2010.06.28 00:19:55.
