data_PCOD8088660
_publ_section_title
;
Structure prediction by ZEFSAII (Michael W. Deem and Ramdas Pophale) SiO2 
 PCOD8088660
Probable space group: C 2/M
;
_chemical_formula_sum "Si O2"
_cell_formula_units_Z 56
_cell_length_a 19.012477
_cell_length_b 9.143968
_cell_length_c 28.061896
_cell_angle_alpha 90.000000
_cell_angle_beta 140.708505
_cell_angle_gamma 90.000000
_cell_volume 3089.417335
_symmetry_space_group_name_H-M "C 2/M"
_symmetry_group_IT_number 12
_symmetry_cell_setting 'monoclinic'
loop_
_space_group_symop_operation_xyz
x,y,z
-x,y,-z
-x,-y,-z
x,-y,z
1/2+x,1/2+y,z
1/2-x,1/2+y,-z
1/2-x,1/2-y,-z
1/2+x,1/2-y,z
loop_
_atom_site_type_symbol
_atom_site_label
_atom_site_fract_x
_atom_site_fract_y
_atom_site_fract_z
Si Si1 0.132392 0.169532 0.705517
Si Si2 0.907392 0.169673 0.059133
Si Si3 0.849987 0.833014 0.807483
Si Si4 0.183566 0.330351 0.898930
Si Si5 0.167561 0.830847 0.312797
Si Si6 0.525356 0.172579 0.732970
Si Si7 0.887351 0.169037 0.414984
O O1 0.256972 0.227719 0.780287
O O2 0.044567 0.256697 0.691522
O O3 0.097210 0.199217 0.632895
O O4 0.128925 0.000000 0.717301
O O5 0.884978 0.250867 0.096385
O O6 0.031643 0.207279 0.105853
O O7 0.901394 0.000000 0.068943
O O8 0.815009 0.211373 0.970737
O O9 0.865723 0.808693 0.759458
O O10 0.814828 0.000000 0.800087
O O11 0.165852 0.500000 0.899454
O O12 0.133740 0.287467 0.821632
O O13 0.290671 0.768659 0.386172
O O14 0.084404 0.740120 0.301889
O O15 0.164288 0.000000 0.326170
O O16 0.508370 0.000000 0.718785
O O17 0.000000 0.215114 0.500000
O O18 0.857162 0.000000 0.408397
#
# Coordination Sequence:
#
# PCOD8088660 Si02
#       7
#     8   8   8   8   8   8   8
#     4  10  21  35  54  77 103 135 170 210 257 309
#     4   9  16  29  48  72 100 132 173 219 262 301
#     4   9  17  31  51  74 101 134 172 215 259 305
#     4   9  18  29  46  72 101 135 174 216 259 301
#     4  10  19  32  54  82 107 135 173 212 252 303
#     4  11  21  34  51  75 108 142 176 213 256 305
#     4   9  19  38  61  83 106 132 165 208 257 308
#
# _framework density 18.126396
#
# number of rings (size 3 to 8) (size 9 to 14) (size 15 to 20)
#    0.000    2.429    1.429    1.286    0.000    2.571 
#    0.000    1.429    0.000    4.286    0.000    0.000 
#    0.000    0.000    0.000    0.000    0.000    0.000 
#
# Total GULP energy -347176.516786 kJ/mol
# GULP energy per Si atom -12399.161314 kJ/mol
# Density = 1.808514 g / cm^3
# Si number density = 18.126396 Si / 1000 Ang^3
#
#
#
# Elastic Constant Matrix: (Units=GPa)
#
#
# Indices 1 2 3 4 5 6 
#
# 1 96.8828 59.3350 41.5745 0.0000 12.7383 0.0000
# 2 59.3350 91.8153 49.6819 0.0000 9.9193 0.0000
# 3 41.5745 49.6819 104.9607 0.0000 17.5962 0.0000
# 4 0.0000 0.0000 0.0000 23.3505 0.0000 6.4487
# 5 12.7383 9.9193 17.5962 0.0000 18.5257 0.0000
# 6 0.0000 0.0000 0.0000 6.4487 0.0000 34.8584
#
#
#
# Elastic Compliance Matrix: (Units=1/GPa)
#
#
# Indices 1 2 3 4 5 6 
#
# 1 0.017896 -0.010261 -0.001296 0.000000 -0.005580 0.000000
# 2 -0.010261 0.020560 -0.005953 0.000000 0.001701 0.000000
# 3 -0.001296 -0.005953 0.014480 0.000000 -0.009675 0.000000
# 4 0.000000 0.000000 0.000000 0.045131 0.000000 -0.008349
# 5 -0.005580 0.001701 -0.009675 0.000000 0.066095 0.000000
# 6 0.000000 0.000000 0.000000 -0.008349 0.000000 0.030232
#
#
# Mechanical properties :
#
#
# Convention : Reuss Voigt Hill
#
# Bulk Modulus (GPa) = 55.81361 66.09351 60.95356
# Shear Modulus (GPa) = 21.24174 24.88475 23.06324
#
# Velocity S-wave (km/s) = 3.42697 3.70921 3.57088
# Velocity P-wave (km/s) = 6.82034 7.40851 7.12050
#
# Compressibility (1/GPa) = 0.01791678
#
# Stress axis : x y z
#
# Youngs Moduli (GPa) = 55.87909 48.63907 69.05914
#
# Poissons Ratio (x) = 0.49908 0.08951
# Poissons Ratio (y) = 0.57337 0.41107
# Poissons Ratio (z) = 0.07243 0.28952
#
# Static dielectric constant tensor:
#      x y z
#    x 3.134100 0.000000 0.119230 
#    y 0.000000 3.405300 0.000000 
#    z 0.119230 0.000000 3.481240 
# 
# 
# High freq. dielectric constant tensor:
#      x y z
#    x 1.682790 0.000000 0.015660 
#    y 0.000000 1.707350 0.000000 
#    z 0.015660 0.000000 1.698030 
# 
# From -- ./inp_files/313773.got.cif
#   From: 2010.06.25/outbox.cif.g09.slc.cpg/sg12_157_cif.got.tgz:313773.got - 2010.06.28 00:19:55.
