data_PCOD8088704
_publ_section_title
;
Structure prediction by ZEFSAII (Michael W. Deem and Ramdas Pophale) SiO2 
 PCOD8088704
Probable space group: C 2/M
;
_chemical_formula_sum "Si O2"
_cell_formula_units_Z 64
_cell_length_a 31.598022
_cell_length_b 8.848495
_cell_length_c 24.425368
_cell_angle_alpha 90.000000
_cell_angle_beta 28.152494
_cell_angle_gamma 90.000000
_cell_volume 3222.156723
_symmetry_space_group_name_H-M "C 2/M"
_symmetry_group_IT_number 12
_symmetry_cell_setting 'monoclinic'
loop_
_space_group_symop_operation_xyz
x,y,z
-x,y,-z
-x,-y,-z
x,-y,z
1/2+x,1/2+y,z
1/2-x,1/2+y,-z
1/2-x,1/2-y,-z
1/2+x,1/2-y,z
loop_
_atom_site_type_symbol
_atom_site_label
_atom_site_fract_x
_atom_site_fract_y
_atom_site_fract_z
Si Si1 0.754640 0.679445 0.726266
Si Si2 0.437787 0.319727 0.021902
Si Si3 0.656314 0.323653 0.088285
Si Si4 0.592037 0.821310 0.373210
Si Si5 0.643583 0.170327 0.494696
Si Si6 0.844123 0.176544 0.407646
Si Si7 0.942636 0.330548 0.706412
Si Si8 0.025067 0.819995 0.143314
O O1 0.753597 0.500000 0.732966
O O2 0.659116 0.746407 0.852012
O O3 0.825984 0.750909 0.686858
O O4 0.780036 0.723047 0.635060
O O5 0.439439 0.500000 0.018851
O O6 0.500000 0.258254 0.000000
O O7 0.465161 0.259257 0.930211
O O8 0.674367 0.500000 0.063490
O O9 0.582645 0.288662 0.218381
O O10 0.610511 0.265515 0.083301
O O11 0.750000 0.250000 0.000000
O O12 0.500000 0.747660 0.500000
O O13 0.608181 0.784059 0.291094
O O14 0.588514 0.000000 0.386688
O O15 0.638787 0.289264 0.548665
O O16 0.548331 0.172513 0.572493
O O17 0.664166 0.000000 0.492870
O O18 0.750000 0.250000 0.500000
O O19 0.929289 0.240922 0.275830
O O20 0.835712 0.000000 0.407151
O O21 0.914080 0.500000 0.757578
O O22 0.023702 0.000000 0.146551
#
# Coordination Sequence:
#
# PCOD8088704 Si02
#       8
#     8   8   8   8   8   8   8   8
#     4   9  17  28  48  79 112 144 181 229 279 327
#     4   9  18  31  49  75 107 142 179 226 281 328
#     4  11  23  39  57  81 114 153 193 233 285 343
#     4   9  15  26  45  76 112 142 178 227 275 321
#     4  10  19  33  55  86 116 143 183 232 283 339
#     4  11  23  39  59  84 113 148 186 233 290 344
#     4  10  19  32  54  82 114 148 186 232 284 337
#     4   9  20  37  55  82 117 145 181 235 288 339
#
# _framework density 19.862473999999999
#
# number of rings (size 3 to 8) (size 9 to 14) (size 15 to 20)
#    0.000    2.250    2.500    0.750    3.500    0.000 
#    0.000    0.000    0.000    1.125    0.000    0.875 
#    0.000    0.000    0.000    0.000    0.000    0.000 
#
# Total GULP energy -396606.404570 kJ/mol
# GULP energy per Si atom -12393.950143 kJ/mol
# Density = 1.981727 g / cm^3
# Si number density = 19.862474 Si / 1000 Ang^3
#
#
#
# Elastic Constant Matrix: (Units=GPa)
#
#
# Indices 1 2 3 4 5 6 
#
# 1 159.5182 20.2020 89.1039 0.0001 -2.3501 0.0004
# 2 20.2020 26.9699 18.6807 -0.0288 -1.2251 0.0035
# 3 89.1039 18.6807 158.3286 -0.0137 1.0918 0.0043
# 4 0.0001 -0.0288 -0.0137 20.8130 0.0118 1.7387
# 5 -2.3501 -1.2251 1.0918 0.0118 34.7478 -0.0046
# 6 0.0004 0.0035 0.0043 1.7387 -0.0046 22.0748
#
#
#
# Elastic Compliance Matrix: (Units=1/GPa)
#
#
# Indices 1 2 3 4 5 6 
#
# 1 0.009487 -0.003675 -0.004910 -0.000009 0.000666 0.000002
# 2 -0.003675 0.041888 -0.002883 0.000056 0.001319 -0.000010
# 3 -0.004910 -0.002883 0.009424 0.000003 -0.000730 -0.000002
# 4 -0.000009 0.000056 0.000003 0.048365 -0.000016 -0.003810
# 5 0.000666 0.001319 -0.000730 -0.000016 0.028893 0.000007
# 6 0.000002 -0.000010 -0.000002 -0.003810 0.000007 0.045601
#
#
# Mechanical properties :
#
#
# Convention : Reuss Voigt Hill
#
# Bulk Modulus (GPa) = 26.41093 66.75443 46.58268
# Shear Modulus (GPa) = 22.80863 29.98246 26.39555
#
# Velocity S-wave (km/s) = 3.39237 3.88945 3.64938
# Velocity P-wave (km/s) = 5.35444 7.33837 6.42346
#
# Compressibility (1/GPa) = 0.03786312
#
# Stress axis : x y z
#
# Youngs Moduli (GPa) = 105.41096 23.87314 106.10793
#
# Poissons Ratio (x) = 0.08773 0.52098
# Poissons Ratio (y) = 0.38738 0.30592
# Poissons Ratio (z) = 0.51756 0.06883
#
# Static dielectric constant tensor:
#      x y z
#    x 3.912830 -0.000040 -0.140640 
#    y -0.000040 3.073010 0.000060 
#    z -0.140640 0.000060 3.867640 
# 
# 
# High freq. dielectric constant tensor:
#      x y z
#    x 1.789070 0.000000 -0.002160 
#    y 0.000000 1.706920 0.000010 
#    z -0.002160 0.000010 1.784460 
# 
# From -- ./inp_files/353309.got.cif
#   From: 2010.06.25/outbox.cif.g09.slc.cpg/sg12_177_cif.got.tgz:353309.got - 2010.06.28 00:19:55.
