data_PCOD8088613
_publ_section_title
;
Structure prediction by ZEFSAII (Michael W. Deem and Ramdas Pophale) SiO2 
 PCOD8088613
Probable space group: C 2/M
;
_chemical_formula_sum "Si O2"
_cell_formula_units_Z 36
_cell_length_a 29.440330
_cell_length_b 9.816773
_cell_length_c 8.814572
_cell_angle_alpha 90.000000
_cell_angle_beta 133.310065
_cell_angle_gamma 90.000000
_cell_volume 1853.687583
_symmetry_space_group_name_H-M "C 2/M"
_symmetry_group_IT_number 12
_symmetry_cell_setting 'monoclinic'
loop_
_space_group_symop_operation_xyz
x,y,z
-x,y,-z
-x,-y,-z
x,-y,z
1/2+x,1/2+y,z
1/2-x,1/2+y,-z
1/2-x,1/2-y,-z
1/2+x,1/2-y,z
loop_
_atom_site_type_symbol
_atom_site_label
_atom_site_fract_x
_atom_site_fract_y
_atom_site_fract_z
Si Si1 0.215405 0.000000 0.088436
Si Si2 0.569340 0.769337 0.663094
Si Si3 0.146966 0.000000 0.359071
Si Si4 0.791939 0.500000 0.753785
Si Si5 0.392350 0.500000 0.391923
Si Si6 0.661746 0.000000 0.804239
Si Si7 0.351644 0.279275 0.874854
O O1 0.200231 0.864677 0.149781
O O2 0.288847 0.000000 0.219645
O O3 0.175654 0.000000 0.842228
O O4 0.500000 0.833165 0.500000
O O5 0.567824 0.629709 0.566962
O O6 0.618500 0.867710 0.692984
O O7 0.588381 0.746235 0.881698
O O8 0.112514 0.000000 0.439092
O O9 0.126226 0.135334 0.220306
O O10 0.220758 0.000000 0.545327
O O11 0.823380 0.635371 0.755515
O O12 0.799604 0.500000 0.951836
#
# Coordination Sequence:
#
# PCOD8088613 Si02
#       7
#     4   8   4   4   4   4   8
#     4   9  18  35  53  86 112 133 172 222 280 318
#     4  10  21  39  57  79 106 144 184 223 265 311
#     4  11  20  35  50  84 111 143 179 209 275 321
#     4  10  19  32  54  80 112 144 169 215 268 327
#     4  10  21  33  59  82 109 139 178 226 266 320
#     4  10  20  33  61  84 107 136 177 228 268 324
#     4   9  21  35  55  79 113 145 172 219 267 326
#
# _framework density 19.420748
#
# number of rings (size 3 to 8) (size 9 to 14) (size 15 to 20)
#    0.000    2.222    1.111    2.000    3.111    2.667 
#    0.000    2.222    0.000    0.000    0.000    6.222 
#    0.000    0.000    0.000    0.000    0.000    0.000 
#
# Total GULP energy -223241.947310 kJ/mol
# GULP energy per Si atom -12402.330406 kJ/mol
# Density = 1.937655 g / cm^3
# Si number density = 19.420748 Si / 1000 Ang^3
#
#
#
# Elastic Constant Matrix: (Units=GPa)
#
#
# Indices 1 2 3 4 5 6 
#
# 1 64.9817 13.1328 33.0399 0.0000 3.2876 0.0000
# 2 13.1328 114.4383 18.0804 0.0000 -1.4986 0.0000
# 3 33.0399 18.0804 72.5572 0.0000 8.9256 0.0000
# 4 0.0000 0.0000 0.0000 2.7330 0.0000 1.1495
# 5 3.2876 -1.4986 8.9256 0.0000 34.1473 0.0000
# 6 0.0000 0.0000 0.0000 1.1495 0.0000 9.3394
#
#
#
# Elastic Compliance Matrix: (Units=1/GPa)
#
#
# Indices 1 2 3 4 5 6 
#
# 1 0.020118 -0.000884 -0.008987 0.000000 0.000373 0.000000
# 2 -0.000884 0.009170 -0.002007 0.000000 0.001012 0.000000
# 3 -0.008987 -0.002007 0.018886 0.000000 -0.004159 0.000000
# 4 0.000000 0.000000 0.000000 0.385872 0.000000 -0.047492
# 5 0.000373 0.001012 -0.004159 0.000000 0.030381 0.000000
# 6 0.000000 0.000000 0.000000 -0.047492 0.000000 0.112919
#
#
# Mechanical properties :
#
#
# Convention : Reuss Voigt Hill
#
# Bulk Modulus (GPa) = 40.95181 42.27593 41.61387
# Shear Modulus (GPa) = 8.20694 21.75888 14.98291
#
# Velocity S-wave (km/s) = 2.05792 3.35086 2.78058
# Velocity P-wave (km/s) = 5.17485 6.06520 5.63763
#
# Compressibility (1/GPa) = 0.02441895
#
# Stress axis : x y z
#
# Youngs Moduli (GPa) = 49.70685 109.04965 52.94866
#
# Poissons Ratio (x) = 0.09640 0.47583
# Poissons Ratio (y) = 0.04394 0.10627
# Poissons Ratio (z) = 0.44670 0.21887
#
# Static dielectric constant tensor:
#      x y z
#    x 3.143440 0.000000 -0.066030 
#    y 0.000000 3.774570 0.000000 
#    z -0.066030 0.000000 3.547520 
# 
# 
# High freq. dielectric constant tensor:
#      x y z
#    x 1.722530 0.000000 -0.000330 
#    y 0.000000 1.771720 0.000000 
#    z -0.000330 0.000000 1.752400 
# 
# From -- ./inp_files/82914.got.cif
#   From: 2010.06.25/outbox.cif.g09.slc.cpg/sg12_42_cif.got.tgz:82914.got - 2010.06.28 00:19:55.
