data_PCOD8088026
_publ_section_title
;
Structure prediction by ZEFSAII (Michael W. Deem and Ramdas Pophale) SiO2 
 PCOD8088026
Probable space group: C 2/M
;
_chemical_formula_sum "Si O2"
_cell_formula_units_Z 64
_cell_length_a 31.368978
_cell_length_b 9.296884
_cell_length_c 17.676198
_cell_angle_alpha 90.000000
_cell_angle_beta 137.534514
_cell_angle_gamma 90.000000
_cell_volume 3480.361164
_symmetry_space_group_name_H-M "C 2/M"
_symmetry_group_IT_number 12
_symmetry_cell_setting 'monoclinic'
loop_
_space_group_symop_operation_xyz
x,y,z
-x,y,-z
-x,-y,-z
x,-y,z
1/2+x,1/2+y,z
1/2-x,1/2+y,-z
1/2-x,1/2-y,-z
1/2+x,1/2-y,z
loop_
_atom_site_type_symbol
_atom_site_label
_atom_site_fract_x
_atom_site_fract_y
_atom_site_fract_z
Si Si1 0.814505 0.168009 0.503045
Si Si2 0.829672 0.331603 0.673499
Si Si3 0.590540 0.329644 0.498369
Si Si4 0.873456 0.832724 0.293717
Si Si5 0.954809 0.829316 0.261602
Si Si6 0.069851 0.670844 0.072050
Si Si7 0.239443 0.334132 0.062654
Si Si8 0.394081 0.829748 0.047687
O O1 0.841641 0.250183 0.611062
O O2 0.741180 0.201344 0.390535
O O3 0.853293 0.225552 0.481857
O O4 0.825951 0.000000 0.532552
O O5 0.839608 0.500000 0.671939
O O6 0.879365 0.272172 0.800286
O O7 0.594502 0.500000 0.510442
O O8 0.599422 0.261911 0.593855
O O9 0.524091 0.281021 0.377771
O O10 0.906413 0.768651 0.261797
O O11 0.798578 0.805397 0.194952
O O12 0.890585 0.000000 0.315999
O O13 0.941729 0.750240 0.165960
O O14 0.948804 0.000000 0.241561
O O15 0.069753 0.500000 0.073353
O O16 0.090673 0.725312 0.016639
O O17 0.000000 0.730780 0.000000
O O18 0.234399 0.500000 0.033355
O O19 0.250000 0.250000 0.000000
O O20 0.177342 0.283131 0.025828
O O21 0.403997 0.000000 0.068147
#
# Coordination Sequence:
#
# PCOD8088026 Si02
#       8
#     8   8   8   8   8   8   8   8
#     4   9  18  32  51  75  99 125 159 205 254 294
#     4   9  18  33  53  72  96 128 163 202 248 299
#     4   9  18  30  50  76  99 126 166 210 244 286
#     4   9  17  30  50  74 100 129 164 204 243 287
#     4  10  19  33  52  74 101 133 167 202 248 300
#     4   9  19  34  52  75 101 132 171 211 249 295
#     4  10  19  32  52  77 103 133 168 207 250 298
#     4  10  21  34  52  77 103 133 171 210 249 298
#
# _framework density 18.388895999999999
#
# number of rings (size 3 to 8) (size 9 to 14) (size 15 to 20)
#    0.000    2.625    1.250    0.375    3.500    1.500 
#    0.000    0.625    0.000    4.500    0.000    0.000 
#    0.000    0.000    0.000    0.000    0.000    0.000 
#
# Total GULP energy -396770.457261 kJ/mol
# GULP energy per Si atom -12399.076789 kJ/mol
# Density = 1.834704 g / cm^3
# Si number density = 18.388896 Si / 1000 Ang^3
#
#
#
# Elastic Constant Matrix: (Units=GPa)
#
#
# Indices 1 2 3 4 5 6 
#
# 1 131.4146 20.7331 71.6188 0.0000 -6.8839 0.0000
# 2 20.7331 21.0402 30.5043 0.0000 -2.2443 0.0000
# 3 71.6188 30.5043 161.3618 0.0000 -9.1109 0.0000
# 4 0.0000 0.0000 0.0000 23.9401 0.0000 -4.1895
# 5 -6.8839 -2.2443 -9.1109 0.0000 30.5413 0.0000
# 6 0.0000 0.0000 0.0000 -4.1895 0.0000 18.6508
#
#
#
# Elastic Compliance Matrix: (Units=1/GPa)
#
#
# Indices 1 2 3 4 5 6 
#
# 1 0.010415 -0.004875 -0.003650 0.000000 0.000900 0.000000
# 2 -0.004875 0.067793 -0.010612 0.000000 0.000717 0.000000
# 3 -0.003650 -0.010612 0.009900 0.000000 0.001351 0.000000
# 4 0.000000 0.000000 0.000000 0.043480 0.000000 0.009767
# 5 0.000900 0.000717 0.001351 0.000000 0.033401 0.000000
# 6 0.000000 0.000000 0.000000 0.009767 0.000000 0.055811
#
#
# Mechanical properties :
#
#
# Convention : Reuss Voigt Hill
#
# Bulk Modulus (GPa) = 20.06640 62.16989 41.11815
# Shear Modulus (GPa) = 18.13660 27.35713 22.74686
#
# Velocity S-wave (km/s) = 3.14392 3.86125 3.52090
# Velocity P-wave (km/s) = 4.91069 7.33218 6.24002
#
# Compressibility (1/GPa) = 0.04983454
#
# Stress axis : x y z
#
# Youngs Moduli (GPa) = 96.01459 14.75070 101.01321
#
# Poissons Ratio (x) = 0.07191 0.36872
# Poissons Ratio (y) = 0.46806 1.07192
# Poissons Ratio (z) = 0.35047 0.15653
#
# Static dielectric constant tensor:
#      x y z
#    x 3.622690 0.000000 0.017050 
#    y 0.000000 2.948530 0.000000 
#    z 0.017050 0.000000 3.634950 
# 
# 
# High freq. dielectric constant tensor:
#      x y z
#    x 1.725590 0.000000 0.003100 
#    y 0.000000 1.661360 0.000000 
#    z 0.003100 0.000000 1.725020 
# 
# From -- ./inp_files/250047.got.cif
#   From: 2010.06.25/outbox.cif.g09.slc.cpg/sg12_126_cif.got.tgz:250047.got - 2010.06.28 00:19:55.
