data_PCOD8088437
_publ_section_title
;
Structure prediction by ZEFSAII (Michael W. Deem and Ramdas Pophale) SiO2 
 PCOD8088437
Probable space group: C 2/M
;
_chemical_formula_sum "Si O2"
_cell_formula_units_Z 56
_cell_length_a 23.859539
_cell_length_b 13.698550
_cell_length_c 24.620603
_cell_angle_alpha 90.000000
_cell_angle_beta 159.329910
_cell_angle_gamma 90.000000
_cell_volume 2840.490814
_symmetry_space_group_name_H-M "C 2/M"
_symmetry_group_IT_number 12
_symmetry_cell_setting 'monoclinic'
loop_
_space_group_symop_operation_xyz
x,y,z
-x,y,-z
-x,-y,-z
x,-y,z
1/2+x,1/2+y,z
1/2-x,1/2+y,-z
1/2-x,1/2-y,-z
1/2+x,1/2-y,z
loop_
_atom_site_type_symbol
_atom_site_label
_atom_site_fract_x
_atom_site_fract_y
_atom_site_fract_z
Si Si1 0.707819 0.611860 0.125591
Si Si2 0.825977 0.709025 0.840809
Si Si3 0.421137 0.730571 0.094234
Si Si4 0.443570 0.389917 0.332797
Si Si5 0.661489 0.387713 0.881752
Si Si6 0.744074 0.280816 0.645425
Si Si7 0.541642 0.891952 0.477851
O O1 0.642198 0.500000 0.067767
O O2 0.644206 0.675837 0.118773
O O3 0.898250 0.609933 0.304800
O O4 0.656658 0.666790 0.024330
O O5 0.701467 0.670459 0.772611
O O6 0.752810 0.691100 0.716181
O O7 0.000000 0.657166 0.000000
O O8 0.444586 0.656963 0.165877
O O9 0.584977 0.782637 0.226925
O O10 0.319163 0.823806 0.019069
O O11 0.420427 0.500000 0.331931
O O12 0.439717 0.380950 0.264670
O O13 0.619438 0.356121 0.507645
O O14 0.707806 0.500000 0.936757
O O15 0.681591 0.171459 0.579710
O O16 0.500000 0.849126 0.500000
O O17 0.609953 0.000000 0.547811
#
# Coordination Sequence:
#
# PCOD8088437 Si02
#       7
#     8   8   8   8   8   8   8
#     4  11  21  37  58  89 125 164 206 244 304 371
#     4  12  22  39  60  91 127 167 205 255 308 368
#     4  11  23  40  65  93 123 162 204 265 314 367
#     4  11  24  43  65  88 123 169 213 261 311 360
#     4  10  22  44  67  88 120 163 216 262 308 364
#     4  12  22  37  61  90 129 158 205 255 315 380
#     4  10  19  32  53  80 120 168 201 237 296 369
#
# _framework density 19.714903
#
# number of rings (size 3 to 8) (size 9 to 14) (size 15 to 20)
#    0.000    1.000    5.714    0.857    0.000    4.000 
#    0.000    0.000    0.000    3.429    0.000    0.000 
#    0.000    0.000    0.000    0.000    0.000    0.000 
#
# Total GULP energy -347081.926272 kJ/mol
# GULP energy per Si atom -12395.783081 kJ/mol
# Density = 1.967003 g / cm^3
# Si number density = 19.714903 Si / 1000 Ang^3
#
#
#
# Elastic Constant Matrix: (Units=GPa)
#
#
# Indices 1 2 3 4 5 6 
#
# 1 87.1458 37.1781 40.0680 0.0125 -10.0672 0.0037
# 2 37.1781 111.2004 35.0670 0.0177 -10.3338 0.0100
# 3 40.0680 35.0670 95.8553 0.0279 -12.9952 0.0083
# 4 0.0125 0.0177 0.0279 20.7902 0.0126 -9.0016
# 5 -10.0672 -10.3338 -12.9952 0.0126 19.3033 0.0029
# 6 0.0037 0.0100 0.0083 -9.0016 0.0029 24.0248
#
#
#
# Elastic Compliance Matrix: (Units=1/GPa)
#
#
# Indices 1 2 3 4 5 6 
#
# 1 0.015483 -0.003373 -0.004829 -0.000002 0.003018 0.000000
# 2 -0.003373 0.011087 -0.002289 -0.000009 0.002635 -0.000007
# 3 -0.004829 -0.002289 0.014064 -0.000023 0.005725 -0.000012
# 4 -0.000002 -0.000009 -0.000023 0.057414 -0.000062 0.021512
# 5 0.003018 0.002635 0.005725 -0.000062 0.058644 -0.000034
# 6 0.000000 -0.000007 -0.000012 0.021512 -0.000034 0.049684
#
#
# Mechanical properties :
#
#
# Convention : Reuss Voigt Hill
#
# Bulk Modulus (GPa) = 50.88297 57.64752 54.26525
# Shear Modulus (GPa) = 21.37594 24.94954 23.16274
#
# Velocity S-wave (km/s) = 3.29637 3.56127 3.43138
# Velocity P-wave (km/s) = 6.35244 6.79811 6.57905
#
# Compressibility (1/GPa) = 0.01965294
#
# Stress axis : x y z
#
# Youngs Moduli (GPa) = 64.58719 90.19389 71.10238
#
# Poissons Ratio (x) = 0.30425 0.34333
# Poissons Ratio (y) = 0.21787 0.16274
# Poissons Ratio (z) = 0.31187 0.20643
#
# Static dielectric constant tensor:
#      x y z
#    x 3.552020 -0.000010 -0.125990 
#    y -0.000010 3.810390 -0.000020 
#    z -0.125990 -0.000020 3.632860 
# 
# 
# High freq. dielectric constant tensor:
#      x y z
#    x 1.756480 0.000000 -0.010840 
#    y 0.000000 1.775080 0.000000 
#    z -0.010840 0.000000 1.772750 
# 
# From -- ./inp_files/349819.got.cif
#   From: 2010.06.25/outbox.cif.g09.slc.cpg/sg12_175_cif.got.tgz:349819.got - 2010.06.28 00:19:55.
