data_PCOD8088842
_publ_section_title
;
Structure prediction by ZEFSAII (Michael W. Deem and Ramdas Pophale) SiO2 
 PCOD8088842
Probable space group: C 2/M
;
_chemical_formula_sum "Si O2"
_cell_formula_units_Z 56
_cell_length_a 9.108812
_cell_length_b 25.366709
_cell_length_c 19.205424
_cell_angle_alpha 90.000000
_cell_angle_beta 138.432327
_cell_angle_gamma 90.000000
_cell_volume 2944.377123
_symmetry_space_group_name_H-M "C 2/M"
_symmetry_group_IT_number 12
_symmetry_cell_setting 'monoclinic'
loop_
_space_group_symop_operation_xyz
x,y,z
-x,y,-z
-x,-y,-z
x,-y,z
1/2+x,1/2+y,z
1/2-x,1/2+y,-z
1/2-x,1/2-y,-z
1/2+x,1/2-y,z
loop_
_atom_site_type_symbol
_atom_site_label
_atom_site_fract_x
_atom_site_fract_y
_atom_site_fract_z
Si Si1 0.577054 0.000000 0.605537
Si Si2 0.257341 0.500000 0.388564
Si Si3 0.682191 0.894407 0.706020
Si Si4 0.323932 0.192836 0.775595
Si Si5 0.483364 0.441056 0.075538
Si Si6 0.169690 0.351711 0.999433
Si Si7 0.990354 0.801701 0.784506
Si Si8 0.236670 0.886121 0.622035
O O1 0.500000 0.000000 0.500000
O O2 0.378084 0.000000 0.588637
O O3 0.707338 0.945256 0.664427
O O4 0.500000 0.500000 0.500000
O O5 0.217502 0.445810 0.332052
O O6 0.807220 0.847210 0.710989
O O7 0.433157 0.874891 0.635872
O O8 0.802163 0.909997 0.820618
O O9 0.554205 0.173395 0.890900
O O10 0.364991 0.246985 0.749935
O O11 0.239008 0.151635 0.688726
O O12 0.136483 0.200564 0.766945
O O13 0.470984 0.500000 0.103450
O O14 0.500000 0.444827 0.000000
O O15 0.262982 0.409274 0.015857
O O16 0.360491 0.312133 0.094013
O O17 0.000000 0.362087 0.000000
O O18 0.000000 0.880650 0.500000
#
# Coordination Sequence:
#
# PCOD8088842 Si02
#       8
#     4   4   8   8   8   8   8   8
#     4  10  20  34  57  81 109 148 189 229 279 330
#     4   8  18  36  56  79 107 142 185 233 276 326
#     4  10  20  38  56  83 116 151 189 240 280 334
#     4  11  21  39  58  86 113 152 190 236 285 338
#     4  10  19  32  55  84 114 151 188 226 280 338
#     4   9  20  37  56  83 116 148 186 230 280 342
#     4  10  22  37  61  84 115 148 191 233 288 343
#     4  10  21  38  60  83 115 150 193 238 282 331
#
# _framework density 19.019302
#
# number of rings (size 3 to 8) (size 9 to 14) (size 15 to 20)
#    0.000    2.143    0.714    2.143    0.000    4.857 
#    1.286    4.286    0.000    0.000    0.000    0.000 
#    0.000    0.000    0.000    0.000    0.000    0.000 
#
# Total GULP energy -347077.070402 kJ/mol
# GULP energy per Si atom -12395.609657 kJ/mol
# Density = 1.897601 g / cm^3
# Si number density = 19.019302 Si / 1000 Ang^3
#
#
#
# Elastic Constant Matrix: (Units=GPa)
#
#
# Indices 1 2 3 4 5 6 
#
# 1 74.2809 71.0167 44.3500 0.0000 8.5555 0.0000
# 2 71.0167 154.9204 58.1048 0.0000 -0.5997 0.0000
# 3 44.3500 58.1048 92.7357 0.0000 -0.2955 0.0000
# 4 0.0000 0.0000 0.0000 30.3240 0.0000 5.9169
# 5 8.5555 -0.5997 -0.2955 0.0000 32.9137 0.0000
# 6 0.0000 0.0000 0.0000 5.9169 0.0000 33.3095
#
#
#
# Elastic Compliance Matrix: (Units=1/GPa)
#
#
# Indices 1 2 3 4 5 6 
#
# 1 0.028633 -0.010471 -0.007157 0.000000 -0.007698 0.000000
# 2 -0.010471 0.012267 -0.002669 0.000000 0.002921 0.000000
# 3 -0.007157 -0.002669 0.015885 0.000000 0.001954 0.000000
# 4 0.000000 0.000000 0.000000 0.034161 0.000000 -0.006068
# 5 -0.007698 0.002921 0.001954 0.000000 0.032454 0.000000
# 6 0.000000 0.000000 0.000000 -0.006068 0.000000 0.031099
#
#
# Mechanical properties :
#
#
# Convention : Reuss Voigt Hill
#
# Bulk Modulus (GPa) = 61.76562 74.31999 68.04281
# Shear Modulus (GPa) = 24.93857 29.20716 27.07286
#
# Velocity S-wave (km/s) = 3.62501 3.92300 3.77695
# Velocity P-wave (km/s) = 7.07578 7.72534 7.40768
#
# Compressibility (1/GPa) = 0.01619024
#
# Stress axis : x y z
#
# Youngs Moduli (GPa) = 34.92436 81.51688 62.95252
#
# Poissons Ratio (x) = 0.85357 0.45057
# Poissons Ratio (y) = 0.36570 0.16804
# Poissons Ratio (z) = 0.24997 0.21759
#
# Static dielectric constant tensor:
#      x y z
#    x 3.578020 0.000000 0.334930 
#    y 0.000000 3.608240 0.000000 
#    z 0.334930 0.000000 3.560110 
# 
# 
# High freq. dielectric constant tensor:
#      x y z
#    x 1.733650 0.000000 0.013650 
#    y 0.000000 1.753830 0.000000 
#    z 0.013650 0.000000 1.730900 
# 
# From -- ./inp_files/259893.got.cif
#   From: 2010.06.25/outbox.cif.g09.slc.cpg/sg12_130_cif.got.tgz:259893.got - 2010.06.28 00:19:55.
