data_PCOD8088134
_publ_section_title
;
Structure prediction by ZEFSAII (Michael W. Deem and Ramdas Pophale) SiO2 
 PCOD8088134
Probable space group: C 2/M
;
_chemical_formula_sum "Si O2"
_cell_formula_units_Z 56
_cell_length_a 20.460489
_cell_length_b 8.837222
_cell_length_c 19.546038
_cell_angle_alpha 90.000000
_cell_angle_beta 58.737952
_cell_angle_gamma 90.000000
_cell_volume 3021.039693
_symmetry_space_group_name_H-M "C 2/M"
_symmetry_group_IT_number 12
_symmetry_cell_setting 'monoclinic'
loop_
_space_group_symop_operation_xyz
x,y,z
-x,y,-z
-x,-y,-z
x,-y,z
1/2+x,1/2+y,z
1/2-x,1/2+y,-z
1/2-x,1/2-y,-z
1/2+x,1/2-y,z
loop_
_atom_site_type_symbol
_atom_site_label
_atom_site_fract_x
_atom_site_fract_y
_atom_site_fract_z
Si Si1 0.847439 0.678112 0.168335
Si Si2 0.287263 0.825827 0.684714
Si Si3 0.706631 0.325312 0.585704
Si Si4 0.425453 0.833242 0.993982
Si Si5 0.490230 0.322387 0.164839
Si Si6 0.039976 0.320075 0.410176
Si Si7 0.543113 0.179503 0.681294
O O1 0.860406 0.500000 0.173104
O O2 0.763037 0.727034 0.235994
O O3 0.857284 0.718908 0.082065
O O4 0.909117 0.766437 0.180254
O O5 0.260029 0.806606 0.622185
O O6 0.373188 0.761701 0.642073
O O7 0.282562 0.000000 0.710683
O O8 0.689785 0.500000 0.578593
O O9 0.750000 0.250000 0.500000
O O10 0.628538 0.239073 0.641734
O O11 0.408669 0.000000 0.972527
O O12 0.500000 0.840137 0.000000
O O13 0.439194 0.718374 0.923940
O O14 0.485823 0.500000 0.177107
O O15 0.506447 0.245083 0.229043
O O16 0.039725 0.500000 0.414319
O O17 0.000000 0.252944 0.500000
O O18 0.993634 0.262260 0.369393
O O19 0.543467 0.000000 0.684903
#
# Coordination Sequence:
#
# PCOD8088134 Si02
#       7
#     8   8   8   8   8   8   8
#     4  10  19  32  52  79 111 144 179 219 272 325
#     4  10  20  35  56  80 108 141 182 226 269 323
#     4  11  22  35  54  80 108 139 176 224 277 326
#     4   8  16  30  48  74 108 143 177 217 266 324
#     4  11  20  31  50  79 112 144 180 222 268 321
#     4   9  19  37  58  79 104 142 186 225 271 327
#     4  11  21  35  57  80 108 143 181 226 272 325
#
# _framework density 18.536664999999999
#
# number of rings (size 3 to 8) (size 9 to 14) (size 15 to 20)
#    0.000    2.000    1.429    4.286    0.000    6.000 
#    0.000    1.429    0.000    3.857    0.000    0.000 
#    0.000    0.000    0.000    0.000    0.000    0.000 
#
# Total GULP energy -347199.689405 kJ/mol
# GULP energy per Si atom -12399.988907 kJ/mol
# Density = 1.849447 g / cm^3
# Si number density = 18.536665 Si / 1000 Ang^3
#
#
#
# Elastic Constant Matrix: (Units=GPa)
#
#
# Indices 1 2 3 4 5 6 
#
# 1 59.8002 26.4940 29.1356 0.0005 3.7468 0.0002
# 2 26.4940 89.9122 50.4148 0.0008 5.6886 0.0016
# 3 29.1356 50.4148 146.9656 0.0001 0.1109 0.0002
# 4 0.0005 0.0008 0.0001 29.6332 -0.0001 -3.3401
# 5 3.7468 5.6886 0.1109 -0.0001 27.0323 0.0002
# 6 0.0002 0.0016 0.0002 -3.3401 0.0002 16.3491
#
#
#
# Elastic Compliance Matrix: (Units=1/GPa)
#
#
# Indices 1 2 3 4 5 6 
#
# 1 0.019979 -0.004397 -0.002451 0.000000 -0.001834 0.000000
# 2 -0.004397 0.014966 -0.004260 -0.000001 -0.002523 -0.000001
# 3 -0.002451 -0.004260 0.008751 0.000000 0.001200 0.000000
# 4 0.000000 -0.000001 0.000000 0.034541 0.000000 0.007057
# 5 -0.001834 -0.002523 0.001200 0.000000 0.037773 0.000000
# 6 0.000000 -0.000001 0.000000 0.007057 0.000000 0.062607
#
#
# Mechanical properties :
#
#
# Convention : Reuss Voigt Hill
#
# Bulk Modulus (GPa) = 46.55594 56.52964 51.54279
# Shear Modulus (GPa) = 24.03911 27.31180 25.67546
#
# Velocity S-wave (km/s) = 3.60507 3.84265 3.72575
# Velocity P-wave (km/s) = 6.51912 7.08874 6.80989
#
# Compressibility (1/GPa) = 0.02147954
#
# Stress axis : x y z
#
# Youngs Moduli (GPa) = 50.05135 66.81829 114.27496
#
# Poissons Ratio (x) = 0.29379 0.28012
# Poissons Ratio (y) = 0.22006 0.48685
# Poissons Ratio (z) = 0.12269 0.28467
#
# Static dielectric constant tensor:
#      x y z
#    x 3.184370 0.000000 -0.075380 
#    y 0.000000 3.309510 0.000000 
#    z -0.075380 0.000000 3.918930 
# 
# 
# High freq. dielectric constant tensor:
#      x y z
#    x 1.680920 0.000000 -0.002910 
#    y 0.000000 1.711140 0.000000 
#    z -0.002910 0.000000 1.742490 
# 
# From -- ./inp_files/280929.got.cif
#   From: 2010.06.25/outbox.cif.g09.slc.cpg/sg12_141_cif.got.tgz:280929.got - 2010.06.28 00:19:55.
