data_PCOD8088319
_publ_section_title
;
Structure prediction by ZEFSAII (Michael W. Deem and Ramdas Pophale) SiO2 
 PCOD8088319
Probable space group: C 2/M
;
_chemical_formula_sum "Si O2"
_cell_formula_units_Z 64
_cell_length_a 30.022778
_cell_length_b 9.468377
_cell_length_c 12.293305
_cell_angle_alpha 90.000000
_cell_angle_beta 92.662537
_cell_angle_gamma 90.000000
_cell_volume 3490.808163
_symmetry_space_group_name_H-M "C 2/M"
_symmetry_group_IT_number 12
_symmetry_cell_setting 'monoclinic'
loop_
_space_group_symop_operation_xyz
x,y,z
-x,y,-z
-x,-y,-z
x,-y,z
1/2+x,1/2+y,z
1/2-x,1/2+y,-z
1/2-x,1/2-y,-z
1/2+x,1/2-y,z
loop_
_atom_site_type_symbol
_atom_site_label
_atom_site_fract_x
_atom_site_fract_y
_atom_site_fract_z
Si Si1 0.468921 0.665888 0.740743
Si Si2 0.185624 0.836513 0.484232
Si Si3 0.430380 0.334104 0.293507
Si Si4 0.777898 0.335786 0.090844
Si Si5 0.452740 0.835741 0.944048
Si Si6 0.380598 0.163030 0.114751
Si Si7 0.735520 0.835395 0.663852
Si Si8 0.414822 0.665746 0.531573
O O1 0.459767 0.500000 0.752362
O O2 0.521190 0.700818 0.748971
O O3 0.444496 0.745497 0.835462
O O4 0.447598 0.726957 0.627210
O O5 0.216529 0.801340 0.384065
O O6 0.198194 0.748365 0.592579
O O7 0.135835 0.795209 0.443538
O O8 0.189378 0.000000 0.517773
O O9 0.419910 0.500000 0.289016
O O10 0.392712 0.256003 0.220272
O O11 0.427919 0.272728 0.415467
O O12 0.766630 0.500000 0.074323
O O13 0.829931 0.305320 0.075490
O O14 0.764317 0.285760 0.210875
O O15 0.750000 0.250000 0.000000
O O16 0.452324 0.000000 0.913466
O O17 0.500000 0.791349 0.000000
O O18 0.412642 0.794863 0.019390
O O19 0.387137 0.000000 0.147836
O O20 0.723250 0.000000 0.655085
O O21 0.422434 0.500000 0.527359
#
# Coordination Sequence:
#
# PCOD8088319 Si02
#       8
#     8   8   8   8   8   8   8   8
#     4  10  20  33  52  77 105 136 172 216 260 305
#     4   9  17  31  53  76  99 133 171 204 250 313
#     4  10  19  32  53  78 104 135 174 214 255 307
#     4  10  22  38  55  77 107 139 173 216 263 311
#     4  10  20  36  55  73 101 139 176 216 261 308
#     4  10  21  37  56  77 103 139 177 215 263 310
#     4   9  18  33  52  75 102 130 165 212 260 300
#     4   9  18  32  49  74 107 137 165 205 259 309
#
# _framework density 18.333863000000001
#
# number of rings (size 3 to 8) (size 9 to 14) (size 15 to 20)
#    0.000    2.375    1.250    1.125    0.000    4.250 
#    0.000    2.500    0.000    1.500    0.000    0.000 
#    0.000    0.000    0.000    0.000    0.000    0.000 
#
# Total GULP energy -396853.035687 kJ/mol
# GULP energy per Si atom -12401.657365 kJ/mol
# Density = 1.829213 g / cm^3
# Si number density = 18.333863 Si / 1000 Ang^3
#
#
#
# Elastic Constant Matrix: (Units=GPa)
#
#
# Indices 1 2 3 4 5 6 
#
# 1 92.9067 36.4035 62.3188 0.0000 1.7349 0.0000
# 2 36.4035 43.3574 50.5827 0.0000 5.3201 0.0000
# 3 62.3188 50.5827 148.2210 0.0000 -0.4475 0.0000
# 4 0.0000 0.0000 0.0000 21.2032 0.0000 2.5236
# 5 1.7349 5.3201 -0.4475 0.0000 30.5739 0.0000
# 6 0.0000 0.0000 0.0000 2.5236 0.0000 22.1992
#
#
#
# Elastic Compliance Matrix: (Units=1/GPa)
#
#
# Indices 1 2 3 4 5 6 
#
# 1 0.017279 -0.010177 -0.003790 0.000000 0.000735 0.000000
# 2 -0.010177 0.045810 -0.011377 0.000000 -0.007560 0.000000
# 3 -0.003790 -0.011377 0.012230 0.000000 0.002374 0.000000
# 4 0.000000 0.000000 0.000000 0.047810 0.000000 -0.005435
# 5 0.000735 -0.007560 0.002374 0.000000 0.034016 0.000000
# 6 0.000000 0.000000 0.000000 -0.005435 0.000000 0.045665
#
#
# Mechanical properties :
#
#
# Convention : Reuss Voigt Hill
#
# Bulk Modulus (GPa) = 40.59905 64.78834 52.69370
# Shear Modulus (GPa) = 19.10529 23.80727 21.45628
#
# Velocity S-wave (km/s) = 3.23162 3.60744 3.42469
# Velocity P-wave (km/s) = 6.00973 7.26404 6.66645
#
# Compressibility (1/GPa) = 0.02463112
#
# Stress axis : x y z
#
# Youngs Moduli (GPa) = 57.87214 21.82945 81.76671
#
# Poissons Ratio (x) = 0.22216 0.30988
# Poissons Ratio (y) = 0.58896 0.93028
# Poissons Ratio (z) = 0.21933 0.24836
#
# Static dielectric constant tensor:
#      x y z
#    x 3.457090 0.000000 -0.100750 
#    y 0.000000 3.173430 0.000000 
#    z -0.100750 0.000000 3.471230 
# 
# 
# High freq. dielectric constant tensor:
#      x y z
#    x 1.717420 0.000000 -0.009000 
#    y 0.000000 1.689740 0.000000 
#    z -0.009000 0.000000 1.716190 
# 
# From -- ./inp_files/187446.got.cif
#   From: 2010.06.25/outbox.cif.g09.slc.cpg/sg12_94_cif.got.tgz:187446.got - 2010.06.28 00:19:55.
