data_PCOD8088918
_publ_section_title
;
Structure prediction by ZEFSAII (Michael W. Deem and Ramdas Pophale) SiO2 
 PCOD8088918
Probable space group: C 2/M
;
_chemical_formula_sum "Si O2"
_cell_formula_units_Z 56
_cell_length_a 9.876750
_cell_length_b 19.701324
_cell_length_c 15.494369
_cell_angle_alpha 90.000000
_cell_angle_beta 59.555797
_cell_angle_gamma 90.000000
_cell_volume 2599.277259
_symmetry_space_group_name_H-M "C 2/M"
_symmetry_group_IT_number 12
_symmetry_cell_setting 'monoclinic'
loop_
_space_group_symop_operation_xyz
x,y,z
-x,y,-z
-x,-y,-z
x,-y,z
1/2+x,1/2+y,z
1/2-x,1/2+y,-z
1/2-x,1/2-y,-z
1/2+x,1/2-y,z
loop_
_atom_site_type_symbol
_atom_site_label
_atom_site_fract_x
_atom_site_fract_y
_atom_site_fract_z
Si Si1 0.434235 0.710045 0.928467
Si Si2 0.847940 0.620128 0.995302
Si Si3 0.386071 0.715180 0.609719
Si Si4 0.043007 0.926367 0.158170
Si Si5 0.520126 0.074209 0.778772
Si Si6 0.876789 0.925508 0.679846
Si Si7 0.972242 0.717503 0.274283
O O1 0.255435 0.807284 0.007957
O O2 0.523674 0.638090 0.873851
O O3 0.481188 0.765074 0.840029
O O4 0.500000 0.732755 0.000000
O O5 0.891038 0.581155 0.894469
O O6 0.731778 0.570118 0.083639
O O7 0.000000 0.639633 0.000000
O O8 0.500000 0.747259 0.500000
O O9 0.416166 0.633984 0.599830
O O10 0.208119 0.735476 0.646210
O O11 0.419873 0.742251 0.694538
O O12 0.017396 0.915553 0.268630
O O13 0.970895 0.000000 0.152835
O O14 0.693220 0.080210 0.764289
O O15 0.498839 0.136867 0.719280
O O16 0.497665 0.000000 0.740816
O O17 0.912127 0.000000 0.627569
#
# Coordination Sequence:
#
# PCOD8088918 Si02
#       7
#     8   8   8   8   8   8   8
#     4  10  23  39  54  86 129 167 199 244 296 358
#     4  10  19  32  56  84 117 161 212 248 275 345
#     4  11  23  43  69  93 119 158 201 255 319 370
#     4   9  17  31  54  80 119 163 202 242 286 344
#     4  10  20  34  57  85 118 162 205 248 296 350
#     4   9  17  34  59  92 124 152 195 256 308 353
#     4  11  25  43  63  91 127 156 203 258 305 368
#
# _framework density 21.544450000000001
#
# number of rings (size 3 to 8) (size 9 to 14) (size 15 to 20)
#    0.857    1.143    2.857    0.857    4.000    2.286 
#    0.000    0.000    0.000    1.286    0.000    0.000 
#    0.000    0.000    0.000    0.000    0.000    0.000 
#
# Total GULP energy -346928.717223 kJ/mol
# GULP energy per Si atom -12390.311329 kJ/mol
# Density = 2.149541 g / cm^3
# Si number density = 21.544450 Si / 1000 Ang^3
#
#
#
# Elastic Constant Matrix: (Units=GPa)
#
#
# Indices 1 2 3 4 5 6 
#
# 1 54.3825 7.6466 14.7396 0.0000 -1.6621 0.0000
# 2 7.6466 124.6908 5.6352 0.0000 3.6994 0.0000
# 3 14.7396 5.6352 68.2839 0.0000 -7.9600 0.0000
# 4 0.0000 0.0000 0.0000 13.6646 0.0000 -1.7338
# 5 -1.6621 3.6994 -7.9600 0.0000 25.6952 0.0000
# 6 0.0000 0.0000 0.0000 -1.7338 0.0000 18.5517
#
#
#
# Elastic Compliance Matrix: (Units=1/GPa)
#
#
# Indices 1 2 3 4 5 6 
#
# 1 0.019659 -0.001022 -0.004143 0.000000 0.000135 0.000000
# 2 -0.001022 0.008153 -0.000619 0.000000 -0.001432 0.000000
# 3 -0.004143 -0.000619 0.016153 0.000000 0.004825 0.000000
# 4 0.000000 0.000000 0.000000 0.074060 0.000000 0.006921
# 5 0.000135 -0.001432 0.004825 0.000000 0.040627 0.000000
# 6 0.000000 0.000000 0.000000 0.006921 0.000000 0.054550
#
#
# Mechanical properties :
#
#
# Convention : Reuss Voigt Hill
#
# Bulk Modulus (GPa) = 30.86882 33.71113 32.28997
# Shear Modulus (GPa) = 21.22506 26.20468 23.71487
#
# Velocity S-wave (km/s) = 3.14216 3.49134 3.32134
# Velocity P-wave (km/s) = 5.24626 5.65100 5.45239
#
# Compressibility (1/GPa) = 0.03239515
#
# Stress axis : x y z
#
# Youngs Moduli (GPa) = 50.86688 122.65446 61.90923
#
# Poissons Ratio (x) = 0.12540 0.25652
# Poissons Ratio (y) = 0.05200 0.03833
# Poissons Ratio (z) = 0.21076 0.07593
#
# Static dielectric constant tensor:
#      x y z
#    x 3.422670 0.000000 -0.121090 
#    y 0.000000 4.211680 0.000000 
#    z -0.121090 0.000000 3.423380 
# 
# 
# High freq. dielectric constant tensor:
#      x y z
#    x 1.808560 0.000000 -0.010510 
#    y 0.000000 1.871680 0.000000 
#    z -0.010510 0.000000 1.815190 
# 
# From -- ./inp_files/206075.got.cif
#   From: 2010.06.25/outbox.cif.g09.slc.cpg/sg12_104_cif.got.tgz:206075.got - 2010.06.28 00:19:55.
