data_PCOD8088231
_publ_section_title
;
Structure prediction by ZEFSAII (Michael W. Deem and Ramdas Pophale) SiO2 
 PCOD8088231
Probable space group: C 2/M
;
_chemical_formula_sum "Si O2"
_cell_formula_units_Z 36
_cell_length_a 13.835786
_cell_length_b 21.544239
_cell_length_c 17.585930
_cell_angle_alpha 90.000000
_cell_angle_beta 156.236064
_cell_angle_gamma 90.000000
_cell_volume 2112.381252
_symmetry_space_group_name_H-M "C 2/M"
_symmetry_group_IT_number 12
_symmetry_cell_setting 'monoclinic'
loop_
_space_group_symop_operation_xyz
x,y,z
-x,y,-z
-x,-y,-z
x,-y,z
1/2+x,1/2+y,z
1/2-x,1/2+y,-z
1/2-x,1/2-y,-z
1/2+x,1/2-y,z
loop_
_atom_site_type_symbol
_atom_site_label
_atom_site_fract_x
_atom_site_fract_y
_atom_site_fract_z
Si Si1 0.116813 0.152997 0.404765
Si Si2 0.500000 0.256464 0.000000
Si Si3 0.496291 0.776622 0.407228
Si Si4 0.902688 0.362198 0.007958
Si Si5 0.741742 0.427518 0.628718
O O1 0.310829 0.174126 0.482972
O O2 0.049572 0.207702 0.415053
O O3 0.219979 0.095536 0.526732
O O4 0.883433 0.129260 0.191136
O O5 0.538708 0.211779 0.953746
O O6 0.265483 0.297826 0.813336
O O7 0.500000 0.775772 0.500000
O O8 0.030286 0.392705 0.171448
O O9 0.000000 0.394529 0.000000
O O10 0.500000 0.411044 0.500000
O O11 0.795751 0.500000 0.668003
#
# Coordination Sequence:
#
# PCOD8088231 Si02
#       5
#     8   4   8   8   8
#     4  10  20  33  50  76 103 132 163 203 246 295
#     4   8  16  30  49  72  99 126 158 202 240 296
#     4  10  19  32  53  74 102 132 164 202 247 295
#     4   9  17  31  48  71 104 130 158 197 245 297
#     4  11  20  31  50  72 101 135 165 202 243 292
#
# _framework density 17.042379
#
# number of rings (size 3 to 8) (size 9 to 14) (size 15 to 20)
#    0.667    1.556    2.222    2.000    0.000    3.111 
#    0.000    6.667    0.000    0.667    0.000    2.333 
#    0.000    0.000    0.000    0.000    0.000    0.000 
#
# Total GULP energy -223140.134995 kJ/mol
# GULP energy per Si atom -12396.674166 kJ/mol
# Density = 1.700359 g / cm^3
# Si number density = 17.042379 Si / 1000 Ang^3
#
#
#
# Elastic Constant Matrix: (Units=GPa)
#
#
# Indices 1 2 3 4 5 6 
#
# 1 80.5611 24.1896 54.5014 0.0896 4.2920 0.0370
# 2 24.1896 44.1537 48.0264 0.1093 3.2718 0.0434
# 3 54.5014 48.0264 174.2832 0.3087 15.7428 0.1348
# 4 0.0896 0.1093 0.3087 7.4407 -0.0767 4.1442
# 5 4.2920 3.2718 15.7428 -0.0767 17.6620 -0.0388
# 6 0.0370 0.0434 0.1348 4.1442 -0.0388 13.6861
#
#
#
# Elastic Compliance Matrix: (Units=1/GPa)
#
#
# Indices 1 2 3 4 5 6 
#
# 1 0.016450 -0.004868 -0.003832 0.000036 0.000320 -0.000001
# 2 -0.004868 0.033856 -0.007991 -0.000098 0.002033 0.000020
# 3 -0.003832 -0.007991 0.009702 -0.000313 -0.006238 0.000017
# 4 0.000036 -0.000098 -0.000313 0.161684 0.000882 -0.048953
# 5 0.000320 0.002033 -0.006238 0.000882 0.061728 -0.000038
# 6 -0.000001 0.000020 0.000017 -0.048953 -0.000038 0.087890
#
#
# Mechanical properties :
#
#
# Convention : Reuss Voigt Hill
#
# Bulk Modulus (GPa) = 37.55582 61.38144 49.46863
# Shear Modulus (GPa) = 12.08995 19.24314 15.66655
#
# Velocity S-wave (km/s) = 2.66636 3.36391 3.03524
# Velocity P-wave (km/s) = 5.61817 7.15423 6.43221
#
# Compressibility (1/GPa) = 0.02662703
#
# Stress axis : x y z
#
# Youngs Moduli (GPa) = 60.79123 29.53655 103.07193
#
# Poissons Ratio (x) = 0.14379 0.39493
# Poissons Ratio (y) = 0.29594 0.82363
# Poissons Ratio (z) = 0.23293 0.23602
#
# Static dielectric constant tensor:
#      x y z
#    x 2.885830 0.000010 0.126800 
#    y 0.000010 2.816960 -0.000100 
#    z 0.126800 -0.000100 3.367100 
# 
# 
# High freq. dielectric constant tensor:
#      x y z
#    x 1.623970 0.000000 0.001500 
#    y 0.000000 1.610730 -0.000010 
#    z 0.001500 -0.000010 1.681190 
# 
# From -- ./inp_files/148761.got.cif
#   From: 2010.06.25/outbox.cif.g09.slc.cpg/sg12_75_cif.got.tgz:148761.got - 2010.06.28 00:19:55.
