data_PCOD8088714
_publ_section_title
;
Structure prediction by ZEFSAII (Michael W. Deem and Ramdas Pophale) SiO2 
 PCOD8088714
Probable space group: C 2/M
;
_chemical_formula_sum "Si O2"
_cell_formula_units_Z 56
_cell_length_a 28.304228
_cell_length_b 9.204952
_cell_length_c 13.320291
_cell_angle_alpha 90.000000
_cell_angle_beta 122.585486
_cell_angle_gamma 90.000000
_cell_volume 2924.167612
_symmetry_space_group_name_H-M "C 2/M"
_symmetry_group_IT_number 12
_symmetry_cell_setting 'monoclinic'
loop_
_space_group_symop_operation_xyz
x,y,z
-x,y,-z
-x,-y,-z
x,-y,z
1/2+x,1/2+y,z
1/2-x,1/2+y,-z
1/2-x,1/2-y,-z
1/2+x,1/2-y,z
loop_
_atom_site_type_symbol
_atom_site_label
_atom_site_fract_x
_atom_site_fract_y
_atom_site_fract_z
Si Si1 0.941830 0.666733 0.719961
Si Si2 0.771042 0.833733 0.798992
Si Si3 0.443500 0.170559 0.491030
Si Si4 0.564293 0.831356 0.942357
Si Si5 0.335958 0.667745 0.287622
Si Si6 0.617588 0.669479 0.185642
Si Si7 0.653371 0.333543 0.930258
O O1 0.922782 0.500000 0.704924
O O2 0.948398 0.715344 0.612673
O O3 0.894210 0.764673 0.718003
O O4 0.999693 0.692390 0.843669
O O5 0.717132 0.734860 0.714839
O O6 0.817313 0.803281 0.766329
O O7 0.751125 0.000000 0.774073
O O8 0.796555 0.792928 0.936742
O O9 0.500000 0.220257 0.500000
O O10 0.392575 0.254558 0.383352
O O11 0.433350 0.000000 0.465365
O O12 0.600267 0.768803 0.891008
O O13 0.578946 0.000000 0.973326
O O14 0.577686 0.747987 0.059926
O O15 0.340618 0.500000 0.321902
O O16 0.325596 0.692227 0.157820
O O17 0.603119 0.500000 0.167421
O O18 0.634655 0.500000 0.927532
#
# Coordination Sequence:
#
# PCOD8088714 Si02
#       7
#     8   8   8   8   8   8   8
#     4  10  21  36  55  80 108 142 185 226 264 315
#     4   9  19  36  55  77 108 144 180 218 265 324
#     4  10  22  41  61  80 107 144 183 221 264 317
#     4  10  19  32  54  83 112 143 181 222 266 320
#     4  11  22  35  55  83 111 141 180 226 274 320
#     4  10  21  36  55  81 112 144 178 220 272 324
#     4   9  19  34  52  80 115 145 177 220 270 323
#
# _framework density 19.150749000000001
#
# number of rings (size 3 to 8) (size 9 to 14) (size 15 to 20)
#    0.000    2.143    0.000    3.857    0.000    8.857 
#    0.000    0.714    0.000    0.000    0.000    0.000 
#    0.000    0.000    0.000    0.000    0.000    0.000 
#
# Total GULP energy -347294.909709 kJ/mol
# GULP energy per Si atom -12403.389632 kJ/mol
# Density = 1.910716 g / cm^3
# Si number density = 19.150749 Si / 1000 Ang^3
#
#
#
# Elastic Constant Matrix: (Units=GPa)
#
#
# Indices 1 2 3 4 5 6 
#
# 1 136.1231 73.8747 60.5741 0.0000 0.1715 0.0000
# 2 73.8747 95.6172 48.1749 0.0000 5.0527 0.0000
# 3 60.5741 48.1749 68.9655 0.0000 -0.2149 0.0000
# 4 0.0000 0.0000 0.0000 28.5572 0.0000 -0.1672
# 5 0.1715 5.0527 -0.2149 0.0000 29.4867 0.0000
# 6 0.0000 0.0000 0.0000 -0.1672 0.0000 36.3386
#
#
#
# Elastic Compliance Matrix: (Units=1/GPa)
#
#
# Indices 1 2 3 4 5 6 
#
# 1 0.015001 -0.007740 -0.007765 0.000000 0.001182 0.000000
# 2 -0.007740 0.020374 -0.007445 0.000000 -0.003500 0.000000
# 3 -0.007765 -0.007445 0.026526 0.000000 0.001514 0.000000
# 4 0.000000 0.000000 0.000000 0.035018 0.000000 0.000161
# 5 0.001182 -0.003500 0.001514 0.000000 0.034518 0.000000
# 6 0.000000 0.000000 0.000000 0.000161 0.000000 0.027520
#
#
# Mechanical properties :
#
#
# Convention : Reuss Voigt Hill
#
# Bulk Modulus (GPa) = 62.49784 73.99480 68.24632
# Shear Modulus (GPa) = 23.78799 26.74864 25.26832
#
# Velocity S-wave (km/s) = 3.52823 3.74135 3.63635
# Velocity P-wave (km/s) = 7.02164 7.57533 7.30373
#
# Compressibility (1/GPa) = 0.01600055
#
# Stress axis : x y z
#
# Youngs Moduli (GPa) = 66.66336 49.08174 37.69913
#
# Poissons Ratio (x) = 0.37988 0.29275
# Poissons Ratio (y) = 0.51596 0.28067
# Poissons Ratio (z) = 0.51766 0.36541
#
# Static dielectric constant tensor:
#      x y z
#    x 3.577870 0.000000 -0.139300 
#    y 0.000000 3.539370 0.000000 
#    z -0.139300 0.000000 3.358220 
# 
# 
# High freq. dielectric constant tensor:
#      x y z
#    x 1.753330 0.000000 -0.004270 
#    y 0.000000 1.748470 0.000000 
#    z -0.004270 0.000000 1.726250 
# 
# From -- ./inp_files/248594.got.cif
#   From: 2010.06.25/outbox.cif.g09.slc.cpg/sg12_125_cif.got.tgz:248594.got - 2010.06.28 00:19:55.
