data_PCOD8088123
_publ_section_title
;
Structure prediction by ZEFSAII (Michael W. Deem and Ramdas Pophale) SiO2 
 PCOD8088123
Probable space group: C 2/M
;
_chemical_formula_sum "Si O2"
_cell_formula_units_Z 64
_cell_length_a 24.458291
_cell_length_b 8.895126
_cell_length_c 29.640894
_cell_angle_alpha 90.000000
_cell_angle_beta 31.109271
_cell_angle_gamma 90.000000
_cell_volume 3331.841484
_symmetry_space_group_name_H-M "C 2/M"
_symmetry_group_IT_number 12
_symmetry_cell_setting 'monoclinic'
loop_
_space_group_symop_operation_xyz
x,y,z
-x,y,-z
-x,-y,-z
x,-y,z
1/2+x,1/2+y,z
1/2-x,1/2+y,-z
1/2-x,1/2-y,-z
1/2+x,1/2-y,z
loop_
_atom_site_type_symbol
_atom_site_label
_atom_site_fract_x
_atom_site_fract_y
_atom_site_fract_z
Si Si1 0.618364 0.677523 0.430515
Si Si2 0.682952 0.176208 0.479358
Si Si3 0.798800 0.826769 0.057456
Si Si4 0.602291 0.676173 0.623268
Si Si5 0.486623 0.678016 0.862314
Si Si6 0.585048 0.322392 0.182273
Si Si7 0.385620 0.326182 0.091511
Si Si8 0.297821 0.321291 0.247197
O O1 0.500000 0.725024 0.500000
O O2 0.630135 0.500000 0.425452
O O3 0.651538 0.745024 0.455148
O O4 0.692944 0.739850 0.338308
O O5 0.608350 0.233319 0.572410
O O6 0.803402 0.215070 0.408366
O O7 0.666581 0.000000 0.484101
O O8 0.702876 0.728649 0.108017
O O9 0.808228 0.803448 0.104168
O O10 0.777486 0.000000 0.060308
O O11 0.905367 0.766977 0.958261
O O12 0.603413 0.500000 0.611026
O O13 0.493617 0.731117 0.722795
O O14 0.483727 0.500000 0.862825
O O15 0.453264 0.748237 0.838011
O O16 0.605300 0.729788 0.789370
O O17 0.582182 0.500000 0.180876
O O18 0.408375 0.500000 0.086590
O O19 0.326270 0.259300 0.177073
O O20 0.500000 0.250146 0.000000
O O21 0.278988 0.500000 0.261498
#
# Coordination Sequence:
#
# PCOD8088123 Si02
#       8
#     8   8   8   8   8   8   8   8
#     4  11  25  42  57  79 116 155 186 227 291 351
#     4  10  20  37  63  87 107 139 190 238 277 329
#     4  10  19  32  52  79 109 142 182 227 272 319
#     4   9  19  36  57  83 115 149 181 224 285 343
#     4   9  17  32  55  79 107 143 182 225 274 324
#     4  10  20  33  49  74 111 150 182 213 266 332
#     4   9  16  31  56  83 107 136 178 228 279 325
#     4  10  19  35  62  87 106 138 188 238 280 330
#
# _framework density 19.208596
#
# number of rings (size 3 to 8) (size 9 to 14) (size 15 to 20)
#    0.000    2.250    1.250    1.875    0.000    5.000 
#    0.000    5.625    0.000    0.750    0.000    0.000 
#    0.000    0.000    0.000    0.000    0.000    0.000 
#
# Total GULP energy -396779.368973 kJ/mol
# GULP energy per Si atom -12399.355280 kJ/mol
# Density = 1.916488 g / cm^3
# Si number density = 19.208596 Si / 1000 Ang^3
#
#
#
# Elastic Constant Matrix: (Units=GPa)
#
#
# Indices 1 2 3 4 5 6 
#
# 1 99.4796 28.7885 64.6919 -0.0137 13.7628 0.0296
# 2 28.7885 36.7801 36.9493 -0.0110 5.5946 0.0144
# 3 64.6919 36.9493 153.0938 0.0022 5.3573 0.0049
# 4 -0.0137 -0.0110 0.0022 26.8050 0.0010 -4.3109
# 5 13.7628 5.5946 5.3573 0.0010 30.8195 -0.0090
# 6 0.0296 0.0144 0.0049 -4.3109 -0.0090 24.9597
#
#
#
# Elastic Compliance Matrix: (Units=1/GPa)
#
#
# Indices 1 2 3 4 5 6 
#
# 1 0.015892 -0.006740 -0.004913 0.000004 -0.005019 -0.000015
# 2 -0.006740 0.039545 -0.006590 0.000011 -0.003023 -0.000013
# 3 -0.004913 -0.006590 0.010142 -0.000005 0.001627 0.000007
# 4 0.000004 0.000011 -0.000005 0.038372 -0.000002 0.006627
# 5 -0.005019 -0.003023 0.001627 -0.000002 0.034954 0.000020
# 6 -0.000015 -0.000013 0.000007 0.006627 0.000020 0.041209
#
#
# Mechanical properties :
#
#
# Convention : Reuss Voigt Hill
#
# Bulk Modulus (GPa) = 34.37401 61.13478 47.75440
# Shear Modulus (GPa) = 22.09473 27.11176 24.60325
#
# Velocity S-wave (km/s) = 3.39522 3.76099 3.58277
# Velocity P-wave (km/s) = 5.77096 7.12432 6.48305
#
# Compressibility (1/GPa) = 0.02909175
#
# Stress axis : x y z
#
# Youngs Moduli (GPa) = 62.92374 25.28795 98.60297
#
# Poissons Ratio (x) = 0.17044 0.48445
# Poissons Ratio (y) = 0.42410 0.64982
# Poissons Ratio (z) = 0.30915 0.16665
#
# Static dielectric constant tensor:
#      x y z
#    x 3.643110 -0.000010 0.182780 
#    y -0.000010 3.166360 0.000100 
#    z 0.182780 0.000100 3.733090 
# 
# 
# High freq. dielectric constant tensor:
#      x y z
#    x 1.756150 0.000000 0.008320 
#    y 0.000000 1.710920 0.000000 
#    z 0.008320 0.000000 1.759050 
# 
# From -- ./inp_files/382316.got.cif
#   From: 2010.06.25/outbox.cif.g09.slc.cpg/sg12_192_cif.got.tgz:382316.got - 2010.06.28 00:19:55.
