data_PCOD8088772
_publ_section_title
;
Structure prediction by ZEFSAII (Michael W. Deem and Ramdas Pophale) SiO2 
 PCOD8088772
Probable space group: C 2/M
;
_chemical_formula_sum "Si O2"
_cell_formula_units_Z 56
_cell_length_a 19.112465
_cell_length_b 8.573970
_cell_length_c 27.124925
_cell_angle_alpha 90.000000
_cell_angle_beta 138.737300
_cell_angle_gamma 90.000000
_cell_volume 2931.502080
_symmetry_space_group_name_H-M "C 2/M"
_symmetry_group_IT_number 12
_symmetry_cell_setting 'monoclinic'
loop_
_space_group_symop_operation_xyz
x,y,z
-x,y,-z
-x,-y,-z
x,-y,z
1/2+x,1/2+y,z
1/2-x,1/2+y,-z
1/2-x,1/2-y,-z
1/2+x,1/2-y,z
loop_
_atom_site_type_symbol
_atom_site_label
_atom_site_fract_x
_atom_site_fract_y
_atom_site_fract_z
Si Si1 0.185015 0.676023 0.296492
Si Si2 0.077707 0.184888 0.583214
Si Si3 0.473784 0.187041 0.232225
Si Si4 0.212228 0.673987 0.202925
Si Si5 0.876931 0.828161 0.933784
Si Si6 0.270682 0.314361 0.065481
Si Si7 0.428036 0.822160 0.317561
O O1 0.195219 0.500000 0.321217
O O2 0.303005 0.753546 0.363721
O O3 0.148338 0.683216 0.220145
O O4 0.088332 0.755060 0.275134
O O5 0.030299 0.231985 0.611682
O O6 0.000000 0.251345 0.500000
O O7 0.083567 0.000000 0.585110
O O8 0.379770 0.256745 0.148874
O O9 0.468746 0.243491 0.286530
O O10 0.466891 0.000000 0.224234
O O11 0.261828 0.500000 0.223376
O O12 0.134702 0.711184 0.117803
O O13 0.302099 0.804790 0.249562
O O14 0.829408 0.745870 0.956525
O O15 0.822842 0.000000 0.898609
O O16 0.000000 0.855282 0.000000
O O17 0.272757 0.500000 0.064997
O O18 0.250000 0.250000 0.000000
O O19 0.462298 0.000000 0.341846
#
# Coordination Sequence:
#
# PCOD8088772 Si02
#       7
#     8   8   8   8   8   8   8
#     4   8  17  33  55  82 109 144 189 228 273 335
#     4   9  18  35  59  84 112 147 189 235 280 336
#     4  10  20  37  58  81 113 151 190 235 286 341
#     4  10  19  34  56  80 106 143 190 234 276 331
#     4  11  24  40  57  81 113 145 187 241 291 340
#     4  12  26  42  60  82 113 153 196 242 296 349
#     4  10  19  32  55  81 110 146 183 229 283 337
#
# _framework density 19.102836
#
# number of rings (size 3 to 8) (size 9 to 14) (size 15 to 20)
#    0.000    2.000    1.429    3.429    2.000    2.000 
#    0.000    3.571    0.000    0.000    0.000    0.000 
#    0.000    0.000    0.000    0.000    0.000    0.000 
#
# Total GULP energy -346893.396896 kJ/mol
# GULP energy per Si atom -12389.049889 kJ/mol
# Density = 1.905936 g / cm^3
# Si number density = 19.102836 Si / 1000 Ang^3
#
#
#
# Elastic Constant Matrix: (Units=GPa)
#
#
# Indices 1 2 3 4 5 6 
#
# 1 146.0072 38.5929 77.7480 0.0000 -11.5367 0.0000
# 2 38.5929 60.3408 31.9977 0.0000 -7.0366 0.0002
# 3 77.7480 31.9977 137.6934 0.0000 -23.5608 0.0000
# 4 0.0000 0.0000 0.0000 23.3764 0.0000 -5.4491
# 5 -11.5367 -7.0366 -23.5608 0.0000 25.4958 0.0000
# 6 0.0000 0.0002 0.0000 -5.4491 0.0000 23.0370
#
#
#
# Elastic Compliance Matrix: (Units=1/GPa)
#
#
# Indices 1 2 3 4 5 6 
#
# 1 0.010652 -0.004167 -0.005248 0.000000 -0.001180 0.000000
# 2 -0.004167 0.020573 -0.002113 0.000000 0.001840 0.000000
# 3 -0.005248 -0.002113 0.012128 0.000000 0.008250 0.000000
# 4 0.000000 0.000000 0.000000 0.045275 0.000000 0.010709
# 5 -0.001180 0.001840 0.008250 0.000000 0.046820 0.000000
# 6 0.000000 0.000000 0.000000 0.010709 0.000000 0.045942
#
#
# Mechanical properties :
#
#
# Convention : Reuss Voigt Hill
#
# Bulk Modulus (GPa) = 49.26937 71.19097 60.23017
# Shear Modulus (GPa) = 23.67296 27.42868 25.55082
#
# Velocity S-wave (km/s) = 3.52410 3.79336 3.66121
# Velocity P-wave (km/s) = 6.51204 7.51893 7.03353
#
# Compressibility (1/GPa) = 0.02029659
#
# Stress axis : x y z
#
# Youngs Moduli (GPa) = 93.88096 48.60763 82.45075
#
# Poissons Ratio (x) = 0.20257 0.43270
# Poissons Ratio (y) = 0.39124 0.17421
# Poissons Ratio (z) = 0.49268 0.10270
#
# Static dielectric constant tensor:
#      x y z
#    x 3.701830 0.000000 -0.135900 
#    y 0.000000 3.489050 0.000000 
#    z -0.135900 0.000000 3.526030 
# 
# 
# High freq. dielectric constant tensor:
#      x y z
#    x 1.745010 0.000000 -0.014650 
#    y 0.000000 1.730530 0.000000 
#    z -0.014650 0.000000 1.734990 
# 
# From -- ./inp_files/342578.got.cif
#   From: 2010.06.25/outbox.cif.g09.slc.cpg/sg12_172_cif.got.tgz:342578.got - 2010.06.28 00:19:55.
