data_PCOD8088180
_publ_section_title
;
Structure prediction by ZEFSAII (Michael W. Deem and Ramdas Pophale) SiO2 
 PCOD8088180
Probable space group: C 2/M
;
_chemical_formula_sum "Si O2"
_cell_formula_units_Z 40
_cell_length_a 29.914558
_cell_length_b 7.725952
_cell_length_c 28.316242
_cell_angle_alpha 90.000000
_cell_angle_beta 160.905522
_cell_angle_gamma 90.000000
_cell_volume 2140.850650
_symmetry_space_group_name_H-M "C 2/M"
_symmetry_group_IT_number 12
_symmetry_cell_setting 'monoclinic'
loop_
_space_group_symop_operation_xyz
x,y,z
-x,y,-z
-x,-y,-z
x,-y,z
1/2+x,1/2+y,z
1/2-x,1/2+y,-z
1/2-x,1/2-y,-z
1/2+x,1/2-y,z
loop_
_atom_site_type_symbol
_atom_site_label
_atom_site_fract_x
_atom_site_fract_y
_atom_site_fract_z
Si Si1 0.905163 0.691220 0.790806
Si Si2 0.406516 0.699265 0.523845
Si Si3 0.409048 0.303861 0.104716
Si Si4 0.089661 0.000000 0.135921
Si Si5 0.409201 0.000000 0.455485
Si Si6 0.388563 0.296862 0.189760
O O1 0.914627 0.500000 0.823353
O O2 0.751075 0.729619 0.620138
O O3 0.000539 0.691089 0.840206
O O4 0.952322 0.830429 0.876411
O O5 0.436286 0.500000 0.538601
O O6 0.447906 0.826335 0.522708
O O7 0.491235 0.752761 0.654583
O O8 0.460893 0.500000 0.152578
O O9 0.428923 0.230551 0.177709
O O10 0.250069 0.294119 0.931280
O O11 0.249450 0.000000 0.282203
O O12 0.000000 0.000000 0.000000
O O13 0.500000 0.000000 0.500000
O O14 0.360159 0.500000 0.159367
#
# Coordination Sequence:
#
# PCOD8088180 Si02
#       6
#     8   8   8   4   4   8
#     4  10  20  37  58  80 110 146 182 225 276 326
#     4   9  20  38  57  79 110 144 181 227 272 325
#     4  10  19  32  52  80 114 148 185 227 269 322
#     4  10  22  40  58  82 112 140 184 234 275 330
#     4  10  22  38  58  84 108 140 184 228 279 332
#     4   9  19  34  51  78 113 148 186 226 271 323
#
# _framework density 18.684162000000001
#
# number of rings (size 3 to 8) (size 9 to 14) (size 15 to 20)
#    0.000    2.400    1.000    0.600    1.400    4.000 
#    0.000    0.000    0.000    0.000    0.000    0.000 
#    0.000    0.000    0.000    0.000    0.000    0.000 
#
# Total GULP energy -248024.585425 kJ/mol
# GULP energy per Si atom -12401.229271 kJ/mol
# Density = 1.864164 g / cm^3
# Si number density = 18.684162 Si / 1000 Ang^3
#
#
#
# Elastic Constant Matrix: (Units=GPa)
#
#
# Indices 1 2 3 4 5 6 
#
# 1 137.4167 57.4760 76.8825 -0.0002 1.8907 0.0000
# 2 57.4760 99.2687 47.0755 0.0001 -7.2341 0.0005
# 3 76.8825 47.0755 102.2620 0.0018 -21.3863 0.0007
# 4 -0.0002 0.0001 0.0018 22.7463 -0.0001 2.2997
# 5 1.8907 -7.2341 -21.3863 -0.0001 34.9394 0.0002
# 6 0.0000 0.0005 0.0007 2.2997 0.0002 22.3875
#
#
#
# Elastic Compliance Matrix: (Units=1/GPa)
#
#
# Indices 1 2 3 4 5 6 
#
# 1 0.015733 -0.004177 -0.011771 0.000001 -0.008921 0.000000
# 2 -0.004177 0.014033 -0.003056 0.000000 0.001261 0.000000
# 3 -0.011771 -0.003056 0.022977 -0.000002 0.014069 -0.000001
# 4 0.000001 0.000000 -0.000002 0.044425 -0.000001 -0.004563
# 5 -0.008921 0.001261 0.014069 -0.000001 0.037976 -0.000001
# 6 0.000000 0.000000 -0.000001 -0.004563 -0.000001 0.045137
#
#
# Mechanical properties :
#
#
# Convention : Reuss Voigt Hill
#
# Bulk Modulus (GPa) = 67.86385 77.97948 72.92167
# Shear Modulus (GPa) = 22.40137 26.51552 24.45845
#
# Velocity S-wave (km/s) = 3.46634 3.77124 3.62200
# Velocity P-wave (km/s) = 7.24024 7.79674 7.52364
#
# Compressibility (1/GPa) = 0.01473539
#
# Stress axis : x y z
#
# Youngs Moduli (GPa) = 63.56183 71.25897 43.52109
#
# Poissons Ratio (x) = 0.29767 0.51228
# Poissons Ratio (y) = 0.26551 0.13299
# Poissons Ratio (z) = 0.74818 0.21776
#
# Static dielectric constant tensor:
#      x y z
#    x 3.234400 0.000000 -0.006690 
#    y 0.000000 3.594150 0.000000 
#    z -0.006690 0.000000 3.379490 
# 
# 
# High freq. dielectric constant tensor:
#      x y z
#    x 1.708570 0.000000 0.003250 
#    y 0.000000 1.739720 0.000000 
#    z 0.003250 0.000000 1.721450 
# 
# From -- ./inp_files/368932.got.cif
#   From: 2010.06.25/outbox.cif.g09.slc.cpg/sg12_185_cif.got.tgz:368932.got - 2010.06.28 00:19:55.
