data_PCOD8088361
_publ_section_title
;
Structure prediction by ZEFSAII (Michael W. Deem and Ramdas Pophale) SiO2 
 PCOD8088361
Probable space group: C 2/M
;
_chemical_formula_sum "Si O2"
_cell_formula_units_Z 60
_cell_length_a 26.349663
_cell_length_b 9.799455
_cell_length_c 12.389838
_cell_angle_alpha 90.000000
_cell_angle_beta 77.359823
_cell_angle_gamma 90.000000
_cell_volume 3121.671571
_symmetry_space_group_name_H-M "C 2/M"
_symmetry_group_IT_number 12
_symmetry_cell_setting 'monoclinic'
loop_
_space_group_symop_operation_xyz
x,y,z
-x,y,-z
-x,-y,-z
x,-y,z
1/2+x,1/2+y,z
1/2-x,1/2+y,-z
1/2-x,1/2-y,-z
1/2+x,1/2-y,z
loop_
_atom_site_type_symbol
_atom_site_label
_atom_site_fract_x
_atom_site_fract_y
_atom_site_fract_z
Si Si1 0.112557 0.347410 0.917289
Si Si2 0.500000 0.752570 0.000000
Si Si3 0.624424 0.157608 0.153863
Si Si4 0.156622 0.839330 0.500952
Si Si5 0.959726 0.839665 0.433163
Si Si6 0.530089 0.346873 0.210406
Si Si7 0.676559 0.655738 0.736540
Si Si8 0.206029 0.656659 0.296465
O O1 0.130165 0.500000 0.878824
O O2 0.049751 0.345429 0.949135
O O3 0.134512 0.246370 0.817571
O O4 0.135743 0.305463 0.023685
O O5 0.485923 0.656430 0.906559
O O6 0.576931 0.247189 0.220314
O O7 0.674947 0.191182 0.201511
O O8 0.607628 0.000000 0.171220
O O9 0.097836 0.780578 0.522847
O O10 0.178685 0.807757 0.609257
O O11 0.190261 0.756431 0.399865
O O12 0.160311 0.000000 0.472364
O O13 0.000000 0.774473 0.500000
O O14 0.979846 0.804307 0.303975
O O15 0.955913 0.000000 0.453011
O O16 0.548108 0.500000 0.231783
O O17 0.658143 0.500000 0.760326
O O18 0.733578 0.680744 0.759355
O O19 0.196507 0.500000 0.337307
#
# Coordination Sequence:
#
# PCOD8088361 Si02
#       8
#     8   4   8   8   8   8   8   8
#     4  10  21  37  57  80 108 144 182 217 262 322
#     4  10  20  34  54  80 112 140 170 216 268 312
#     4   9  20  37  54  76 109 144 179 224 273 319
#     4  10  20  35  55  79 107 139 178 224 271 322
#     4   9  17  29  47  73 104 134 166 210 261 310
#     4  10  19  32  53  79 106 140 181 219 262 319
#     4  10  22  38  56  80 110 141 177 227 278 319
#     4  10  21  38  57  77 106 143 180 224 278 325
#
# _framework density 19.220471
#
# number of rings (size 3 to 8) (size 9 to 14) (size 15 to 20)
#    0.000    2.267    0.000    2.400    0.000    7.467 
#    0.000    0.667    0.000    2.400    0.000    0.000 
#    0.000    0.000    0.000    0.000    0.000    0.000 
#
# Total GULP energy -372012.008683 kJ/mol
# GULP energy per Si atom -12400.400289 kJ/mol
# Density = 1.917672 g / cm^3
# Si number density = 19.220471 Si / 1000 Ang^3
#
#
#
# Elastic Constant Matrix: (Units=GPa)
#
#
# Indices 1 2 3 4 5 6 
#
# 1 108.8420 29.4908 38.4864 0.0000 9.4286 0.0000
# 2 29.4908 70.8081 45.2597 0.0000 -4.8218 0.0000
# 3 38.4864 45.2597 88.8280 0.0000 -1.6971 0.0000
# 4 0.0000 0.0000 0.0000 31.4717 0.0000 -4.7186
# 5 9.4286 -4.8218 -1.6971 0.0000 29.0714 0.0000
# 6 0.0000 0.0000 0.0000 -4.7186 0.0000 18.9484
#
#
#
# Elastic Compliance Matrix: (Units=1/GPa)
#
#
# Indices 1 2 3 4 5 6 
#
# 1 0.011639 -0.002778 -0.003712 0.000000 -0.004452 0.000000
# 2 -0.002778 0.021846 -0.009852 0.000000 0.003949 0.000000
# 3 -0.003712 -0.009852 0.017898 0.000000 0.000615 0.000000
# 4 0.000000 0.000000 0.000000 0.033007 0.000000 0.008220
# 5 -0.004452 0.003949 0.000615 0.000000 0.036533 0.000000
# 6 0.000000 0.000000 0.000000 0.008220 0.000000 0.054822
#
#
# Mechanical properties :
#
#
# Convention : Reuss Voigt Hill
#
# Bulk Modulus (GPa) = 53.48153 54.99466 54.23810
# Shear Modulus (GPa) = 23.29263 26.24772 24.77017
#
# Velocity S-wave (km/s) = 3.48496 3.69943 3.59380
# Velocity P-wave (km/s) = 6.63920 6.84999 6.74542
#
# Compressibility (1/GPa) = 0.01869804
#
# Stress axis : x y z
#
# Youngs Moduli (GPa) = 85.92095 45.77564 55.87297
#
# Poissons Ratio (x) = 0.12714 0.20743
# Poissons Ratio (y) = 0.23865 0.55046
# Poissons Ratio (z) = 0.31898 0.45098
#
# Static dielectric constant tensor:
#      x y z
#    x 3.675560 0.000000 0.167070 
#    y 0.000000 3.306040 0.000000 
#    z 0.167070 0.000000 3.457600 
# 
# 
# High freq. dielectric constant tensor:
#      x y z
#    x 1.755300 0.000000 0.009540 
#    y 0.000000 1.729320 0.000000 
#    z 0.009540 0.000000 1.748280 
# 
# From -- ./inp_files/187331.got.cif
#   From: 2010.06.25/outbox.cif.g09.slc.cpg/sg12_94_cif.got.tgz:187331.got - 2010.06.28 00:19:55.
