data_PCOD8088356
_publ_section_title
;
Structure prediction by ZEFSAII (Michael W. Deem and Ramdas Pophale) SiO2 
 PCOD8088356
Probable space group: C 2/M
;
_chemical_formula_sum "Si O2"
_cell_formula_units_Z 64
_cell_length_a 20.636196
_cell_length_b 9.405246
_cell_length_c 24.109618
_cell_angle_alpha 90.000000
_cell_angle_beta 48.712599
_cell_angle_gamma 90.000000
_cell_volume 3516.144117
_symmetry_space_group_name_H-M "C 2/M"
_symmetry_group_IT_number 12
_symmetry_cell_setting 'monoclinic'
loop_
_space_group_symop_operation_xyz
x,y,z
-x,y,-z
-x,-y,-z
x,-y,z
1/2+x,1/2+y,z
1/2-x,1/2+y,-z
1/2-x,1/2-y,-z
1/2+x,1/2-y,z
loop_
_atom_site_type_symbol
_atom_site_label
_atom_site_fract_x
_atom_site_fract_y
_atom_site_fract_z
Si Si1 0.312820 0.159306 0.499920
Si Si2 0.732394 0.836291 0.165579
Si Si3 0.498988 0.833961 0.638680
Si Si4 0.056685 0.835213 0.806379
Si Si5 0.576873 0.666106 0.920439
Si Si6 0.062436 0.337669 0.203779
Si Si7 0.256670 0.659582 0.337982
Si Si8 0.342189 0.331438 0.692612
O O1 0.250000 0.250000 0.500000
O O2 0.408612 0.216751 0.435256
O O3 0.283417 0.169234 0.579222
O O4 0.308201 0.000000 0.479830
O O5 0.833369 0.805405 0.096931
O O6 0.666656 0.811596 0.151004
O O7 0.708365 0.725070 0.225929
O O8 0.720561 0.000000 0.193186
O O9 0.484677 0.798985 0.711690
O O10 0.435741 0.739963 0.637046
O O11 0.481493 0.000000 0.636910
O O12 0.075619 0.774342 0.857884
O O13 0.140965 0.809275 0.720735
O O14 0.975324 0.756668 0.824534
O O15 0.031617 0.000000 0.822815
O O16 0.560306 0.500000 0.924812
O O17 0.500000 0.736974 0.000000
O O18 0.043830 0.500000 0.198428
O O19 0.241227 0.500000 0.321912
O O20 0.210173 0.783626 0.331265
O O21 0.350287 0.500000 0.690090
#
# Coordination Sequence:
#
# PCOD8088356 Si02
#       8
#     8   8   8   8   8   8   8   8
#     4  10  21  35  53  74 101 139 180 221 269 320
#     4   9  17  35  57  77 107 143 178 214 258 321
#     4   9  19  36  53  72 103 143 180 214 262 321
#     4  10  19  32  53  79 106 135 174 224 262 303
#     4   9  17  32  57  83 104 136 181 219 254 310
#     4   9  18  31  52  76 103 141 176 213 260 312
#     4  10  20  35  53  74 102 139 177 215 266 320
#     4  11  21  32  52  80 103 133 175 224 269 309
#
# _framework density 18.201757000000001
#
# number of rings (size 3 to 8) (size 9 to 14) (size 15 to 20)
#    0.000    2.375    1.250    2.625    0.000    4.000 
#    0.000    3.125    0.000    1.500    0.000    0.000 
#    0.000    0.000    0.000    0.000    0.000    0.000 
#
# Total GULP energy -396618.148691 kJ/mol
# GULP energy per Si atom -12394.317147 kJ/mol
# Density = 1.816033 g / cm^3
# Si number density = 18.201757 Si / 1000 Ang^3
#
#
#
# Elastic Constant Matrix: (Units=GPa)
#
#
# Indices 1 2 3 4 5 6 
#
# 1 139.7580 55.6058 51.3789 0.0000 -21.0904 0.0000
# 2 55.6058 77.2344 19.9968 0.0000 -7.6246 -0.0001
# 3 51.3789 19.9968 86.0295 0.0000 -25.7278 0.0000
# 4 0.0000 0.0000 0.0000 11.8452 0.0000 0.5177
# 5 -21.0904 -7.6246 -25.7278 0.0000 28.0601 0.0000
# 6 0.0000 -0.0001 0.0000 0.5177 0.0000 36.3141
#
#
#
# Elastic Compliance Matrix: (Units=1/GPa)
#
#
# Indices 1 2 3 4 5 6 
#
# 1 0.012239 -0.007298 -0.004760 0.000000 0.002851 0.000000
# 2 -0.007298 0.018153 -0.000036 0.000000 -0.000586 0.000000
# 3 -0.004760 -0.000036 0.018466 0.000000 0.013343 0.000000
# 4 0.000000 0.000000 0.000000 0.084475 0.000000 -0.001204
# 5 0.002851 -0.000586 0.013343 0.000000 0.049856 0.000000
# 6 0.000000 0.000000 0.000000 -0.001204 0.000000 0.027555
#
#
# Mechanical properties :
#
#
# Convention : Reuss Voigt Hill
#
# Bulk Modulus (GPa) = 40.53663 61.88721 51.21192
# Shear Modulus (GPa) = 20.56295 26.97991 23.77143
#
# Velocity S-wave (km/s) = 3.36478 3.85420 3.61778
# Velocity P-wave (km/s) = 6.11676 7.34037 6.75632
#
# Compressibility (1/GPa) = 0.02466905
#
# Stress axis : x y z
#
# Youngs Moduli (GPa) = 81.70509 55.08662 54.15417
#
# Poissons Ratio (x) = 0.40200 0.25780
# Poissons Ratio (y) = 0.59626 0.00197
# Poissons Ratio (z) = 0.38896 0.00200
#
# Static dielectric constant tensor:
#      x y z
#    x 3.400000 0.000000 -0.220370 
#    y 0.000000 3.167930 0.000000 
#    z -0.220370 0.000000 3.302770 
# 
# 
# High freq. dielectric constant tensor:
#      x y z
#    x 1.711640 0.000000 -0.015280 
#    y 0.000000 1.684250 0.000000 
#    z -0.015280 0.000000 1.690320 
# 
# From -- ./inp_files/346069.got.cif
#   From: 2010.06.25/outbox.cif.g09.slc.cpg/sg12_174_cif.got.tgz:346069.got - 2010.06.28 00:19:55.
