data_PCOD8088135
_publ_section_title
;
Structure prediction by ZEFSAII (Michael W. Deem and Ramdas Pophale) SiO2 
 PCOD8088135
Probable space group: C 2/M
;
_chemical_formula_sum "Si O2"
_cell_formula_units_Z 40
_cell_length_a 25.147945
_cell_length_b 8.793191
_cell_length_c 29.295914
_cell_angle_alpha 90.000000
_cell_angle_beta 160.086530
_cell_angle_gamma 90.000000
_cell_volume 2206.487480
_symmetry_space_group_name_H-M "C 2/M"
_symmetry_group_IT_number 12
_symmetry_cell_setting 'monoclinic'
loop_
_space_group_symop_operation_xyz
x,y,z
-x,y,-z
-x,-y,-z
x,-y,z
1/2+x,1/2+y,z
1/2-x,1/2+y,-z
1/2-x,1/2-y,-z
1/2+x,1/2-y,z
loop_
_atom_site_type_symbol
_atom_site_label
_atom_site_fract_x
_atom_site_fract_y
_atom_site_fract_z
Si Si1 0.081031 0.321043 0.360141
Si Si2 0.517726 0.680295 0.905966
Si Si3 0.580221 0.821717 0.864939
Si Si4 0.665995 0.667932 0.158088
Si Si5 0.307861 0.678714 0.191656
O O1 0.087670 0.500000 0.374193
O O2 0.250000 0.250000 0.500000
O O3 0.012766 0.280897 0.255598
O O4 0.976018 0.244101 0.314347
O O5 0.538415 0.500000 0.919600
O O6 0.483325 0.750452 0.828762
O O7 0.370173 0.723877 0.819366
O O8 0.679626 0.745591 0.055710
O O9 0.597855 0.000000 0.886506
O O10 0.750000 0.750000 0.000000
O O11 0.743523 0.500000 0.220816
O O12 0.777358 0.783015 0.220530
O O13 0.500000 0.657798 0.000000
O O14 0.303344 0.500000 0.180795
#
# Coordination Sequence:
#
# PCOD8088135 Si02
#       5
#     8   8   8   8   8
#     4  11  24  40  57  79 110 147 186 226 273 329
#     4  10  19  32  52  79 111 144 180 224 273 322
#     4  11  22  35  56  82 111 145 181 225 276 327
#     4   8  16  30  48  73 107 143 177 220 272 322
#     4  11  20  31  52  79 109 144 182 225 272 323
#
# _framework density 18.128361000000002
#
# number of rings (size 3 to 8) (size 9 to 14) (size 15 to 20)
#    0.000    1.800    2.000    4.800    0.000    6.800 
#    0.000    0.000    0.000    1.200    0.000    8.400 
#    0.000    0.000    0.000    0.000    0.000    0.000 
#
# Total GULP energy -247992.683312 kJ/mol
# GULP energy per Si atom -12399.634166 kJ/mol
# Density = 1.808710 g / cm^3
# Si number density = 18.128361 Si / 1000 Ang^3
#
#
#
# Elastic Constant Matrix: (Units=GPa)
#
#
# Indices 1 2 3 4 5 6 
#
# 1 155.2237 68.2063 53.5441 -0.0007 19.7587 -0.0005
# 2 68.2063 115.4349 53.4691 -0.0072 6.9553 -0.0017
# 3 53.5441 53.4691 85.5534 0.0109 11.7623 -0.0017
# 4 -0.0007 -0.0072 0.0109 25.3279 -0.0033 3.9729
# 5 19.7587 6.9553 11.7623 -0.0033 22.4704 -0.0004
# 6 -0.0005 -0.0017 -0.0017 3.9729 -0.0004 35.4016
#
#
#
# Elastic Compliance Matrix: (Units=1/GPa)
#
#
# Indices 1 2 3 4 5 6 
#
# 1 0.010058 -0.004290 -0.002781 0.000000 -0.006061 0.000000
# 2 -0.004290 0.014023 -0.006467 0.000007 0.002816 0.000000
# 3 -0.002781 -0.006467 0.018166 -0.000011 -0.005063 0.000002
# 4 0.000000 0.000007 -0.000011 0.040190 0.000010 -0.004510
# 5 -0.006061 0.002816 -0.005063 0.000010 0.051611 -0.000001
# 6 0.000000 0.000000 0.000002 -0.004510 -0.000001 0.028754
#
#
# Mechanical properties :
#
#
# Convention : Reuss Voigt Hill
#
# Bulk Modulus (GPa) = 65.90390 78.51680 72.21035
# Shear Modulus (GPa) = 25.64986 28.70614 27.17800
#
# Velocity S-wave (km/s) = 3.76560 3.98363 3.87615
# Velocity P-wave (km/s) = 7.43904 8.03522 7.74287
#
# Compressibility (1/GPa) = 0.01517361
#
# Stress axis : x y z
#
# Youngs Moduli (GPa) = 99.42461 71.31051 55.04672
#
# Poissons Ratio (x) = 0.30590 0.15306
# Poissons Ratio (y) = 0.42650 0.35597
# Poissons Ratio (z) = 0.27645 0.46114
#
# Static dielectric constant tensor:
#      x y z
#    x 4.202240 -0.000090 0.032340 
#    y -0.000090 3.454250 0.000030 
#    z 0.032340 0.000030 3.028520 
# 
# 
# High freq. dielectric constant tensor:
#      x y z
#    x 1.723240 0.000000 0.018380 
#    y 0.000000 1.714840 0.000000 
#    z 0.018380 0.000000 1.650380 
# 
# From -- ./inp_files/101095.got.cif
#   From: 2010.06.25/outbox.cif.g09.slc.cpg/sg12_51_cif.got.tgz:101095.got - 2010.06.28 00:19:55.
