data_PCOD8088213
_publ_section_title
;
Structure prediction by ZEFSAII (Michael W. Deem and Ramdas Pophale) SiO2 
 PCOD8088213
Probable space group: C 2/M
;
_chemical_formula_sum "Si O2"
_cell_formula_units_Z 56
_cell_length_a 25.405576
_cell_length_b 8.896462
_cell_length_c 15.179197
_cell_angle_alpha 90.000000
_cell_angle_beta 52.101500
_cell_angle_gamma 90.000000
_cell_volume 2707.243416
_symmetry_space_group_name_H-M "C 2/M"
_symmetry_group_IT_number 12
_symmetry_cell_setting 'monoclinic'
loop_
_space_group_symop_operation_xyz
x,y,z
-x,y,-z
-x,-y,-z
x,-y,z
1/2+x,1/2+y,z
1/2-x,1/2+y,-z
1/2-x,1/2-y,-z
1/2+x,1/2-y,z
loop_
_atom_site_type_symbol
_atom_site_label
_atom_site_fract_x
_atom_site_fract_y
_atom_site_fract_z
Si Si1 0.778532 0.821619 0.243735
Si Si2 0.368967 0.674082 0.993736
Si Si3 0.996442 0.338525 0.903625
Si Si4 0.578089 0.321121 0.239115
Si Si5 0.139590 0.826656 0.357221
Si Si6 0.138494 0.323377 0.690195
Si Si7 0.072358 0.827342 0.607359
O O1 0.702383 0.776660 0.313168
O O2 0.805245 0.754171 0.308148
O O3 0.786474 0.000000 0.240257
O O4 0.817431 0.752804 0.117092
O O5 0.353790 0.500000 0.010433
O O6 0.444160 0.705823 0.945053
O O7 0.368767 0.732001 0.891665
O O8 0.978795 0.500000 0.874117
O O9 0.067595 0.275990 0.802139
O O10 0.000000 0.379687 0.000000
O O11 0.572440 0.500000 0.247847
O O12 0.605390 0.262104 0.303970
O O13 0.502504 0.260088 0.297519
O O14 0.085623 0.810491 0.489897
O O15 0.162344 0.000000 0.322650
O O16 0.153138 0.500000 0.673967
O O17 0.132195 0.260536 0.596896
O O18 0.076348 0.000000 0.632878
#
# Coordination Sequence:
#
# PCOD8088213 Si02
#       7
#     8   8   8   8   8   8   8
#     4  11  24  39  56  83 119 157 193 230 279 340
#     4  10  20  34  57  86 115 148 187 230 281 337
#     4  10  19  32  52  82 117 148 182 229 286 341
#     4   9  18  36  62  89 114 143 188 240 285 336
#     4  10  22  40  61  83 112 154 197 235 280 335
#     4  11  22  36  58  87 118 151 187 231 288 346
#     4  10  20  37  63  90 113 144 190 241 288 334
#
# _framework density 20.685248999999999
#
# number of rings (size 3 to 8) (size 9 to 14) (size 15 to 20)
#    0.000    1.857    2.857    1.286    0.000    4.857 
#    0.000    1.429    0.000    1.714    0.000    0.000 
#    0.000    0.000    0.000    0.000    0.000    0.000 
#
# Total GULP energy -346947.199767 kJ/mol
# GULP energy per Si atom -12390.971420 kJ/mol
# Density = 2.063817 g / cm^3
# Si number density = 20.685249 Si / 1000 Ang^3
#
#
#
# Elastic Constant Matrix: (Units=GPa)
#
#
# Indices 1 2 3 4 5 6 
#
# 1 119.6687 28.1625 30.8918 0.0000 18.1337 0.0000
# 2 28.1625 47.3451 20.7616 0.0004 7.4698 -0.0001
# 3 30.8918 20.7616 63.1942 0.0001 15.8390 -0.0001
# 4 0.0000 0.0004 0.0001 21.3036 0.0000 -3.3430
# 5 18.1337 7.4698 15.8390 0.0000 36.7649 0.0000
# 6 0.0000 -0.0001 -0.0001 -3.3430 0.0000 29.6384
#
#
#
# Elastic Compliance Matrix: (Units=1/GPa)
#
#
# Indices 1 2 3 4 5 6 
#
# 1 0.010654 -0.004565 -0.002941 0.000000 -0.003060 0.000000
# 2 -0.004565 0.026728 -0.006449 0.000000 -0.000401 0.000000
# 3 -0.002941 -0.006449 0.020951 0.000000 -0.006265 0.000000
# 4 0.000000 0.000000 0.000000 0.047786 0.000000 0.005390
# 5 -0.003060 -0.000401 -0.006265 0.000000 0.031490 0.000000
# 6 0.000000 0.000000 0.000000 0.005390 0.000000 0.034348
#
#
# Mechanical properties :
#
#
# Convention : Reuss Voigt Hill
#
# Bulk Modulus (GPa) = 32.87052 43.31555 38.09303
# Shear Modulus (GPa) = 23.80862 27.56750 25.68806
#
# Velocity S-wave (km/s) = 3.39631 3.65459 3.52782
# Velocity P-wave (km/s) = 5.59511 6.22847 5.92026
#
# Compressibility (1/GPa) = 0.03042240
#
# Stress axis : x y z
#
# Youngs Moduli (GPa) = 93.86503 37.41395 47.72996
#
# Poissons Ratio (x) = 0.17078 0.14039
# Poissons Ratio (y) = 0.42845 0.30783
# Poissons Ratio (z) = 0.27609 0.24130
#
# Static dielectric constant tensor:
#      x y z
#    x 3.631220 0.000000 0.237880 
#    y 0.000000 3.522970 0.000000 
#    z 0.237880 0.000000 4.058990 
# 
# 
# High freq. dielectric constant tensor:
#      x y z
#    x 1.797790 0.000000 0.013630 
#    y 0.000000 1.784570 0.000000 
#    z 0.013630 0.000000 1.823370 
# 
# From -- ./inp_files/238368.got.cif
#   From: 2010.06.25/outbox.cif.g09.slc.cpg/sg12_120_cif.got.tgz:238368.got - 2010.06.28 00:19:55.
