data_PCOD8088439
_publ_section_title
;
Structure prediction by ZEFSAII (Michael W. Deem and Ramdas Pophale) SiO2 
 PCOD8088439
Probable space group: C 2/M
;
_chemical_formula_sum "Si O2"
_cell_formula_units_Z 64
_cell_length_a 18.853718
_cell_length_b 9.182181
_cell_length_c 30.358394
_cell_angle_alpha 90.000000
_cell_angle_beta 42.009322
_cell_angle_gamma 90.000000
_cell_volume 3517.312918
_symmetry_space_group_name_H-M "C 2/M"
_symmetry_group_IT_number 12
_symmetry_cell_setting 'monoclinic'
loop_
_space_group_symop_operation_xyz
x,y,z
-x,y,-z
-x,-y,-z
x,-y,z
1/2+x,1/2+y,z
1/2-x,1/2+y,-z
1/2-x,1/2-y,-z
1/2+x,1/2-y,z
loop_
_atom_site_type_symbol
_atom_site_label
_atom_site_fract_x
_atom_site_fract_y
_atom_site_fract_z
Si Si1 0.091635 0.829872 0.927875
Si Si2 0.934236 0.833760 0.408985
Si Si3 0.661930 0.666394 0.267211
Si Si4 0.329011 0.829181 0.826799
Si Si5 0.136745 0.169194 0.810584
Si Si6 0.831785 0.171674 0.366434
Si Si7 0.905207 0.671692 0.512604
Si Si8 0.511997 0.669213 0.781151
O O1 0.206786 0.796118 0.895547
O O2 0.088076 0.772132 0.879180
O O3 0.068954 0.000000 0.936822
O O4 0.000000 0.754198 0.000000
O O5 0.059859 0.824351 0.344923
O O6 0.872942 0.767896 0.394584
O O7 0.906068 0.738915 0.463970
O O8 0.898667 0.000000 0.433821
O O9 0.689400 0.500000 0.242502
O O10 0.638606 0.754354 0.233677
O O11 0.758160 0.739782 0.249452
O O12 0.403254 0.759695 0.829768
O O13 0.349730 0.000000 0.813081
O O14 0.052490 0.194983 0.811564
O O15 0.169833 0.000000 0.799538
O O16 0.709140 0.213008 0.413772
O O17 0.903185 0.232489 0.293338
O O18 0.846983 0.000000 0.360597
O O19 0.918362 0.500000 0.501022
O O20 0.000000 0.733079 0.500000
O O21 0.488798 0.500000 0.782623
#
# Coordination Sequence:
#
# PCOD8088439 Si02
#       8
#     8   8   8   8   8   8   8   8
#     4   8  15  31  53  77 107 141 176 213 255 304
#     4  10  20  35  54  72  98 135 171 205 260 322
#     4  10  19  33  53  76 104 139 172 213 267 314
#     4  10  19  32  53  81 106 134 178 218 251 305
#     4   9  19  32  53  81 105 139 180 215 257 308
#     4   9  18  35  53  71  99 135 169 206 262 316
#     4  10  22  36  53  76 100 130 170 217 264 307
#     4  10  19  34  54  75 108 142 170 215 268 316
#
# _framework density 18.195709000000001
#
# number of rings (size 3 to 8) (size 9 to 14) (size 15 to 20)
#    0.000    2.500    1.250    1.875    1.750    1.750 
#    0.000    1.250    0.000    9.375    0.000    0.000 
#    0.000    0.000    0.000    0.000    0.000    0.000 
#
# Total GULP energy -396723.443003 kJ/mol
# GULP energy per Si atom -12397.607594 kJ/mol
# Density = 1.815429 g / cm^3
# Si number density = 18.195709 Si / 1000 Ang^3
#
#
#
# Elastic Constant Matrix: (Units=GPa)
#
#
# Indices 1 2 3 4 5 6 
#
# 1 124.1174 42.3167 56.2333 -0.0003 -7.5148 -0.0005
# 2 42.3167 56.3680 30.5898 -0.0005 -8.3820 -0.0045
# 3 56.2333 30.5898 97.1369 -0.0002 -7.5341 -0.0002
# 4 -0.0003 -0.0005 -0.0002 18.8439 0.0002 -3.5570
# 5 -7.5148 -8.3820 -7.5341 0.0002 21.4504 0.0000
# 6 -0.0005 -0.0045 -0.0002 -3.5570 0.0000 27.2267
#
#
#
# Elastic Compliance Matrix: (Units=1/GPa)
#
#
# Indices 1 2 3 4 5 6 
#
# 1 0.012722 -0.006699 -0.005255 0.000000 -0.000007 -0.000001
# 2 -0.006699 0.025748 -0.003733 0.000001 0.006403 0.000004
# 3 -0.005255 -0.003733 0.014656 0.000000 0.001848 -0.000001
# 4 0.000000 0.000001 0.000000 0.054409 0.000000 0.007108
# 5 -0.000007 0.006403 0.001848 0.000000 0.049768 0.000001
# 6 -0.000001 0.000004 -0.000001 0.007108 0.000001 0.037657
#
#
# Mechanical properties :
#
#
# Convention : Reuss Voigt Hill
#
# Bulk Modulus (GPa) = 45.97844 59.54465 52.76155
# Shear Modulus (GPa) = 21.40530 23.40304 22.40417
#
# Velocity S-wave (km/s) = 3.43358 3.59023 3.51278
# Velocity P-wave (km/s) = 6.40648 7.06979 6.74629
#
# Compressibility (1/GPa) = 0.02174932
#
# Stress axis : x y z
#
# Youngs Moduli (GPa) = 78.60620 38.83770 68.23050
#
# Poissons Ratio (x) = 0.26019 0.35858
# Poissons Ratio (y) = 0.52662 0.25474
# Poissons Ratio (z) = 0.41311 0.14500
#
# Static dielectric constant tensor:
#      x y z
#    x 3.479840 0.000000 -0.143600 
#    y 0.000000 3.205370 0.000000 
#    z -0.143600 0.000000 3.457810 
# 
# 
# High freq. dielectric constant tensor:
#      x y z
#    x 1.710300 0.000000 -0.009860 
#    y 0.000000 1.679250 0.000000 
#    z -0.009860 0.000000 1.697210 
# 
# From -- ./inp_files/314190.got.cif
#   From: 2010.06.25/outbox.cif.g09.slc.cpg/sg12_158_cif.got.tgz:314190.got - 2010.06.28 00:19:55.
