data_PCOD8088215
_publ_section_title
;
Structure prediction by ZEFSAII (Michael W. Deem and Ramdas Pophale) SiO2 
 PCOD8088215
Probable space group: C 2/M
;
_chemical_formula_sum "Si O2"
_cell_formula_units_Z 64
_cell_length_a 33.576327
_cell_length_b 8.921576
_cell_length_c 14.775861
_cell_angle_alpha 90.000000
_cell_angle_beta 133.749764
_cell_angle_gamma 90.000000
_cell_volume 3197.314418
_symmetry_space_group_name_H-M "C 2/M"
_symmetry_group_IT_number 12
_symmetry_cell_setting 'monoclinic'
loop_
_space_group_symop_operation_xyz
x,y,z
-x,y,-z
-x,-y,-z
x,-y,z
1/2+x,1/2+y,z
1/2-x,1/2+y,-z
1/2-x,1/2-y,-z
1/2+x,1/2-y,z
loop_
_atom_site_type_symbol
_atom_site_label
_atom_site_fract_x
_atom_site_fract_y
_atom_site_fract_z
Si Si1 0.564016 0.175779 0.244767
Si Si2 0.840392 0.323688 0.270956
Si Si3 0.663797 0.175819 0.529649
Si Si4 0.625725 0.326284 0.842053
Si Si5 0.454902 0.328404 0.126792
Si Si6 0.386639 0.675012 0.844358
Si Si7 0.724367 0.171807 0.299611
Si Si8 0.771941 0.672599 0.906511
O O1 0.612959 0.225604 0.388248
O O2 0.506784 0.219844 0.201067
O O3 0.569651 0.260658 0.158589
O O4 0.564875 0.000000 0.227688
O O5 0.847978 0.500000 0.270133
O O6 0.850104 0.273059 0.389685
O O7 0.884103 0.235264 0.275630
O O8 0.779341 0.274346 0.142884
O O9 0.718465 0.255464 0.577369
O O10 0.675096 0.000000 0.544814
O O11 0.642853 0.500000 0.868870
O O12 0.570776 0.301909 0.814482
O O13 0.674081 0.226205 0.958334
O O14 0.474123 0.500000 0.144177
O O15 0.409267 0.287344 0.979722
O O16 0.379698 0.500000 0.818254
O O17 0.327457 0.750274 0.733822
O O18 0.717711 0.194927 0.182914
O O19 0.724483 0.000000 0.329732
O O20 0.759440 0.500000 0.910628
#
# Coordination Sequence:
#
# PCOD8088215 Si02
#       8
#     8   8   8   8   8   8   8   8
#     4  11  24  41  62  86 111 148 196 244 287 335
#     4  10  20  35  56  81 112 151 191 231 279 337
#     4   9  21  41  60  81 116 156 193 233 286 343
#     4  11  21  35  55  82 115 150 189 231 280 339
#     4  10  23  41  60  84 116 153 190 231 287 347
#     4  11  22  39  62  87 118 153 187 230 290 351
#     4  10  20  34  58  90 119 149 190 238 283 333
#     4  10  19  32  52  82 118 151 185 229 282 337
#
# _framework density 20.016798999999999
#
# number of rings (size 3 to 8) (size 9 to 14) (size 15 to 20)
#    0.000    1.750    1.250    3.000    0.000    6.500 
#    0.000    0.625    0.000    3.750    0.000    0.000 
#    0.000    0.000    0.000    0.000    0.000    0.000 
#
# Total GULP energy -396944.859558 kJ/mol
# GULP energy per Si atom -12404.526861 kJ/mol
# Density = 1.997124 g / cm^3
# Si number density = 20.016799 Si / 1000 Ang^3
#
#
#
# Elastic Constant Matrix: (Units=GPa)
#
#
# Indices 1 2 3 4 5 6 
#
# 1 106.3566 41.5154 23.2566 0.0000 9.9698 0.0000
# 2 41.5154 72.6136 31.6914 0.0000 6.7768 0.0000
# 3 23.2566 31.6914 55.7777 0.0000 13.8462 0.0000
# 4 0.0000 0.0000 0.0000 27.2735 0.0000 2.3252
# 5 9.9698 6.7768 13.8462 0.0000 20.0418 0.0000
# 6 0.0000 0.0000 0.0000 2.3252 0.0000 40.0228
#
#
#
# Elastic Compliance Matrix: (Units=1/GPa)
#
#
# Indices 1 2 3 4 5 6 
#
# 1 0.012403 -0.006499 -0.000595 0.000000 -0.003562 0.000000
# 2 -0.006499 0.021742 -0.010406 0.000000 0.003070 0.000000
# 3 -0.000595 -0.010406 0.027932 0.000000 -0.015483 0.000000
# 4 0.000000 0.000000 0.000000 0.036848 0.000000 -0.002141
# 5 -0.003562 0.003070 -0.015483 0.000000 0.061326 0.000000
# 6 0.000000 0.000000 0.000000 -0.002141 0.000000 0.025110
#
#
# Mechanical properties :
#
#
# Convention : Reuss Voigt Hill
#
# Bulk Modulus (GPa) = 36.93021 47.51941 42.22481
# Shear Modulus (GPa) = 21.79725 26.68660 24.24192
#
# Velocity S-wave (km/s) = 3.30350 3.65528 3.48383
# Velocity P-wave (km/s) = 5.74809 6.45027 6.10928
#
# Compressibility (1/GPa) = 0.02707810
#
# Stress axis : x y z
#
# Youngs Moduli (GPa) = 80.62450 45.99333 35.80138
#
# Poissons Ratio (x) = 0.29893 0.02129
# Poissons Ratio (y) = 0.52401 0.37254
# Poissons Ratio (z) = 0.04794 0.47859
#
# Static dielectric constant tensor:
#      x y z
#    x 3.808730 0.000000 -0.189010 
#    y 0.000000 3.630670 0.000000 
#    z -0.189010 0.000000 3.493590 
# 
# 
# High freq. dielectric constant tensor:
#      x y z
#    x 1.790470 0.000000 -0.011050 
#    y 0.000000 1.787950 0.000000 
#    z -0.011050 0.000000 1.760930 
# 
# From -- ./inp_files/249933.got.cif
#   From: 2010.06.25/outbox.cif.g09.slc.cpg/sg12_125_cif.got.tgz:249933.got - 2010.06.28 00:19:55.
