data_PCOD8088401
_publ_section_title
;
Structure prediction by ZEFSAII (Michael W. Deem and Ramdas Pophale) SiO2 
 PCOD8088401
Probable space group: C 2/M
;
_chemical_formula_sum "Si O2"
_cell_formula_units_Z 48
_cell_length_a 27.624992
_cell_length_b 8.401734
_cell_length_c 20.817632
_cell_angle_alpha 90.000000
_cell_angle_beta 147.385445
_cell_angle_gamma 90.000000
_cell_volume 2604.227470
_symmetry_space_group_name_H-M "C 2/M"
_symmetry_group_IT_number 12
_symmetry_cell_setting 'monoclinic'
loop_
_space_group_symop_operation_xyz
x,y,z
-x,y,-z
-x,-y,-z
x,-y,z
1/2+x,1/2+y,z
1/2-x,1/2+y,-z
1/2-x,1/2-y,-z
1/2+x,1/2-y,z
loop_
_atom_site_type_symbol
_atom_site_label
_atom_site_fract_x
_atom_site_fract_y
_atom_site_fract_z
Si Si1 0.770305 0.185160 0.115671
Si Si2 0.441596 0.313912 0.495205
Si Si3 0.070270 0.811563 0.028123
Si Si4 0.449059 0.815143 0.265865
Si Si5 0.076418 0.814943 0.892069
Si Si6 0.271867 0.814312 0.252197
O O1 0.847872 0.249718 0.156236
O O2 0.802332 0.212110 0.224582
O O3 0.751908 0.000000 0.081815
O O4 0.682606 0.288196 0.003869
O O5 0.500000 0.249948 0.500000
O O6 0.425324 0.500000 0.470425
O O7 0.488241 0.278406 0.614844
O O8 0.344853 0.225598 0.388411
O O9 0.047313 0.751157 0.930238
O O10 0.061166 0.000000 0.018671
O O11 0.171549 0.762334 0.161796
O O12 0.000000 0.734422 0.000000
O O13 0.478050 0.779855 0.224346
O O14 0.454697 0.000000 0.288348
O O15 0.054747 0.000000 0.859953
O O16 0.272768 0.000000 0.235347
#
# Coordination Sequence:
#
# PCOD8088401 Si02
#       6
#     8   8   8   8   8   8
#     4  11  20  32  49  72 105 141 177 214 255 306
#     4  11  22  35  52  74 105 145 181 216 254 304
#     4   8  16  33  58  84 106 131 167 214 267 316
#     4  12  23  34  50  72 104 142 178 215 256 308
#     4  10  20  34  52  76 105 136 173 215 263 313
#     4  10  19  32  53  80 107 138 176 217 259 306
#
# _framework density 18.431571000000002
#
# number of rings (size 3 to 8) (size 9 to 14) (size 15 to 20)
#    0.000    1.667    1.667    6.000    0.000    0.667 
#    0.000    0.000    0.000   19.000    0.000    0.000 
#    0.000    0.000    0.000    0.000    0.000    0.000 
#
# Total GULP energy -297587.788670 kJ/mol
# GULP energy per Si atom -12399.491195 kJ/mol
# Density = 1.838962 g / cm^3
# Si number density = 18.431571 Si / 1000 Ang^3
#
#
#
# Elastic Constant Matrix: (Units=GPa)
#
#
# Indices 1 2 3 4 5 6 
#
# 1 116.3741 17.2650 61.0863 0.0000 -5.1831 0.0000
# 2 17.2650 58.9617 4.9201 0.0000 5.1988 0.0000
# 3 61.0863 4.9201 84.1800 0.0000 -13.7736 0.0000
# 4 0.0000 0.0000 0.0000 27.9391 0.0000 -7.3217
# 5 -5.1831 5.1988 -13.7736 0.0000 24.2732 0.0000
# 6 0.0000 0.0000 0.0000 -7.3217 0.0000 16.5079
#
#
#
# Elastic Compliance Matrix: (Units=1/GPa)
#
#
# Indices 1 2 3 4 5 6 
#
# 1 0.014640 -0.003178 -0.010820 0.000000 -0.002333 0.000000
# 2 -0.003178 0.018222 0.000542 0.000000 -0.004274 0.000000
# 3 -0.010820 0.000542 0.021277 0.000000 0.009647 0.000000
# 4 0.000000 0.000000 0.000000 0.040500 0.000000 0.017963
# 5 -0.002333 -0.004274 0.009647 0.000000 0.047089 0.000000
# 6 0.000000 0.000000 0.000000 0.017963 0.000000 0.068544
#
#
# Mechanical properties :
#
#
# Convention : Reuss Voigt Hill
#
# Bulk Modulus (GPa) = 36.72669 47.33983 42.03326
# Shear Modulus (GPa) = 20.30372 25.49367 22.89870
#
# Velocity S-wave (km/s) = 3.32260 3.72311 3.52854
# Velocity P-wave (km/s) = 5.88972 6.64996 6.28135
#
# Compressibility (1/GPa) = 0.02722816
#
# Stress axis : x y z
#
# Youngs Moduli (GPa) = 68.30637 54.87739 46.99815
#
# Poissons Ratio (x) = 0.17442 0.50850
# Poissons Ratio (y) = 0.21710 -0.02547
# Poissons Ratio (z) = 0.73904 -0.02974
#
# Static dielectric constant tensor:
#      x y z
#    x 3.581080 0.000000 -0.134360 
#    y 0.000000 3.232720 0.000000 
#    z -0.134360 0.000000 3.374830 
# 
# 
# High freq. dielectric constant tensor:
#      x y z
#    x 1.687950 0.000000 -0.021900 
#    y 0.000000 1.711290 0.000000 
#    z -0.021900 0.000000 1.709030 
# 
# From -- ./inp_files/323512.got.cif
#   From: 2010.06.25/outbox.cif.g09.slc.cpg/sg12_162_cif.got.tgz:323512.got - 2010.06.28 00:19:55.
