data_PCOD8088956
_publ_section_title
;
Structure prediction by ZEFSAII (Michael W. Deem and Ramdas Pophale) SiO2 
 PCOD8088956
Probable space group: C 2/M
;
_chemical_formula_sum "Si O2"
_cell_formula_units_Z 52
_cell_length_a 12.418293
_cell_length_b 24.359723
_cell_length_c 9.382767
_cell_angle_alpha 90.000000
_cell_angle_beta 57.255120
_cell_angle_gamma 90.000000
_cell_volume 2387.296063
_symmetry_space_group_name_H-M "C 2/M"
_symmetry_group_IT_number 12
_symmetry_cell_setting 'monoclinic'
loop_
_space_group_symop_operation_xyz
x,y,z
-x,y,-z
-x,-y,-z
x,-y,z
1/2+x,1/2+y,z
1/2-x,1/2+y,-z
1/2-x,1/2-y,-z
1/2+x,1/2-y,z
loop_
_atom_site_type_symbol
_atom_site_label
_atom_site_fract_x
_atom_site_fract_y
_atom_site_fract_z
Si Si1 0.759736 0.337600 0.246205
Si Si2 0.525646 0.939162 0.284863
Si Si3 0.718625 0.877879 0.464429
Si Si4 0.815195 0.064265 0.141532
Si Si5 0.000000 0.598811 0.000000
Si Si6 0.591960 0.338699 0.099594
Si Si7 0.320563 0.286549 0.228440
O O1 0.731148 0.372987 0.408908
O O2 0.876656 0.362457 0.073829
O O3 0.636718 0.338746 0.231487
O O4 0.800661 0.277277 0.267891
O O5 0.425392 0.901443 0.441697
O O6 0.671140 0.920118 0.198057
O O7 0.490810 0.939570 0.143407
O O8 0.506870 0.000000 0.359045
O O9 0.820033 0.916504 0.304361
O O10 0.710381 0.818368 0.394476
O O11 0.849823 0.000000 0.099562
O O12 0.909086 0.099562 0.970521
O O13 0.453948 0.310164 0.195911
O O14 0.686664 0.301223 0.934675
#
# Coordination Sequence:
#
# PCOD8088956 Si02
#       7
#     8   8   8   8   4   8   8
#     4  11  21  38  60  87 122 158 196 249 298 344
#     4  10  19  34  57  85 118 156 195 247 302 349
#     4  10  22  36  54  85 122 153 196 242 289 360
#     4  10  20  39  62  87 119 160 201 247 299 354
#     4  10  19  32  56  92 116 144 199 250 298 350
#     4  10  21  40  62  88 117 159 203 249 292 354
#     4  10  22  40  59  86 120 157 206 240 293 358
#
# _framework density 21.781966000000001
#
# number of rings (size 3 to 8) (size 9 to 14) (size 15 to 20)
#    0.000    1.846    1.538    3.000    0.000    1.846 
#    5.538    7.692    0.000    0.000    0.000   19.385 
#    0.000    0.000    0.000    0.000    0.000    0.000 
#
# Total GULP energy -322285.094229 kJ/mol
# GULP energy per Si atom -12395.580547 kJ/mol
# Density = 2.173239 g / cm^3
# Si number density = 21.781966 Si / 1000 Ang^3
#
#
#
# Elastic Constant Matrix: (Units=GPa)
#
#
# Indices 1 2 3 4 5 6 
#
# 1 97.1002 45.5661 38.8770 0.0000 17.6692 0.0000
# 2 45.5661 122.8408 37.3521 0.0000 -2.8132 0.0000
# 3 38.8770 37.3521 87.6085 0.0000 3.7718 0.0000
# 4 0.0000 0.0000 0.0000 -1.4796 0.0000 1.6438
# 5 17.6692 -2.8132 3.7718 0.0000 27.9847 0.0000
# 6 0.0000 0.0000 0.0000 1.6438 0.0000 24.9218
#
#
#
# Elastic Compliance Matrix: (Units=1/GPa)
#
#
# Indices 1 2 3 4 5 6 
#
# 1 0.016316 -0.004844 -0.004738 0.000000 -0.010150 0.000000
# 2 -0.004844 0.010853 -0.002672 0.000000 0.004509 0.000000
# 3 -0.004738 -0.002672 0.014624 0.000000 0.000752 0.000000
# 4 0.000000 0.000000 0.000000 -0.629706 0.000000 0.041534
# 5 -0.010150 0.004509 0.000752 0.000000 0.042494 0.000000
# 6 0.000000 0.000000 0.000000 0.041534 0.000000 0.037386
#
#
# Mechanical properties :
#
#
# Convention : Reuss Voigt Hill
#
# Bulk Modulus (GPa) = 57.85375 61.23778 59.54577
# Shear Modulus (GPa) = -10.46542 22.66900 6.10179
#
# Velocity S-wave (km/s) = -2.19432 3.22952 1.67553
# Velocity P-wave (km/s) = 4.49422 6.48702 5.58030
#
# Compressibility (1/GPa) = 0.01728496
#
# Stress axis : x y z
#
# Youngs Moduli (GPa) = 61.29079 92.13969 68.38179
#
# Poissons Ratio (x) = 0.44631 0.32400
# Poissons Ratio (y) = 0.29688 0.18271
# Poissons Ratio (z) = 0.29040 0.24619
#
# Static dielectric constant tensor:
#      x y z
#    x 3.773610 0.000000 0.110250 
#    y 0.000000 3.855740 0.000000 
#    z 0.110250 0.000000 4.059470 
# 
# 
# High freq. dielectric constant tensor:
#      x y z
#    x 1.843050 0.000000 0.007980 
#    y 0.000000 1.851550 0.000000 
#    z 0.007980 0.000000 1.864830 
# 
# From -- ./inp_files/53106.got.cif
#   From: 2010.06.25/outbox.cif.g09.slc.cpg/sg12_27_cif.got.tgz:53106.got - 2010.06.28 00:19:55.
