data_PCOD8088523
_publ_section_title
;
Structure prediction by ZEFSAII (Michael W. Deem and Ramdas Pophale) SiO2 
 PCOD8088523
Probable space group: C 2/M
;
_chemical_formula_sum "Si O2"
_cell_formula_units_Z 52
_cell_length_a 31.794342
_cell_length_b 7.631469
_cell_length_c 10.985836
_cell_angle_alpha 90.000000
_cell_angle_beta 86.627895
_cell_angle_gamma 90.000000
_cell_volume 2660.960948
_symmetry_space_group_name_H-M "C 2/M"
_symmetry_group_IT_number 12
_symmetry_cell_setting 'monoclinic'
loop_
_space_group_symop_operation_xyz
x,y,z
-x,y,-z
-x,-y,-z
x,-y,z
1/2+x,1/2+y,z
1/2-x,1/2+y,-z
1/2-x,1/2-y,-z
1/2+x,1/2-y,z
loop_
_atom_site_type_symbol
_atom_site_label
_atom_site_fract_x
_atom_site_fract_y
_atom_site_fract_z
Si Si1 0.949291 0.000000 0.522133
Si Si2 0.102217 0.299819 0.070566
Si Si3 0.548409 0.500000 0.978243
Si Si4 0.404713 0.500000 0.269660
Si Si5 0.350001 0.200440 0.172206
Si Si6 0.899140 0.695079 0.652960
Si Si7 0.186415 0.803404 0.424804
Si Si8 0.774417 0.702850 0.336939
O O1 0.925737 0.000000 0.397530
O O2 0.934530 0.172300 0.597854
O O3 0.000000 0.000000 0.500000
O O4 0.087044 0.500000 0.058356
O O5 0.114727 0.257420 0.206725
O O6 0.141439 0.260248 0.972118
O O7 0.064270 0.175242 0.040226
O O8 0.558059 0.500000 0.834057
O O9 0.500000 0.500000 0.000000
O O10 0.377008 0.325451 0.255560
O O11 0.300140 0.232673 0.206863
O O12 0.362196 0.000000 0.203117
O O13 0.918904 0.500000 0.642395
O O14 0.855736 0.691490 0.584659
O O15 0.200372 0.803880 0.562589
O O16 0.225883 0.730696 0.336238
O O17 0.174240 0.000000 0.388015
O O18 0.772707 0.500000 0.375655
#
# Coordination Sequence:
#
# PCOD8088523 Si02
#       8
#     4   8   4   4   8   8   8   8
#     4  12  27  42  63  86 118 151 194 249 296 353
#     4   9  20  38  60  84 111 154 195 236 292 350
#     4  10  21  36  63  86 112 141 190 247 298 347
#     4  10  22  36  56  90 110 150 192 228 305 356
#     4   9  18  36  58  83 117 151 191 242 290 338
#     4  11  23  41  62  83 118 161 199 234 295 360
#     4  10  19  32  53  84 117 159 197 239 292 343
#     4   9  18  31  52  82 119 153 197 248 288 336
#
# _framework density 19.541813000000001
#
# number of rings (size 3 to 8) (size 9 to 14) (size 15 to 20)
#    0.000    2.154    0.769    1.846    3.231    3.077 
#    0.000    0.769    0.000    0.000    0.000    0.000 
#    0.000    0.000    0.000    0.000    0.000    0.000 
#
# Total GULP energy -322251.500535 kJ/mol
# GULP energy per Si atom -12394.288482 kJ/mol
# Density = 1.949733 g / cm^3
# Si number density = 19.541813 Si / 1000 Ang^3
#
#
#
# Elastic Constant Matrix: (Units=GPa)
#
#
# Indices 1 2 3 4 5 6 
#
# 1 121.0665 39.9659 43.1942 0.0000 -31.3494 0.0000
# 2 39.9659 93.4716 40.2697 0.0000 -12.4968 0.0000
# 3 43.1942 40.2697 88.7084 0.0000 -11.3648 0.0000
# 4 0.0000 0.0000 0.0000 18.2425 0.0000 1.7623
# 5 -31.3494 -12.4968 -11.3648 0.0000 24.9513 0.0000
# 6 0.0000 0.0000 0.0000 1.7623 0.0000 17.7409
#
#
#
# Elastic Compliance Matrix: (Units=1/GPa)
#
#
# Indices 1 2 3 4 5 6 
#
# 1 0.014369 -0.002423 -0.003971 0.000000 0.015031 0.000000
# 2 -0.002423 0.014126 -0.005009 0.000000 0.001749 0.000000
# 3 -0.003971 -0.005009 0.015419 0.000000 -0.000474 0.000000
# 4 0.000000 0.000000 0.000000 0.055348 0.000000 -0.005498
# 5 0.015031 0.001749 -0.000474 0.000000 0.059623 0.000000
# 6 0.000000 0.000000 0.000000 -0.005498 0.000000 0.056913
#
#
# Mechanical properties :
#
#
# Convention : Reuss Voigt Hill
#
# Bulk Modulus (GPa) = 47.37361 61.12290 54.24825
# Shear Modulus (GPa) = 20.35496 24.17472 22.26484
#
# Velocity S-wave (km/s) = 3.23090 3.52103 3.37908
# Velocity P-wave (km/s) = 6.18167 6.91925 6.56084
#
# Compressibility (1/GPa) = 0.02110880
#
# Stress axis : x y z
#
# Youngs Moduli (GPa) = 69.59549 70.78998 64.85410
#
# Poissons Ratio (x) = 0.17156 0.25751
# Poissons Ratio (y) = 0.16866 0.32483
# Poissons Ratio (z) = 0.27634 0.35456
#
# Static dielectric constant tensor:
#      x y z
#    x 3.470190 0.000000 -0.305400 
#    y 0.000000 3.653820 0.000000 
#    z -0.305400 0.000000 3.700680 
# 
# 
# High freq. dielectric constant tensor:
#      x y z
#    x 1.742280 0.000000 -0.027090 
#    y 0.000000 1.774980 0.000000 
#    z -0.027090 0.000000 1.753350 
# 
# From -- ./inp_files/185877.got.cif
#   From: 2010.06.25/outbox.cif.g09.slc.cpg/sg12_93_cif.got.tgz:185877.got - 2010.06.28 00:19:55.
