data_PCOD8088634
_publ_section_title
;
Structure prediction by ZEFSAII (Michael W. Deem and Ramdas Pophale) SiO2 
 PCOD8088634
Probable space group: C 2/M
;
_chemical_formula_sum "Si O2"
_cell_formula_units_Z 48
_cell_length_a 18.551830
_cell_length_b 8.945916
_cell_length_c 19.187029
_cell_angle_alpha 90.000000
_cell_angle_beta 60.108056
_cell_angle_gamma 90.000000
_cell_volume 2760.716338
_symmetry_space_group_name_H-M "C 2/M"
_symmetry_group_IT_number 12
_symmetry_cell_setting 'monoclinic'
loop_
_space_group_symop_operation_xyz
x,y,z
-x,y,-z
-x,-y,-z
x,-y,z
1/2+x,1/2+y,z
1/2-x,1/2+y,-z
1/2-x,1/2-y,-z
1/2+x,1/2-y,z
loop_
_atom_site_type_symbol
_atom_site_label
_atom_site_fract_x
_atom_site_fract_y
_atom_site_fract_z
Si Si1 0.724550 0.330470 0.582302
Si Si2 0.088658 0.325107 0.148653
Si Si3 0.249092 0.174383 0.845706
Si Si4 0.282189 0.177040 0.277912
Si Si5 0.069490 0.169394 0.737469
Si Si6 0.918053 0.825878 0.996241
O O1 0.758117 0.500000 0.565018
O O2 0.750000 0.250000 0.500000
O O3 0.763320 0.244284 0.630898
O O4 0.623353 0.327913 0.639559
O O5 0.072754 0.500000 0.158190
O O6 0.178755 0.283135 0.134909
O O7 0.080321 0.267893 0.074681
O O8 0.019073 0.247498 0.230927
O O9 0.265655 0.268069 0.767636
O O10 0.249876 0.000000 0.826125
O O11 0.162140 0.223643 0.921216
O O12 0.377007 0.241453 0.229437
O O13 0.282461 0.000000 0.282104
O O14 0.056590 0.000000 0.770412
O O15 0.913662 0.000000 0.978992
O O16 0.000000 0.786364 0.000000
#
# Coordination Sequence:
#
# PCOD8088634 Si02
#       6
#     8   8   8   8   8   8
#     4   9  18  32  55  83 110 139 172 218 265 314
#     4  11  22  34  52  77 107 142 182 226 266 314
#     4  10  21  36  51  75 110 145 180 220 270 319
#     4  10  19  32  54  81 107 137 177 219 263 314
#     4   9  19  34  53  76 106 139 174 217 266 315
#     4  10  21  36  55  74 101 142 184 226 272 318
#
# _framework density 17.386792
#
# number of rings (size 3 to 8) (size 9 to 14) (size 15 to 20)
#    1.000    1.167    0.000    4.000    0.000    3.667 
#    0.000    0.000    0.000    1.000    0.000    7.000 
#    0.000    0.000    0.000    0.000    0.000    0.000 
#
# Total GULP energy -297490.148949 kJ/mol
# GULP energy per Si atom -12395.422873 kJ/mol
# Density = 1.734722 g / cm^3
# Si number density = 17.386792 Si / 1000 Ang^3
#
#
#
# Elastic Constant Matrix: (Units=GPa)
#
#
# Indices 1 2 3 4 5 6 
#
# 1 95.3151 54.2631 47.5520 0.0000 5.6187 0.0000
# 2 54.2631 125.0156 56.9820 0.0001 6.9676 0.0003
# 3 47.5520 56.9820 109.9682 0.0000 8.3436 0.0000
# 4 0.0000 0.0001 0.0000 34.4557 0.0000 2.4303
# 5 5.6187 6.9676 8.3436 0.0000 13.3560 0.0001
# 6 0.0000 0.0003 0.0000 2.4303 0.0001 26.5858
#
#
#
# Elastic Compliance Matrix: (Units=1/GPa)
#
#
# Indices 1 2 3 4 5 6 
#
# 1 0.015279 -0.004700 -0.004062 0.000000 -0.001438 0.000000
# 2 -0.004700 0.011979 -0.004042 0.000000 -0.001747 0.000000
# 3 -0.004062 -0.004042 0.013285 0.000000 -0.004481 0.000000
# 4 0.000000 0.000000 0.000000 0.029211 0.000000 -0.002670
# 5 -0.001438 -0.001747 -0.004481 0.000000 0.079188 0.000000
# 6 0.000000 0.000000 0.000000 -0.002670 0.000000 0.037858
#
#
# Mechanical properties :
#
#
# Convention : Reuss Voigt Hill
#
# Bulk Modulus (GPa) = 66.96437 71.98811 69.47624
# Shear Modulus (GPa) = 23.00056 26.31296 24.65676
#
# Velocity S-wave (km/s) = 3.64108 3.89445 3.76989
# Velocity P-wave (km/s) = 7.50165 7.85596 7.68085
#
# Compressibility (1/GPa) = 0.01493332
#
# Stress axis : x y z
#
# Youngs Moduli (GPa) = 65.45094 83.48084 75.27491
#
# Poissons Ratio (x) = 0.39236 0.30578
# Poissons Ratio (y) = 0.30762 0.30427
# Poissons Ratio (z) = 0.26588 0.33744
#
# Static dielectric constant tensor:
#      x y z
#    x 3.126020 0.000000 -0.086310 
#    y 0.000000 3.252530 0.000000 
#    z -0.086310 0.000000 3.115260 
# 
# 
# High freq. dielectric constant tensor:
#      x y z
#    x 1.650550 0.000000 -0.000500 
#    y 0.000000 1.683140 0.000000 
#    z -0.000500 0.000000 1.663190 
# 
# From -- ./inp_files/280062.got.cif
#   From: 2010.06.25/outbox.cif.g09.slc.cpg/sg12_141_cif.got.tgz:280062.got - 2010.06.28 00:19:55.
