data_PCOD8088214
_publ_section_title
;
Structure prediction by ZEFSAII (Michael W. Deem and Ramdas Pophale) SiO2 
 PCOD8088214
Probable space group: C 2/M
;
_chemical_formula_sum "Si O2"
_cell_formula_units_Z 56
_cell_length_a 13.923443
_cell_length_b 18.230346
_cell_length_c 11.387109
_cell_angle_alpha 90.000000
_cell_angle_beta 114.687183
_cell_angle_gamma 90.000000
_cell_volume 2626.204509
_symmetry_space_group_name_H-M "C 2/M"
_symmetry_group_IT_number 12
_symmetry_cell_setting 'monoclinic'
loop_
_space_group_symop_operation_xyz
x,y,z
-x,y,-z
-x,-y,-z
x,-y,z
1/2+x,1/2+y,z
1/2-x,1/2+y,-z
1/2-x,1/2-y,-z
1/2+x,1/2-y,z
loop_
_atom_site_type_symbol
_atom_site_label
_atom_site_fract_x
_atom_site_fract_y
_atom_site_fract_z
Si Si1 0.829394 0.152999 0.629854
Si Si2 0.541400 0.584677 0.781446
Si Si3 0.861512 0.919428 0.409760
Si Si4 0.129785 0.578613 0.239488
Si Si5 0.609366 0.084254 0.503834
Si Si6 0.137713 0.212045 0.962689
Si Si7 0.421249 0.765634 0.821112
O O1 0.848935 0.142996 0.501193
O O2 0.711853 0.127241 0.606416
O O3 0.846878 0.239027 0.673867
O O4 0.920872 0.108724 0.749044
O O5 0.560323 0.500000 0.822238
O O6 0.551000 0.599359 0.644213
O O7 0.628020 0.629990 0.902758
O O8 0.754162 0.925331 0.281301
O O9 0.883403 0.000000 0.480128
O O10 0.079991 0.500000 0.172188
O O11 0.102616 0.591558 0.361308
O O12 0.089733 0.649152 0.148105
O O13 0.500000 0.116961 0.500000
O O14 0.623342 0.000000 0.549917
O O15 0.044276 0.256854 0.849480
O O16 0.250000 0.250000 0.000000
O O17 0.112995 0.213494 0.088438
#
# Coordination Sequence:
#
# PCOD8088214 Si02
#       7
#     8   8   8   8   8   8   8
#     4  10  19  32  52  82 118 147 176 221 270 322
#     4  10  19  34  58  84 111 146 186 223 270 330
#     4   9  17  30  53  85 115 142 174 217 266 318
#     4   9  18  35  56  78 107 140 178 226 276 327
#     4   9  18  32  50  77 115 152 181 213 259 319
#     4  10  22  41  57  75 110 145 181 237 286 317
#     4  10  22  38  56  80 107 143 188 229 276 334
#
# _framework density 21.323549
#
# number of rings (size 3 to 8) (size 9 to 14) (size 15 to 20)
#    0.000    2.429    0.000    3.429    0.000    4.571 
#    0.000   12.143    0.000    0.000    0.000    0.000 
#    0.000    1.143    0.000    0.000    0.000    0.000 
#
# Total GULP energy -346889.032576 kJ/mol
# GULP energy per Si atom -12388.894021 kJ/mol
# Density = 2.127502 g / cm^3
# Si number density = 21.323549 Si / 1000 Ang^3
#
#
#
# Elastic Constant Matrix: (Units=GPa)
#
#
# Indices 1 2 3 4 5 6 
#
# 1 141.8465 35.5171 23.8411 0.0000 27.1006 0.0000
# 2 35.5171 143.0783 47.1425 0.0000 5.3296 0.0000
# 3 23.8411 47.1425 59.6650 0.0000 5.5153 0.0000
# 4 0.0000 0.0000 0.0000 25.7989 0.0000 1.7166
# 5 27.1006 5.3296 5.5153 0.0000 30.4784 0.0000
# 6 0.0000 0.0000 0.0000 1.7166 0.0000 23.9469
#
#
#
# Elastic Compliance Matrix: (Units=1/GPa)
#
#
# Indices 1 2 3 4 5 6 
#
# 1 0.009153 -0.001373 -0.001874 0.000000 -0.007559 0.000000
# 2 -0.001373 0.009658 -0.007159 0.000000 0.000828 0.000000
# 3 -0.001874 -0.007159 0.023285 0.000000 -0.001296 0.000000
# 4 0.000000 0.000000 0.000000 0.038947 0.000000 -0.002792
# 5 -0.007559 0.000828 -0.001296 0.000000 0.039621 0.000000
# 6 0.000000 0.000000 0.000000 -0.002792 0.000000 0.041959
#
#
# Mechanical properties :
#
#
# Convention : Reuss Voigt Hill
#
# Bulk Modulus (GPa) = 46.98196 61.95457 54.46827
# Shear Modulus (GPa) = 26.24267 31.91746 29.08007
#
# Velocity S-wave (km/s) = 3.51192 3.87307 3.69691
# Velocity P-wave (km/s) = 6.20690 7.00846 6.61982
#
# Compressibility (1/GPa) = 0.02128477
#
# Stress axis : x y z
#
# Youngs Moduli (GPa) = 109.25542 103.54177 42.94618
#
# Poissons Ratio (x) = 0.14218 0.08046
# Poissons Ratio (y) = 0.15002 0.30744
# Poissons Ratio (z) = 0.20470 0.74123
#
# Static dielectric constant tensor:
#      x y z
#    x 4.021110 0.000000 0.153580 
#    y 0.000000 3.909760 0.000000 
#    z 0.153580 0.000000 3.574000 
# 
# 
# High freq. dielectric constant tensor:
#      x y z
#    x 1.842000 0.000000 0.012960 
#    y 0.000000 1.829520 0.000000 
#    z 0.012960 0.000000 1.807020 
# 
# From -- ./inp_files/146226.got.cif
#   From: 2010.06.25/outbox.cif.g09.slc.cpg/sg12_74_cif.got.tgz:146226.got - 2010.06.28 00:19:55.
