data_PCOD8088460
_publ_section_title
;
Structure prediction by ZEFSAII (Michael W. Deem and Ramdas Pophale) SiO2 
 PCOD8088460
Probable space group: C 2/M
;
_chemical_formula_sum "Si O2"
_cell_formula_units_Z 48
_cell_length_a 28.519435
_cell_length_b 13.563774
_cell_length_c 25.454166
_cell_angle_alpha 90.000000
_cell_angle_beta 15.468403
_cell_angle_gamma 90.000000
_cell_volume 2626.120316
_symmetry_space_group_name_H-M "C 2/M"
_symmetry_group_IT_number 12
_symmetry_cell_setting 'monoclinic'
loop_
_space_group_symop_operation_xyz
x,y,z
-x,y,-z
-x,-y,-z
x,-y,z
1/2+x,1/2+y,z
1/2-x,1/2+y,-z
1/2-x,1/2-y,-z
1/2+x,1/2-y,z
loop_
_atom_site_type_symbol
_atom_site_label
_atom_site_fract_x
_atom_site_fract_y
_atom_site_fract_z
Si Si1 0.436194 0.112280 0.436519
Si Si2 0.796605 0.886424 0.214020
Si Si3 0.230961 0.706439 0.177324
Si Si4 0.398377 0.291327 0.403282
Si Si5 0.331374 0.611931 0.814507
Si Si6 0.490927 0.219380 0.192690
O O1 0.295556 0.143847 0.632577
O O2 0.629247 0.124276 0.253101
O O3 0.411556 0.181425 0.412832
O O4 0.408566 0.000000 0.447928
O O5 0.721041 0.818867 0.249122
O O6 0.758821 0.000000 0.240442
O O7 0.000000 0.864556 0.000000
O O8 0.137078 0.813524 0.268745
O O9 0.430737 0.711324 0.938841
O O10 0.519740 0.369324 0.302449
O O11 0.463637 0.287558 0.273015
O O12 0.194961 0.327017 0.624944
O O13 0.343958 0.500000 0.781344
O O14 0.135466 0.634062 0.049440
#
# Coordination Sequence:
#
# PCOD8088460 Si02
#       6
#     8   8   8   8   8   8
#     4  10  20  32  54  83 111 145 180 221 276 339
#     4  10  19  32  53  81 111 142 182 224 276 339
#     4   9  19  34  51  75 109 144 178 224 272 319
#     4  10  19  37  56  78 114 141 187 223 279 326
#     4   9  20  35  55  79 104 142 187 225 270 320
#     4   9  20  35  55  79 108 148 178 231 273 326
#
# _framework density 18.277915
#
# number of rings (size 3 to 8) (size 9 to 14) (size 15 to 20)
#    1.000    1.500    0.000    2.500    0.000    2.667 
#    0.000    4.167    0.000    8.500    0.000    0.000 
#    0.000    0.000    0.000    0.000    0.000    0.000 
#
# Total GULP energy -297435.586946 kJ/mol
# GULP energy per Si atom -12393.149456 kJ/mol
# Density = 1.823631 g / cm^3
# Si number density = 18.277915 Si / 1000 Ang^3
#
#
#
# Elastic Constant Matrix: (Units=GPa)
#
#
# Indices 1 2 3 4 5 6 
#
# 1 51.9694 20.1675 11.4843 0.0185 -13.7073 -0.0034
# 2 20.1675 71.7749 15.9129 -0.0284 -4.4354 -0.0033
# 3 11.4843 15.9129 82.2470 -0.0616 -17.7826 0.0169
# 4 0.0185 -0.0284 -0.0616 14.2414 -0.0011 3.2529
# 5 -13.7073 -4.4354 -17.7826 -0.0011 31.2235 -0.0003
# 6 -0.0034 -0.0033 0.0169 3.2529 -0.0003 18.5986
#
#
#
# Elastic Compliance Matrix: (Units=1/GPa)
#
#
# Indices 1 2 3 4 5 6 
#
# 1 0.024222 -0.006187 -0.000087 -0.000046 0.009705 0.000012
# 2 -0.006187 0.016145 -0.002681 0.000029 -0.001950 -0.000001
# 3 -0.000087 -0.002681 0.014368 0.000063 0.007764 -0.000024
# 4 -0.000046 0.000029 0.000063 0.073140 0.000022 -0.012792
# 5 0.009705 -0.001950 0.007764 0.000022 0.040433 -0.000009
# 6 0.000012 -0.000001 -0.000024 -0.012792 -0.000009 0.056005
#
#
# Mechanical properties :
#
#
# Convention : Reuss Voigt Hill
#
# Bulk Modulus (GPa) = 27.15554 33.45784 30.30669
# Shear Modulus (GPa) = 19.64652 23.37448 21.51050
#
# Velocity S-wave (km/s) = 3.28209 3.57996 3.43426
# Velocity P-wave (km/s) = 5.40852 5.95256 5.68705
#
# Compressibility (1/GPa) = 0.03682490
#
# Stress axis : x y z
#
# Youngs Moduli (GPa) = 41.28457 61.93914 69.59861
#
# Poissons Ratio (x) = 0.38322 0.00604
# Poissons Ratio (y) = 0.25543 0.18661
# Poissons Ratio (z) = 0.00358 0.16608
#
# Static dielectric constant tensor:
#      x y z
#    x 3.272700 -0.000050 -0.162450 
#    y -0.000050 3.027080 0.000100 
#    z -0.162450 0.000100 3.507310 
# 
# 
# High freq. dielectric constant tensor:
#      x y z
#    x 1.703570 0.000000 -0.012520 
#    y 0.000000 1.676370 0.000010 
#    z -0.012520 0.000010 1.717160 
# 
# From -- ./inp_files/325604.got.cif
#   From: 2010.06.25/outbox.cif.g09.slc.cpg/sg12_163_cif.got.tgz:325604.got - 2010.06.28 00:19:55.
