data_PCOD8088885
_publ_section_title
;
Structure prediction by ZEFSAII (Michael W. Deem and Ramdas Pophale) SiO2 
 PCOD8088885
Probable space group: C 2/M
;
_chemical_formula_sum "Si O2"
_cell_formula_units_Z 48
_cell_length_a 15.086398
_cell_length_b 29.456432
_cell_length_c 11.848036
_cell_angle_alpha 90.000000
_cell_angle_beta 150.469915
_cell_angle_gamma 90.000000
_cell_volume 2595.097643
_symmetry_space_group_name_H-M "C 2/M"
_symmetry_group_IT_number 12
_symmetry_cell_setting 'monoclinic'
loop_
_space_group_symop_operation_xyz
x,y,z
-x,y,-z
-x,-y,-z
x,-y,z
1/2+x,1/2+y,z
1/2-x,1/2+y,-z
1/2-x,1/2-y,-z
1/2+x,1/2-y,z
loop_
_atom_site_type_symbol
_atom_site_label
_atom_site_fract_x
_atom_site_fract_y
_atom_site_fract_z
Si Si1 0.332677 0.449889 0.235492
Si Si2 0.587079 0.849132 0.280245
Si Si3 0.806402 0.143022 0.097348
Si Si4 0.703056 0.759191 0.321232
Si Si5 0.500000 0.079939 0.000000
Si Si6 0.000000 0.799638 0.500000
Si Si7 0.934157 0.164503 0.813689
O O1 0.500000 0.439821 0.500000
O O2 0.347844 0.500000 0.195894
O O3 0.331200 0.411366 0.137188
O O4 0.153672 0.450178 0.113621
O O5 0.589912 0.805645 0.199833
O O6 0.594752 0.891115 0.203688
O O7 0.752620 0.853611 0.552343
O O8 0.404841 0.846917 0.151113
O O9 0.878095 0.167857 0.288386
O O10 0.905396 0.162532 0.098297
O O11 0.750000 0.750000 0.500000
O O12 0.878331 0.765938 0.438748
O O13 0.591557 0.715083 0.162811
O O14 0.000000 0.136905 0.000000
#
# Coordination Sequence:
#
# PCOD8088885 Si02
#       7
#     8   8   8   8   4   4   8
#     4  10  19  32  55  88 119 143 176 227 293 357
#     4  10  21  36  57  82 111 153 195 229 281 341
#     4  11  22  37  61  81 112 156 188 231 293 342
#     4  10  21  37  52  82 112 150 200 235 276 330
#     4  10  19  34  58  86 120 146 180 228 289 346
#     4  12  20  36  61  80 116 156 187 232 292 336
#     4  11  25  40  53  80 118 152 200 245 275 328
#
# _framework density 18.496413
#
# number of rings (size 3 to 8) (size 9 to 14) (size 15 to 20)
#    0.000    1.500    4.167    3.250    3.500    4.000 
#    0.000    0.000    0.000    0.500    0.000    4.667 
#    0.000    0.000    0.000    0.000    0.000    0.000 
#
# Total GULP energy -297373.343537 kJ/mol
# GULP energy per Si atom -12390.555981 kJ/mol
# Density = 1.845431 g / cm^3
# Si number density = 18.496413 Si / 1000 Ang^3
#
#
#
# Elastic Constant Matrix: (Units=GPa)
#
#
# Indices 1 2 3 4 5 6 
#
# 1 114.4050 38.2213 53.8663 0.0000 11.5637 0.0000
# 2 38.2213 81.0480 21.7692 0.0000 11.8641 0.0000
# 3 53.8663 21.7692 115.8188 -0.0001 -3.1704 0.0000
# 4 0.0000 0.0000 -0.0001 -62.7576 -0.0001 29.6251
# 5 11.5637 11.8641 -3.1704 -0.0001 35.5001 0.0000
# 6 0.0000 0.0000 0.0000 29.6251 0.0000 9.9153
#
#
#
# Elastic Compliance Matrix: (Units=1/GPa)
#
#
# Indices 1 2 3 4 5 6 
#
# 1 0.012998 -0.004211 -0.005344 0.000000 -0.003304 0.000000
# 2 -0.004211 0.015143 -0.000991 0.000000 -0.003778 0.000000
# 3 -0.005344 -0.000991 0.011391 0.000000 0.003089 0.000000
# 4 0.000000 0.000000 0.000000 -0.006611 0.000000 0.019751
# 5 -0.003304 -0.003778 0.003089 0.000000 0.030784 0.000000
# 6 0.000000 0.000000 0.000000 0.019751 0.000000 0.041841
#
#
# Mechanical properties :
#
#
# Convention : Reuss Voigt Hill
#
# Bulk Modulus (GPa) = 54.23171 59.88724 57.05948
# Shear Modulus (GPa) = 37.65498 9.69257 23.67377
#
# Velocity S-wave (km/s) = 4.51688 2.29164 3.58147
# Velocity P-wave (km/s) = 7.52241 6.28094 6.92953
#
# Compressibility (1/GPa) = 0.01843940
#
# Stress axis : x y z
#
# Youngs Moduli (GPa) = 76.93638 66.03566 87.79151
#
# Poissons Ratio (x) = 0.27804 0.46917
# Poissons Ratio (y) = 0.32394 0.08704
# Poissons Ratio (z) = 0.41116 0.06547
#
# Static dielectric constant tensor:
#      x y z
#    x 2.835540 0.000000 0.227730 
#    y 0.000000 5.457660 0.000000 
#    z 0.227730 0.000000 3.461270 
# 
# 
# High freq. dielectric constant tensor:
#      x y z
#    x 1.712710 0.000000 0.013630 
#    y 0.000000 1.698920 0.000000 
#    z 0.013630 0.000000 1.730410 
# 
# From -- ./inp_files/150366.got.cif
#   From: 2010.06.25/outbox.cif.g09.slc.cpg/sg12_76_cif.got.tgz:150366.got - 2010.06.28 00:19:55.
