data_PCOD8088063
_publ_section_title
;
Structure prediction by ZEFSAII (Michael W. Deem and Ramdas Pophale) SiO2 
 PCOD8088063
Probable space group: C 2/M
;
_chemical_formula_sum "Si O2"
_cell_formula_units_Z 48
_cell_length_a 31.497892
_cell_length_b 9.045451
_cell_length_c 9.544036
_cell_angle_alpha 90.000000
_cell_angle_beta 104.079054
_cell_angle_gamma 90.000000
_cell_volume 2637.533965
_symmetry_space_group_name_H-M "C 2/M"
_symmetry_group_IT_number 12
_symmetry_cell_setting 'monoclinic'
loop_
_space_group_symop_operation_xyz
x,y,z
-x,y,-z
-x,-y,-z
x,-y,z
1/2+x,1/2+y,z
1/2-x,1/2+y,-z
1/2-x,1/2-y,-z
1/2+x,1/2-y,z
loop_
_atom_site_type_symbol
_atom_site_label
_atom_site_fract_x
_atom_site_fract_y
_atom_site_fract_z
Si Si1 0.364263 0.325312 0.388822
Si Si2 0.430193 0.329995 0.675662
Si Si3 0.108269 0.328795 0.865786
Si Si4 0.634397 0.831155 0.188922
Si Si5 0.796643 0.675027 0.530614
Si Si6 0.980032 0.169965 0.135839
O O1 0.355515 0.500000 0.382325
O O2 0.408096 0.281728 0.511196
O O3 0.370502 0.270353 0.236798
O O4 0.322705 0.242175 0.420297
O O5 0.420995 0.500000 0.695846
O O6 0.408039 0.253028 0.790381
O O7 0.482087 0.297870 0.717932
O O8 0.107358 0.500000 0.819700
O O9 0.059130 0.279334 0.860622
O O10 0.139018 0.304153 0.026615
O O11 0.678422 0.781932 0.305028
O O12 0.624792 0.000000 0.215985
O O13 0.791718 0.500000 0.506692
O O14 0.750000 0.750000 0.500000
O O15 0.963879 0.000000 0.132746
O O16 0.000000 0.203695 0.000000
#
# Coordination Sequence:
#
# PCOD8088063 Si02
#       6
#     8   8   8   8   8   8
#     4  10  21  37  56  79 109 143 178 220 269 316
#     4   9  18  33  53  76 103 140 185 226 264 309
#     4  11  22  35  52  78 111 146 180 220 267 313
#     4   9  19  34  54  78 107 140 175 216 264 316
#     4  10  20  38  62  86 108 134 171 215 264 323
#     4  10  19  32  52  77 106 142 186 229 264 307
#
# _framework density 18.198819
#
# number of rings (size 3 to 8) (size 9 to 14) (size 15 to 20)
#    0.000    2.167    1.667    1.500    0.000    3.667 
#    0.000    4.167    0.000    0.000    0.000    0.000 
#    0.000    0.000    0.000    0.000    0.000    0.000 
#
# Total GULP energy -297588.726381 kJ/mol
# GULP energy per Si atom -12399.530266 kJ/mol
# Density = 1.815740 g / cm^3
# Si number density = 18.198819 Si / 1000 Ang^3
#
#
#
# Elastic Constant Matrix: (Units=GPa)
#
#
# Indices 1 2 3 4 5 6 
#
# 1 104.4398 43.2112 48.1230 0.0000 2.3573 0.0000
# 2 43.2112 74.3659 40.1043 0.0000 -1.9543 0.0000
# 3 48.1230 40.1043 97.3509 0.0000 -4.4942 0.0000
# 4 0.0000 0.0000 0.0000 30.0840 0.0000 -5.1209
# 5 2.3573 -1.9543 -4.4942 0.0000 18.7089 0.0000
# 6 0.0000 0.0000 0.0000 -5.1209 0.0000 31.0005
#
#
#
# Elastic Compliance Matrix: (Units=1/GPa)
#
#
# Indices 1 2 3 4 5 6 
#
# 1 0.014277 -0.005779 -0.004842 0.000000 -0.003566 0.000000
# 2 -0.005779 0.019627 -0.005158 0.000000 0.001539 0.000000
# 3 -0.004842 -0.005158 0.014959 0.000000 0.003665 0.000000
# 4 0.000000 0.000000 0.000000 0.034202 0.000000 0.005650
# 5 -0.003566 0.001539 0.003665 0.000000 0.054941 0.000000
# 6 0.000000 0.000000 0.000000 0.005650 0.000000 0.033191
#
#
# Mechanical properties :
#
#
# Convention : Reuss Voigt Hill
#
# Bulk Modulus (GPa) = 57.77922 59.89263 58.83593
# Shear Modulus (GPa) = 23.97829 25.60655 24.79242
#
# Velocity S-wave (km/s) = 3.63378 3.75513 3.69495
# Velocity P-wave (km/s) = 7.03019 7.19604 7.11360
#
# Compressibility (1/GPa) = 0.01730726
#
# Stress axis : x y z
#
# Youngs Moduli (GPa) = 70.04223 50.95099 66.84760
#
# Poissons Ratio (x) = 0.29443 0.32365
# Poissons Ratio (y) = 0.40475 0.34479
# Poissons Ratio (z) = 0.33912 0.26279
#
# Static dielectric constant tensor:
#      x y z
#    x 3.303580 0.000000 0.247080 
#    y 0.000000 3.413680 0.000000 
#    z 0.247080 0.000000 3.565170 
# 
# 
# High freq. dielectric constant tensor:
#      x y z
#    x 1.688990 0.000000 0.012630 
#    y 0.000000 1.712610 0.000000 
#    z 0.012630 0.000000 1.707370 
# 
# From -- ./inp_files/108567.got.cif
#   From: 2010.06.25/outbox.cif.g09.slc.cpg/sg12_55_cif.got.tgz:108567.got - 2010.06.28 00:19:55.
