data_PCOD8088290
_publ_section_title
;
Structure prediction by ZEFSAII (Michael W. Deem and Ramdas Pophale) SiO2 
 PCOD8088290
Probable space group: C 2/M
;
_chemical_formula_sum "Si O2"
_cell_formula_units_Z 64
_cell_length_a 18.268527
_cell_length_b 9.218559
_cell_length_c 22.819656
_cell_angle_alpha 90.000000
_cell_angle_beta 116.697843
_cell_angle_gamma 90.000000
_cell_volume 3433.332988
_symmetry_space_group_name_H-M "C 2/M"
_symmetry_group_IT_number 12
_symmetry_cell_setting 'monoclinic'
loop_
_space_group_symop_operation_xyz
x,y,z
-x,y,-z
-x,-y,-z
x,-y,z
1/2+x,1/2+y,z
1/2-x,1/2+y,-z
1/2-x,1/2-y,-z
1/2+x,1/2-y,z
loop_
_atom_site_type_symbol
_atom_site_label
_atom_site_fract_x
_atom_site_fract_y
_atom_site_fract_z
Si Si1 0.200942 0.830509 0.236667
Si Si2 0.219635 0.334556 0.127377
Si Si3 0.053445 0.169538 0.268160
Si Si4 0.667402 0.832256 0.984677
Si Si5 0.393847 0.669335 0.138279
Si Si6 0.908036 0.836164 0.489745
Si Si7 0.460869 0.170118 0.617312
Si Si8 0.359503 0.830924 0.363592
O O1 0.186254 0.758034 0.168910
O O2 0.127340 0.785883 0.252561
O O3 0.286513 0.778126 0.295386
O O4 0.202158 0.000000 0.225760
O O5 0.224623 0.500000 0.149915
O O6 0.310496 0.282712 0.140938
O O7 0.154710 0.316903 0.050293
O O8 0.968896 0.211647 0.206539
O O9 0.063419 0.264561 0.329386
O O10 0.055761 0.000000 0.285676
O O11 0.596699 0.757090 0.919911
O O12 0.675187 0.000000 0.969683
O O13 0.750000 0.750000 0.000000
O O14 0.392901 0.500000 0.122305
O O15 0.851634 0.757982 0.421152
O O16 0.000000 0.836061 0.500000
O O17 0.903433 0.746660 0.548358
O O18 0.876408 0.000000 0.488671
O O19 0.556112 0.203209 0.639315
O O20 0.442261 0.000000 0.609461
O O21 0.351991 0.000000 0.376885
#
# Coordination Sequence:
#
# PCOD8088290 Si02
#       8
#     8   8   8   8   8   8   8   8
#     4  10  21  35  51  72 100 135 169 204 248 295
#     4   9  18  32  51  75 100 127 162 205 249 293
#     4  10  21  36  51  71 102 135 169 208 247 292
#     4   9  17  30  50  77 104 129 162 206 253 297
#     4   9  18  33  53  76 101 131 167 207 249 293
#     4   9  17  30  51  78 103 128 161 202 249 297
#     4  10  19  32  53  78 102 130 164 205 252 297
#     4   9  18  33  52  76 103 128 162 206 248 294
#
# _framework density 18.640778000000001
#
# number of rings (size 3 to 8) (size 9 to 14) (size 15 to 20)
#    0.000    2.625    0.000    2.625    0.000    6.000 
#    0.000    1.250    0.000    3.750    0.000    0.000 
#    0.000    0.000    0.000    0.000    0.000    0.000 
#
# Total GULP energy -396778.850746 kJ/mol
# GULP energy per Si atom -12399.339086 kJ/mol
# Density = 1.859835 g / cm^3
# Si number density = 18.640778 Si / 1000 Ang^3
#
#
#
# Elastic Constant Matrix: (Units=GPa)
#
#
# Indices 1 2 3 4 5 6 
#
# 1 53.6810 31.4511 37.6678 0.0000 -19.3736 0.0000
# 2 31.4511 89.3823 67.1279 0.0000 -21.4144 0.0000
# 3 37.6678 67.1279 127.7434 0.0000 -35.1935 0.0000
# 4 0.0000 0.0000 0.0000 41.5201 0.0000 -7.3696
# 5 -19.3736 -21.4144 -35.1935 0.0000 15.9344 0.0000
# 6 0.0000 0.0000 0.0000 -7.3696 0.0000 19.3814
#
#
#
# Elastic Compliance Matrix: (Units=1/GPa)
#
#
# Indices 1 2 3 4 5 6 
#
# 1 0.035026 -0.004945 0.005547 0.000000 0.048192 0.000000
# 2 -0.004945 0.019659 -0.008302 0.000000 0.002073 0.000000
# 3 0.005547 -0.008302 0.023854 0.000000 0.048274 0.000000
# 4 0.000000 0.000000 0.000000 0.025828 0.000000 0.009821
# 5 0.048192 0.002073 0.048274 0.000000 0.230756 0.000000
# 6 0.000000 0.000000 0.000000 0.009821 0.000000 0.055330
#
#
# Mechanical properties :
#
#
# Convention : Reuss Voigt Hill
#
# Bulk Modulus (GPa) = 15.83749 60.36672 38.10211
# Shear Modulus (GPa) = 11.71239 24.33786 18.02513
#
# Velocity S-wave (km/s) = 2.50935 3.61726 3.11299
# Velocity P-wave (km/s) = 4.11223 7.06404 5.77975
#
# Compressibility (1/GPa) = 0.06314130
#
# Stress axis : x y z
#
# Youngs Moduli (GPa) = 28.55042 50.86717 41.92114
#
# Poissons Ratio (x) = 0.25153 -0.23256
# Poissons Ratio (y) = 0.14118 0.34801
# Poissons Ratio (z) = -0.15838 0.42228
#
# Static dielectric constant tensor:
#      x y z
#    x 3.105100 0.000000 0.034860 
#    y 0.000000 3.495110 0.000000 
#    z 0.034860 0.000000 3.763070 
# 
# 
# High freq. dielectric constant tensor:
#      x y z
#    x 1.684370 0.000000 -0.003680 
#    y 0.000000 1.725810 0.000000 
#    z -0.003680 0.000000 1.739280 
# 
# From -- ./inp_files/320016.got.cif
#   From: 2010.06.25/outbox.cif.g09.slc.cpg/sg12_161_cif.got.tgz:320016.got - 2010.06.28 00:19:55.
