data_PCOD8088453
_publ_section_title
;
Structure prediction by ZEFSAII (Michael W. Deem and Ramdas Pophale) SiO2 
 PCOD8088453
Probable space group: C 2/M
;
_chemical_formula_sum "Si O2"
_cell_formula_units_Z 64
_cell_length_a 24.313563
_cell_length_b 8.628141
_cell_length_c 19.875366
_cell_angle_alpha 90.000000
_cell_angle_beta 123.965148
_cell_angle_gamma 90.000000
_cell_volume 3458.065851
_symmetry_space_group_name_H-M "C 2/M"
_symmetry_group_IT_number 12
_symmetry_cell_setting 'monoclinic'
loop_
_space_group_symop_operation_xyz
x,y,z
-x,y,-z
-x,-y,-z
x,-y,z
1/2+x,1/2+y,z
1/2-x,1/2+y,-z
1/2-x,1/2-y,-z
1/2+x,1/2-y,z
loop_
_atom_site_type_symbol
_atom_site_label
_atom_site_fract_x
_atom_site_fract_y
_atom_site_fract_z
Si Si1 0.048466 0.680347 0.945670
Si Si2 0.069633 0.320984 0.448858
Si Si3 0.539355 0.679011 0.803775
Si Si4 0.337389 0.181338 0.366514
Si Si5 0.087910 0.180779 0.105608
Si Si6 0.931282 0.818618 0.325658
Si Si7 0.194034 0.678932 0.270162
Si Si8 0.404367 0.176495 0.682641
O O1 0.058814 0.500000 0.965697
O O2 0.072827 0.724725 0.887312
O O3 0.970881 0.722691 0.899567
O O4 0.092034 0.774156 0.029725
O O5 0.049942 0.500000 0.445740
O O6 0.116990 0.262490 0.540540
O O7 0.108629 0.294752 0.405343
O O8 0.002461 0.222522 0.405810
O O9 0.551411 0.500000 0.826750
O O10 0.571419 0.729519 0.754754
O O11 0.460755 0.709191 0.748047
O O12 0.373593 0.221871 0.321710
O O13 0.269856 0.274396 0.325258
O O14 0.322234 0.000000 0.359928
O O15 0.157156 0.221349 0.188010
O O16 0.072227 0.000000 0.102133
O O17 0.918604 0.000000 0.326836
O O18 0.187728 0.500000 0.245778
O O19 0.162651 0.711538 0.322278
O O20 0.428759 0.000000 0.711433
#
# Coordination Sequence:
#
# PCOD8088453 Si02
#       8
#     8   8   8   8   8   8   8   8
#     4  11  20  32  53  82 113 143 177 215 262 317
#     4   9  19  36  56  79 106 138 179 227 276 323
#     4  10  19  32  53  81 110 139 175 223 272 318
#     4  11  23  37  54  76 105 145 187 225 270 324
#     4  11  21  34  53  79 112 145 178 218 261 313
#     4  10  21  36  56  81 107 137 180 231 276 318
#     4  11  22  36  54  77 109 146 183 222 266 323
#     4   9  18  33  53  76 106 142 177 218 271 324
#
# _framework density 18.507456999999999
#
# number of rings (size 3 to 8) (size 9 to 14) (size 15 to 20)
#    0.000    1.750    1.250    4.875    0.000    5.000 
#    0.000    0.000    0.000    0.750    0.000    0.000 
#    0.000    0.000    0.000    0.000    0.000    0.000 
#
# Total GULP energy -396904.105283 kJ/mol
# GULP energy per Si atom -12403.253290 kJ/mol
# Density = 1.846533 g / cm^3
# Si number density = 18.507457 Si / 1000 Ang^3
#
#
#
# Elastic Constant Matrix: (Units=GPa)
#
#
# Indices 1 2 3 4 5 6 
#
# 1 102.1596 21.8377 38.5790 0.0000 -10.9342 0.0000
# 2 21.8377 65.0568 20.5246 0.0000 -6.5834 0.0000
# 3 38.5790 20.5246 52.8870 0.0000 -22.4233 0.0000
# 4 0.0000 0.0000 0.0000 30.6043 0.0000 0.4156
# 5 -10.9342 -6.5834 -22.4233 0.0000 24.3345 0.0000
# 6 0.0000 0.0000 0.0000 0.4156 0.0000 27.0835
#
#
#
# Elastic Compliance Matrix: (Units=1/GPa)
#
#
# Indices 1 2 3 4 5 6 
#
# 1 0.014009 -0.001503 -0.011717 0.000000 -0.004909 0.000000
# 2 -0.001503 0.017770 -0.006644 0.000000 -0.001990 0.000000
# 3 -0.011717 -0.006644 0.044377 0.000000 0.033829 0.000000
# 4 0.000000 0.000000 0.000000 0.032682 0.000000 -0.000502
# 5 -0.004909 -0.001990 0.033829 0.000000 0.069522 0.000000
# 6 0.000000 0.000000 0.000000 -0.000502 0.000000 0.036931
#
#
# Mechanical properties :
#
#
# Convention : Reuss Voigt Hill
#
# Bulk Modulus (GPa) = 27.45069 42.44290 34.94680
# Shear Modulus (GPa) = 18.71523 25.68193 22.19858
#
# Velocity S-wave (km/s) = 3.18343 3.72916 3.46705
# Velocity P-wave (km/s) = 5.32698 6.44398 5.91192
#
# Compressibility (1/GPa) = 0.03642896
#
# Stress axis : x y z
#
# Youngs Moduli (GPa) = 71.38120 56.27374 22.53416
#
# Poissons Ratio (x) = 0.08456 0.26404
# Poissons Ratio (y) = 0.10726 0.14972
# Poissons Ratio (z) = 0.83640 0.37388
#
# Static dielectric constant tensor:
#      x y z
#    x 3.315890 0.000000 -0.348780 
#    y 0.000000 3.427830 0.000000 
#    z -0.348780 0.000000 3.467560 
# 
# 
# High freq. dielectric constant tensor:
#      x y z
#    x 1.698820 0.000000 -0.028420 
#    y 0.000000 1.727430 0.000000 
#    z -0.028420 0.000000 1.712570 
# 
# From -- ./inp_files/324312.got.cif
#   From: 2010.06.25/outbox.cif.g09.slc.cpg/sg12_163_cif.got.tgz:324312.got - 2010.06.28 00:19:55.
