data_PCOD8088821
_publ_section_title
;
Structure prediction by ZEFSAII (Michael W. Deem and Ramdas Pophale) SiO2 
 PCOD8088821
Probable space group: C 2/M
;
_chemical_formula_sum "Si O2"
_cell_formula_units_Z 64
_cell_length_a 20.107949
_cell_length_b 8.889730
_cell_length_c 21.770063
_cell_angle_alpha 90.000000
_cell_angle_beta 60.321666
_cell_angle_gamma 90.000000
_cell_volume 3381.000576
_symmetry_space_group_name_H-M "C 2/M"
_symmetry_group_IT_number 12
_symmetry_cell_setting 'monoclinic'
loop_
_space_group_symop_operation_xyz
x,y,z
-x,y,-z
-x,-y,-z
x,-y,z
1/2+x,1/2+y,z
1/2-x,1/2+y,-z
1/2-x,1/2-y,-z
1/2+x,1/2-y,z
loop_
_atom_site_type_symbol
_atom_site_label
_atom_site_fract_x
_atom_site_fract_y
_atom_site_fract_z
Si Si1 0.269075 0.177585 0.555797
Si Si2 0.296952 0.326530 0.069055
Si Si3 0.782980 0.322763 0.196181
Si Si4 0.348698 0.323493 0.285973
Si Si5 0.849066 0.828035 0.914758
Si Si6 0.918022 0.678649 0.557252
Si Si7 0.479086 0.326667 0.763121
Si Si8 0.121706 0.677649 0.288746
O O1 0.250000 0.250000 0.500000
O O2 0.207106 0.230548 0.634226
O O3 0.352773 0.233148 0.539640
O O4 0.266709 0.000000 0.549014
O O5 0.297027 0.500000 0.088333
O O6 0.325650 0.230283 0.114322
O O7 0.210805 0.282516 0.089742
O O8 0.353666 0.295100 0.985696
O O9 0.779964 0.500000 0.200664
O O10 0.828273 0.262191 0.233547
O O11 0.697375 0.259514 0.231037
O O12 0.339140 0.500000 0.277923
O O13 0.434166 0.278272 0.265047
O O14 0.932223 0.799640 0.847498
O O15 0.821604 0.000000 0.916308
O O16 0.922069 0.500000 0.555712
O O17 0.897338 0.736462 0.634422
O O18 0.000000 0.747290 0.500000
O O19 0.473482 0.500000 0.744757
O O20 0.448339 0.221676 0.722943
O O21 0.135300 0.500000 0.281466
#
# Coordination Sequence:
#
# PCOD8088821 Si02
#       8
#     8   8   8   8   8   8   8   8
#     4  10  21  38  58  81 113 149 188 228 278 340
#     4  10  19  32  55  83 113 149 187 229 285 342
#     4  12  23  37  58  84 113 148 195 242 285 331
#     4  10  22  41  60  80 114 155 191 231 283 341
#     4   9  18  33  53  83 116 147 185 231 281 337
#     4   9  19  36  57  82 113 146 183 230 277 332
#     4  10  21  37  58  85 117 148 184 235 286 332
#     4  11  21  36  60  85 113 149 192 233 284 340
#
# _framework density 18.929309
#
# number of rings (size 3 to 8) (size 9 to 14) (size 15 to 20)
#    0.000    1.875    2.500    1.875    1.750    1.500 
#    0.000    0.625    0.000    5.625    0.000    0.000 
#    0.000    0.000    0.000    0.000    0.000    0.000 
#
# Total GULP energy -396871.616936 kJ/mol
# GULP energy per Si atom -12402.238029 kJ/mol
# Density = 1.888622 g / cm^3
# Si number density = 18.929309 Si / 1000 Ang^3
#
#
#
# Elastic Constant Matrix: (Units=GPa)
#
#
# Indices 1 2 3 4 5 6 
#
# 1 130.4204 37.6216 67.9366 0.0000 9.9968 -0.0010
# 2 37.6216 60.9455 31.0053 -0.0001 15.4712 -0.0019
# 3 67.9366 31.0053 125.0737 0.0000 20.7243 0.0000
# 4 0.0000 -0.0001 0.0000 24.0357 0.0000 8.3105
# 5 9.9968 15.4712 20.7243 0.0000 36.9554 -0.0001
# 6 -0.0010 -0.0019 0.0000 8.3105 -0.0001 29.4379
#
#
#
# Elastic Compliance Matrix: (Units=1/GPa)
#
#
# Indices 1 2 3 4 5 6 
#
# 1 0.011831 -0.005002 -0.005516 0.000000 0.001987 0.000000
# 2 -0.005002 0.022085 -0.001599 0.000000 -0.006996 0.000001
# 3 -0.005516 -0.001599 0.012159 0.000000 -0.004657 0.000000
# 4 0.000000 0.000000 0.000000 0.046105 0.000000 -0.013016
# 5 0.001987 -0.006996 -0.004657 0.000000 0.032063 0.000000
# 6 0.000000 0.000001 0.000000 -0.013016 0.000000 0.037644
#
#
# Mechanical properties :
#
#
# Convention : Reuss Voigt Hill
#
# Bulk Modulus (GPa) = 45.78068 65.50740 55.64404
# Shear Modulus (GPa) = 25.85301 30.07754 27.96528
#
# Velocity S-wave (km/s) = 3.69964 3.99048 3.84781
# Velocity P-wave (km/s) = 6.51823 7.47752 7.01429
#
# Compressibility (1/GPa) = 0.02184327
#
# Stress axis : x y z
#
# Youngs Moduli (GPa) = 84.52269 45.27966 82.24169
#
# Poissons Ratio (x) = 0.22647 0.45361
# Poissons Ratio (y) = 0.42275 0.13149
# Poissons Ratio (z) = 0.46620 0.07239
#
# Static dielectric constant tensor:
#      x y z
#    x 3.446340 0.000000 0.005470 
#    y 0.000000 3.325710 0.000000 
#    z 0.005470 0.000000 3.786470 
# 
# 
# High freq. dielectric constant tensor:
#      x y z
#    x 1.723470 0.000000 0.007940 
#    y 0.000000 1.721620 0.000000 
#    z 0.007940 0.000000 1.752160 
# 
# From -- ./inp_files/319890.got.cif
#   From: 2010.06.25/outbox.cif.g09.slc.cpg/sg12_160_cif.got.tgz:319890.got - 2010.06.28 00:19:55.
