data_PCOD8088568
_publ_section_title
;
Structure prediction by ZEFSAII (Michael W. Deem and Ramdas Pophale) SiO2 
 PCOD8088568
Probable space group: C 2/M
;
_chemical_formula_sum "Si O2"
_cell_formula_units_Z 52
_cell_length_a 18.565023
_cell_length_b 11.327338
_cell_length_c 27.277194
_cell_angle_alpha 90.000000
_cell_angle_beta 28.014674
_cell_angle_gamma 90.000000
_cell_volume 2694.272124
_symmetry_space_group_name_H-M "C 2/M"
_symmetry_group_IT_number 12
_symmetry_cell_setting 'monoclinic'
loop_
_space_group_symop_operation_xyz
x,y,z
-x,y,-z
-x,-y,-z
x,-y,z
1/2+x,1/2+y,z
1/2-x,1/2+y,-z
1/2-x,1/2-y,-z
1/2+x,1/2-y,z
loop_
_atom_site_type_symbol
_atom_site_label
_atom_site_fract_x
_atom_site_fract_y
_atom_site_fract_z
Si Si1 0.347686 0.862590 0.120238
Si Si2 0.935407 0.500000 0.470912
Si Si3 0.471020 0.717651 0.721406
Si Si4 0.830970 0.361783 0.334554
Si Si5 0.720772 0.238347 0.739938
Si Si6 0.441788 0.257557 0.437083
Si Si7 0.905648 0.000000 0.295200
Si Si8 0.225723 0.000000 0.721257
O O1 0.209537 0.783094 0.181656
O O2 0.372430 0.834206 0.162833
O O3 0.307538 0.000000 0.137247
O O4 0.500000 0.826940 0.000000
O O5 0.931496 0.616201 0.439507
O O6 0.779353 0.500000 0.594809
O O7 0.094721 0.500000 0.406818
O O8 0.517434 0.835621 0.723646
O O9 0.568819 0.699367 0.612803
O O10 0.516918 0.612784 0.729092
O O11 0.815987 0.500000 0.333367
O O12 0.842128 0.292667 0.276197
O O13 0.688048 0.314354 0.451516
O O14 0.705234 0.377618 0.763285
O O15 0.898641 0.200092 0.634839
O O16 0.919810 0.000000 0.228242
#
# Coordination Sequence:
#
# PCOD8088568 Si02
#       8
#     8   4   8   8   8   8   4   4
#     4  10  22  43  68  87 108 142 188 239 293 349
#     4  10  19  32  54  78 113 164 200 229 264 340
#     4  11  23  36  57  86 115 152 192 241 284 334
#     4  12  24  35  55  84 123 156 190 235 282 332
#     4  10  21  39  59  86 115 155 194 233 279 340
#     4  10  22  34  53  82 120 161 196 227 278 332
#     4  12  19  32  59  79 117 152 204 229 275 330
#     4  10  19  36  57  83 121 157 191 229 276 338
#
# _framework density 19.300204000000001
#
# number of rings (size 3 to 8) (size 9 to 14) (size 15 to 20)
#    0.000    1.385    3.846    1.615    2.154    4.308 
#    1.385    1.154    0.000    0.000    0.000    0.000 
#    0.000    0.000    0.000    0.000    0.000    0.000 
#
# Total GULP energy -322221.324673 kJ/mol
# GULP energy per Si atom -12393.127872 kJ/mol
# Density = 1.925628 g / cm^3
# Si number density = 19.300204 Si / 1000 Ang^3
#
#
#
# Elastic Constant Matrix: (Units=GPa)
#
#
# Indices 1 2 3 4 5 6 
#
# 1 108.8185 18.1255 41.5224 0.0089 1.1912 -0.0041
# 2 18.1255 91.2861 30.2160 0.0085 -0.9195 -0.0036
# 3 41.5224 30.2160 102.2897 0.0325 8.8205 -0.0157
# 4 0.0089 0.0085 0.0325 8.1085 0.0056 10.2064
# 5 1.1912 -0.9195 8.8205 0.0056 14.2932 -0.0027
# 6 -0.0041 -0.0036 -0.0157 10.2064 -0.0027 26.4926
#
#
#
# Elastic Compliance Matrix: (Units=1/GPa)
#
#
# Indices 1 2 3 4 5 6 
#
# 1 0.010964 -0.000705 -0.004394 0.000012 0.001752 -0.000005
# 2 -0.000705 0.012324 -0.003620 0.000001 0.003086 -0.000001
# 3 -0.004394 -0.003620 0.013327 -0.000091 -0.008091 0.000041
# 4 0.000012 0.000001 -0.000091 0.239438 -0.000056 -0.092244
# 5 0.001752 0.003086 -0.008091 -0.000056 0.075009 0.000025
# 6 -0.000005 -0.000001 0.000041 -0.092244 0.000025 0.073284
#
#
# Mechanical properties :
#
#
# Convention : Reuss Voigt Hill
#
# Bulk Modulus (GPa) = 52.14543 53.56910 52.85727
# Shear Modulus (GPa) = 11.15632 23.94755 17.55194
#
# Velocity S-wave (km/s) = 2.40686 3.52631 3.01893
# Velocity P-wave (km/s) = 5.89921 6.66302 6.29271
#
# Compressibility (1/GPa) = 0.01917714
#
# Stress axis : x y z
#
# Youngs Moduli (GPa) = 91.20472 81.14252 75.03708
#
# Poissons Ratio (x) = 0.05722 0.32968
# Poissons Ratio (y) = 0.06431 0.27166
# Poissons Ratio (z) = 0.40071 0.29376
#
# Static dielectric constant tensor:
#      x y z
#    x 3.731440 0.000000 -0.061840 
#    y 0.000000 5.276440 -0.000010 
#    z -0.061840 -0.000010 3.200210 
# 
# 
# High freq. dielectric constant tensor:
#      x y z
#    x 1.767010 0.000000 -0.005240 
#    y 0.000000 1.754740 0.000000 
#    z -0.005240 0.000000 1.705470 
# 
# From -- ./inp_files/293189.got.cif
#   From: 2010.06.25/outbox.cif.g09.slc.cpg/sg12_147_cif.got.tgz:293189.got - 2010.06.28 00:19:55.
