data_PCOD8088831
_publ_section_title
;
Structure prediction by ZEFSAII (Michael W. Deem and Ramdas Pophale) SiO2 
 PCOD8088831
Probable space group: C 2/M
;
_chemical_formula_sum "Si O2"
_cell_formula_units_Z 56
_cell_length_a 18.055452
_cell_length_b 8.894880
_cell_length_c 18.722704
_cell_angle_alpha 90.000000
_cell_angle_beta 104.671302
_cell_angle_gamma 90.000000
_cell_volume 2908.846124
_symmetry_space_group_name_H-M "C 2/M"
_symmetry_group_IT_number 12
_symmetry_cell_setting 'monoclinic'
loop_
_space_group_symop_operation_xyz
x,y,z
-x,y,-z
-x,-y,-z
x,-y,z
1/2+x,1/2+y,z
1/2-x,1/2+y,-z
1/2-x,1/2-y,-z
1/2+x,1/2-y,z
loop_
_atom_site_type_symbol
_atom_site_label
_atom_site_fract_x
_atom_site_fract_y
_atom_site_fract_z
Si Si1 0.996090 0.322661 0.298666
Si Si2 0.719432 0.824059 0.563837
Si Si3 0.434856 0.672106 0.425442
Si Si4 0.865923 0.324506 0.158606
Si Si5 0.793362 0.677079 0.839221
Si Si6 0.673015 0.827364 0.001255
Si Si7 0.848351 0.824549 0.709774
O O1 0.001272 0.500000 0.309535
O O2 0.079784 0.259493 0.305882
O O3 0.961620 0.252991 0.360995
O O4 0.941452 0.276777 0.219556
O O5 0.750000 0.750000 0.500000
O O6 0.638313 0.754954 0.561985
O O7 0.775890 0.789182 0.642797
O O8 0.710296 0.000000 0.548285
O O9 0.500000 0.683522 0.500000
O O10 0.414452 0.500000 0.403056
O O11 0.846469 0.500000 0.166303
O O12 0.793827 0.229252 0.168978
O O13 0.885411 0.292340 0.078601
O O14 0.793380 0.500000 0.822003
O O15 0.831322 0.765891 0.784291
O O16 0.847678 0.717195 0.921948
O O17 0.693401 0.000000 0.007734
O O18 0.750000 0.750000 0.000000
O O19 0.867003 0.000000 0.717221
#
# Coordination Sequence:
#
# PCOD8088831 Si02
#       7
#     8   8   8   8   8   8   8
#     4  11  23  38  58  83 110 145 188 229 272 324
#     4  11  24  41  62  87 113 145 184 225 272 323
#     4  11  24  41  61  86 116 148 180 219 271 326
#     4   9  18  34  55  80 111 144 179 225 279 328
#     4  10  19  32  55  84 109 141 186 228 270 325
#     4   8  15  29  50  77 108 140 177 223 272 323
#     4  11  24  40  56  78 112 149 183 225 277 326
#
# _framework density 19.251621
#
# number of rings (size 3 to 8) (size 9 to 14) (size 15 to 20)
#    0.000    1.857    0.000    3.857    0.000   12.000 
#    0.000    0.714    0.000    4.286    0.000    0.000 
#    0.000    0.000    0.000    0.000    0.000    0.000 
#
# Total GULP energy -347061.558548 kJ/mol
# GULP energy per Si atom -12395.055662 kJ/mol
# Density = 1.920780 g / cm^3
# Si number density = 19.251621 Si / 1000 Ang^3
#
#
#
# Elastic Constant Matrix: (Units=GPa)
#
#
# Indices 1 2 3 4 5 6 
#
# 1 120.0291 58.8474 40.0637 0.0000 -14.7035 0.0000
# 2 58.8474 96.1732 53.8700 0.0000 -6.8041 0.0000
# 3 40.0637 53.8700 148.9696 0.0000 -14.5742 0.0000
# 4 0.0000 0.0000 0.0000 35.0809 0.0000 -7.0929
# 5 -14.7035 -6.8041 -14.5742 0.0000 30.1619 0.0000
# 6 0.0000 0.0000 0.0000 -7.0929 0.0000 38.9412
#
#
#
# Elastic Compliance Matrix: (Units=1/GPa)
#
#
# Indices 1 2 3 4 5 6 
#
# 1 0.012471 -0.007127 -0.000356 0.000000 0.004300 0.000000
# 2 -0.007127 0.017126 -0.004449 0.000000 -0.001761 0.000000
# 3 -0.000356 -0.004449 0.008714 0.000000 0.003034 0.000000
# 4 0.000000 0.000000 0.000000 0.029595 0.000000 0.005391
# 5 0.004300 -0.001761 0.003034 0.000000 0.036319 0.000000
# 6 0.000000 0.000000 0.000000 0.005391 0.000000 0.026662
#
#
# Mechanical properties :
#
#
# Convention : Reuss Voigt Hill
#
# Bulk Modulus (GPa) = 69.21554 74.52602 71.87078
# Shear Modulus (GPa) = 31.33466 34.99617 33.16541
#
# Velocity S-wave (km/s) = 4.03878 4.26823 4.15509
# Velocity P-wave (km/s) = 7.60132 7.94267 7.77387
#
# Compressibility (1/GPa) = 0.01444762
#
# Stress axis : x y z
#
# Youngs Moduli (GPa) = 80.18439 58.38940 114.75814
#
# Poissons Ratio (x) = 0.41617 0.04085
# Poissons Ratio (y) = 0.57151 0.51051
# Poissons Ratio (z) = 0.02854 0.25975
#
# Static dielectric constant tensor:
#      x y z
#    x 3.624270 0.000000 0.339850 
#    y 0.000000 3.345890 0.000000 
#    z 0.339850 0.000000 4.521950 
# 
# 
# High freq. dielectric constant tensor:
#      x y z
#    x 1.730100 0.000000 -0.004230 
#    y 0.000000 1.762030 0.000000 
#    z -0.004230 0.000000 1.778190 
# 
# From -- ./inp_files/275477.got.cif
#   From: 2010.06.25/outbox.cif.g09.slc.cpg/sg12_138_cif.got.tgz:275477.got - 2010.06.28 00:19:55.
