data_PCOD8088391
_publ_section_title
;
Structure prediction by ZEFSAII (Michael W. Deem and Ramdas Pophale) SiO2 
 PCOD8088391
Probable space group: C 2/M
;
_chemical_formula_sum "Si O2"
_cell_formula_units_Z 64
_cell_length_a 19.003609
_cell_length_b 9.107776
_cell_length_c 20.658213
_cell_angle_alpha 90.000000
_cell_angle_beta 95.220645
_cell_angle_gamma 90.000000
_cell_volume 3560.703710
_symmetry_space_group_name_H-M "C 2/M"
_symmetry_group_IT_number 12
_symmetry_cell_setting 'monoclinic'
loop_
_space_group_symop_operation_xyz
x,y,z
-x,y,-z
-x,-y,-z
x,-y,z
1/2+x,1/2+y,z
1/2-x,1/2+y,-z
1/2-x,1/2-y,-z
1/2+x,1/2-y,z
loop_
_atom_site_type_symbol
_atom_site_label
_atom_site_fract_x
_atom_site_fract_y
_atom_site_fract_z
Si Si1 0.280136 0.174131 0.702536
Si Si2 0.971402 0.668397 0.233519
Si Si3 0.523320 0.330304 0.573277
Si Si4 0.681728 0.169824 0.018683
Si Si5 0.765983 0.328290 0.846324
Si Si6 0.582949 0.329812 0.321484
Si Si7 0.372926 0.828745 0.115572
Si Si8 0.363689 0.169904 0.338877
O O1 0.291619 0.224218 0.778181
O O2 0.344081 0.242026 0.667021
O O3 0.207810 0.238029 0.668854
O O4 0.279541 0.000000 0.694045
O O5 0.997623 0.500000 0.238498
O O6 0.944960 0.713924 0.159217
O O7 0.905361 0.693553 0.275578
O O8 0.036671 0.771197 0.257387
O O9 0.500000 0.283375 0.500000
O O10 0.546650 0.500000 0.578476
O O11 0.457727 0.300327 0.615199
O O12 0.589640 0.230336 0.598026
O O13 0.672348 0.209512 0.094444
O O14 0.699011 0.000000 0.014750
O O15 0.750000 0.250000 0.000000
O O16 0.619086 0.207902 0.961560
O O17 0.750085 0.500000 0.842681
O O18 0.692858 0.253423 0.858712
O O19 0.598718 0.500000 0.311110
O O20 0.358507 0.000000 0.125946
O O21 0.346173 0.000000 0.349811
#
# Coordination Sequence:
#
# PCOD8088391 Si02
#       8
#     8   8   8   8   8   8   8   8
#     4  11  21  33  50  73 105 139 170 208 251 294
#     4   9  17  30  48  72 100 130 164 206 253 298
#     4   9  19  38  61  82 105 132 162 199 246 297
#     4   8  14  24  38  61  92 124 161 204 249 295
#     4   9  17  27  42  66  96 130 166 205 249 295
#     4  10  21  35  53  76 101 130 165 204 247 297
#     4   9  15  25  44  68  95 126 162 207 254 298
#     4  10  19  32  53  80 107 133 168 207 243 291
#
# _framework density 17.973973999999998
#
# number of rings (size 3 to 8) (size 9 to 14) (size 15 to 20)
#    0.000    2.625    1.250    1.125    0.000    2.250 
#    0.000    0.625    0.000    0.750    0.000    5.250 
#    0.000    0.000    0.000    0.000    0.000    0.000 
#
# Total GULP energy -396543.256277 kJ/mol
# GULP energy per Si atom -12391.976759 kJ/mol
# Density = 1.793306 g / cm^3
# Si number density = 17.973974 Si / 1000 Ang^3
#
#
#
# Elastic Constant Matrix: (Units=GPa)
#
#
# Indices 1 2 3 4 5 6 
#
# 1 90.1251 48.9349 44.4782 0.0000 12.3932 0.0000
# 2 48.9349 71.5932 41.3887 0.0000 8.2381 0.0000
# 3 44.4782 41.3887 116.4810 0.0000 27.2465 0.0000
# 4 0.0000 0.0000 0.0000 20.3027 0.0000 4.8343
# 5 12.3932 8.2381 27.2465 0.0000 20.9802 0.0000
# 6 0.0000 0.0000 0.0000 4.8343 0.0000 31.1192
#
#
#
# Elastic Compliance Matrix: (Units=1/GPa)
#
#
# Indices 1 2 3 4 5 6 
#
# 1 0.018763 -0.011020 -0.002397 0.000000 -0.003644 0.000000
# 2 -0.011020 0.024095 -0.005262 0.000000 0.003881 0.000000
# 3 -0.002397 -0.005262 0.015161 0.000000 -0.016207 0.000000
# 4 0.000000 0.000000 0.000000 0.051146 0.000000 -0.007945
# 5 -0.003644 0.003881 -0.016207 0.000000 0.069341 0.000000
# 6 0.000000 0.000000 0.000000 -0.007945 0.000000 0.033369
#
#
# Mechanical properties :
#
#
# Convention : Reuss Voigt Hill
#
# Bulk Modulus (GPa) = 48.39599 60.86698 54.63149
# Shear Modulus (GPa) = 19.52217 24.04026 21.78121
#
# Velocity S-wave (km/s) = 3.29923 3.66116 3.48490
# Velocity P-wave (km/s) = 6.44184 7.19789 6.83033
#
# Compressibility (1/GPa) = 0.02066287
#
# Stress axis : x y z
#
# Youngs Moduli (GPa) = 53.29635 41.50191 65.95886
#
# Poissons Ratio (x) = 0.45735 0.15808
# Poissons Ratio (y) = 0.58732 0.34705
# Poissons Ratio (z) = 0.12773 0.21837
#
# Static dielectric constant tensor:
#      x y z
#    x 3.003700 0.000000 0.264600 
#    y 0.000000 3.309040 0.000000 
#    z 0.264600 0.000000 3.696240 
# 
# 
# High freq. dielectric constant tensor:
#      x y z
#    x 1.663930 0.000000 0.024310 
#    y 0.000000 1.699280 0.000000 
#    z 0.024310 0.000000 1.698120 
# 
# From -- ./inp_files/314132.got.cif
#   From: 2010.06.25/outbox.cif.g09.slc.cpg/sg12_158_cif.got.tgz:314132.got - 2010.06.28 00:19:55.
