data_PCOD8088457
_publ_section_title
;
Structure prediction by ZEFSAII (Michael W. Deem and Ramdas Pophale) SiO2 
 PCOD8088457
Probable space group: C 2/M
;
_chemical_formula_sum "Si O2"
_cell_formula_units_Z 56
_cell_length_a 20.030484
_cell_length_b 9.235835
_cell_length_c 19.009363
_cell_angle_alpha 90.000000
_cell_angle_beta 59.188165
_cell_angle_gamma 90.000000
_cell_volume 3020.331220
_symmetry_space_group_name_H-M "C 2/M"
_symmetry_group_IT_number 12
_symmetry_cell_setting 'monoclinic'
loop_
_space_group_symop_operation_xyz
x,y,z
-x,y,-z
-x,-y,-z
x,-y,z
1/2+x,1/2+y,z
1/2-x,1/2+y,-z
1/2-x,1/2-y,-z
1/2+x,1/2-y,z
loop_
_atom_site_type_symbol
_atom_site_label
_atom_site_fract_x
_atom_site_fract_y
_atom_site_fract_z
Si Si1 0.898121 0.330472 0.733256
Si Si2 0.516514 0.332199 0.570616
Si Si3 0.117393 0.171919 0.744388
Si Si4 0.776637 0.169555 0.189783
Si Si5 0.442201 0.333357 0.844690
Si Si6 0.308246 0.667056 0.018645
Si Si7 0.327338 0.331307 0.436807
O O1 0.914151 0.500000 0.730814
O O2 0.813594 0.297550 0.746209
O O3 0.899300 0.262675 0.809900
O O4 0.963021 0.261550 0.649598
O O5 0.500000 0.284014 0.500000
O O6 0.495872 0.500000 0.593982
O O7 0.606317 0.301689 0.540781
O O8 0.173118 0.240220 0.774306
O O9 0.143412 0.229958 0.654035
O O10 0.029837 0.223075 0.807990
O O11 0.122599 0.000000 0.741792
O O12 0.803679 0.233439 0.099742
O O13 0.793427 0.000000 0.179545
O O14 0.442182 0.500000 0.818902
O O15 0.396287 0.316206 0.942843
O O16 0.281791 0.500000 0.033707
O O17 0.250000 0.750000 0.000000
O O18 0.307634 0.500000 0.442234
O O19 0.250000 0.250000 0.500000
#
# Coordination Sequence:
#
# PCOD8088457 Si02
#       7
#     8   8   8   8   8   8   8
#     4  11  21  34  56  82 111 144 179 224 270 319
#     4  10  22  40  59  81 111 144 181 225 269 321
#     4   9  18  35  55  76 108 142 177 222 271 322
#     4   9  19  33  51  81 113 140 176 226 275 314
#     4  10  19  34  58  80 105 146 185 219 268 325
#     4  10  19  32  53  81 110 141 180 224 271 321
#     4  10  21  37  57  79 107 143 176 218 271 320
#
# _framework density 18.541013
#
# number of rings (size 3 to 8) (size 9 to 14) (size 15 to 20)
#    0.000    2.143    2.857    0.429    2.000    1.429 
#    0.000    2.857    0.000    3.429    0.000    2.000 
#    0.000    0.000    0.000    0.000    0.000    0.000 
#
# Total GULP energy -347213.129102 kJ/mol
# GULP energy per Si atom -12400.468897 kJ/mol
# Density = 1.849881 g / cm^3
# Si number density = 18.541013 Si / 1000 Ang^3
#
#
#
# Elastic Constant Matrix: (Units=GPa)
#
#
# Indices 1 2 3 4 5 6 
#
# 1 133.9903 28.0361 50.5958 0.0000 4.4935 0.0003
# 2 28.0361 42.8243 30.0500 0.0001 -4.7215 0.0011
# 3 50.5958 30.0500 111.4334 0.0000 -7.6233 -0.0001
# 4 0.0000 0.0001 0.0000 22.7839 -0.0001 -2.9756
# 5 4.4935 -4.7215 -7.6233 -0.0001 35.5827 -0.0001
# 6 0.0003 0.0011 -0.0001 -2.9756 -0.0001 21.8639
#
#
#
# Elastic Compliance Matrix: (Units=1/GPa)
#
#
# Indices 1 2 3 4 5 6 
#
# 1 0.009737 -0.004231 -0.003454 0.000000 -0.002531 0.000000
# 2 -0.004231 0.030808 -0.006161 0.000000 0.003302 -0.000002
# 3 -0.003454 -0.006161 0.012359 0.000000 0.002266 0.000000
# 4 0.000000 0.000000 0.000000 0.044685 0.000000 0.006081
# 5 -0.002531 0.003302 0.002266 0.000000 0.029347 0.000000
# 6 0.000000 -0.000002 0.000000 0.006081 0.000000 0.046565
#
#
# Mechanical properties :
#
#
# Convention : Reuss Voigt Hill
#
# Bulk Modulus (GPa) = 39.66104 56.17909 47.92007
# Shear Modulus (GPa) = 23.85537 28.01715 25.93626
#
# Velocity S-wave (km/s) = 3.59085 3.89149 3.74419
# Velocity P-wave (km/s) = 6.21528 7.11037 6.67784
#
# Compressibility (1/GPa) = 0.02521366
#
# Stress axis : x y z
#
# Youngs Moduli (GPa) = 102.69701 32.45875 80.91559
#
# Poissons Ratio (x) = 0.13732 0.27944
# Poissons Ratio (y) = 0.43446 0.49854
# Poissons Ratio (z) = 0.35467 0.19999
#
# Static dielectric constant tensor:
#      x y z
#    x 3.693910 0.000000 0.139340 
#    y 0.000000 3.123350 0.000000 
#    z 0.139340 0.000000 3.626190 
# 
# 
# High freq. dielectric constant tensor:
#      x y z
#    x 1.725970 0.000000 -0.003150 
#    y 0.000000 1.684390 0.000000 
#    z -0.003150 0.000000 1.731890 
# 
# From -- ./inp_files/319642.got.cif
#   From: 2010.06.25/outbox.cif.g09.slc.cpg/sg12_160_cif.got.tgz:319642.got - 2010.06.28 00:19:55.
