data_PCOD8088744
_publ_section_title
;
Structure prediction by ZEFSAII (Michael W. Deem and Ramdas Pophale) SiO2 
 PCOD8088744
Probable space group: C 2/M
;
_chemical_formula_sum "Si O2"
_cell_formula_units_Z 56
_cell_length_a 21.991916
_cell_length_b 9.064244
_cell_length_c 14.582846
_cell_angle_alpha 90.000000
_cell_angle_beta 78.866570
_cell_angle_gamma 90.000000
_cell_volume 2852.237638
_symmetry_space_group_name_H-M "C 2/M"
_symmetry_group_IT_number 12
_symmetry_cell_setting 'monoclinic'
loop_
_space_group_symop_operation_xyz
x,y,z
-x,y,-z
-x,-y,-z
x,-y,z
1/2+x,1/2+y,z
1/2-x,1/2+y,-z
1/2-x,1/2-y,-z
1/2+x,1/2-y,z
loop_
_atom_site_type_symbol
_atom_site_label
_atom_site_fract_x
_atom_site_fract_y
_atom_site_fract_z
Si Si1 0.530286 0.328208 0.755408
Si Si2 0.346781 0.828229 0.619171
Si Si3 0.355687 0.673689 0.149239
Si Si4 0.894576 0.668200 0.410705
Si Si5 0.183950 0.326939 0.015658
Si Si6 0.905370 0.329850 0.792977
Si Si7 0.720871 0.828273 0.680625
O O1 0.521687 0.500000 0.746378
O O2 0.580205 0.288490 0.818845
O O3 0.552185 0.266309 0.650780
O O4 0.465425 0.260737 0.805757
O O5 0.391067 0.796285 0.519579
O O6 0.383932 0.779920 0.698501
O O7 0.286178 0.729335 0.625647
O O8 0.327213 0.000000 0.628569
O O9 0.345508 0.500000 0.138994
O O10 0.298020 0.737536 0.223406
O O11 0.357993 0.754073 0.050995
O O12 0.913970 0.500000 0.387605
O O13 0.827814 0.701838 0.386077
O O14 0.192219 0.500000 0.994179
O O15 0.150318 0.296496 0.121448
O O16 0.250000 0.250000 0.000000
O O17 0.924246 0.500000 0.788923
O O18 0.725117 0.000000 0.705016
#
# Coordination Sequence:
#
# PCOD8088744 Si02
#       7
#     8   8   8   8   8   8   8
#     4  10  22  39  59  82 109 144 188 235 281 325
#     4  10  20  35  55  80 112 152 189 226 278 336
#     4  10  21  38  59  82 111 148 186 230 281 333
#     4   9  19  35  56  81 112 149 187 227 277 336
#     4  11  23  39  61  89 117 148 183 224 276 332
#     4  10  23  40  57  79 111 148 185 225 274 333
#     4  10  19  32  54  85 115 145 184 232 281 332
#
# _framework density 19.633709
#
# number of rings (size 3 to 8) (size 9 to 14) (size 15 to 20)
#    0.000    2.000    0.000    3.000    0.000    6.857 
#    0.000    5.714    0.000    0.000    0.000    0.000 
#    0.000    0.000    0.000    0.000    0.000    0.000 
#
# Total GULP energy -347354.683661 kJ/mol
# GULP energy per Si atom -12405.524416 kJ/mol
# Density = 1.958902 g / cm^3
# Si number density = 19.633709 Si / 1000 Ang^3
#
#
#
# Elastic Constant Matrix: (Units=GPa)
#
#
# Indices 1 2 3 4 5 6 
#
# 1 94.9664 56.6037 49.8322 0.0000 -12.3819 0.0000
# 2 56.6037 96.2453 55.3720 0.0000 -3.6390 0.0000
# 3 49.8322 55.3720 123.9893 0.0000 12.6265 0.0000
# 4 0.0000 0.0000 0.0000 32.3561 0.0000 -5.4796
# 5 -12.3819 -3.6390 12.6265 0.0000 25.9136 0.0000
# 6 0.0000 0.0000 0.0000 -5.4796 0.0000 35.4458
#
#
#
# Elastic Compliance Matrix: (Units=1/GPa)
#
#
# Indices 1 2 3 4 5 6 
#
# 1 0.019522 -0.007971 -0.005390 0.000000 0.010834 0.000000
# 2 -0.007971 0.017956 -0.004929 0.000000 0.001115 0.000000
# 3 -0.005390 -0.004929 0.013432 0.000000 -0.009812 0.000000
# 4 0.000000 0.000000 0.000000 0.031737 0.000000 0.004906
# 5 0.010834 0.001115 -0.009812 0.000000 0.048704 0.000000
# 6 0.000000 0.000000 0.000000 0.004906 0.000000 0.028971
#
#
# Mechanical properties :
#
#
# Convention : Reuss Voigt Hill
#
# Bulk Modulus (GPa) = 69.77976 70.97963 70.37970
# Shear Modulus (GPa) = 24.79234 28.96933 26.88083
#
# Velocity S-wave (km/s) = 3.55737 3.84538 3.70417
# Velocity P-wave (km/s) = 7.24507 7.47973 7.36333
#
# Compressibility (1/GPa) = 0.01433080
#
# Stress axis : x y z
#
# Youngs Moduli (GPa) = 51.22541 55.69314 74.45083
#
# Poissons Ratio (x) = 0.44391 0.40126
# Poissons Ratio (y) = 0.40830 0.36695
# Poissons Ratio (z) = 0.27609 0.27450
#
# Static dielectric constant tensor:
#      x y z
#    x 3.456950 0.000000 0.118690 
#    y 0.000000 3.595960 0.000000 
#    z 0.118690 0.000000 3.688560 
# 
# 
# High freq. dielectric constant tensor:
#      x y z
#    x 1.760300 0.000000 0.002250 
#    y 0.000000 1.768870 0.000000 
#    z 0.002250 0.000000 1.771300 
# 
# From -- ./inp_files/237466.got.cif
#   From: 2010.06.25/outbox.cif.g09.slc.cpg/sg12_119_cif.got.tgz:237466.got - 2010.06.28 00:19:55.
