data_PCOD8088820
_publ_section_title
;
Structure prediction by ZEFSAII (Michael W. Deem and Ramdas Pophale) SiO2 
 PCOD8088820
Probable space group: C 2/M
;
_chemical_formula_sum "Si O2"
_cell_formula_units_Z 64
_cell_length_a 19.919268
_cell_length_b 12.406490
_cell_length_c 14.340908
_cell_angle_alpha 90.000000
_cell_angle_beta 108.206611
_cell_angle_gamma 90.000000
_cell_volume 3366.613837
_symmetry_space_group_name_H-M "C 2/M"
_symmetry_group_IT_number 12
_symmetry_cell_setting 'monoclinic'
loop_
_space_group_symop_operation_xyz
x,y,z
-x,y,-z
-x,-y,-z
x,-y,z
1/2+x,1/2+y,z
1/2-x,1/2+y,-z
1/2-x,1/2-y,-z
1/2+x,1/2-y,z
loop_
_atom_site_type_symbol
_atom_site_label
_atom_site_fract_x
_atom_site_fract_y
_atom_site_fract_z
Si Si1 0.865706 0.376362 0.248537
Si Si2 0.104626 0.624949 0.099093
Si Si3 0.436899 0.285938 0.404664
Si Si4 0.503662 0.375676 0.254971
Si Si5 0.962348 0.685566 0.122113
Si Si6 0.730979 0.742747 0.239779
Si Si7 0.802026 0.875951 0.430506
Si Si8 0.841970 0.876045 0.643857
O O1 0.844373 0.500000 0.259366
O O2 0.904973 0.328265 0.356285
O O3 0.916974 0.374738 0.181547
O O4 0.795466 0.300899 0.203681
O O5 0.124633 0.500000 0.094020
O O6 0.175117 0.690104 0.155614
O O7 0.040801 0.633307 0.146391
O O8 0.079389 0.677480 0.992001
O O9 0.500000 0.255155 0.500000
O O10 0.456243 0.359416 0.325043
O O11 0.383100 0.360096 0.437402
O O12 0.505818 0.500000 0.225687
O O13 0.470682 0.310813 0.153435
O O14 0.580170 0.324460 0.312158
O O15 0.751686 0.815366 0.337166
O O16 0.697040 0.638641 0.274507
O O17 0.797799 0.830514 0.535589
O O18 0.779492 0.000000 0.415623
O O19 0.854498 0.000000 0.627653
#
# Coordination Sequence:
#
# PCOD8088820 Si02
#       8
#     8   8   8   8   8   8   8   8
#     4  10  22  39  58  81 117 156 189 232 289 347
#     4  11  22  39  65  87 110 146 192 246 292 338
#     4  10  19  32  55  83 113 148 193 238 276 331
#     4  10  19  33  56  84 115 146 182 232 285 337
#     4  10  21  41  61  86 113 144 193 240 293 342
#     4  11  22  37  55  84 116 148 194 234 283 344
#     4  10  20  33  52  79 113 151 189 231 280 334
#     4  10  19  33  53  76 110 152 186 222 278 337
#
# _framework density 19.010199
#
# number of rings (size 3 to 8) (size 9 to 14) (size 15 to 20)
#    0.000    1.750    2.500    3.000    0.000    1.250 
#    0.000    3.125    0.000    0.750    0.000    0.000 
#    0.000    0.000    0.000    0.000    0.000    0.000 
#
# Total GULP energy -396636.775778 kJ/mol
# GULP energy per Si atom -12394.899243 kJ/mol
# Density = 1.896693 g / cm^3
# Si number density = 19.010199 Si / 1000 Ang^3
#
#
#
# Elastic Constant Matrix: (Units=GPa)
#
#
# Indices 1 2 3 4 5 6 
#
# 1 70.8936 22.0063 29.9934 0.0000 8.6912 0.0000
# 2 22.0063 93.4630 46.2863 0.0000 9.8174 0.0000
# 3 29.9934 46.2863 94.0437 0.0000 11.7618 0.0000
# 4 0.0000 0.0000 0.0000 19.9245 0.0000 1.1055
# 5 8.6912 9.8174 11.7618 0.0000 34.3751 0.0000
# 6 0.0000 0.0000 0.0000 1.1055 0.0000 23.4646
#
#
#
# Elastic Compliance Matrix: (Units=1/GPa)
#
#
# Indices 1 2 3 4 5 6 
#
# 1 0.016678 -0.001578 -0.004254 0.000000 -0.002311 0.000000
# 2 -0.001578 0.014397 -0.006392 0.000000 -0.001526 0.000000
# 3 -0.004254 -0.006392 0.015433 0.000000 -0.002380 0.000000
# 4 0.000000 0.000000 0.000000 0.050321 0.000000 -0.002371
# 5 -0.002311 -0.001526 -0.002380 0.000000 0.030925 0.000000
# 6 0.000000 0.000000 0.000000 -0.002371 0.000000 0.042729
#
#
# Mechanical properties :
#
#
# Convention : Reuss Voigt Hill
#
# Bulk Modulus (GPa) = 45.32642 50.55249 47.93946
# Shear Modulus (GPa) = 24.71775 26.22713 25.47244
#
# Velocity S-wave (km/s) = 3.60979 3.71837 3.66448
# Velocity P-wave (km/s) = 6.42410 6.71454 6.57093
#
# Compressibility (1/GPa) = 0.02206219
#
# Stress axis : x y z
#
# Youngs Moduli (GPa) = 59.95810 69.46115 64.79422
#
# Poissons Ratio (x) = 0.10959 0.27562
# Poissons Ratio (y) = 0.09459 0.41414
# Poissons Ratio (z) = 0.25505 0.44397
#
# Static dielectric constant tensor:
#      x y z
#    x 3.604490 0.000000 0.025320 
#    y 0.000000 3.328360 0.000000 
#    z 0.025320 0.000000 3.445800 
# 
# 
# High freq. dielectric constant tensor:
#      x y z
#    x 1.746590 0.000000 -0.000630 
#    y 0.000000 1.733610 0.000000 
#    z -0.000630 0.000000 1.732640 
# 
# From -- ./inp_files/232448.got.cif
#   From: 2010.06.25/outbox.cif.g09.slc.cpg/sg12_117_cif.got.tgz:232448.got - 2010.06.28 00:19:55.
