data_PCOD8088254
_publ_section_title
;
Structure prediction by ZEFSAII (Michael W. Deem and Ramdas Pophale) SiO2 
 PCOD8088254
Probable space group: C 2/M
;
_chemical_formula_sum "Si O2"
_cell_formula_units_Z 40
_cell_length_a 26.196982
_cell_length_b 8.568442
_cell_length_c 9.155483
_cell_angle_alpha 90.000000
_cell_angle_beta 85.606842
_cell_angle_gamma 90.000000
_cell_volume 2049.068644
_symmetry_space_group_name_H-M "C 2/M"
_symmetry_group_IT_number 12
_symmetry_cell_setting 'monoclinic'
loop_
_space_group_symop_operation_xyz
x,y,z
-x,y,-z
-x,-y,-z
x,-y,z
1/2+x,1/2+y,z
1/2-x,1/2+y,-z
1/2-x,1/2-y,-z
1/2+x,1/2-y,z
loop_
_atom_site_type_symbol
_atom_site_label
_atom_site_fract_x
_atom_site_fract_y
_atom_site_fract_z
Si Si1 0.808088 0.317979 0.863753
Si Si2 0.200346 0.177971 0.821961
Si Si3 0.489850 0.317114 0.335929
Si Si4 0.098904 0.680006 0.822381
Si Si5 0.089529 0.182928 0.141630
O O1 0.807786 0.500000 0.910285
O O2 0.759896 0.285271 0.764159
O O3 0.863358 0.271102 0.785412
O O4 0.802278 0.206040 0.004245
O O5 0.157161 0.284196 0.753621
O O6 0.186482 0.000000 0.789489
O O7 0.500000 0.271421 0.500000
O O8 0.479895 0.500000 0.318741
O O9 0.439510 0.225705 0.297155
O O10 0.537443 0.259763 0.228234
O O11 0.093682 0.500000 0.862876
O O12 0.086610 0.777791 0.970756
O O13 0.096756 0.000000 0.162717
#
# Coordination Sequence:
#
# PCOD8088254 Si02
#       5
#     8   8   8   8   8
#     4   9  16  26  44  72 103 131 160 200 246 289
#     4   9  16  27  45  70 101 134 164 197 241 292
#     4  10  22  39  55  71  96 132 171 209 251 299
#     4  11  21  32  51  78 105 132 164 206 249 291
#     4  10  19  32  53  77 101 132 167 204 247 296
#
# _framework density 19.521065
#
# number of rings (size 3 to 8) (size 9 to 14) (size 15 to 20)
#    0.000    2.200    0.000    6.600    0.000    6.800 
#    0.000    0.000    0.000    1.200    0.000    0.000 
#    0.000    0.000    0.000    0.000    0.000    0.000 
#
# Total GULP energy -247858.251026 kJ/mol
# GULP energy per Si atom -12392.912551 kJ/mol
# Density = 1.947663 g / cm^3
# Si number density = 19.521065 Si / 1000 Ang^3
#
#
#
# Elastic Constant Matrix: (Units=GPa)
#
#
# Indices 1 2 3 4 5 6 
#
# 1 176.9265 43.4394 41.3309 0.0000 33.9789 0.0000
# 2 43.4394 60.8584 14.4177 0.0000 7.8540 0.0000
# 3 41.3309 14.4177 43.8912 0.0000 12.9704 0.0000
# 4 0.0000 0.0000 0.0000 10.0672 0.0000 7.7566
# 5 33.9789 7.8540 12.9704 0.0000 11.0466 0.0000
# 6 0.0000 0.0000 0.0000 7.7566 0.0000 35.6504
#
#
#
# Elastic Compliance Matrix: (Units=1/GPa)
#
#
# Indices 1 2 3 4 5 6 
#
# 1 0.015226 -0.005330 0.000204 0.000000 -0.043284 0.000000
# 2 -0.005330 0.020271 -0.003408 0.000000 0.005985 0.000000
# 3 0.000204 -0.003408 0.035497 0.000000 -0.039885 0.000000
# 4 0.000000 0.000000 0.000000 0.119337 0.000000 -0.025965
# 5 -0.043284 0.005985 -0.039885 0.000000 0.266243 0.000000
# 6 0.000000 0.000000 0.000000 -0.025965 0.000000 0.033699
#
#
# Mechanical properties :
#
#
# Convention : Reuss Voigt Hill
#
# Bulk Modulus (GPa) = 18.54387 53.33913 35.94150
# Shear Modulus (GPa) = 9.51805 23.51872 16.51838
#
# Velocity S-wave (km/s) = 2.21051 3.47477 2.91208
# Velocity P-wave (km/s) = 4.00440 6.59408 5.45514
#
# Compressibility (1/GPa) = 0.05392619
#
# Stress axis : x y z
#
# Youngs Moduli (GPa) = 65.67774 49.33085 28.17136
#
# Poissons Ratio (x) = 0.26295 -0.00576
# Poissons Ratio (y) = 0.35008 0.09601
# Poissons Ratio (z) = -0.01342 0.16812
#
# Static dielectric constant tensor:
#      x y z
#    x 4.456150 0.000000 0.042470 
#    y 0.000000 3.486480 0.000000 
#    z 0.042470 0.000000 2.927250 
# 
# 
# High freq. dielectric constant tensor:
#      x y z
#    x 1.795640 0.000000 0.012280 
#    y 0.000000 1.764500 0.000000 
#    z 0.012280 0.000000 1.683130 
# 
# From -- ./inp_files/101104.got.cif
#   From: 2010.06.25/outbox.cif.g09.slc.cpg/sg12_51_cif.got.tgz:101104.got - 2010.06.28 00:19:55.
