data_PCOD8088480
_publ_section_title
;
Structure prediction by ZEFSAII (Michael W. Deem and Ramdas Pophale) SiO2 
 PCOD8088480
Probable space group: C 2/M
;
_chemical_formula_sum "Si O2"
_cell_formula_units_Z 64
_cell_length_a 28.233547
_cell_length_b 15.178129
_cell_length_c 9.382886
_cell_angle_alpha 90.000000
_cell_angle_beta 52.604165
_cell_angle_gamma 90.000000
_cell_volume 3194.416096
_symmetry_space_group_name_H-M "C 2/M"
_symmetry_group_IT_number 12
_symmetry_cell_setting 'monoclinic'
loop_
_space_group_symop_operation_xyz
x,y,z
-x,y,-z
-x,-y,-z
x,-y,z
1/2+x,1/2+y,z
1/2-x,1/2+y,-z
1/2-x,1/2-y,-z
1/2+x,1/2-y,z
loop_
_atom_site_type_symbol
_atom_site_label
_atom_site_fract_x
_atom_site_fract_y
_atom_site_fract_z
Si Si1 0.813371 0.601200 0.810105
Si Si2 0.256581 0.832518 0.389498
Si Si3 0.931519 0.094535 0.163539
Si Si4 0.326925 0.602168 0.912323
Si Si5 0.355825 0.598058 0.553272
Si Si6 0.851546 0.282118 0.991250
Si Si7 0.930096 0.283873 0.097734
Si Si8 0.346552 0.901774 0.430681
O O1 0.832944 0.500000 0.800696
O O2 0.825598 0.630293 0.624933
O O3 0.743856 0.612160 0.970793
O O4 0.851824 0.665630 0.841098
O O5 0.250000 0.750000 0.500000
O O6 0.190321 0.859154 0.471240
O O7 0.291954 0.810941 0.181367
O O8 0.291152 0.904717 0.421823
O O9 0.920186 0.102292 0.356313
O O10 0.905675 0.183017 0.141889
O O11 0.902318 0.000000 0.166079
O O12 0.000000 0.090359 0.000000
O O13 0.344164 0.500000 0.922412
O O14 0.357173 0.636781 0.709563
O O15 0.352162 0.675148 0.975461
O O16 0.332213 0.500000 0.621732
O O17 0.909349 0.314761 0.977965
O O18 0.898112 0.337153 0.281658
O O19 0.000000 0.292287 0.000000
O O20 0.373123 0.000000 0.391136
#
# Coordination Sequence:
#
# PCOD8088480 Si02
#       8
#     8   8   8   8   8   8   8   8
#     4  10  21  37  57  86 124 159 187 227 290 357
#     4  11  21  32  53  87 120 155 195 238 286 348
#     4   9  19  36  58  81 110 148 192 242 294 343
#     4  10  21  34  54  87 125 156 189 228 281 358
#     4  10  19  32  53  81 114 153 192 234 282 342
#     4  11  22  35  59  84 116 157 192 240 295 345
#     4  10  23  42  62  85 110 149 205 255 299 346
#     4  10  22  38  59  85 120 158 192 244 300 348
#
# _framework density 20.034960000000002
#
# number of rings (size 3 to 8) (size 9 to 14) (size 15 to 20)
#    0.000    1.875    1.250    3.000    3.500    2.750 
#    0.000    3.750    0.000    1.500    0.000    6.125 
#    0.000    0.000    0.000    0.000    0.000    0.000 
#
# Total GULP energy -396425.889819 kJ/mol
# GULP energy per Si atom -12388.309057 kJ/mol
# Density = 1.998936 g / cm^3
# Si number density = 20.034960 Si / 1000 Ang^3
#
#
#
# Elastic Constant Matrix: (Units=GPa)
#
#
# Indices 1 2 3 4 5 6 
#
# 1 72.3024 24.9505 49.8022 0.0000 4.4836 0.0000
# 2 24.9505 92.1197 43.5316 0.0000 6.5817 0.0000
# 3 49.8022 43.5316 135.9395 0.0000 9.8252 0.0000
# 4 0.0000 0.0000 0.0000 22.7008 0.0000 8.8264
# 5 4.4836 6.5817 9.8252 0.0000 29.1031 0.0000
# 6 0.0000 0.0000 0.0000 8.8264 0.0000 17.5581
#
#
#
# Elastic Compliance Matrix: (Units=1/GPa)
#
#
# Indices 1 2 3 4 5 6 
#
# 1 0.018864 -0.002158 -0.006196 0.000000 -0.000326 0.000000
# 2 -0.002158 0.013106 -0.003297 0.000000 -0.001519 0.000000
# 3 -0.006196 -0.003297 0.010823 0.000000 -0.001954 0.000000
# 4 0.000000 0.000000 0.000000 0.054753 0.000000 -0.027524
# 5 -0.000326 -0.001519 -0.001954 0.000000 0.035414 0.000000
# 6 0.000000 0.000000 0.000000 -0.027524 0.000000 0.070790
#
#
# Mechanical properties :
#
#
# Convention : Reuss Voigt Hill
#
# Bulk Modulus (GPa) = 51.30427 59.65890 55.48159
# Shear Modulus (GPa) = 21.40879 26.01088 23.70984
#
# Velocity S-wave (km/s) = 3.27245 3.60707 3.44382
# Velocity P-wave (km/s) = 6.31993 6.86949 6.60043
#
# Compressibility (1/GPa) = 0.01949155
#
# Stress axis : x y z
#
# Youngs Moduli (GPa) = 53.01206 76.29946 92.39468
#
# Poissons Ratio (x) = 0.16464 0.57250
# Poissons Ratio (y) = 0.11439 0.30460
# Poissons Ratio (z) = 0.32847 0.25154
#
# Static dielectric constant tensor:
#      x y z
#    x 3.370360 0.000000 0.315160 
#    y 0.000000 4.066650 0.000000 
#    z 0.315160 0.000000 3.978840 
# 
# 
# High freq. dielectric constant tensor:
#      x y z
#    x 1.740040 0.000000 0.015750 
#    y 0.000000 1.798090 0.000000 
#    z 0.015750 0.000000 1.791140 
# 
# From -- ./inp_files/111954.got.cif
#   From: 2010.06.25/outbox.cif.g09.slc.cpg/sg12_56_cif.got.tgz:111954.got - 2010.06.28 00:19:55.
