data_PCOD8088640
_publ_section_title
;
Structure prediction by ZEFSAII (Michael W. Deem and Ramdas Pophale) SiO2 
 PCOD8088640
Probable space group: C 2/M
;
_chemical_formula_sum "Si O2"
_cell_formula_units_Z 64
_cell_length_a 20.584728
_cell_length_b 9.017532
_cell_length_c 21.602157
_cell_angle_alpha 90.000000
_cell_angle_beta 118.453406
_cell_angle_gamma 90.000000
_cell_volume 3525.494336
_symmetry_space_group_name_H-M "C 2/M"
_symmetry_group_IT_number 12
_symmetry_cell_setting 'monoclinic'
loop_
_space_group_symop_operation_xyz
x,y,z
-x,y,-z
-x,-y,-z
x,-y,z
1/2+x,1/2+y,z
1/2-x,1/2+y,-z
1/2-x,1/2-y,-z
1/2+x,1/2-y,z
loop_
_atom_site_type_symbol
_atom_site_label
_atom_site_fract_x
_atom_site_fract_y
_atom_site_fract_z
Si Si1 0.827275 0.671561 0.037494
Si Si2 0.075414 0.826854 0.673826
Si Si3 0.701028 0.673869 0.529628
Si Si4 0.584057 0.175567 0.040413
Si Si5 0.302940 0.672665 0.822752
Si Si6 0.727950 0.329029 0.680876
Si Si7 0.456424 0.173490 0.542683
Si Si8 0.648913 0.829782 0.813807
O O1 0.810836 0.500000 0.020542
O O2 0.866237 0.701001 0.121019
O O3 0.750000 0.750000 0.000000
O O4 0.879886 0.731726 0.007278
O O5 0.144190 0.785156 0.660857
O O6 0.094355 0.778406 0.752224
O O7 0.004326 0.734061 0.621281
O O8 0.056607 0.000000 0.662975
O O9 0.694879 0.500000 0.513269
O O10 0.750000 0.750000 0.500000
O O11 0.739291 0.703290 0.613466
O O12 0.620188 0.741768 0.492751
O O13 0.624906 0.248044 0.117379
O O14 0.589077 0.000000 0.050480
O O15 0.500000 0.230560 0.000000
O O16 0.319657 0.500000 0.825492
O O17 0.286279 0.732543 0.746178
O O18 0.233971 0.708212 0.836359
O O19 0.742000 0.500000 0.703838
O O20 0.500000 0.209676 0.500000
O O21 0.441591 0.000000 0.544770
O O22 0.632224 0.000000 0.788039
#
# Coordination Sequence:
#
# PCOD8088640 Si02
#       8
#     8   8   8   8   8   8   8   8
#     4  10  19  33  54  78 106 138 177 224 272 324
#     4  10  19  33  55  83 112 145 186 232 282 333
#     4  11  23  40  60  85 117 152 191 234 283 338
#     4  10  21  36  54  78 109 146 184 221 271 332
#     4  10  19  32  54  81 108 140 182 230 275 323
#     4   9  19  35  56  81 111 147 186 226 274 333
#     4  11  22  36  58  86 115 148 188 234 285 335
#     4   9  18  32  50  78 110 139 178 229 283 329
#
# _framework density 18.153482
#
# number of rings (size 3 to 8) (size 9 to 14) (size 15 to 20)
#    0.000    2.000    2.500    1.500    0.000    3.250 
#    0.000    1.250    0.000    6.000    0.000    0.000 
#    0.000    0.000    0.000    0.000    0.000    0.000 
#
# Total GULP energy -396897.749758 kJ/mol
# GULP energy per Si atom -12403.054680 kJ/mol
# Density = 1.811216 g / cm^3
# Si number density = 18.153482 Si / 1000 Ang^3
#
#
#
# Elastic Constant Matrix: (Units=GPa)
#
#
# Indices 1 2 3 4 5 6 
#
# 1 103.9685 54.6993 66.0315 0.0000 0.9460 0.0000
# 2 54.6993 79.5304 61.4052 0.0000 4.8015 0.0000
# 3 66.0315 61.4052 126.9772 0.0000 7.0867 0.0000
# 4 0.0000 0.0000 0.0000 34.6542 0.0000 3.9140
# 5 0.9460 4.8015 7.0867 0.0000 28.2853 0.0000
# 6 0.0000 0.0000 0.0000 3.9140 0.0000 26.4427
#
#
#
# Elastic Compliance Matrix: (Units=1/GPa)
#
#
# Indices 1 2 3 4 5 6 
#
# 1 0.017000 -0.007823 -0.005172 0.000000 0.002055 0.000000
# 2 -0.007823 0.023693 -0.007282 0.000000 -0.001936 0.000000
# 3 -0.005172 -0.007282 0.014206 0.000000 -0.002150 0.000000
# 4 0.000000 0.000000 0.000000 0.029347 0.000000 -0.004344
# 5 0.002055 -0.001936 -0.002150 0.000000 0.036153 0.000000
# 6 0.000000 0.000000 0.000000 -0.004344 0.000000 0.038461
#
#
# Mechanical properties :
#
#
# Convention : Reuss Voigt Hill
#
# Bulk Modulus (GPa) = 69.70427 74.97201 72.33814
# Shear Modulus (GPa) = 24.48622 26.43246 25.45934
#
# Velocity S-wave (km/s) = 3.67665 3.81997 3.74899
# Velocity P-wave (km/s) = 7.51693 7.80031 7.65993
#
# Compressibility (1/GPa) = 0.01434632
#
# Stress axis : x y z
#
# Youngs Moduli (GPa) = 58.82237 42.20574 70.39079
#
# Poissons Ratio (x) = 0.33018 0.36407
# Poissons Ratio (y) = 0.46018 0.51256
# Poissons Ratio (z) = 0.30423 0.30733
#
# Static dielectric constant tensor:
#      x y z
#    x 2.952510 0.000000 -0.012010 
#    y 0.000000 3.367020 0.000000 
#    z -0.012010 0.000000 3.268420 
# 
# 
# High freq. dielectric constant tensor:
#      x y z
#    x 1.675890 0.000000 -0.000890 
#    y 0.000000 1.708620 0.000000 
#    z -0.000890 0.000000 1.715360 
# 
# From -- ./inp_files/319997.got.cif
#   From: 2010.06.25/outbox.cif.g09.slc.cpg/sg12_160_cif.got.tgz:319997.got - 2010.06.28 00:19:55.
