data_PCOD8088173
_publ_section_title
;
Structure prediction by ZEFSAII (Michael W. Deem and Ramdas Pophale) SiO2 
 PCOD8088173
Probable space group: C 2/M
;
_chemical_formula_sum "Si O2"
_cell_formula_units_Z 64
_cell_length_a 18.655041
_cell_length_b 8.799035
_cell_length_c 21.025907
_cell_angle_alpha 90.000000
_cell_angle_beta 88.922434
_cell_angle_gamma 90.000000
_cell_volume 3450.715713
_symmetry_space_group_name_H-M "C 2/M"
_symmetry_group_IT_number 12
_symmetry_cell_setting 'monoclinic'
loop_
_space_group_symop_operation_xyz
x,y,z
-x,y,-z
-x,-y,-z
x,-y,z
1/2+x,1/2+y,z
1/2-x,1/2+y,-z
1/2-x,1/2-y,-z
1/2+x,1/2-y,z
loop_
_atom_site_type_symbol
_atom_site_label
_atom_site_fract_x
_atom_site_fract_y
_atom_site_fract_z
Si Si1 0.271901 0.677976 0.362551
Si Si2 0.132073 0.324980 0.534716
Si Si3 0.373579 0.823391 0.265636
Si Si4 0.545641 0.328142 0.062962
Si Si5 0.671822 0.179254 0.995290
Si Si6 0.008638 0.671864 0.635411
Si Si7 0.868798 0.176714 0.600970
Si Si8 0.417834 0.178158 0.125475
O O1 0.280636 0.500000 0.373740
O O2 0.303819 0.767425 0.422101
O O3 0.309886 0.724001 0.296124
O O4 0.189371 0.726002 0.359232
O O5 0.147018 0.500000 0.516299
O O6 0.128421 0.224490 0.472299
O O7 0.057432 0.306873 0.572482
O O8 0.447041 0.790906 0.301858
O O9 0.383141 0.773052 0.192750
O O10 0.352588 0.000000 0.272630
O O11 0.564620 0.500000 0.081330
O O12 0.495968 0.255798 0.118507
O O13 0.500000 0.317510 0.000000
O O14 0.620440 0.238426 0.052988
O O15 0.637435 0.229826 0.928500
O O16 0.678596 0.000000 0.000869
O O17 0.750000 0.250000 0.000000
O O18 0.978604 0.500000 0.637562
O O19 0.944318 0.790516 0.633280
O O20 0.850661 0.000000 0.606537
O O21 0.431946 0.000000 0.121612
#
# Coordination Sequence:
#
# PCOD8088173 Si02
#       8
#     8   8   8   8   8   8   8   8
#     4  11  22  36  54  76 104 136 173 214 258 310
#     4  10  20  36  56  77 103 134 169 210 261 317
#     4   9  19  38  59  77 101 134 173 214 259 309
#     4   9  17  30  50  77 107 137 171 210 250 295
#     4  10  19  32  52  80 113 143 173 211 258 306
#     4   9  19  35  54  75 101 132 165 208 260 311
#     4  12  23  34  51  76 105 134 169 214 262 310
#     4   9  18  34  57  80 103 137 176 213 254 305
#
# _framework density 18.546876999999999
#
# number of rings (size 3 to 8) (size 9 to 14) (size 15 to 20)
#    0.000    2.125    0.000    4.875    0.000    6.500 
#    0.000    1.250    0.000    0.000    0.000    0.000 
#    0.000    0.000    0.000    0.000    0.000    0.000 
#
# Total GULP energy -396883.773305 kJ/mol
# GULP energy per Si atom -12402.617916 kJ/mol
# Density = 1.850466 g / cm^3
# Si number density = 18.546877 Si / 1000 Ang^3
#
#
#
# Elastic Constant Matrix: (Units=GPa)
#
#
# Indices 1 2 3 4 5 6 
#
# 1 116.3336 45.2623 41.4921 0.0000 -16.2150 0.0000
# 2 45.2623 75.3445 29.0495 0.0000 -7.8749 0.0000
# 3 41.4921 29.0495 89.5666 0.0000 -7.2152 0.0000
# 4 0.0000 0.0000 0.0000 24.0295 0.0000 -6.1387
# 5 -16.2150 -7.8749 -7.2152 0.0000 10.4027 0.0000
# 6 0.0000 0.0000 0.0000 -6.1387 0.0000 35.8797
#
#
#
# Elastic Compliance Matrix: (Units=1/GPa)
#
#
# Indices 1 2 3 4 5 6 
#
# 1 0.014156 -0.005534 -0.003520 0.000000 0.015435 0.000000
# 2 -0.005534 0.018086 -0.003066 0.000000 0.002939 0.000000
# 3 -0.003520 -0.003066 0.013940 0.000000 0.001862 0.000000
# 4 0.000000 0.000000 0.000000 0.043518 0.000000 0.007445
# 5 0.015435 0.002939 0.001862 0.000000 0.123704 0.000000
# 6 0.000000 0.000000 0.000000 0.007445 0.000000 0.029145
#
#
# Mechanical properties :
#
#
# Convention : Reuss Voigt Hill
#
# Bulk Modulus (GPa) = 45.57158 56.98360 51.27759
# Shear Modulus (GPa) = 18.24159 25.09175 21.66667
#
# Velocity S-wave (km/s) = 3.13955 3.68215 3.42162
# Velocity P-wave (km/s) = 6.14546 6.99059 6.58161
#
# Compressibility (1/GPa) = 0.02194350
#
# Stress axis : x y z
#
# Youngs Moduli (GPa) = 70.64347 55.29194 71.73825
#
# Poissons Ratio (x) = 0.30596 0.25248
# Poissons Ratio (y) = 0.39091 0.21992
# Poissons Ratio (z) = 0.24863 0.16950
#
# Static dielectric constant tensor:
#      x y z
#    x 3.418330 0.000000 -0.140500 
#    y 0.000000 3.422100 0.000000 
#    z -0.140500 0.000000 3.336370 
# 
# 
# High freq. dielectric constant tensor:
#      x y z
#    x 1.719110 0.000000 -0.015430 
#    y 0.000000 1.725390 0.000000 
#    z -0.015430 0.000000 1.700920 
# 
# From -- ./inp_files/341948.got.cif
#   From: 2010.06.25/outbox.cif.g09.slc.cpg/sg12_171_cif.got.tgz:341948.got - 2010.06.28 00:19:55.
