data_PCOD8088152
_publ_section_title
;
Structure prediction by ZEFSAII (Michael W. Deem and Ramdas Pophale) SiO2 
 PCOD8088152
Probable space group: C 2/M
;
_chemical_formula_sum "Si O2"
_cell_formula_units_Z 56
_cell_length_a 19.752055
_cell_length_b 8.956351
_cell_length_c 24.327205
_cell_angle_alpha 90.000000
_cell_angle_beta 135.086920
_cell_angle_gamma 90.000000
_cell_volume 3038.510671
_symmetry_space_group_name_H-M "C 2/M"
_symmetry_group_IT_number 12
_symmetry_cell_setting 'monoclinic'
loop_
_space_group_symop_operation_xyz
x,y,z
-x,y,-z
-x,-y,-z
x,-y,z
1/2+x,1/2+y,z
1/2-x,1/2+y,-z
1/2-x,1/2-y,-z
1/2+x,1/2-y,z
loop_
_atom_site_type_symbol
_atom_site_label
_atom_site_fract_x
_atom_site_fract_y
_atom_site_fract_z
Si Si1 0.594598 0.325629 0.806127
Si Si2 0.456084 0.830158 0.804829
Si Si3 0.457224 0.169519 0.033633
Si Si4 0.434606 0.324441 0.629977
Si Si5 0.206799 0.325656 0.369176
Si Si6 0.232063 0.825155 0.047794
Si Si7 0.577960 0.322672 0.501661
O O1 0.616938 0.500000 0.821032
O O2 0.535107 0.280699 0.825900
O O3 0.533642 0.280822 0.717231
O O4 0.694653 0.237346 0.864026
O O5 0.459085 0.810808 0.872384
O O6 0.351274 0.790042 0.720440
O O7 0.482753 0.000000 0.803146
O O8 0.416755 0.000000 0.012372
O O9 0.500000 0.209018 0.000000
O O10 0.374283 0.288428 0.994517
O O11 0.416055 0.500000 0.622071
O O12 0.343544 0.249837 0.607273
O O13 0.445473 0.268110 0.573669
O O14 0.210054 0.500000 0.384445
O O15 0.314798 0.265123 0.422126
O O16 0.246819 0.000000 0.050063
O O17 0.250000 0.750000 0.000000
O O18 0.500000 0.255224 0.500000
O O19 0.573402 0.500000 0.502398
#
# Coordination Sequence:
#
# PCOD8088152 Si02
#       7
#     8   8   8   8   8   8   8
#     4  10  19  32  52  80 106 135 175 221 269 311
#     4   9  17  31  51  76 104 137 176 217 262 312
#     4  10  21  37  54  77 110 145 181 220 262 315
#     4   9  18  32  52  78 104 134 174 216 259 307
#     4   9  17  30  52  78 100 133 175 213 258 307
#     4  12  23  36  57  81 107 140 180 222 268 318
#     4   9  17  31  50  76 108 137 170 212 258 309
#
# _framework density 18.430081999999999
#
# number of rings (size 3 to 8) (size 9 to 14) (size 15 to 20)
#    0.000    2.286    1.429    2.143    0.000    0.857 
#    2.571    0.000    0.000    1.714    0.000    0.000 
#    0.000    0.000    0.000    0.000    0.000    0.000 
#
# Total GULP energy -347141.735606 kJ/mol
# GULP energy per Si atom -12397.919129 kJ/mol
# Density = 1.838813 g / cm^3
# Si number density = 18.430082 Si / 1000 Ang^3
#
#
#
# Elastic Constant Matrix: (Units=GPa)
#
#
# Indices 1 2 3 4 5 6 
#
# 1 124.3005 33.8616 84.1895 0.0000 -5.5120 0.0000
# 2 33.8616 62.6559 36.9576 0.0000 4.2394 0.0000
# 3 84.1895 36.9576 149.3197 0.0000 -0.8815 0.0000
# 4 0.0000 0.0000 0.0000 21.1077 0.0000 2.6149
# 5 -5.5120 4.2394 -0.8815 0.0000 29.5592 0.0000
# 6 0.0000 0.0000 0.0000 2.6149 0.0000 23.5593
#
#
#
# Elastic Compliance Matrix: (Units=1/GPa)
#
#
# Indices 1 2 3 4 5 6 
#
# 1 0.013815 -0.003603 -0.006880 0.000000 0.002888 0.000000
# 2 -0.003603 0.019866 -0.002907 0.000000 -0.003608 0.000000
# 3 -0.006880 -0.002907 0.011293 0.000000 -0.000529 0.000000
# 4 0.000000 0.000000 0.000000 0.048037 0.000000 -0.005332
# 5 0.002888 -0.003608 -0.000529 0.000000 0.034871 0.000000
# 6 0.000000 0.000000 0.000000 -0.005332 0.000000 0.043038
#
#
# Mechanical properties :
#
#
# Convention : Reuss Voigt Hill
#
# Bulk Modulus (GPa) = 54.96552 71.81039 63.38796
# Shear Modulus (GPa) = 24.53838 26.92973 25.73406
#
# Velocity S-wave (km/s) = 3.65284 3.82669 3.74077
# Velocity P-wave (km/s) = 6.90503 7.65330 7.28878
#
# Compressibility (1/GPa) = 0.01819322
#
# Stress axis : x y z
#
# Youngs Moduli (GPa) = 72.38752 50.33702 88.55427
#
# Poissons Ratio (x) = 0.18137 0.60926
# Poissons Ratio (y) = 0.26082 0.25741
# Poissons Ratio (z) = 0.49803 0.14632
#
# Static dielectric constant tensor:
#      x y z
#    x 1.386860 0.000000 -0.145280 
#    y 0.000000 3.253060 0.000000 
#    z -0.145280 0.000000 3.798440 
# 
# 
# High freq. dielectric constant tensor:
#      x y z
#    x 1.688510 0.000000 0.002510 
#    y 0.000000 1.696970 0.000000 
#    z 0.002510 0.000000 1.735060 
# 
# From -- ./inp_files/342486.got.cif
#   From: 2010.06.25/outbox.cif.g09.slc.cpg/sg12_172_cif.got.tgz:342486.got - 2010.06.28 00:19:55.
