data_PCOD8088209
_publ_section_title
;
Structure prediction by ZEFSAII (Michael W. Deem and Ramdas Pophale) SiO2 
 PCOD8088209
Probable space group: C 2/M
;
_chemical_formula_sum "Si O2"
_cell_formula_units_Z 56
_cell_length_a 28.556029
_cell_length_b 8.935161
_cell_length_c 13.291081
_cell_angle_alpha 90.000000
_cell_angle_beta 122.936896
_cell_angle_gamma 90.000000
_cell_volume 2846.178633
_symmetry_space_group_name_H-M "C 2/M"
_symmetry_group_IT_number 12
_symmetry_cell_setting 'monoclinic'
loop_
_space_group_symop_operation_xyz
x,y,z
-x,y,-z
-x,-y,-z
x,-y,z
1/2+x,1/2+y,z
1/2-x,1/2+y,-z
1/2-x,1/2-y,-z
1/2+x,1/2-y,z
loop_
_atom_site_type_symbol
_atom_site_label
_atom_site_fract_x
_atom_site_fract_y
_atom_site_fract_z
Si Si1 0.838849 0.325289 0.780867
Si Si2 0.217010 0.174406 0.691561
Si Si3 0.949160 0.175697 0.227770
Si Si4 0.126830 0.325770 0.711864
Si Si5 0.550431 0.176057 0.984611
Si Si6 0.448583 0.168531 0.566752
Si Si7 0.660470 0.172395 0.442277
O O1 0.849743 0.500000 0.778196
O O2 0.783053 0.293349 0.779684
O O3 0.892141 0.258579 0.901340
O O4 0.832927 0.258453 0.661488
O O5 0.186135 0.260067 0.745682
O O6 0.198116 0.229482 0.559967
O O7 0.203226 0.000000 0.684140
O O8 0.892842 0.246311 0.208784
O O9 0.001436 0.215978 0.359705
O O10 0.941474 0.000000 0.212948
O O11 0.960996 0.240892 0.132299
O O12 0.135282 0.500000 0.742334
O O13 0.081032 0.294000 0.572837
O O14 0.554296 0.000000 0.967280
O O15 0.500000 0.214402 0.000000
O O16 0.404509 0.184754 0.605264
O O17 0.473309 0.000000 0.593643
O O18 0.680442 0.000000 0.474227
#
# Coordination Sequence:
#
# PCOD8088209 Si02
#       7
#     8   8   8   8   8   8   8
#     4   9  18  33  55  81 108 143 186 227 264 311
#     4  10  19  32  52  82 116 142 173 223 278 320
#     4  12  24  36  54  82 113 141 174 223 280 325
#     4  10  21  38  58  79 106 143 186 222 259 320
#     4  10  21  40  63  81 103 143 189 223 256 310
#     4   9  18  33  55  81 109 144 184 221 258 315
#     4   9  17  32  54  81 112 146 184 218 258 320
#
# _framework density 19.675505000000001
#
# number of rings (size 3 to 8) (size 9 to 14) (size 15 to 20)
#    0.000    2.143    0.000    4.714    0.000    7.143 
#    0.000    3.571    0.000    0.000    0.000    0.000 
#    0.000    0.000    0.000    0.000    0.000    0.000 
#
# Total GULP energy -347264.497844 kJ/mol
# GULP energy per Si atom -12402.303494 kJ/mol
# Density = 1.963072 g / cm^3
# Si number density = 19.675505 Si / 1000 Ang^3
#
#
#
# Elastic Constant Matrix: (Units=GPa)
#
#
# Indices 1 2 3 4 5 6 
#
# 1 127.7238 63.7281 49.5452 0.0000 -4.2513 0.0000
# 2 63.7281 97.0151 35.0509 0.0000 -7.2613 0.0000
# 3 49.5452 35.0509 50.5835 0.0000 -0.4522 0.0000
# 4 0.0000 0.0000 0.0000 21.2211 0.0000 0.4767
# 5 -4.2513 -7.2613 -0.4522 0.0000 34.9106 0.0000
# 6 0.0000 0.0000 0.0000 0.4767 0.0000 25.6384
#
#
#
# Elastic Compliance Matrix: (Units=1/GPa)
#
#
# Indices 1 2 3 4 5 6 
#
# 1 0.014862 -0.005966 -0.010419 0.000000 0.000434 0.000000
# 2 -0.005966 0.016411 -0.005505 0.000000 0.002616 0.000000
# 3 -0.010419 -0.005505 0.033772 0.000000 -0.001976 0.000000
# 4 0.000000 0.000000 0.000000 0.047143 0.000000 -0.000877
# 5 0.000434 0.002616 -0.001976 0.000000 0.029216 0.000000
# 6 0.000000 0.000000 0.000000 -0.000877 0.000000 0.039020
#
#
# Mechanical properties :
#
#
# Convention : Reuss Voigt Hill
#
# Bulk Modulus (GPa) = 47.02645 63.55230 55.28938
# Shear Modulus (GPa) = 21.61758 24.82056 23.21907
#
# Velocity S-wave (km/s) = 3.31827 3.55561 3.43899
# Velocity P-wave (km/s) = 6.21563 7.01618 6.62800
#
# Compressibility (1/GPa) = 0.02126463
#
# Stress axis : x y z
#
# Youngs Moduli (GPa) = 67.28421 60.93340 29.61057
#
# Poissons Ratio (x) = 0.36353 0.30852
# Poissons Ratio (y) = 0.40141 0.16301
# Poissons Ratio (z) = 0.70106 0.33544
#
# Static dielectric constant tensor:
#      x y z
#    x 3.760280 0.000000 -0.056940 
#    y 0.000000 3.374280 0.000000 
#    z -0.056940 0.000000 3.432000 
# 
# 
# High freq. dielectric constant tensor:
#      x y z
#    x 1.784300 0.000000 -0.007500 
#    y 0.000000 1.746830 0.000000 
#    z -0.007500 0.000000 1.746260 
# 
# From -- ./inp_files/187737.got.cif
#   From: 2010.06.25/outbox.cif.g09.slc.cpg/sg12_94_cif.got.tgz:187737.got - 2010.06.28 00:19:55.
