data_PCOD8088220
_publ_section_title
;
Structure prediction by ZEFSAII (Michael W. Deem and Ramdas Pophale) SiO2 
 PCOD8088220
Probable space group: C 2/M
;
_chemical_formula_sum "Si O2"
_cell_formula_units_Z 56
_cell_length_a 20.114463
_cell_length_b 8.721771
_cell_length_c 16.320914
_cell_angle_alpha 90.000000
_cell_angle_beta 92.061816
_cell_angle_gamma 90.000000
_cell_volume 2861.385302
_symmetry_space_group_name_H-M "C 2/M"
_symmetry_group_IT_number 12
_symmetry_cell_setting 'monoclinic'
loop_
_space_group_symop_operation_xyz
x,y,z
-x,y,-z
-x,-y,-z
x,-y,z
1/2+x,1/2+y,z
1/2-x,1/2+y,-z
1/2-x,1/2-y,-z
1/2+x,1/2-y,z
loop_
_atom_site_type_symbol
_atom_site_label
_atom_site_fract_x
_atom_site_fract_y
_atom_site_fract_z
Si Si1 0.510272 0.182558 0.755391
Si Si2 0.865056 0.682108 0.699217
Si Si3 0.444965 0.819340 0.064073
Si Si4 0.760121 0.319713 0.227748
Si Si5 0.304794 0.680903 0.061473
Si Si6 0.374825 0.180257 0.353592
Si Si7 0.678381 0.181498 0.481125
O O1 0.437356 0.242636 0.728637
O O2 0.530078 0.240444 0.846496
O O3 0.562436 0.253092 0.691716
O O4 0.511125 0.000000 0.753505
O O5 0.858593 0.500000 0.706499
O O6 0.813768 0.759507 0.759256
O O7 0.851817 0.738741 0.605919
O O8 0.377306 0.735394 0.035517
O O9 0.431149 0.000000 0.065021
O O10 0.500000 0.774748 0.000000
O O11 0.758887 0.500000 0.210415
O O12 0.792188 0.236479 0.152407
O O13 0.805504 0.275305 0.307321
O O14 0.300490 0.500000 0.056581
O O15 0.250000 0.750000 0.000000
O O16 0.370901 0.236840 0.447699
O O17 0.384764 0.000000 0.350960
O O18 0.750000 0.250000 0.500000
O O19 0.685602 0.000000 0.482881
#
# Coordination Sequence:
#
# PCOD8088220 Si02
#       7
#     8   8   8   8   8   8   8
#     4   9  18  35  56  82 116 153 195 241 295 355
#     4  10  21  34  55  88 120 153 198 250 296 350
#     4  10  21  39  63  89 121 161 198 241 302 364
#     4  11  21  38  62  86 116 156 199 241 296 356
#     4  12  26  43  64  92 123 154 199 249 298 354
#     4   9  17  32  57  81 109 153 198 239 289 350
#     4  10  19  32  52  83 116 151 198 248 298 345
#
# _framework density 19.570941000000001
#
# number of rings (size 3 to 8) (size 9 to 14) (size 15 to 20)
#    0.000    1.857    2.857    1.714    2.000    0.857 
#    0.000    3.571    0.000    0.000    0.000    2.000 
#    0.000    0.000    0.000    0.000    0.000    0.000 
#
# Total GULP energy -347223.985796 kJ/mol
# GULP energy per Si atom -12400.856636 kJ/mol
# Density = 1.952640 g / cm^3
# Si number density = 19.570941 Si / 1000 Ang^3
#
#
#
# Elastic Constant Matrix: (Units=GPa)
#
#
# Indices 1 2 3 4 5 6 
#
# 1 160.8824 38.2331 53.1121 0.0000 -4.8281 0.0000
# 2 38.2331 57.4292 29.5188 0.0000 0.5344 0.0000
# 3 53.1121 29.5188 102.4653 0.0000 -9.0054 0.0000
# 4 0.0000 0.0000 0.0000 20.4910 0.0000 -0.4307
# 5 -4.8281 0.5344 -9.0054 0.0000 40.0034 0.0000
# 6 0.0000 0.0000 0.0000 -0.4307 0.0000 28.6776
#
#
#
# Elastic Compliance Matrix: (Units=1/GPa)
#
#
# Indices 1 2 3 4 5 6 
#
# 1 0.008161 -0.003847 -0.003092 0.000000 0.000340 0.000000
# 2 -0.003847 0.022358 -0.004605 0.000000 -0.001800 0.000000
# 3 -0.003092 -0.004605 0.012917 0.000000 0.002596 0.000000
# 4 0.000000 0.000000 0.000000 0.048817 0.000000 0.000733
# 5 0.000340 -0.001800 0.002596 0.000000 0.025647 0.000000
# 6 0.000000 0.000000 0.000000 0.000733 0.000000 0.034881
#
#
# Mechanical properties :
#
#
# Convention : Reuss Voigt Hill
#
# Bulk Modulus (GPa) = 49.14615 62.50055 55.82335
# Shear Modulus (GPa) = 27.37445 31.16192 29.26819
#
# Velocity S-wave (km/s) = 3.74402 3.99464 3.87135
# Velocity P-wave (km/s) = 6.62243 7.29937 6.96912
#
# Compressibility (1/GPa) = 0.02034747
#
# Stress axis : x y z
#
# Youngs Moduli (GPa) = 122.53552 44.72756 77.41775
#
# Poissons Ratio (x) = 0.17206 0.23937
# Poissons Ratio (y) = 0.47139 0.35651
# Poissons Ratio (z) = 0.37888 0.20597
#
# Static dielectric constant tensor:
#      x y z
#    x 3.837340 0.000000 -0.036670 
#    y 0.000000 3.246280 0.000000 
#    z -0.036670 0.000000 3.859170 
# 
# 
# High freq. dielectric constant tensor:
#      x y z
#    x 1.772480 0.000000 -0.007340 
#    y 0.000000 1.727190 0.000000 
#    z -0.007340 0.000000 1.776780 
# 
# From -- ./inp_files/231018.got.cif
#   From: 2010.06.25/outbox.cif.g09.slc.cpg/sg12_116_cif.got.tgz:231018.got - 2010.06.28 00:19:55.
