data_PCOD8088103
_publ_section_title
;
Structure prediction by ZEFSAII (Michael W. Deem and Ramdas Pophale) SiO2 
 PCOD8088103
Probable space group: C 2/M
;
_chemical_formula_sum "Si O2"
_cell_formula_units_Z 48
_cell_length_a 8.848239
_cell_length_b 24.934650
_cell_length_c 18.592986
_cell_angle_alpha 90.000000
_cell_angle_beta 43.310300
_cell_angle_gamma 90.000000
_cell_volume 2813.851671
_symmetry_space_group_name_H-M "C 2/M"
_symmetry_group_IT_number 12
_symmetry_cell_setting 'monoclinic'
loop_
_space_group_symop_operation_xyz
x,y,z
-x,y,-z
-x,-y,-z
x,-y,z
1/2+x,1/2+y,z
1/2-x,1/2+y,-z
1/2-x,1/2-y,-z
1/2+x,1/2-y,z
loop_
_atom_site_type_symbol
_atom_site_label
_atom_site_fract_x
_atom_site_fract_y
_atom_site_fract_z
Si Si1 0.782421 0.694285 0.028263
Si Si2 0.095853 0.437420 0.388145
Si Si3 0.738567 0.436325 0.397387
Si Si4 0.952123 0.111075 0.810335
Si Si5 0.155208 0.440413 0.797063
Si Si6 0.809305 0.090108 0.008162
O O1 0.584032 0.673472 0.150845
O O2 0.750000 0.750000 0.000000
O O3 0.792556 0.650466 0.960486
O O4 0.000000 0.696504 0.000000
O O5 0.157591 0.500000 0.355695
O O6 0.308628 0.399892 0.304857
O O7 0.000000 0.427673 0.500000
O O8 0.917448 0.416306 0.392915
O O9 0.500000 0.412264 0.500000
O O10 0.731193 0.500000 0.402274
O O11 0.804435 0.415530 0.295788
O O12 0.767080 0.098264 0.815712
O O13 0.908857 0.073476 0.895645
O O14 0.261173 0.500000 0.765478
O O15 0.894364 0.447420 0.900375
O O16 0.000000 0.084433 0.000000
#
# Coordination Sequence:
#
# PCOD8088103 Si02
#       6
#     8   8   8   8   8   8
#     4  10  20  38  57  80 103 134 174 229 285 331
#     4  10  19  32  52  78 111 151 188 219 260 316
#     4   9  18  31  47  70 101 144 191 222 252 300
#     4  10  20  34  50  79 106 138 182 222 268 328
#     4  11  20  32  50  72 111 150 177 219 268 324
#     4  10  20  34  50  76 108 136 181 222 266 333
#
# _framework density 17.058468999999999
#
# number of rings (size 3 to 8) (size 9 to 14) (size 15 to 20)
#    1.000    1.000    1.667    3.500    0.000    5.000 
#    0.000    0.000    0.000    0.000    0.000    2.333 
#    0.000    0.000    0.000    0.000    0.000    0.000 
#
# Total GULP energy -297371.947756 kJ/mol
# GULP energy per Si atom -12390.497823 kJ/mol
# Density = 1.701964 g / cm^3
# Si number density = 17.058469 Si / 1000 Ang^3
#
#
#
# Elastic Constant Matrix: (Units=GPa)
#
#
# Indices 1 2 3 4 5 6 
#
# 1 148.6344 23.9781 57.4690 0.0000 0.6114 0.0000
# 2 23.9781 64.3314 28.2030 0.0000 -0.7365 0.0000
# 3 57.4690 28.2030 125.2037 0.0000 -1.0150 0.0000
# 4 0.0000 0.0000 0.0000 15.2166 0.0000 4.9082
# 5 0.6114 -0.7365 -1.0150 0.0000 37.7277 0.0000
# 6 0.0000 0.0000 0.0000 4.9082 0.0000 23.4727
#
#
#
# Elastic Compliance Matrix: (Units=1/GPa)
#
#
# Indices 1 2 3 4 5 6 
#
# 1 0.008325 -0.001586 -0.003466 0.000000 -0.000259 0.000000
# 2 -0.001586 0.017552 -0.003223 0.000000 0.000282 0.000000
# 3 -0.003466 -0.003223 0.010306 0.000000 0.000271 0.000000
# 4 0.000000 0.000000 0.000000 0.070471 0.000000 -0.014736
# 5 -0.000259 0.000282 0.000271 0.000000 0.026523 0.000000
# 6 0.000000 0.000000 0.000000 -0.014736 0.000000 0.045684
#
#
# Mechanical properties :
#
#
# Convention : Reuss Voigt Hill
#
# Bulk Modulus (GPa) = 50.93744 61.94109 56.43926
# Shear Modulus (GPa) = 24.75789 30.51803 27.63796
#
# Velocity S-wave (km/s) = 3.81380 4.23428 4.02953
# Velocity P-wave (km/s) = 7.02273 7.76501 7.40318
#
# Compressibility (1/GPa) = 0.01963193
#
# Stress axis : x y z
#
# Youngs Moduli (GPa) = 120.11995 56.97308 97.02965
#
# Poissons Ratio (x) = 0.09039 0.33630
# Poissons Ratio (y) = 0.19057 0.31275
# Poissons Ratio (z) = 0.41633 0.18364
#
# Static dielectric constant tensor:
#      x y z
#    x 0.000000 0.000000 0.000000 
#    y 0.000000 0.000000 0.000000 
#    z 0.000000 0.000000 0.000000 
# 
# 
# High freq. dielectric constant tensor:
#      x y z
#    x 1.681040 0.000000 0.001820 
#    y 0.000000 1.602480 0.000000 
#    z 0.001820 0.000000 1.656920 
# 
# From -- ./inp_files/302042.got.cif
#   From: 2010.06.25/outbox.cif.g09.slc.cpg/sg12_152_cif.got.tgz:302042.got - 2010.06.28 00:19:55.
