data_PCOD8088625
_publ_section_title
;
Structure prediction by ZEFSAII (Michael W. Deem and Ramdas Pophale) SiO2 
 PCOD8088625
Probable space group: C 2/M
;
_chemical_formula_sum "Si O2"
_cell_formula_units_Z 44
_cell_length_a 26.384649
_cell_length_b 9.900770
_cell_length_c 11.221768
_cell_angle_alpha 90.000000
_cell_angle_beta 52.473507
_cell_angle_gamma 90.000000
_cell_volume 2324.845356
_symmetry_space_group_name_H-M "C 2/M"
_symmetry_group_IT_number 12
_symmetry_cell_setting 'monoclinic'
loop_
_space_group_symop_operation_xyz
x,y,z
-x,y,-z
-x,-y,-z
x,-y,z
1/2+x,1/2+y,z
1/2-x,1/2+y,-z
1/2-x,1/2-y,-z
1/2+x,1/2-y,z
loop_
_atom_site_type_symbol
_atom_site_label
_atom_site_fract_x
_atom_site_fract_y
_atom_site_fract_z
Si Si1 0.500000 0.750705 0.500000
Si Si2 0.803335 0.656297 0.719761
Si Si3 0.840654 0.840984 0.103160
Si Si4 0.065204 0.846105 0.835508
Si Si5 0.421868 0.850444 0.397080
Si Si6 0.875151 0.153951 0.793460
O O1 0.466566 0.844268 0.449581
O O2 0.446935 0.658261 0.639885
O O3 0.803133 0.500000 0.762807
O O4 0.732778 0.705716 0.784380
O O5 0.848574 0.675618 0.540478
O O6 0.826775 0.749068 0.793803
O O7 0.879422 0.780971 0.160262
O O8 0.847095 0.000000 0.104794
O O9 0.873593 0.795223 0.932373
O O10 0.057831 0.760410 0.726784
O O11 0.080547 0.000000 0.775474
O O12 0.000000 0.839544 0.000000
O O13 0.429205 0.000000 0.331356
O O14 0.850105 0.000000 0.819277
#
# Coordination Sequence:
#
# PCOD8088625 Si02
#       6
#     4   8   8   8   8   8
#     4  10  20  34  54  78 108 138 168 210 266 312
#     4   9  19  35  53  75 106 140 173 212 260 309
#     4   9  18  34  54  75 104 142 175 209 259 311
#     4  10  21  37  56  78 105 138 174 212 257 308
#     4  10  21  36  54  77 104 136 174 214 257 308
#     4  10  19  32  54  81 106 134 175 219 256 303
#
# _framework density 18.925989999999999
#
# number of rings (size 3 to 8) (size 9 to 14) (size 15 to 20)
#    0.000    2.364    0.000    2.182    0.000    6.909 
#    0.000    1.818    0.000    0.000    0.000    0.000 
#    0.000    0.000    0.000    0.000    0.000    0.000 
#
# Total GULP energy -272780.864599 kJ/mol
# GULP energy per Si atom -12399.130209 kJ/mol
# Density = 1.888291 g / cm^3
# Si number density = 18.925990 Si / 1000 Ang^3
#
#
#
# Elastic Constant Matrix: (Units=GPa)
#
#
# Indices 1 2 3 4 5 6 
#
# 1 121.3248 37.0923 51.2199 0.0000 -4.4116 0.0000
# 2 37.0923 81.5941 41.1069 0.0000 11.0583 0.0000
# 3 51.2199 41.1069 92.2461 0.0000 4.6586 0.0000
# 4 0.0000 0.0000 0.0000 14.6726 0.0000 4.5006
# 5 -4.4116 11.0583 4.6586 0.0000 31.5860 0.0000
# 6 0.0000 0.0000 0.0000 4.5006 0.0000 22.0943
#
#
#
# Elastic Compliance Matrix: (Units=1/GPa)
#
#
# Indices 1 2 3 4 5 6 
#
# 1 0.011499 -0.003083 -0.005186 0.000000 0.003450 0.000000
# 2 -0.003083 0.017300 -0.005713 0.000000 -0.005645 0.000000
# 3 -0.005186 -0.005713 0.016323 0.000000 -0.001132 0.000000
# 4 0.000000 0.000000 0.000000 0.072696 0.000000 -0.014808
# 5 0.003450 -0.005645 -0.001132 0.000000 0.034285 0.000000
# 6 0.000000 0.000000 0.000000 -0.014808 0.000000 0.048277
#
#
# Mechanical properties :
#
#
# Convention : Reuss Voigt Hill
#
# Bulk Modulus (GPa) = 58.27329 61.55590 59.91460
# Shear Modulus (GPa) = 21.36181 24.72031 23.04106
#
# Velocity S-wave (km/s) = 3.36326 3.61800 3.49295
# Velocity P-wave (km/s) = 6.77783 7.07449 6.92775
#
# Compressibility (1/GPa) = 0.01716052
#
# Stress axis : x y z
#
# Youngs Moduli (GPa) = 86.96044 57.80280 61.26427
#
# Poissons Ratio (x) = 0.17819 0.31769
# Poissons Ratio (y) = 0.26807 0.34998
# Poissons Ratio (z) = 0.45095 0.33021
#
# Static dielectric constant tensor:
#      x y z
#    x 3.655010 0.000000 -0.119440 
#    y 0.000000 3.252070 0.000000 
#    z -0.119440 0.000000 3.516830 
# 
# 
# High freq. dielectric constant tensor:
#      x y z
#    x 1.739300 0.000000 -0.008470 
#    y 0.000000 1.714720 0.000000 
#    z -0.008470 0.000000 1.739920 
# 
# From -- ./inp_files/162989.got.cif
#   From: 2010.06.25/outbox.cif.g09.slc.cpg/sg12_82_cif.got.tgz:162989.got - 2010.06.28 00:19:55.
