data_PCOD8088016
_publ_section_title
;
Structure prediction by ZEFSAII (Michael W. Deem and Ramdas Pophale) SiO2 
 PCOD8088016
Probable space group: C 2/M
;
_chemical_formula_sum "Si O2"
_cell_formula_units_Z 64
_cell_length_a 20.505919
_cell_length_b 9.365199
_cell_length_c 24.201472
_cell_angle_alpha 90.000000
_cell_angle_beta 52.273061
_cell_angle_gamma 90.000000
_cell_volume 3676.032390
_symmetry_space_group_name_H-M "C 2/M"
_symmetry_group_IT_number 12
_symmetry_cell_setting 'monoclinic'
loop_
_space_group_symop_operation_xyz
x,y,z
-x,y,-z
-x,-y,-z
x,-y,z
1/2+x,1/2+y,z
1/2-x,1/2+y,-z
1/2-x,1/2-y,-z
1/2+x,1/2-y,z
loop_
_atom_site_type_symbol
_atom_site_label
_atom_site_fract_x
_atom_site_fract_y
_atom_site_fract_z
Si Si1 0.574244 0.661356 0.504550
Si Si2 0.397113 0.169144 0.788712
Si Si3 0.573807 0.833458 0.001822
Si Si4 0.325609 0.163281 0.627172
Si Si5 0.838933 0.166981 0.225097
Si Si6 0.287822 0.669318 0.128991
Si Si7 0.529099 0.834919 0.362758
Si Si8 0.503013 0.167445 0.157012
O O1 0.500000 0.666833 0.500000
O O2 0.598566 0.500000 0.507319
O O3 0.653065 0.738189 0.436382
O O4 0.546943 0.743415 0.574116
O O5 0.304205 0.228695 0.833626
O O6 0.451323 0.222946 0.708746
O O7 0.439186 0.221627 0.823243
O O8 0.391839 0.000000 0.787946
O O9 0.549230 0.793920 0.076668
O O10 0.593826 0.000000 0.984172
O O11 0.500000 0.785986 0.000000
O O12 0.654580 0.743469 0.946026
O O13 0.235532 0.205065 0.695300
O O14 0.388549 0.187953 0.644553
O O15 0.329520 0.000000 0.605147
O O16 0.816082 0.216442 0.175268
O O17 0.916969 0.252342 0.206394
O O18 0.858926 0.000000 0.215569
O O19 0.293175 0.500000 0.118484
O O20 0.502087 0.000000 0.377052
O O21 0.484680 0.000000 0.170638
#
# Coordination Sequence:
#
# PCOD8088016 Si02
#       8
#     8   8   8   8   8   8   8   8
#     4   9  17  27  41  70 107 134 159 197 246 296
#     4   9  18  34  54  76 100 131 172 212 250 297
#     4  10  20  34  50  73 105 137 167 202 251 309
#     4   9  16  28  48  73  98 127 164 207 249 290
#     4  10  19  32  52  77 102 127 166 215 254 291
#     4  10  19  33  55  78  98 127 170 216 253 290
#     4   9  15  28  50  71  95 129 167 204 246 295
#     4  10  21  36  53  72 101 138 170 203 251 309
#
# _framework density 17.410074000000002
#
# number of rings (size 3 to 8) (size 9 to 14) (size 15 to 20)
#    0.000    2.500    2.500    0.375    0.000    3.250 
#    0.000    1.875    0.000    0.750    0.000    0.000 
#    0.000    0.000    0.000    0.000    0.000    0.000 
#
# Total GULP energy -396840.054832 kJ/mol
# GULP energy per Si atom -12401.251714 kJ/mol
# Density = 1.737045 g / cm^3
# Si number density = 17.410074 Si / 1000 Ang^3
#
#
#
# Elastic Constant Matrix: (Units=GPa)
#
#
# Indices 1 2 3 4 5 6 
#
# 1 88.2163 32.2476 63.2054 0.0000 -0.4706 -0.0001
# 2 32.2476 60.2219 60.8139 -0.0001 -5.7239 -0.0003
# 3 63.2054 60.8139 158.8616 0.0000 -2.5540 0.0000
# 4 0.0000 -0.0001 0.0000 16.8242 0.0000 -7.6308
# 5 -0.4706 -5.7239 -2.5540 0.0000 23.4935 0.0000
# 6 -0.0001 -0.0003 0.0000 -7.6308 0.0000 17.9847
#
#
#
# Elastic Compliance Matrix: (Units=1/GPa)
#
#
# Indices 1 2 3 4 5 6 
#
# 1 0.016339 -0.003706 -0.005100 0.000000 -0.001130 0.000000
# 2 -0.003706 0.028633 -0.009392 0.000000 0.005881 0.000001
# 3 -0.005100 -0.009392 0.011902 0.000000 -0.001097 0.000000
# 4 0.000000 0.000000 0.000000 0.073602 0.000000 0.031229
# 5 -0.001130 0.005881 -0.001097 0.000000 0.043856 0.000000
# 6 0.000000 0.000001 0.000000 0.031229 0.000000 0.068853
#
#
# Mechanical properties :
#
#
# Convention : Reuss Voigt Hill
#
# Bulk Modulus (GPa) = 48.83540 68.87043 58.85291
# Shear Modulus (GPa) = 17.45772 21.72934 19.59353
#
# Velocity S-wave (km/s) = 3.17004 3.53666 3.35836
# Velocity P-wave (km/s) = 6.44281 7.50473 6.99396
#
# Compressibility (1/GPa) = 0.02047695
#
# Stress axis : x y z
#
# Youngs Moduli (GPa) = 61.20476 34.92456 84.02279
#
# Poissons Ratio (x) = 0.12944 0.42851
# Poissons Ratio (y) = 0.22685 0.78913
# Poissons Ratio (z) = 0.31214 0.32801
#
# Static dielectric constant tensor:
#      x y z
#    x 3.049940 0.000000 0.020480 
#    y 0.000000 3.090730 0.000000 
#    z 0.020480 0.000000 3.389530 
# 
# 
# High freq. dielectric constant tensor:
#      x y z
#    x 1.643740 0.000000 -0.003420 
#    y 0.000000 1.656150 0.000000 
#    z -0.003420 0.000000 1.687790 
# 
# From -- ./inp_files/320101.got.cif
#   From: 2010.06.25/outbox.cif.g09.slc.cpg/sg12_161_cif.got.tgz:320101.got - 2010.06.28 00:19:55.
