data_PCOD8088162
_publ_section_title
;
Structure prediction by ZEFSAII (Michael W. Deem and Ramdas Pophale) SiO2 
 PCOD8088162
Probable space group: C 2/M
;
_chemical_formula_sum "Si O2"
_cell_formula_units_Z 64
_cell_length_a 20.082975
_cell_length_b 8.988109
_cell_length_c 24.425746
_cell_angle_alpha 90.000000
_cell_angle_beta 125.865744
_cell_angle_gamma 90.000000
_cell_volume 3573.052526
_symmetry_space_group_name_H-M "C 2/M"
_symmetry_group_IT_number 12
_symmetry_cell_setting 'monoclinic'
loop_
_space_group_symop_operation_xyz
x,y,z
-x,y,-z
-x,-y,-z
x,-y,z
1/2+x,1/2+y,z
1/2-x,1/2+y,-z
1/2-x,1/2-y,-z
1/2+x,1/2-y,z
loop_
_atom_site_type_symbol
_atom_site_label
_atom_site_fract_x
_atom_site_fract_y
_atom_site_fract_z
Si Si1 0.745940 0.326040 0.164591
Si Si2 0.466472 0.325558 0.176570
Si Si3 0.030160 0.326220 0.315480
Si Si4 0.703548 0.822540 0.927541
Si Si5 0.135211 0.172301 0.205939
Si Si6 0.712104 0.172782 0.429669
Si Si7 0.271734 0.326928 0.341552
Si Si8 0.620233 0.172077 0.686437
O O1 0.757977 0.500000 0.163738
O O2 0.750461 0.261604 0.105299
O O3 0.661193 0.285876 0.155736
O O4 0.822073 0.264561 0.237042
O O5 0.444812 0.500000 0.168773
O O6 0.494023 0.271128 0.249254
O O7 0.390009 0.232105 0.117947
O O8 0.539483 0.293596 0.168331
O O9 0.029917 0.500000 0.297825
O O10 0.120389 0.267267 0.373755
O O11 0.974097 0.301025 0.342429
O O12 0.705498 0.000000 0.933898
O O13 0.750000 0.750000 0.000000
O O14 0.189114 0.263118 0.274972
O O15 0.155222 0.000000 0.226566
O O16 0.750000 0.250000 0.500000
O O17 0.769579 0.206637 0.405199
O O18 0.706799 0.000000 0.440242
O O19 0.272230 0.500000 0.329529
O O20 0.355510 0.256907 0.357652
O O21 0.639230 0.000000 0.685238
#
# Coordination Sequence:
#
# PCOD8088162 Si02
#       8
#     8   8   8   8   8   8   8   8
#     4   8  15  31  54  76 101 139 179 215 261 316
#     4  11  21  33  55  86 112 137 179 230 273 320
#     4  10  19  36  57  79 108 144 184 224 267 322
#     4  11  22  38  57  78 110 148 184 226 273 329
#     4   9  18  33  54  80 107 139 180 221 265 323
#     4  10  22  37  55  78 109 147 185 222 273 327
#     4  10  19  32  52  80 110 139 174 224 278 319
#     4   9  17  32  55  79 104 138 179 220 266 323
#
# _framework density 17.911856
#
# number of rings (size 3 to 8) (size 9 to 14) (size 15 to 20)
#    0.000    2.250    2.500    1.875    0.000    2.500 
#    0.000    1.875    0.000    7.500    0.000    0.000 
#    0.000    0.000    0.000    0.000    0.000    0.000 
#
# Total GULP energy -396700.818792 kJ/mol
# GULP energy per Si atom -12396.900587 kJ/mol
# Density = 1.787109 g / cm^3
# Si number density = 17.911856 Si / 1000 Ang^3
#
#
#
# Elastic Constant Matrix: (Units=GPa)
#
#
# Indices 1 2 3 4 5 6 
#
# 1 130.2715 44.3620 45.8692 0.0000 -7.3302 0.0000
# 2 44.3620 64.8595 35.5084 0.0000 -6.1513 0.0000
# 3 45.8692 35.5084 90.5893 0.0000 -4.9641 0.0000
# 4 0.0000 0.0000 0.0000 30.3080 0.0000 -0.7327
# 5 -7.3302 -6.1513 -4.9641 0.0000 24.3318 0.0000
# 6 0.0000 0.0000 0.0000 -0.7327 0.0000 28.8301
#
#
#
# Elastic Compliance Matrix: (Units=1/GPa)
#
#
# Indices 1 2 3 4 5 6 
#
# 1 0.010742 -0.005465 -0.003232 0.000000 0.001195 0.000000
# 2 -0.005465 0.022698 -0.005972 0.000000 0.002873 0.000000
# 3 -0.003232 -0.005972 0.015048 0.000000 0.000587 0.000000
# 4 0.000000 0.000000 0.000000 0.033015 0.000000 0.000839
# 5 0.001195 0.002873 0.000587 0.000000 0.042305 0.000000
# 6 0.000000 0.000000 0.000000 0.000839 0.000000 0.034707
#
#
# Mechanical properties :
#
#
# Convention : Reuss Voigt Hill
#
# Bulk Modulus (GPa) = 52.21744 59.68882 55.95313
# Shear Modulus (GPa) = 25.74171 27.35935 26.55053
#
# Velocity S-wave (km/s) = 3.79507 3.91249 3.85423
# Velocity P-wave (km/s) = 6.95838 7.33526 7.14931
#
# Compressibility (1/GPa) = 0.01915069
#
# Stress axis : x y z
#
# Youngs Moduli (GPa) = 93.08873 44.05689 66.45240
#
# Poissons Ratio (x) = 0.24076 0.21476
# Poissons Ratio (y) = 0.50872 0.39688
# Poissons Ratio (z) = 0.30084 0.26312
#
# Static dielectric constant tensor:
#      x y z
#    x 4.030440 0.000000 0.097180 
#    y 0.000000 3.264210 0.000000 
#    z 0.097180 0.000000 3.227510 
# 
# 
# High freq. dielectric constant tensor:
#      x y z
#    x 1.714330 0.000000 -0.007920 
#    y 0.000000 1.684680 0.000000 
#    z -0.007920 0.000000 1.660510 
# 
# From -- ./inp_files/346201.got.cif
#   From: 2010.06.25/outbox.cif.g09.slc.cpg/sg12_174_cif.got.tgz:346201.got - 2010.06.28 00:19:55.
