data_PCOD8088728
_publ_section_title
;
Structure prediction by ZEFSAII (Michael W. Deem and Ramdas Pophale) SiO2 
 PCOD8088728
Probable space group: C 2/M
;
_chemical_formula_sum "Si O2"
_cell_formula_units_Z 44
_cell_length_a 19.620710
_cell_length_b 13.129423
_cell_length_c 10.723690
_cell_angle_alpha 90.000000
_cell_angle_beta 51.610623
_cell_angle_gamma 90.000000
_cell_volume 2165.282866
_symmetry_space_group_name_H-M "C 2/M"
_symmetry_group_IT_number 12
_symmetry_cell_setting 'monoclinic'
loop_
_space_group_symop_operation_xyz
x,y,z
-x,y,-z
-x,-y,-z
x,-y,z
1/2+x,1/2+y,z
1/2-x,1/2+y,-z
1/2-x,1/2-y,-z
1/2+x,1/2-y,z
loop_
_atom_site_type_symbol
_atom_site_label
_atom_site_fract_x
_atom_site_fract_y
_atom_site_fract_z
Si Si1 0.000000 0.252403 0.500000
Si Si2 0.254576 0.884013 0.869893
Si Si3 0.335219 0.808365 0.543333
Si Si4 0.775017 0.616368 0.355255
Si Si5 0.887279 0.230521 0.844795
Si Si6 0.077763 0.611672 0.005846
O O1 0.929908 0.320061 0.501654
O O2 0.946840 0.186558 0.663667
O O3 0.262882 0.863122 0.712638
O O4 0.317734 0.809958 0.871737
O O5 0.277504 0.000000 0.874595
O O6 0.156703 0.862113 0.030592
O O7 0.309305 0.689287 0.555069
O O8 0.333894 0.862905 0.411064
O O9 0.742037 0.500000 0.395224
O O10 0.832597 0.637616 0.167607
O O11 0.945235 0.299118 0.871219
O O12 0.086694 0.500000 0.059926
O O13 0.000000 0.607516 0.000000
#
# Coordination Sequence:
#
# PCOD8088728 Si02
#       6
#     4   8   8   8   8   8
#     4  10  22  38  58  82 116 154 186 238 296 326
#     4  10  20  36  59  81 107 148 190 230 281 339
#     4  10  20  38  58  85 117 152 191 237 282 343
#     4  10  20  35  58  85 115 152 190 232 286 344
#     4  10  20  37  54  81 112 144 185 234 280 334
#     4  10  19  32  54  84 112 143 181 230 288 338
#
# _framework density 20.320671000000001
#
# number of rings (size 3 to 8) (size 9 to 14) (size 15 to 20)
#    0.000    2.000    1.818    2.182    0.000    0.000 
#    0.000   17.273    0.000    0.545    0.000    0.000 
#    0.000    0.000    0.000    0.000    0.000    0.000 
#
# Total GULP energy -272648.387061 kJ/mol
# GULP energy per Si atom -12393.108503 kJ/mol
# Density = 2.027442 g / cm^3
# Si number density = 20.320671 Si / 1000 Ang^3
#
#
#
# Elastic Constant Matrix: (Units=GPa)
#
#
# Indices 1 2 3 4 5 6 
#
# 1 74.3780 16.4887 17.3915 0.0000 4.1475 0.0000
# 2 16.4887 81.6471 22.9236 0.0000 -1.6796 0.0000
# 3 17.3915 22.9236 109.2154 0.0000 1.6650 0.0000
# 4 0.0000 0.0000 0.0000 5.6253 0.0000 -4.7786
# 5 4.1475 -1.6796 1.6650 0.0000 27.1167 0.0000
# 6 0.0000 0.0000 0.0000 -4.7786 0.0000 14.6059
#
#
#
# Elastic Compliance Matrix: (Units=1/GPa)
#
#
# Indices 1 2 3 4 5 6 
#
# 1 0.014534 -0.002488 -0.001757 0.000000 -0.002269 0.000000
# 2 -0.002488 0.013467 -0.002451 0.000000 0.001365 0.000000
# 3 -0.001757 -0.002451 0.009958 0.000000 -0.000494 0.000000
# 4 0.000000 0.000000 0.000000 0.246193 0.000000 0.080547
# 5 -0.002269 0.001365 -0.000494 0.000000 0.037340 0.000000
# 6 0.000000 0.000000 0.000000 0.080547 0.000000 0.094818
#
#
# Mechanical properties :
#
#
# Convention : Reuss Voigt Hill
#
# Bulk Modulus (GPa) = 40.70886 42.09423 41.40155
# Shear Modulus (GPa) = 11.41835 23.36535 17.39185
#
# Velocity S-wave (km/s) = 2.37303 3.39460 2.92870
# Velocity P-wave (km/s) = 5.25215 6.01035 5.64400
#
# Compressibility (1/GPa) = 0.02456468
#
# Stress axis : x y z
#
# Youngs Moduli (GPa) = 68.80438 74.25765 100.42081
#
# Poissons Ratio (x) = 0.18478 0.17649
# Poissons Ratio (y) = 0.17121 0.24614
# Poissons Ratio (z) = 0.12092 0.18201
#
# Static dielectric constant tensor:
#      x y z
#    x 3.579090 0.000000 0.182240 
#    y 0.000000 3.567650 0.000000 
#    z 0.182240 0.000000 4.161800 
# 
# 
# High freq. dielectric constant tensor:
#      x y z
#    x 1.783460 0.000000 0.016670 
#    y 0.000000 1.763940 0.000000 
#    z 0.016670 0.000000 1.807420 
# 
# From -- ./inp_files/164645.got.cif
#   From: 2010.06.25/outbox.cif.g09.slc.cpg/sg12_83_cif.got.tgz:164645.got - 2010.06.28 00:19:55.
