data_PCOD8088718
_publ_section_title
;
Structure prediction by ZEFSAII (Michael W. Deem and Ramdas Pophale) SiO2 
 PCOD8088718
Probable space group: C 2/M
;
_chemical_formula_sum "Si O2"
_cell_formula_units_Z 64
_cell_length_a 26.519059
_cell_length_b 12.592677
_cell_length_c 14.072881
_cell_angle_alpha 90.000000
_cell_angle_beta 137.222556
_cell_angle_gamma 90.000000
_cell_volume 3191.732076
_symmetry_space_group_name_H-M "C 2/M"
_symmetry_group_IT_number 12
_symmetry_cell_setting 'monoclinic'
loop_
_space_group_symop_operation_xyz
x,y,z
-x,y,-z
-x,-y,-z
x,-y,z
1/2+x,1/2+y,z
1/2-x,1/2+y,-z
1/2-x,1/2-y,-z
1/2+x,1/2-y,z
loop_
_atom_site_type_symbol
_atom_site_label
_atom_site_fract_x
_atom_site_fract_y
_atom_site_fract_z
Si Si1 0.167951 0.116883 0.110830
Si Si2 0.497683 0.618746 0.106623
Si Si3 0.835963 0.123324 0.369527
Si Si4 0.172859 0.622973 0.441232
Si Si5 0.049906 0.621951 0.661796
Si Si6 0.212652 0.724022 0.320343
Si Si7 0.290017 0.787883 0.149872
Si Si8 0.448406 0.256479 0.643227
O O1 0.164184 0.217089 0.175288
O O2 0.230049 0.137229 0.117856
O O3 0.185629 0.000000 0.180317
O O4 0.083689 0.114854 0.957248
O O5 0.532305 0.500000 0.154248
O O6 0.544662 0.691907 0.242759
O O7 0.500000 0.660823 0.000000
O O8 0.773646 0.143714 0.362750
O O9 0.814162 0.185974 0.244329
O O10 0.915838 0.159896 0.521640
O O11 0.840402 0.000000 0.349443
O O12 0.181872 0.500000 0.467492
O O13 0.157199 0.655404 0.309825
O O14 0.250559 0.678102 0.572636
O O15 0.109988 0.660655 0.427022
O O16 0.040008 0.500000 0.680903
O O17 0.136816 0.642191 0.765927
O O18 0.000000 0.644424 0.500000
O O19 0.023599 0.702982 0.708105
O O20 0.250000 0.750000 0.000000
#
# Coordination Sequence:
#
# PCOD8088718 Si02
#       8
#     8   8   8   8   8   8   8   8
#     4  10  20  36  58  83 110 149 197 243 294 354
#     4  10  21  37  60  89 123 162 200 243 300 366
#     4  10  21  37  58  85 118 157 195 242 306 368
#     4  10  19  32  54  83 113 147 188 234 290 353
#     4  11  23  41  64  90 120 161 213 265 318 367
#     4   9  19  33  53  82 114 147 183 236 293 351
#     4  11  23  41  61  87 122 156 203 259 309 369
#     4  11  21  38  59  86 119 157 202 252 300 358
#
# _framework density 20.051808999999999
#
# number of rings (size 3 to 8) (size 9 to 14) (size 15 to 20)
#    0.000    1.750    1.250    3.375    0.000    1.000 
#    0.000    5.625    0.000    9.000    0.000    0.000 
#    0.000    0.000    0.000    0.000    0.000    0.000 
#
# Total GULP energy -396634.285556 kJ/mol
# GULP energy per Si atom -12394.821424 kJ/mol
# Density = 2.000617 g / cm^3
# Si number density = 20.051809 Si / 1000 Ang^3
#
#
#
# Elastic Constant Matrix: (Units=GPa)
#
#
# Indices 1 2 3 4 5 6 
#
# 1 78.8180 28.9038 24.8109 0.0000 2.7574 0.0000
# 2 28.9038 118.7391 34.7841 0.0000 -4.3194 0.0000
# 3 24.8109 34.7841 96.4405 0.0000 -9.7144 0.0000
# 4 0.0000 0.0000 0.0000 21.0150 0.0000 -0.6075
# 5 2.7574 -4.3194 -9.7144 0.0000 33.2599 0.0000
# 6 0.0000 0.0000 0.0000 -0.6075 0.0000 27.7508
#
#
#
# Elastic Compliance Matrix: (Units=1/GPa)
#
#
# Indices 1 2 3 4 5 6 
#
# 1 0.014754 -0.002791 -0.003038 0.000000 -0.002473 0.000000
# 2 -0.002791 0.009947 -0.002798 0.000000 0.000706 0.000000
# 3 -0.003038 -0.002798 0.012517 0.000000 0.003544 0.000000
# 4 0.000000 0.000000 0.000000 0.047615 0.000000 0.001042
# 5 -0.002473 0.000706 0.003544 0.000000 0.031398 0.000000
# 6 0.000000 0.000000 0.000000 0.001042 0.000000 0.036058
#
#
# Mechanical properties :
#
#
# Convention : Reuss Voigt Hill
#
# Bulk Modulus (GPa) = 50.09479 52.33280 51.21380
# Shear Modulus (GPa) = 28.37711 30.10507 29.24109
#
# Velocity S-wave (km/s) = 3.76598 3.87895 3.82288
# Velocity P-wave (km/s) = 6.62926 6.79832 6.71432
#
# Compressibility (1/GPa) = 0.01996215
#
# Stress axis : x y z
#
# Youngs Moduli (GPa) = 67.77843 100.53516 79.89143
#
# Poissons Ratio (x) = 0.28064 0.24271
# Poissons Ratio (y) = 0.18920 0.22356
# Poissons Ratio (z) = 0.20591 0.28133
#
# Static dielectric constant tensor:
#      x y z
#    x 3.817750 0.000000 -0.047310 
#    y 0.000000 3.646680 0.000000 
#    z -0.047310 0.000000 3.540210 
# 
# 
# High freq. dielectric constant tensor:
#      x y z
#    x 1.788580 0.000000 0.002620 
#    y 0.000000 1.783520 0.000000 
#    z 0.002620 0.000000 1.767230 
# 
# From -- ./inp_files/250879.got.cif
#   From: 2010.06.25/outbox.cif.g09.slc.cpg/sg12_126_cif.got.tgz:250879.got - 2010.06.28 00:19:55.
