data_PCOD8088228
_publ_section_title
;
Structure prediction by ZEFSAII (Michael W. Deem and Ramdas Pophale) SiO2 
 PCOD8088228
Probable space group: C 2/M
;
_chemical_formula_sum "Si O2"
_cell_formula_units_Z 36
_cell_length_a 19.929654
_cell_length_b 23.180375
_cell_length_c 5.020242
_cell_angle_alpha 90.000000
_cell_angle_beta 109.102783
_cell_angle_gamma 90.000000
_cell_volume 2191.522295
_symmetry_space_group_name_H-M "C 2/M"
_symmetry_group_IT_number 12
_symmetry_cell_setting 'monoclinic'
loop_
_space_group_symop_operation_xyz
x,y,z
-x,y,-z
-x,-y,-z
x,-y,z
1/2+x,1/2+y,z
1/2-x,1/2+y,-z
1/2-x,1/2-y,-z
1/2+x,1/2-y,z
loop_
_atom_site_type_symbol
_atom_site_label
_atom_site_fract_x
_atom_site_fract_y
_atom_site_fract_z
Si Si1 0.205799 0.341110 0.960470
Si Si2 0.808731 0.229316 0.362547
Si Si3 0.547798 0.231198 0.316054
Si Si4 0.949630 0.500000 0.685623
Si Si5 0.867221 0.382575 0.616938
O O1 0.179786 0.275972 0.861013
O O2 0.284461 0.331535 0.193162
O O3 0.156086 0.372569 0.110120
O O4 0.200015 0.377054 0.676583
O O5 0.750000 0.250000 0.500000
O O6 0.884546 0.225012 0.608793
O O7 0.500000 0.248503 0.500000
O O8 0.573671 0.164937 0.378561
O O9 0.500000 0.240992 0.000000
O O10 0.898959 0.445210 0.623558
O O11 0.000000 0.500000 0.500000
O O12 0.000000 0.500000 0.000000
#
# Coordination Sequence:
#
# PCOD8088228 Si02
#       5
#     8   8   8   4   8
#     4  10  19  32  53  70  90 127 176 214 249 309
#     4  10  19  33  52  71  97 131 173 206 263 310
#     4  11  21  30  46  72 101 129 168 208 245 300
#     4  12  24  38  52  70 104 146 182 227 270 293
#     4  11  21  35  50  70  97 137 182 218 250 285
#
# _framework density 16.426938
#
# number of rings (size 3 to 8) (size 9 to 14) (size 15 to 20)
#    0.000    1.333    4.444    5.333    3.111    0.000 
#    0.000    0.000    0.000    0.000    0.000    0.000 
#    0.000    0.000    0.000   20.000    0.000    0.111 
#
# Total GULP energy -223007.534303 kJ/mol
# GULP energy per Si atom -12389.307461 kJ/mol
# Density = 1.638955 g / cm^3
# Si number density = 16.426938 Si / 1000 Ang^3
#
#
#
# Elastic Constant Matrix: (Units=GPa)
#
#
# Indices 1 2 3 4 5 6 
#
# 1 87.7438 28.0753 50.2656 0.0000 1.6071 0.0000
# 2 28.0753 63.8398 39.5304 0.0000 10.1848 0.0000
# 3 50.2656 39.5304 141.5911 0.0000 10.0618 0.0000
# 4 0.0000 0.0000 0.0000 22.6778 0.0000 2.5700
# 5 1.6071 10.1848 10.0618 0.0000 41.4042 0.0000
# 6 0.0000 0.0000 0.0000 2.5700 0.0000 27.5707
#
#
#
# Elastic Compliance Matrix: (Units=1/GPa)
#
#
# Indices 1 2 3 4 5 6 
#
# 1 0.015203 -0.004253 -0.004317 0.000000 0.001505 0.000000
# 2 -0.004253 0.020620 -0.003967 0.000000 -0.003943 0.000000
# 3 -0.004317 -0.003967 0.009790 0.000000 -0.001236 0.000000
# 4 0.000000 0.000000 0.000000 0.044567 0.000000 -0.004154
# 5 0.001505 -0.003943 -0.001236 0.000000 0.025364 0.000000
# 6 0.000000 0.000000 0.000000 -0.004154 0.000000 0.036658
#
#
# Mechanical properties :
#
#
# Convention : Reuss Voigt Hill
#
# Bulk Modulus (GPa) = 48.68501 58.76860 53.72680
# Shear Modulus (GPa) = 27.15596 30.01742 28.58669
#
# Velocity S-wave (km/s) = 4.07029 4.27936 4.17614
# Velocity P-wave (km/s) = 7.19662 7.76342 7.48539
#
# Compressibility (1/GPa) = 0.02054020
#
# Stress axis : x y z
#
# Youngs Moduli (GPa) = 65.77640 48.49666 102.14160
#
# Poissons Ratio (x) = 0.20626 0.44091
# Poissons Ratio (y) = 0.27976 0.40517
# Poissons Ratio (z) = 0.28394 0.19237
#
# Static dielectric constant tensor:
#      x y z
#    x 3.121520 0.000000 0.147340 
#    y 0.000000 2.882440 0.000000 
#    z 0.147340 0.000000 3.684390 
# 
# 
# High freq. dielectric constant tensor:
#      x y z
#    x 1.620270 0.000000 -0.010620 
#    y 0.000000 1.574100 0.000000 
#    z -0.010620 0.000000 1.668770 
# 
# From -- ./inp_files/21380.got.cif
#   From: 2010.06.25/outbox.cif.g09.slc.cpg/sg12_11_cif.got.tgz:21380.got - 2010.06.28 00:19:55.
