data_PCOD8088663
_publ_section_title
;
Structure prediction by ZEFSAII (Michael W. Deem and Ramdas Pophale) SiO2 
 PCOD8088663
Probable space group: C 2/M
;
_chemical_formula_sum "Si O2"
_cell_formula_units_Z 64
_cell_length_a 20.351840
_cell_length_b 9.158535
_cell_length_c 26.284901
_cell_angle_alpha 90.000000
_cell_angle_beta 134.344345
_cell_angle_gamma 90.000000
_cell_volume 3503.760190
_symmetry_space_group_name_H-M "C 2/M"
_symmetry_group_IT_number 12
_symmetry_cell_setting 'monoclinic'
loop_
_space_group_symop_operation_xyz
x,y,z
-x,y,-z
-x,-y,-z
x,-y,z
1/2+x,1/2+y,z
1/2-x,1/2+y,-z
1/2-x,1/2-y,-z
1/2+x,1/2-y,z
loop_
_atom_site_type_symbol
_atom_site_label
_atom_site_fract_x
_atom_site_fract_y
_atom_site_fract_z
Si Si1 0.774313 0.331306 0.587519
Si Si2 0.044104 0.328339 0.938437
Si Si3 0.644271 0.669593 0.167732
Si Si4 0.323430 0.834211 0.071267
Si Si5 0.945022 0.331025 0.418668
Si Si6 0.304476 0.667446 0.914674
Si Si7 0.246763 0.171034 0.685997
Si Si8 0.385792 0.169789 0.553413
O O1 0.750712 0.500000 0.567333
O O2 0.794473 0.296053 0.657292
O O3 0.683861 0.246448 0.522415
O O4 0.862027 0.288051 0.599345
O O5 0.024977 0.500000 0.937028
O O6 0.075647 0.295174 0.896394
O O7 0.953908 0.235774 0.899111
O O8 0.121124 0.275495 0.020077
O O9 0.634499 0.500000 0.176407
O O10 0.706333 0.694462 0.151194
O O11 0.689636 0.752431 0.238706
O O12 0.298784 0.805303 0.117427
O O13 0.305895 0.000000 0.047445
O O14 0.250000 0.750000 0.000000
O O15 0.914525 0.500000 0.399540
O O16 0.856140 0.230931 0.367519
O O17 0.000000 0.298354 0.500000
O O18 0.010086 0.288497 0.405680
O O19 0.336173 0.500000 0.942054
O O20 0.243437 0.000000 0.695763
O O21 0.371238 0.000000 0.535557
#
# Coordination Sequence:
#
# PCOD8088663 Si02
#       8
#     8   8   8   8   8   8   8   8
#     4   9  18  32  51  76 103 132 165 206 254 300
#     4  10  19  32  54  82 108 135 170 215 265 312
#     4  11  23  37  53  73 102 142 181 216 259 310
#     4   8  15  29  50  76 103 130 164 208 255 301
#     4  10  19  33  55  81 105 133 168 206 252 309
#     4   9  18  34  55  78 104 137 178 218 255 304
#     4  11  23  37  53  74 105 139 174 217 264 310
#     4   9  17  31  53  79 104 130 165 206 248 301
#
# _framework density 18.266089999999998
#
# number of rings (size 3 to 8) (size 9 to 14) (size 15 to 20)
#    0.000    2.375    1.250    1.500    0.000    4.250 
#    0.000    1.250    0.000    7.500    0.000    0.000 
#    0.000    0.000    0.000    0.000    0.000    0.000 
#
# Total GULP energy -396499.884965 kJ/mol
# GULP energy per Si atom -12390.621405 kJ/mol
# Density = 1.822452 g / cm^3
# Si number density = 18.266090 Si / 1000 Ang^3
#
#
#
# Elastic Constant Matrix: (Units=GPa)
#
#
# Indices 1 2 3 4 5 6 
#
# 1 106.3164 35.4612 28.5431 0.0000 -26.4105 0.0000
# 2 35.4612 66.8242 29.3642 0.0000 -11.0246 0.0000
# 3 28.5431 29.3642 60.1445 0.0000 -17.4016 0.0000
# 4 0.0000 0.0000 0.0000 28.7764 0.0000 2.0650
# 5 -26.4105 -11.0246 -17.4016 0.0000 22.2590 0.0000
# 6 0.0000 0.0000 0.0000 2.0650 0.0000 25.6192
#
#
#
# Elastic Compliance Matrix: (Units=1/GPa)
#
#
# Indices 1 2 3 4 5 6 
#
# 1 0.014967 -0.005416 -0.000125 0.000000 0.014978 0.000000
# 2 -0.005416 0.021148 -0.008508 0.000000 -0.002604 0.000000
# 3 -0.000125 -0.008508 0.025300 0.000000 0.015417 0.000000
# 4 0.000000 0.000000 0.000000 0.034953 0.000000 -0.002817
# 5 0.014978 -0.002604 0.015417 0.000000 0.073461 0.000000
# 6 0.000000 0.000000 0.000000 -0.002817 0.000000 0.039260
#
#
# Mechanical properties :
#
#
# Convention : Reuss Voigt Hill
#
# Bulk Modulus (GPa) = 30.01481 46.66913 38.34197
# Shear Modulus (GPa) = 20.13753 24.65868 22.39810
#
# Velocity S-wave (km/s) = 3.32392 3.67818 3.50553
# Velocity P-wave (km/s) = 5.58560 6.60634 6.11730
#
# Compressibility (1/GPa) = 0.03331689
#
# Stress axis : x y z
#
# Youngs Moduli (GPa) = 66.81476 47.28591 39.52521
#
# Poissons Ratio (x) = 0.25612 0.00493
# Poissons Ratio (y) = 0.36190 0.33627
# Poissons Ratio (z) = 0.00834 0.40230
#
# Static dielectric constant tensor:
#      x y z
#    x 4.272510 0.000000 -0.333520 
#    y 0.000000 3.428110 0.000000 
#    z -0.333520 0.000000 3.042400 
# 
# 
# High freq. dielectric constant tensor:
#      x y z
#    x 1.733770 0.000000 -0.020020 
#    y 0.000000 1.714020 0.000000 
#    z -0.020020 0.000000 1.664120 
# 
# From -- ./inp_files/346101.got.cif
#   From: 2010.06.25/outbox.cif.g09.slc.cpg/sg12_174_cif.got.tgz:346101.got - 2010.06.28 00:19:55.
