data_PCOD8088105
_publ_section_title
;
Structure prediction by ZEFSAII (Michael W. Deem and Ramdas Pophale) SiO2 
 PCOD8088105
Probable space group: C 2/M
;
_chemical_formula_sum "Si O2"
_cell_formula_units_Z 52
_cell_length_a 18.080779
_cell_length_b 7.919528
_cell_length_c 19.283301
_cell_angle_alpha 90.000000
_cell_angle_beta 103.584812
_cell_angle_gamma 90.000000
_cell_volume 2683.950435
_symmetry_space_group_name_H-M "C 2/M"
_symmetry_group_IT_number 12
_symmetry_cell_setting 'monoclinic'
loop_
_space_group_symop_operation_xyz
x,y,z
-x,y,-z
-x,-y,-z
x,-y,z
1/2+x,1/2+y,z
1/2-x,1/2+y,-z
1/2-x,1/2-y,-z
1/2+x,1/2-y,z
loop_
_atom_site_type_symbol
_atom_site_label
_atom_site_fract_x
_atom_site_fract_y
_atom_site_fract_z
Si Si1 0.814497 0.808000 0.934201
Si Si2 0.778395 0.311602 0.632569
Si Si3 0.722919 0.805711 0.213539
Si Si4 0.602491 0.692330 0.773454
Si Si5 0.826077 0.500000 0.415547
Si Si6 0.445728 0.000000 0.322848
Si Si7 0.893358 0.500000 0.576435
Si Si8 0.855041 0.306612 0.079335
O O1 0.831440 0.784210 0.855897
O O2 0.730016 0.732778 0.927854
O O3 0.818680 0.000000 0.956520
O O4 0.873726 0.718190 0.001166
O O5 0.737876 0.500000 0.628610
O O6 0.804234 0.253801 0.715440
O O7 0.853159 0.332653 0.600831
O O8 0.724204 0.169637 0.588374
O O9 0.811154 0.754640 0.225674
O O10 0.710790 0.000000 0.196234
O O11 0.583177 0.500000 0.745719
O O12 0.550465 0.829146 0.722369
O O13 0.590389 0.707646 0.854497
O O14 0.870573 0.500000 0.353345
O O15 0.884533 0.500000 0.491963
O O16 0.518057 0.000000 0.388520
O O17 0.860672 0.500000 0.102296
#
# Coordination Sequence:
#
# PCOD8088105 Si02
#       8
#     8   8   8   8   4   4   4   8
#     4   9  16  21  37  67 107 142 185 239 291 328
#     4   9  21  38  61  86 115 152 194 237 285 354
#     4   9  16  29  48  75 103 144 190 242 277 338
#     4  10  19  32  52  78 113 153 198 236 286 349
#     4  12  21  40  72  85 112 159 197 236 294 358
#     4  12  23  38  60  89 120 155 192 246 293 351
#     4  10  25  44  56  92 128 144 190 249 298 349
#     4   9  15  25  39  65 107 153 186 231 293 340
#
# _framework density 19.374427000000001
#
# number of rings (size 3 to 8) (size 9 to 14) (size 15 to 20)
#    0.462    1.846    2.308    1.615    2.154    3.692 
#    1.385    0.000    0.000    1.846    0.000    2.154 
#    0.000    2.462    0.000    0.000    0.000    0.000 
#
# Total GULP energy -322107.718188 kJ/mol
# GULP energy per Si atom -12388.758392 kJ/mol
# Density = 1.933033 g / cm^3
# Si number density = 19.374427 Si / 1000 Ang^3
#
#
#
# Elastic Constant Matrix: (Units=GPa)
#
#
# Indices 1 2 3 4 5 6 
#
# 1 27.2350 16.9123 7.0998 0.0000 6.7296 0.0000
# 2 16.9123 95.8701 37.6936 0.0000 10.1227 0.0000
# 3 7.0998 37.6936 125.0590 0.0000 5.6585 0.0000
# 4 0.0000 0.0000 0.0000 27.2584 0.0000 -0.9784
# 5 6.7296 10.1227 5.6585 0.0000 11.9427 0.0000
# 6 0.0000 0.0000 0.0000 -0.9784 0.0000 11.2467
#
#
#
# Elastic Compliance Matrix: (Units=1/GPa)
#
#
# Indices 1 2 3 4 5 6 
#
# 1 0.045449 -0.005884 0.000129 0.000000 -0.020684 0.000000
# 2 -0.005884 0.013509 -0.003444 0.000000 -0.006503 0.000000
# 3 0.000129 -0.003444 0.009093 0.000000 -0.001462 0.000000
# 4 0.000000 0.000000 0.000000 0.036801 0.000000 0.003202
# 5 -0.020684 -0.006503 -0.001462 0.000000 0.101593 0.000000
# 6 0.000000 0.000000 0.000000 0.003202 0.000000 0.089193
#
#
# Mechanical properties :
#
#
# Convention : Reuss Voigt Hill
#
# Bulk Modulus (GPa) = 20.13950 41.28614 30.71282
# Shear Modulus (GPa) = 15.12463 22.52015 18.82239
#
# Velocity S-wave (km/s) = 2.79704 3.41305 3.12028
# Velocity P-wave (km/s) = 4.56604 6.07353 5.37291
#
# Compressibility (1/GPa) = 0.04965367
#
# Stress axis : x y z
#
# Youngs Moduli (GPa) = 22.00288 74.02254 109.97537
#
# Poissons Ratio (x) = 0.43558 -0.01422
# Poissons Ratio (y) = 0.12947 0.37870
# Poissons Ratio (z) = -0.00284 0.25490
#
# Static dielectric constant tensor:
#      x y z
#    x 2.790210 0.000000 -0.085850 
#    y 0.000000 3.443370 0.000000 
#    z -0.085850 0.000000 3.819340 
# 
# 
# High freq. dielectric constant tensor:
#      x y z
#    x 1.662910 0.000000 -0.003880 
#    y 0.000000 1.754640 0.000000 
#    z -0.003880 0.000000 1.779070 
# 
# From -- ./inp_files/274486.got.cif
#   From: 2010.06.25/outbox.cif.g09.slc.cpg/sg12_138_cif.got.tgz:274486.got - 2010.06.28 00:19:55.
