data_PCOD8088412
_publ_section_title
;
Structure prediction by ZEFSAII (Michael W. Deem and Ramdas Pophale) SiO2 
 PCOD8088412
Probable space group: C 2/M
;
_chemical_formula_sum "Si O2"
_cell_formula_units_Z 40
_cell_length_a 21.912238
_cell_length_b 13.229559
_cell_length_c 15.140834
_cell_angle_alpha 90.000000
_cell_angle_beta 151.287762
_cell_angle_gamma 90.000000
_cell_volume 2108.602414
_symmetry_space_group_name_H-M "C 2/M"
_symmetry_group_IT_number 12
_symmetry_cell_setting 'monoclinic'
loop_
_space_group_symop_operation_xyz
x,y,z
-x,y,-z
-x,-y,-z
x,-y,z
1/2+x,1/2+y,z
1/2-x,1/2+y,-z
1/2-x,1/2-y,-z
1/2+x,1/2-y,z
loop_
_atom_site_type_symbol
_atom_site_label
_atom_site_fract_x
_atom_site_fract_y
_atom_site_fract_z
Si Si1 0.735918 0.882279 0.474357
Si Si2 0.318340 0.614400 0.955195
Si Si3 0.139209 0.116340 0.185662
Si Si4 0.961044 0.615479 0.352056
Si Si5 0.550997 0.254046 0.312214
O O1 0.783900 0.843763 0.632475
O O2 0.599418 0.825245 0.297454
O O3 0.840593 0.841225 0.537565
O O4 0.715140 0.000000 0.433508
O O5 0.372877 0.500000 0.034882
O O6 0.284180 0.633037 0.808348
O O7 0.191021 0.626887 0.850566
O O8 0.420592 0.694777 0.117183
O O9 0.117015 0.000000 0.179959
O O10 0.000000 0.168251 0.000000
O O11 0.002647 0.500000 0.381497
O O12 0.000000 0.643430 0.500000
O O13 0.030072 0.693898 0.376098
#
# Coordination Sequence:
#
# PCOD8088412 Si02
#       5
#     8   8   8   8   8
#     4  10  20  33  51  78 110 139 170 213 258 301
#     4  10  19  32  53  80 109 137 169 211 257 307
#     4   9  15  28  50  75 103 131 163 206 257 303
#     4  10  21  37  55  77 105 133 168 219 269 309
#     4  11  20  31  51  80 107 137 172 211 257 312
#
# _framework density 18.969909999999999
#
# number of rings (size 3 to 8) (size 9 to 14) (size 15 to 20)
#    0.000    2.000    2.000    3.000    0.000    3.200 
#    0.000    0.000    0.000    2.400    0.000   61.600 
#    0.000    0.000    0.000    0.000    0.000    0.000 
#
# Total GULP energy -247819.993725 kJ/mol
# GULP energy per Si atom -12390.999686 kJ/mol
# Density = 1.892673 g / cm^3
# Si number density = 18.969910 Si / 1000 Ang^3
#
#
#
# Elastic Constant Matrix: (Units=GPa)
#
#
# Indices 1 2 3 4 5 6 
#
# 1 99.9046 50.7488 25.6216 0.0000 9.5573 0.0000
# 2 50.7488 126.1560 39.9105 0.0000 6.0549 0.0000
# 3 25.6216 39.9105 60.7035 0.0000 7.8580 0.0000
# 4 0.0000 0.0000 0.0000 26.2976 0.0000 5.2652
# 5 9.5573 6.0549 7.8580 0.0000 25.1342 0.0000
# 6 0.0000 0.0000 0.0000 5.2652 0.0000 40.1323
#
#
#
# Elastic Compliance Matrix: (Units=1/GPa)
#
#
# Indices 1 2 3 4 5 6 
#
# 1 0.013137 -0.004429 -0.002214 0.000000 -0.003236 0.000000
# 2 -0.004429 0.011505 -0.005788 0.000000 0.000722 0.000000
# 3 -0.002214 -0.005788 0.021807 0.000000 -0.004581 0.000000
# 4 0.000000 0.000000 0.000000 0.039052 0.000000 -0.005124
# 5 -0.003236 0.000722 -0.004581 0.000000 0.042275 0.000000
# 6 0.000000 0.000000 0.000000 -0.005124 0.000000 0.025590
#
#
# Mechanical properties :
#
#
# Convention : Reuss Voigt Hill
#
# Bulk Modulus (GPa) = 46.32617 57.70289 52.01453
# Shear Modulus (GPa) = 26.96546 29.67836 28.32191
#
# Velocity S-wave (km/s) = 3.77435 3.95966 3.86812
# Velocity P-wave (km/s) = 6.59304 7.16864 6.88686
#
# Compressibility (1/GPa) = 0.02158607
#
# Stress axis : x y z
#
# Youngs Moduli (GPa) = 76.12309 86.92086 45.85770
#
# Poissons Ratio (x) = 0.38495 0.10153
# Poissons Ratio (y) = 0.33713 0.26543
# Poissons Ratio (z) = 0.16854 0.50311
#
# Static dielectric constant tensor:
#      x y z
#    x 3.533330 0.000000 0.269910 
#    y 0.000000 3.407900 0.000000 
#    z 0.269910 0.000000 3.530960 
# 
# 
# High freq. dielectric constant tensor:
#      x y z
#    x 1.734290 0.000000 0.034760 
#    y 0.000000 1.725900 0.000000 
#    z 0.034760 0.000000 1.724160 
# 
# From -- ./inp_files/141910.got.cif
#   From: 2010.06.25/outbox.cif.g09.slc.cpg/sg12_71_cif.got.tgz:141910.got - 2010.06.28 00:19:55.
