data_PCOD8088547
_publ_section_title
;
Structure prediction by ZEFSAII (Michael W. Deem and Ramdas Pophale) SiO2 
 PCOD8088547
Probable space group: C 2/M
;
_chemical_formula_sum "Si O2"
_cell_formula_units_Z 64
_cell_length_a 14.646108
_cell_length_b 15.947334
_cell_length_c 15.977751
_cell_angle_alpha 90.000000
_cell_angle_beta 117.520938
_cell_angle_gamma 90.000000
_cell_volume 3309.575101
_symmetry_space_group_name_H-M "C 2/M"
_symmetry_group_IT_number 12
_symmetry_cell_setting 'monoclinic'
loop_
_space_group_symop_operation_xyz
x,y,z
-x,y,-z
-x,-y,-z
x,-y,z
1/2+x,1/2+y,z
1/2-x,1/2+y,-z
1/2-x,1/2-y,-z
1/2+x,1/2-y,z
loop_
_atom_site_type_symbol
_atom_site_label
_atom_site_fract_x
_atom_site_fract_y
_atom_site_fract_z
Si Si1 0.322519 0.663615 0.804529
Si Si2 0.232551 0.335585 0.304618
Si Si3 0.657550 0.243227 0.023985
Si Si4 0.545401 0.817114 0.327829
Si Si5 0.886602 0.254589 0.476368
Si Si6 0.130817 0.593748 0.650478
Si Si7 0.764982 0.904659 0.146719
Si Si8 0.035942 0.187937 0.832227
O O1 0.279574 0.748078 0.746784
O O2 0.337535 0.679013 0.909526
O O3 0.234438 0.594533 0.751262
O O4 0.430186 0.637332 0.805681
O O5 0.123134 0.364481 0.297372
O O6 0.313977 0.321244 0.414361
O O7 0.272075 0.401016 0.251365
O O8 0.668485 0.152684 0.074442
O O9 0.750000 0.250000 0.000000
O O10 0.555126 0.254979 0.924280
O O11 0.617249 0.767155 0.425211
O O12 0.469680 0.883610 0.337665
O O13 0.474616 0.749421 0.250879
O O14 0.858495 0.344197 0.423236
O O15 0.000000 0.225681 0.500000
O O16 0.115766 0.500000 0.609582
O O17 0.871988 0.875729 0.149370
O O18 0.744119 0.000000 0.110606
#
# Coordination Sequence:
#
# PCOD8088547 Si02
#       8
#     8   8   8   8   8   8   8   8
#     4   9  18  33  54  77  98 132 175 214 252 299
#     4   9  18  33  53  76 101 133 176 215 253 305
#     4   9  17  33  55  75 101 134 173 210 251 306
#     4  10  19  32  54  77 100 137 180 218 252 301
#     4   9  17  31  53  77 101 134 177 218 257 302
#     4  10  20  33  49  75 109 136 163 208 265 314
#     4  10  20  34  53  78 109 139 168 212 271 323
#     4  10  19  34  56  76 100 136 179 218 252 299
#
# _framework density 19.33783
#
# number of rings (size 3 to 8) (size 9 to 14) (size 15 to 20)
#    0.000    2.500    0.000    4.500    0.000    3.250 
#    0.000    5.625    0.000   16.875    0.000    0.000 
#    0.000    0.000    0.000    0.000    0.000    0.000 
#
# Total GULP energy -396616.488232 kJ/mol
# GULP energy per Si atom -12394.265257 kJ/mol
# Density = 1.929382 g / cm^3
# Si number density = 19.337830 Si / 1000 Ang^3
#
#
#
# Elastic Constant Matrix: (Units=GPa)
#
#
# Indices 1 2 3 4 5 6 
#
# 1 69.7351 8.0079 14.7812 0.0000 4.1820 0.0000
# 2 8.0079 62.2031 25.5584 0.0000 9.3620 0.0000
# 3 14.7812 25.5584 115.4649 0.0000 2.9684 0.0000
# 4 0.0000 0.0000 0.0000 13.7386 0.0000 -1.3500
# 5 4.1820 9.3620 2.9684 0.0000 27.9384 0.0000
# 6 0.0000 0.0000 0.0000 -1.3500 0.0000 11.6126
#
#
#
# Elastic Compliance Matrix: (Units=1/GPa)
#
#
# Indices 1 2 3 4 5 6 
#
# 1 0.014905 -0.000983 -0.001646 0.000000 -0.001727 0.000000
# 2 -0.000983 0.018643 -0.003855 0.000000 -0.005691 0.000000
# 3 -0.001646 -0.003855 0.009712 0.000000 0.000506 0.000000
# 4 0.000000 0.000000 0.000000 0.073629 0.000000 0.008559
# 5 -0.001727 -0.005691 0.000506 0.000000 0.037905 0.000000
# 6 0.000000 0.000000 0.000000 0.008559 0.000000 0.087108
#
#
# Mechanical properties :
#
#
# Convention : Reuss Voigt Hill
#
# Bulk Modulus (GPa) = 33.01063 38.23313 35.62188
# Shear Modulus (GPa) = 18.87031 23.92829 21.39930
#
# Velocity S-wave (km/s) = 3.12721 3.52146 3.33017
# Velocity P-wave (km/s) = 5.49061 6.02896 5.76607
#
# Compressibility (1/GPa) = 0.03029328
#
# Stress axis : x y z
#
# Youngs Moduli (GPa) = 67.09021 53.63905 102.96974
#
# Poissons Ratio (x) = 0.05270 0.16951
# Poissons Ratio (y) = 0.06592 0.39691
# Poissons Ratio (z) = 0.11044 0.20676
#
# Static dielectric constant tensor:
#      x y z
#    x 3.630920 0.000000 0.151120 
#    y 0.000000 3.043030 0.000000 
#    z 0.151120 0.000000 4.259470 
# 
# 
# High freq. dielectric constant tensor:
#      x y z
#    x 1.763910 0.000000 -0.000820 
#    y 0.000000 1.696020 0.000000 
#    z -0.000820 0.000000 1.765600 
# 
# From -- ./inp_files/216386.got.cif
#   From: 2010.06.25/outbox.cif.g09.slc.cpg/sg12_109_cif.got.tgz:216386.got - 2010.06.28 00:19:55.
