data_PCOD8088981
_publ_section_title
;
Structure prediction by ZEFSAII (Michael W. Deem and Ramdas Pophale) SiO2 
 PCOD8088981
Probable space group: C 2/M
;
_chemical_formula_sum "Si O2"
_cell_formula_units_Z 56
_cell_length_a 29.252612
_cell_length_b 13.809166
_cell_length_c 8.583344
_cell_angle_alpha 90.000000
_cell_angle_beta 51.270001
_cell_angle_gamma 90.000000
_cell_volume 2704.833467
_symmetry_space_group_name_H-M "C 2/M"
_symmetry_group_IT_number 12
_symmetry_cell_setting 'monoclinic'
loop_
_space_group_symop_operation_xyz
x,y,z
-x,y,-z
-x,-y,-z
x,-y,z
1/2+x,1/2+y,z
1/2-x,1/2+y,-z
1/2-x,1/2-y,-z
1/2+x,1/2-y,z
loop_
_atom_site_type_symbol
_atom_site_label
_atom_site_fract_x
_atom_site_fract_y
_atom_site_fract_z
Si Si1 0.372446 0.289128 0.591185
Si Si2 0.204612 0.891646 0.693257
Si Si3 0.353465 0.196574 0.116766
Si Si4 0.835233 0.610940 0.489847
Si Si5 0.050619 0.756535 0.288494
Si Si6 0.261133 0.609875 0.736882
Si Si7 0.021842 0.114291 0.783273
O O1 0.367807 0.177231 0.546957
O O2 0.399910 0.299295 0.703063
O O3 0.308046 0.335129 0.743243
O O4 0.412168 0.346201 0.380369
O O5 0.156707 0.812142 0.841077
O O6 0.265291 0.874459 0.656400
O O7 0.218656 0.877979 0.482929
O O8 0.179855 0.000000 0.778608
O O9 0.355625 0.139265 0.273106
O O10 0.303454 0.155045 0.108742
O O11 0.416768 0.182957 0.898944
O O12 0.853076 0.500000 0.482338
O O13 0.000000 0.703407 0.500000
O O14 0.020837 0.843640 0.257539
O O15 0.258145 0.500000 0.799496
O O16 0.022413 0.000000 0.764308
O O17 0.000000 0.147022 0.000000
#
# Coordination Sequence:
#
# PCOD8088981 Si02
#       7
#     8   8   8   8   8   8   8
#     4  11  20  38  59  85 128 161 188 242 304 358
#     4   9  17  30  54  89 122 153 193 242 292 350
#     4  11  18  37  60  83 121 157 201 248 292 347
#     4  10  19  35  61  91 119 152 196 245 297 352
#     4  10  25  40  59  83 119 163 198 241 296 355
#     4  10  19  32  57  92 122 154 193 241 300 355
#     4  10  22  40  64  91 116 153 204 249 292 350
#
# _framework density 20.703679000000001
#
# number of rings (size 3 to 8) (size 9 to 14) (size 15 to 20)
#    0.000    1.857    2.857    3.429    0.000    4.286 
#    0.000    1.429    0.000   19.714    0.000    0.000 
#    0.000    0.000    0.000    0.000    0.000    0.000 
#
# Total GULP energy -347182.127169 kJ/mol
# GULP energy per Si atom -12399.361685 kJ/mol
# Density = 2.065656 g / cm^3
# Si number density = 20.703679 Si / 1000 Ang^3
#
#
#
# Elastic Constant Matrix: (Units=GPa)
#
#
# Indices 1 2 3 4 5 6 
#
# 1 94.7869 37.1125 7.3584 0.0000 -0.3702 0.0000
# 2 37.1125 108.6299 34.8562 0.0000 -8.1668 0.0000
# 3 7.3584 34.8562 73.8174 0.0000 -11.7365 0.0000
# 4 0.0000 0.0000 0.0000 10.8852 0.0000 -5.7958
# 5 -0.3702 -8.1668 -11.7365 0.0000 24.2533 0.0000
# 6 0.0000 0.0000 0.0000 -5.7958 0.0000 27.7038
#
#
#
# Elastic Compliance Matrix: (Units=1/GPa)
#
#
# Indices 1 2 3 4 5 6 
#
# 1 0.012249 -0.004498 0.000749 0.000000 -0.000965 0.000000
# 2 -0.004498 0.012537 -0.005212 0.000000 0.001631 0.000000
# 3 0.000749 -0.005212 0.016961 0.000000 0.006464 0.000000
# 4 0.000000 0.000000 0.000000 0.103383 0.000000 0.021628
# 5 -0.000965 0.001631 0.006464 0.000000 0.044894 0.000000
# 6 0.000000 0.000000 0.000000 0.021628 0.000000 0.040621
#
#
# Mechanical properties :
#
#
# Convention : Reuss Voigt Hill
#
# Bulk Modulus (GPa) = 41.97101 48.43205 45.20153
# Shear Modulus (GPa) = 19.49245 25.76227 22.62736
#
# Velocity S-wave (km/s) = 3.07171 3.53134 3.30951
# Velocity P-wave (km/s) = 5.73557 6.33016 6.04019
#
# Compressibility (1/GPa) = 0.02382597
#
# Stress axis : x y z
#
# Youngs Moduli (GPa) = 81.63874 79.76192 58.95792
#
# Poissons Ratio (x) = 0.35875 -0.04418
# Poissons Ratio (y) = 0.36719 0.30731
# Poissons Ratio (z) = -0.06118 0.41575
#
# Static dielectric constant tensor:
#      x y z
#    x 3.782390 0.000000 -0.161710 
#    y 0.000000 3.703690 0.000000 
#    z -0.161710 0.000000 3.764680 
# 
# 
# High freq. dielectric constant tensor:
#      x y z
#    x 1.810640 0.000000 -0.004010 
#    y 0.000000 1.796340 0.000000 
#    z -0.004010 0.000000 1.796730 
# 
# From -- ./inp_files/111565.got.cif
#   From: 2010.06.25/outbox.cif.g09.slc.cpg/sg12_56_cif.got.tgz:111565.got - 2010.06.28 00:19:55.
