data_PCOD8088271
_publ_section_title
;
Structure prediction by ZEFSAII (Michael W. Deem and Ramdas Pophale) SiO2 
 PCOD8088271
Probable space group: C 2/M
;
_chemical_formula_sum "Si O2"
_cell_formula_units_Z 56
_cell_length_a 28.279950
_cell_length_b 8.898783
_cell_length_c 19.119542
_cell_angle_alpha 90.000000
_cell_angle_beta 41.999773
_cell_angle_gamma 90.000000
_cell_volume 3219.554067
_symmetry_space_group_name_H-M "C 2/M"
_symmetry_group_IT_number 12
_symmetry_cell_setting 'monoclinic'
loop_
_space_group_symop_operation_xyz
x,y,z
-x,y,-z
-x,-y,-z
x,-y,z
1/2+x,1/2+y,z
1/2-x,1/2+y,-z
1/2-x,1/2-y,-z
1/2+x,1/2-y,z
loop_
_atom_site_type_symbol
_atom_site_label
_atom_site_fract_x
_atom_site_fract_y
_atom_site_fract_z
Si Si1 0.638698 0.325618 0.114007
Si Si2 0.991895 0.677224 0.800212
Si Si3 0.049145 0.824261 0.009766
Si Si4 0.638408 0.674009 0.611452
Si Si5 0.250306 0.325562 0.893740
Si Si6 0.289477 0.324717 0.196469
Si Si7 0.748248 0.825897 0.397134
O O1 0.624058 0.500000 0.116780
O O2 0.564913 0.238155 0.193449
O O3 0.675835 0.295777 0.147763
O O4 0.687991 0.269564 0.997025
O O5 0.989018 0.500000 0.803795
O O6 0.067974 0.729572 0.691148
O O7 0.974697 0.735928 0.895978
O O8 0.039756 0.000000 0.035560
O O9 0.128779 0.781963 0.902314
O O10 0.000000 0.772687 0.000000
O O11 0.618766 0.500000 0.625152
O O12 0.683681 0.725174 0.494802
O O13 0.681787 0.705392 0.634515
O O14 0.229552 0.500000 0.920017
O O15 0.258075 0.269586 0.805720
O O16 0.276633 0.500000 0.197597
O O17 0.264904 0.276257 0.300216
O O18 0.726566 0.000000 0.426502
#
# Coordination Sequence:
#
# PCOD8088271 Si02
#       7
#     8   8   8   8   8   8   8
#     4  10  20  35  53  74 104 141 177 215 266 321
#     4  12  23  34  52  79 108 139 177 223 266 311
#     4  10  20  34  51  74 107 146 178 207 256 320
#     4  10  20  36  57  78 104 142 182 222 265 310
#     4  10  20  33  52  78 106 136 175 221 263 314
#     4  10  19  32  53  77 107 144 174 211 263 318
#     4   9  19  36  56  80 106 139 182 220 258 311
#
# _framework density 17.393715
#
# number of rings (size 3 to 8) (size 9 to 14) (size 15 to 20)
#    0.000    1.857    1.429    3.429    0.000    5.429 
#    0.000    1.429    0.000    0.857    0.000    6.000 
#    0.000    0.000    0.000    0.000    0.000    0.000 
#
# Total GULP energy -347318.255133 kJ/mol
# GULP energy per Si atom -12404.223398 kJ/mol
# Density = 1.735413 g / cm^3
# Si number density = 17.393715 Si / 1000 Ang^3
#
#
#
# Elastic Constant Matrix: (Units=GPa)
#
#
# Indices 1 2 3 4 5 6 
#
# 1 123.9150 54.6479 62.1491 -0.0057 2.0889 0.0021
# 2 54.6479 81.5901 42.9700 -0.0137 -7.7863 0.0069
# 3 62.1491 42.9700 91.0826 -0.0148 0.4851 0.0051
# 4 -0.0057 -0.0137 -0.0148 29.9207 0.0028 -0.7216
# 5 2.0889 -7.7863 0.4851 0.0028 21.9595 -0.0073
# 6 0.0021 0.0069 0.0051 -0.7216 -0.0073 27.8966
#
#
#
# Elastic Compliance Matrix: (Units=1/GPa)
#
#
# Indices 1 2 3 4 5 6 
#
# 1 0.014323 -0.006370 -0.006749 -0.000003 -0.003472 0.000001
# 2 -0.006370 0.019959 -0.005111 0.000005 0.007796 -0.000001
# 3 -0.006749 -0.005111 0.018004 0.000005 -0.001568 -0.000002
# 4 -0.000003 0.000005 0.000005 0.033443 -0.000002 0.000865
# 5 -0.003472 0.007796 -0.001568 -0.000002 0.048667 0.000011
# 6 0.000001 -0.000001 -0.000002 0.000865 0.000011 0.035869
#
#
# Mechanical properties :
#
#
# Convention : Reuss Voigt Hill
#
# Bulk Modulus (GPa) = 63.19175 68.45797 65.82486
# Shear Modulus (GPa) = 23.58490 25.07674 24.33082
#
# Velocity S-wave (km/s) = 3.68631 3.80111 3.74415
# Velocity P-wave (km/s) = 7.38428 7.66211 7.52448
#
# Compressibility (1/GPa) = 0.01582485
#
# Stress axis : x y z
#
# Youngs Moduli (GPa) = 69.81788 50.10385 55.54342
#
# Poissons Ratio (x) = 0.31916 0.37489
# Poissons Ratio (y) = 0.44474 0.28387
# Poissons Ratio (z) = 0.47123 0.25607
#
# Static dielectric constant tensor:
#      x y z
#    x 3.411870 -0.000020 -0.011700 
#    y -0.000020 3.261480 0.000020 
#    z -0.011700 0.000020 3.127480 
# 
# 
# High freq. dielectric constant tensor:
#      x y z
#    x 1.676460 0.000000 -0.000400 
#    y 0.000000 1.679110 0.000000 
#    z -0.000400 0.000000 1.653930 
# 
# From -- ./inp_files/288189.got.cif
#   From: 2010.06.25/outbox.cif.g09.slc.cpg/sg12_145_cif.got.tgz:288189.got - 2010.06.28 00:19:55.
