data_PCOD8088641
_publ_section_title
;
Structure prediction by ZEFSAII (Michael W. Deem and Ramdas Pophale) SiO2 
 PCOD8088641
Probable space group: C 2/M
;
_chemical_formula_sum "Si O2"
_cell_formula_units_Z 64
_cell_length_a 14.971330
_cell_length_b 9.313916
_cell_length_c 33.104786
_cell_angle_alpha 90.000000
_cell_angle_beta 133.979970
_cell_angle_gamma 90.000000
_cell_volume 3321.728549
_symmetry_space_group_name_H-M "C 2/M"
_symmetry_group_IT_number 12
_symmetry_cell_setting 'monoclinic'
loop_
_space_group_symop_operation_xyz
x,y,z
-x,y,-z
-x,-y,-z
x,-y,z
1/2+x,1/2+y,z
1/2-x,1/2+y,-z
1/2-x,1/2-y,-z
1/2+x,1/2-y,z
loop_
_atom_site_type_symbol
_atom_site_label
_atom_site_fract_x
_atom_site_fract_y
_atom_site_fract_z
Si Si1 0.436066 0.663553 0.556491
Si Si2 0.177096 0.164076 0.678585
Si Si3 0.690473 0.666410 0.132761
Si Si4 0.442812 0.167794 0.060376
Si Si5 0.776081 0.165387 0.948930
Si Si6 0.124188 0.667886 0.739141
Si Si7 0.656677 0.164919 0.341793
Si Si8 0.715008 0.163940 0.550091
O O1 0.450904 0.500000 0.546215
O O2 0.562629 0.722189 0.615802
O O3 0.404236 0.760889 0.507749
O O4 0.331194 0.677690 0.557143
O O5 0.193704 0.255337 0.724176
O O6 0.302919 0.178488 0.692242
O O7 0.150819 0.000000 0.682831
O O8 0.652759 0.500000 0.124693
O O9 0.574759 0.761175 0.110607
O O10 0.733900 0.704446 0.101191
O O11 0.805590 0.705655 0.197498
O O12 0.356141 0.198194 0.071939
O O13 0.460461 0.000000 0.057901
O O14 0.383442 0.237421 0.001801
O O15 0.814220 0.000000 0.967670
O O16 0.126453 0.500000 0.731090
O O17 0.983117 0.724193 0.698490
O O18 0.751351 0.257322 0.397954
O O19 0.665200 0.000000 0.359034
O O20 0.680734 0.000000 0.548691
#
# Coordination Sequence:
#
# PCOD8088641 Si02
#       8
#     8   8   8   8   8   8   8   8
#     4   9  18  33  53  78 108 141 175 215 271 333
#     4  10  21  38  59  81 106 141 181 224 275 329
#     4  10  21  37  56  78 109 149 187 220 268 327
#     4  10  20  34  56  87 116 144 183 228 268 312
#     4   9  19  36  57  81 115 153 181 216 270 328
#     4  10  22  39  57  79 107 141 184 231 270 316
#     4  10  21  37  58  80 106 142 181 222 273 329
#     4  10  19  32  54  81 109 140 176 220 270 325
#
# _framework density 19.267077
#
# number of rings (size 3 to 8) (size 9 to 14) (size 15 to 20)
#    0.000    2.250    1.250    1.125    0.000    6.000 
#    0.000    5.000    0.000    0.000    0.000    0.000 
#    0.000    0.000    0.000    0.000    0.000    0.000 
#
# Total GULP energy -396926.349817 kJ/mol
# GULP energy per Si atom -12403.948432 kJ/mol
# Density = 1.922322 g / cm^3
# Si number density = 19.267077 Si / 1000 Ang^3
#
#
#
# Elastic Constant Matrix: (Units=GPa)
#
#
# Indices 1 2 3 4 5 6 
#
# 1 65.0761 33.8101 41.4404 0.0000 -10.6497 0.0000
# 2 33.8101 75.9688 51.7951 0.0000 -7.2942 0.0000
# 3 41.4404 51.7951 113.8323 0.0000 -11.8286 0.0000
# 4 0.0000 0.0000 0.0000 30.9013 0.0000 -1.1811
# 5 -10.6497 -7.2942 -11.8286 0.0000 19.8915 0.0000
# 6 0.0000 0.0000 0.0000 -1.1811 0.0000 28.5717
#
#
#
# Elastic Compliance Matrix: (Units=1/GPa)
#
#
# Indices 1 2 3 4 5 6 
#
# 1 0.022772 -0.006239 -0.004713 0.000000 0.007101 0.000000
# 2 -0.006239 0.020865 -0.007220 0.000000 0.000017 0.000000
# 3 -0.004713 -0.007220 0.014121 0.000000 0.003226 0.000000
# 4 0.000000 0.000000 0.000000 0.032412 0.000000 0.001340
# 5 0.007101 0.000017 0.003226 0.000000 0.055999 0.000000
# 6 0.000000 0.000000 0.000000 0.001340 0.000000 0.035055
#
#
# Mechanical properties :
#
#
# Convention : Reuss Voigt Hill
#
# Bulk Modulus (GPa) = 46.70347 56.55204 51.62776
# Shear Modulus (GPa) = 22.25116 24.39501 23.32308
#
# Velocity S-wave (km/s) = 3.40204 3.56216 3.48302
# Velocity P-wave (km/s) = 6.30274 6.80691 6.55967
#
# Compressibility (1/GPa) = 0.02141169
#
# Stress axis : x y z
#
# Youngs Moduli (GPa) = 43.91419 47.92797 70.81509
#
# Poissons Ratio (x) = 0.29904 0.33376
# Poissons Ratio (y) = 0.27400 0.51132
# Poissons Ratio (z) = 0.20697 0.34606
#
# Static dielectric constant tensor:
#      x y z
#    x 3.525330 0.000000 0.033960 
#    y 0.000000 3.499540 0.000000 
#    z 0.033960 0.000000 3.447640 
# 
# 
# High freq. dielectric constant tensor:
#      x y z
#    x 1.752690 0.000000 -0.000650 
#    y 0.000000 1.744780 0.000000 
#    z -0.000650 0.000000 1.742610 
# 
# From -- ./inp_files/359727.got.cif
#   From: 2010.06.25/outbox.cif.g09.slc.cpg/sg12_180_cif.got.tgz:359727.got - 2010.06.28 00:19:55.
