data_PCOD8088708
_publ_section_title
;
Structure prediction by ZEFSAII (Michael W. Deem and Ramdas Pophale) SiO2 
 PCOD8088708
Probable space group: C 2/M
;
_chemical_formula_sum "Si O2"
_cell_formula_units_Z 56
_cell_length_a 23.401297
_cell_length_b 9.006447
_cell_length_c 15.158405
_cell_angle_alpha 90.000000
_cell_angle_beta 64.238566
_cell_angle_gamma 90.000000
_cell_volume 2877.295271
_symmetry_space_group_name_H-M "C 2/M"
_symmetry_group_IT_number 12
_symmetry_cell_setting 'monoclinic'
loop_
_space_group_symop_operation_xyz
x,y,z
-x,y,-z
-x,-y,-z
x,-y,z
1/2+x,1/2+y,z
1/2-x,1/2+y,-z
1/2-x,1/2-y,-z
1/2+x,1/2-y,z
loop_
_atom_site_type_symbol
_atom_site_label
_atom_site_fract_x
_atom_site_fract_y
_atom_site_fract_z
Si Si1 0.240438 0.673549 0.638190
Si Si2 0.184729 0.826765 0.023446
Si Si3 0.439365 0.675404 0.800671
Si Si4 0.980421 0.824824 0.415923
Si Si5 0.831375 0.827542 0.168543
Si Si6 0.528779 0.676025 0.891353
Si Si7 0.848428 0.674562 0.464171
O O1 0.254948 0.500000 0.630931
O O2 0.222056 0.729697 0.747861
O O3 0.183850 0.712884 0.608072
O O4 0.305253 0.755827 0.569634
O O5 0.130457 0.763657 0.126483
O O6 0.194256 0.000000 0.031634
O O7 0.250000 0.750000 0.000000
O O8 0.164648 0.790393 0.937254
O O9 0.438013 0.500000 0.814275
O O10 0.460373 0.717922 0.687464
O O11 0.491303 0.743083 0.833107
O O12 0.918014 0.744330 0.422153
O O13 0.000000 0.769852 0.500000
O O14 0.966862 0.000000 0.423420
O O15 0.897952 0.780254 0.167115
O O16 0.815936 0.000000 0.194868
O O17 0.521259 0.500000 0.900159
O O18 0.500000 0.745402 0.000000
O O19 0.853462 0.500000 0.476260
#
# Coordination Sequence:
#
# PCOD8088708 Si02
#       7
#     8   8   8   8   8   8   8
#     4  10  21  36  57  83 113 146 182 227 284 344
#     4  10  21  36  53  76 108 147 189 227 267 323
#     4   9  17  32  53  77 107 141 178 225 273 320
#     4  10  21  36  56  83 113 148 190 231 277 332
#     4  10  19  32  54  83 110 138 182 233 280 333
#     4   9  14  25  50  80 103 129 172 226 275 318
#     4  10  21  38  58  82 112 146 185 230 282 334
#
# _framework density 19.462721999999999
#
# number of rings (size 3 to 8) (size 9 to 14) (size 15 to 20)
#    0.000    2.286    1.429    1.714    0.000    4.857 
#    0.000    2.143    0.000    1.286    0.000    0.000 
#    0.000    0.000    0.000    0.000    0.000    0.000 
#
# Total GULP energy -347173.894605 kJ/mol
# GULP energy per Si atom -12399.067664 kJ/mol
# Density = 1.941842 g / cm^3
# Si number density = 19.462722 Si / 1000 Ang^3
#
#
#
# Elastic Constant Matrix: (Units=GPa)
#
#
# Indices 1 2 3 4 5 6 
#
# 1 112.5128 31.2184 54.9953 0.0000 -16.2859 0.0000
# 2 31.2184 45.4751 38.9794 0.0000 -6.8065 0.0000
# 3 54.9953 38.9794 155.3629 0.0000 -17.7523 0.0000
# 4 0.0000 0.0000 0.0000 21.8720 0.0000 -3.0992
# 5 -16.2859 -6.8065 -17.7523 0.0000 29.2479 0.0000
# 6 0.0000 0.0000 0.0000 -3.0992 0.0000 28.8834
#
#
#
# Elastic Compliance Matrix: (Units=1/GPa)
#
#
# Indices 1 2 3 4 5 6 
#
# 1 0.012248 -0.005713 -0.002444 0.000000 0.004007 0.000000
# 2 -0.005713 0.030840 -0.005651 0.000000 0.000566 0.000000
# 3 -0.002444 -0.005651 0.009041 0.000000 0.002811 0.000000
# 4 0.000000 0.000000 0.000000 0.046426 0.000000 0.004982
# 5 0.004007 0.000566 0.002811 0.000000 0.038260 0.000000
# 6 0.000000 0.000000 0.000000 0.004982 0.000000 0.035156
#
#
# Mechanical properties :
#
#
# Convention : Reuss Voigt Hill
#
# Bulk Modulus (GPa) = 40.79514 62.63746 51.71630
# Shear Modulus (GPa) = 24.06644 28.54453 26.30548
#
# Velocity S-wave (km/s) = 3.52026 3.83381 3.68038
# Velocity P-wave (km/s) = 6.12610 7.20074 6.68505
#
# Compressibility (1/GPa) = 0.02451272
#
# Stress axis : x y z
#
# Youngs Moduli (GPa) = 81.64744 32.42512 110.61138
#
# Poissons Ratio (x) = 0.18525 0.27036
# Poissons Ratio (y) = 0.46647 0.62501
# Poissons Ratio (z) = 0.19957 0.18322
#
# Static dielectric constant tensor:
#      x y z
#    x 3.417630 0.000000 -0.106320 
#    y 0.000000 3.189920 0.000000 
#    z -0.106320 0.000000 3.718650 
# 
# 
# High freq. dielectric constant tensor:
#      x y z
#    x 1.753880 0.000000 -0.007770 
#    y 0.000000 1.718680 0.000000 
#    z -0.007770 0.000000 1.773010 
# 
# From -- ./inp_files/238281.got.cif
#   From: 2010.06.25/outbox.cif.g09.slc.cpg/sg12_120_cif.got.tgz:238281.got - 2010.06.28 00:19:55.
