data_PCOD8088438
_publ_section_title
;
Structure prediction by ZEFSAII (Michael W. Deem and Ramdas Pophale) SiO2 
 PCOD8088438
Probable space group: C 2/M
;
_chemical_formula_sum "Si O2"
_cell_formula_units_Z 64
_cell_length_a 32.597362
_cell_length_b 8.908974
_cell_length_c 12.204748
_cell_angle_alpha 90.000000
_cell_angle_beta 91.880954
_cell_angle_gamma 90.000000
_cell_volume 3542.459509
_symmetry_space_group_name_H-M "C 2/M"
_symmetry_group_IT_number 12
_symmetry_cell_setting 'monoclinic'
loop_
_space_group_symop_operation_xyz
x,y,z
-x,y,-z
-x,-y,-z
x,-y,z
1/2+x,1/2+y,z
1/2-x,1/2+y,-z
1/2-x,1/2-y,-z
1/2+x,1/2-y,z
loop_
_atom_site_type_symbol
_atom_site_label
_atom_site_fract_x
_atom_site_fract_y
_atom_site_fract_z
Si Si1 0.011837 0.676223 0.880879
Si Si2 0.115041 0.326056 0.413108
Si Si3 0.852752 0.322211 0.355728
Si Si4 0.689061 0.825460 0.256341
Si Si5 0.260733 0.821438 0.385255
Si Si6 0.060718 0.175793 0.239544
Si Si7 0.394079 0.822806 0.136689
Si Si8 0.367054 0.677034 0.916323
O O1 0.004298 0.500000 0.873441
O O2 0.058268 0.721267 0.858659
O O3 0.983431 0.752938 0.787508
O O4 0.000000 0.737611 0.000000
O O5 0.102770 0.500000 0.411013
O O6 0.122334 0.262767 0.536102
O O7 0.156989 0.298804 0.351111
O O8 0.077544 0.235336 0.356779
O O9 0.853384 0.500000 0.360556
O O10 0.805937 0.266431 0.354156
O O11 0.874876 0.264061 0.248384
O O12 0.730458 0.737761 0.288914
O O13 0.671870 0.757385 0.142112
O O14 0.698804 0.000000 0.240326
O O15 0.250000 0.750000 0.500000
O O16 0.257792 0.000000 0.395205
O O17 0.091817 0.223329 0.145435
O O18 0.055501 0.000000 0.247420
O O19 0.388073 0.000000 0.118565
O O20 0.370408 0.735713 0.039576
O O21 0.359945 0.500000 0.913694
#
# Coordination Sequence:
#
# PCOD8088438 Si02
#       8
#     8   8   8   8   8   8   8   8
#     4  10  19  32  53  81 105 134 179 224 263 308
#     4   9  17  33  54  76 105 138 175 217 261 313
#     4   9  19  36  56  79 107 142 178 217 264 316
#     4  10  19  33  55  82 107 137 178 223 268 310
#     4  11  20  34  55  82 111 139 178 222 266 314
#     4  10  20  32  51  79 108 138 173 218 268 314
#     4  10  20  36  57  78 106 142 180 219 264 318
#     4  10  20  34  52  79 111 141 175 218 269 319
#
# _framework density 18.066544
#
# number of rings (size 3 to 8) (size 9 to 14) (size 15 to 20)
#    0.000    2.125    2.500    1.500    0.000    2.250 
#    0.000    3.125    0.000    3.750    0.000    0.000 
#    0.000    0.000    0.000    0.000    0.000    0.000 
#
# Total GULP energy -396897.353126 kJ/mol
# GULP energy per Si atom -12403.042285 kJ/mol
# Density = 1.802542 g / cm^3
# Si number density = 18.066544 Si / 1000 Ang^3
#
#
#
# Elastic Constant Matrix: (Units=GPa)
#
#
# Indices 1 2 3 4 5 6 
#
# 1 125.9325 44.9613 80.1578 0.0000 15.3974 0.0000
# 2 44.9613 57.5357 43.9745 0.0000 8.3821 0.0000
# 3 80.1578 43.9745 147.1108 0.0000 15.9519 0.0000
# 4 0.0000 0.0000 0.0000 25.4038 0.0000 9.4705
# 5 15.3974 8.3821 15.9519 0.0000 34.7780 0.0000
# 6 0.0000 0.0000 0.0000 9.4705 0.0000 26.3704
#
#
#
# Elastic Compliance Matrix: (Units=1/GPa)
#
#
# Indices 1 2 3 4 5 6 
#
# 1 0.013974 -0.006438 -0.005459 0.000000 -0.002132 0.000000
# 2 -0.006438 0.025695 -0.004010 0.000000 -0.001504 0.000000
# 3 -0.005459 -0.004010 0.011159 0.000000 -0.001735 0.000000
# 4 0.000000 0.000000 0.000000 0.045449 0.000000 -0.016322
# 5 -0.002132 -0.001504 -0.001735 0.000000 0.030856 0.000000
# 6 0.000000 0.000000 0.000000 -0.016322 0.000000 0.043783
#
#
# Mechanical properties :
#
#
# Convention : Reuss Voigt Hill
#
# Bulk Modulus (GPa) = 52.58927 74.30734 63.44830
# Shear Modulus (GPa) = 23.91565 28.07612 25.99588
#
# Velocity S-wave (km/s) = 3.64229 3.94641 3.79739
# Velocity P-wave (km/s) = 6.84545 7.87303 7.37715
#
# Compressibility (1/GPa) = 0.01901529
#
# Stress axis : x y z
#
# Youngs Moduli (GPa) = 71.55909 38.91801 89.61443
#
# Poissons Ratio (x) = 0.25054 0.48920
# Poissons Ratio (y) = 0.46066 0.35936
# Poissons Ratio (z) = 0.39064 0.15606
#
# Static dielectric constant tensor:
#      x y z
#    x 3.375440 0.000000 0.140070 
#    y 0.000000 3.198770 0.000000 
#    z 0.140070 0.000000 3.405010 
# 
# 
# High freq. dielectric constant tensor:
#      x y z
#    x 1.693570 0.000000 0.022900 
#    y 0.000000 1.691400 0.000000 
#    z 0.022900 0.000000 1.695110 
# 
# From -- ./inp_files/187542.got.cif
#   From: 2010.06.25/outbox.cif.g09.slc.cpg/sg12_94_cif.got.tgz:187542.got - 2010.06.28 00:19:55.
