data_PCOD8088608
_publ_section_title
;
Structure prediction by ZEFSAII (Michael W. Deem and Ramdas Pophale) SiO2 
 PCOD8088608
Probable space group: C 2/M
;
_chemical_formula_sum "Si O2"
_cell_formula_units_Z 56
_cell_length_a 14.431779
_cell_length_b 9.293532
_cell_length_c 24.800480
_cell_angle_alpha 90.000000
_cell_angle_beta 121.051556
_cell_angle_gamma 90.000000
_cell_volume 2849.648552
_symmetry_space_group_name_H-M "C 2/M"
_symmetry_group_IT_number 12
_symmetry_cell_setting 'monoclinic'
loop_
_space_group_symop_operation_xyz
x,y,z
-x,y,-z
-x,-y,-z
x,-y,z
1/2+x,1/2+y,z
1/2-x,1/2+y,-z
1/2-x,1/2-y,-z
1/2+x,1/2-y,z
loop_
_atom_site_type_symbol
_atom_site_label
_atom_site_fract_x
_atom_site_fract_y
_atom_site_fract_z
Si Si1 0.029143 0.166751 0.276543
Si Si2 0.715288 0.659731 0.068389
Si Si3 0.288050 0.339407 0.190343
Si Si4 0.114794 0.333336 0.509165
Si Si5 0.911690 0.340710 0.045332
Si Si6 0.827547 0.667780 0.595176
Si Si7 0.425845 0.834851 0.816513
O O1 0.903307 0.188139 0.253072
O O2 0.097622 0.259332 0.338363
O O3 0.045185 0.225010 0.221404
O O4 0.064408 0.000000 0.290038
O O5 0.676881 0.500000 0.071831
O O6 0.766070 0.729132 0.136369
O O7 0.806739 0.657237 0.050971
O O8 0.610240 0.743808 0.014046
O O9 0.283958 0.500000 0.163968
O O10 0.201880 0.323250 0.212293
O O11 0.138202 0.500000 0.529576
O O12 0.115261 0.306583 0.445196
O O13 0.208836 0.237551 0.563513
O O14 0.000000 0.285104 0.500000
O O15 0.937757 0.500000 0.031711
O O16 0.013079 0.282840 0.110675
O O17 0.815461 0.500000 0.604782
O O18 0.460378 0.000000 0.812770
#
# Coordination Sequence:
#
# PCOD8088608 Si02
#       7
#     8   8   8   8   8   8   8
#     4  11  23  39  58  82 115 151 188 235 281 328
#     4  10  19  32  54  80 106 140 183 232 285 344
#     4  10  22  38  57  80 109 145 186 234 288 342
#     4   9  19  38  63  92 124 154 189 232 275 319
#     4   9  18  33  54  77 104 141 182 230 287 346
#     4  10  21  37  60  88 119 157 192 228 274 327
#     4  10  21  39  59  80 107 145 191 234 284 345
#
# _framework density 19.651547000000001
#
# number of rings (size 3 to 8) (size 9 to 14) (size 15 to 20)
#    0.000    2.143    1.429    1.286    0.000    4.857 
#    0.000    5.714    0.000    0.000    0.000    0.000 
#    0.000    0.000    0.000    0.000    0.000    0.000 
#
# Total GULP energy -347231.979719 kJ/mol
# GULP energy per Si atom -12401.142133 kJ/mol
# Density = 1.960682 g / cm^3
# Si number density = 19.651547 Si / 1000 Ang^3
#
#
#
# Elastic Constant Matrix: (Units=GPa)
#
#
# Indices 1 2 3 4 5 6 
#
# 1 87.5326 40.9422 39.2024 0.0000 23.1956 0.0000
# 2 40.9422 115.8004 60.0613 0.0000 18.7003 0.0000
# 3 39.2024 60.0613 101.1213 0.0000 27.7583 0.0000
# 4 0.0000 0.0000 0.0000 35.5814 0.0000 0.1727
# 5 23.1956 18.7003 27.7583 0.0000 22.8122 0.0000
# 6 0.0000 0.0000 0.0000 0.1727 0.0000 16.9012
#
#
#
# Elastic Compliance Matrix: (Units=1/GPa)
#
#
# Indices 1 2 3 4 5 6 
#
# 1 0.016946 -0.003365 -0.000898 0.000000 -0.013379 0.000000
# 2 -0.003365 0.013199 -0.006763 0.000000 0.000831 0.000000
# 3 -0.000898 -0.006763 0.018742 0.000000 -0.016348 0.000000
# 4 0.000000 0.000000 0.000000 0.028106 0.000000 -0.000287
# 5 -0.013379 0.000831 -0.016348 0.000000 0.076652 0.000000
# 6 0.000000 0.000000 0.000000 -0.000287 0.000000 0.059170
#
#
# Mechanical properties :
#
#
# Convention : Reuss Voigt Hill
#
# Bulk Modulus (GPa) = 37.26603 64.98516 51.12560
# Shear Modulus (GPa) = 20.50760 26.00885 23.25823
#
# Velocity S-wave (km/s) = 3.23393 3.64194 3.44398
# Velocity P-wave (km/s) = 5.74012 7.12920 6.47203
#
# Compressibility (1/GPa) = 0.02683409
#
# Stress axis : x y z
#
# Youngs Moduli (GPa) = 59.01124 75.76451 53.35612
#
# Poissons Ratio (x) = 0.25494 0.04793
# Poissons Ratio (y) = 0.19857 0.36086
# Poissons Ratio (z) = 0.05301 0.51241
#
# Static dielectric constant tensor:
#      x y z
#    x 3.627810 0.000000 0.180830 
#    y 0.000000 3.774210 0.000000 
#    z 0.180830 0.000000 3.487200 
# 
# 
# High freq. dielectric constant tensor:
#      x y z
#    x 1.766140 0.000000 0.011980 
#    y 0.000000 1.770810 0.000000 
#    z 0.011980 0.000000 1.758890 
# 
# From -- ./inp_files/360032.got.cif
#   From: 2010.06.25/outbox.cif.g09.slc.cpg/sg12_181_cif.got.tgz:360032.got - 2010.06.28 00:19:55.
