data_PCOD8088767
_publ_section_title
;
Structure prediction by ZEFSAII (Michael W. Deem and Ramdas Pophale) SiO2 
 PCOD8088767
Probable space group: C 2/M
;
_chemical_formula_sum "Si O2"
_cell_formula_units_Z 64
_cell_length_a 20.841081
_cell_length_b 9.033226
_cell_length_c 19.247901
_cell_angle_alpha 90.000000
_cell_angle_beta 110.354004
_cell_angle_gamma 90.000000
_cell_volume 3397.396739
_symmetry_space_group_name_H-M "C 2/M"
_symmetry_group_IT_number 12
_symmetry_cell_setting 'monoclinic'
loop_
_space_group_symop_operation_xyz
x,y,z
-x,y,-z
-x,-y,-z
x,-y,z
1/2+x,1/2+y,z
1/2-x,1/2+y,-z
1/2-x,1/2-y,-z
1/2+x,1/2-y,z
loop_
_atom_site_type_symbol
_atom_site_label
_atom_site_fract_x
_atom_site_fract_y
_atom_site_fract_z
Si Si1 0.575525 0.338181 0.003178
Si Si2 0.317099 0.833102 0.348489
Si Si3 0.662426 0.173492 0.144134
Si Si4 0.201100 0.667406 0.818937
Si Si5 0.081675 0.172482 0.846657
Si Si6 0.027942 0.173456 0.307517
Si Si7 0.663904 0.676105 0.289645
Si Si8 0.454739 0.674724 0.417631
O O1 0.612496 0.500000 0.022721
O O2 0.570416 0.285871 0.921967
O O3 0.500000 0.358309 0.000000
O O4 0.611399 0.214864 0.063152
O O5 0.325236 0.824727 0.269270
O O6 0.240859 0.773443 0.341496
O O7 0.378281 0.735528 0.402603
O O8 0.326095 0.000000 0.379358
O O9 0.736437 0.222545 0.145744
O O10 0.642746 0.254903 0.208030
O O11 0.660408 0.000000 0.156900
O O12 0.222283 0.500000 0.846422
O O13 0.142279 0.722316 0.846611
O O14 0.014366 0.215031 0.777272
O O15 0.099921 0.000000 0.841798
O O16 0.106930 0.226838 0.325086
O O17 0.992053 0.242854 0.362809
O O18 0.029802 0.000000 0.320432
O O19 0.663811 0.500000 0.278273
O O20 0.500000 0.722415 0.500000
O O21 0.447251 0.500000 0.408056
#
# Coordination Sequence:
#
# PCOD8088767 Si02
#       8
#     8   8   8   8   8   8   8   8
#     4  10  21  37  55  74 102 142 185 224 271 331
#     4   9  18  33  54  79 106 142 181 221 269 322
#     4  11  22  35  53  78 109 141 178 226 279 324
#     4  10  20  35  55  78 105 141 181 222 271 325
#     4  10  19  32  55  81 102 136 184 230 271 311
#     4   9  17  33  57  82 108 141 183 225 265 323
#     4   9  18  35  58  80 106 145 190 226 267 323
#     4  10  20  34  56  84 112 143 178 220 269 322
#
# _framework density 18.837951
#
# number of rings (size 3 to 8) (size 9 to 14) (size 15 to 20)
#    0.000    2.250    1.250    3.000    0.000    5.500 
#    0.000    3.125    0.000    0.000    0.000    0.000 
#    0.000    0.000    0.000    0.000    0.000    0.000 
#
# Total GULP energy -396667.023334 kJ/mol
# GULP energy per Si atom -12395.844479 kJ/mol
# Density = 1.879508 g / cm^3
# Si number density = 18.837951 Si / 1000 Ang^3
#
#
#
# Elastic Constant Matrix: (Units=GPa)
#
#
# Indices 1 2 3 4 5 6 
#
# 1 120.4762 24.0998 47.6066 0.0000 7.0650 0.0000
# 2 24.0998 52.4046 33.6403 0.0000 5.4366 0.0000
# 3 47.6066 33.6403 91.3609 0.0000 18.3741 0.0000
# 4 0.0000 0.0000 0.0000 20.9388 0.0000 1.8270
# 5 7.0650 5.4366 18.3741 0.0000 20.1173 0.0000
# 6 0.0000 0.0000 0.0000 1.8270 0.0000 28.2145
#
#
#
# Elastic Compliance Matrix: (Units=1/GPa)
#
#
# Indices 1 2 3 4 5 6 
#
# 1 0.010608 -0.001692 -0.005203 0.000000 0.001484 0.000000
# 2 -0.001692 0.025326 -0.008804 0.000000 0.001791 0.000000
# 3 -0.005203 -0.008804 0.019665 0.000000 -0.013754 0.000000
# 4 0.000000 0.000000 0.000000 0.048030 0.000000 -0.003110
# 5 0.001484 0.001791 -0.013754 0.000000 0.061266 0.000000
# 6 0.000000 0.000000 0.000000 -0.003110 0.000000 0.035644
#
#
# Mechanical properties :
#
#
# Convention : Reuss Voigt Hill
#
# Bulk Modulus (GPa) = 41.32127 52.77056 47.04591
# Shear Modulus (GPa) = 20.83304 24.44710 22.64007
#
# Velocity S-wave (km/s) = 3.32913 3.60635 3.47051
# Velocity P-wave (km/s) = 6.06302 6.73904 6.40995
#
# Compressibility (1/GPa) = 0.02420061
#
# Stress axis : x y z
#
# Youngs Moduli (GPa) = 94.26990 39.48470 50.85272
#
# Poissons Ratio (x) = 0.06682 0.26458
# Poissons Ratio (y) = 0.15954 0.44770
# Poissons Ratio (z) = 0.49047 0.34762
#
# Static dielectric constant tensor:
#      x y z
#    x 3.610410 0.000000 -0.089840 
#    y 0.000000 3.336500 0.000000 
#    z -0.089840 0.000000 3.123500 
# 
# 
# High freq. dielectric constant tensor:
#      x y z
#    x 1.743110 0.000000 0.006180 
#    y 0.000000 1.710340 0.000000 
#    z 0.006180 0.000000 1.714970 
# 
# From -- ./inp_files/320141.got.cif
#   From: 2010.06.25/outbox.cif.g09.slc.cpg/sg12_161_cif.got.tgz:320141.got - 2010.06.28 00:19:55.
