data_PCOD8088504
_publ_section_title
;
Structure prediction by ZEFSAII (Michael W. Deem and Ramdas Pophale) SiO2 
 PCOD8088504
Probable space group: C 2/M
;
_chemical_formula_sum "Si O2"
_cell_formula_units_Z 56
_cell_length_a 17.430084
_cell_length_b 22.198007
_cell_length_c 11.427084
_cell_angle_alpha 90.000000
_cell_angle_beta 37.898929
_cell_angle_gamma 90.000000
_cell_volume 2715.867060
_symmetry_space_group_name_H-M "C 2/M"
_symmetry_group_IT_number 12
_symmetry_cell_setting 'monoclinic'
loop_
_space_group_symop_operation_xyz
x,y,z
-x,y,-z
-x,-y,-z
x,-y,z
1/2+x,1/2+y,z
1/2-x,1/2+y,-z
1/2-x,1/2-y,-z
1/2+x,1/2-y,z
loop_
_atom_site_type_symbol
_atom_site_label
_atom_site_fract_x
_atom_site_fract_y
_atom_site_fract_z
Si Si1 0.010815 0.846850 0.773504
Si Si2 0.588215 0.137692 0.293008
Si Si3 0.811640 0.934000 0.006516
Si Si4 0.638317 0.834163 0.573389
Si Si5 0.786580 0.767187 0.086005
Si Si6 0.235325 0.210801 0.372697
Si Si7 0.816559 0.069758 0.279617
O O1 0.104975 0.821322 0.562828
O O2 0.076461 0.887953 0.793126
O O3 0.911056 0.889443 0.826191
O O4 0.928698 0.792083 0.927771
O O5 0.500000 0.111013 0.500000
O O6 0.670607 0.084062 0.138658
O O7 0.506633 0.171407 0.290855
O O8 0.684149 0.182220 0.244237
O O9 0.828352 0.929721 0.126351
O O10 0.837936 0.000000 0.926525
O O11 0.651337 0.823898 0.697725
O O12 0.729754 0.781891 0.412536
O O13 0.685343 0.900511 0.477650
O O14 0.765765 0.710057 0.197473
O O15 0.750000 0.750000 0.000000
O O16 0.825870 0.000000 0.313124
#
# Coordination Sequence:
#
# PCOD8088504 Si02
#       7
#     8   8   8   8   8   8   8
#     4  10  21  35  54  82 116 156 192 239 299 353
#     4  11  19  34  53  77 120 154 189 242 292 348
#     4  10  20  32  52  84 120 159 200 245 297 349
#     4  10  19  34  54  82 116 159 196 233 293 360
#     4  11  23  37  59  85 113 152 195 243 297 353
#     4  10  21  37  57  80 118 156 192 237 294 360
#     4  10  19  32  53  82 119 160 200 246 294 344
#
# _framework density 20.619565000000001
#
# number of rings (size 3 to 8) (size 9 to 14) (size 15 to 20)
#    0.000    1.714    2.857    2.571    0.000    4.286 
#    0.000    5.000    0.000    0.000    0.000   41.000 
#    0.000   28.571    0.000    0.000    0.000    0.000 
#
# Total GULP energy -346952.269507 kJ/mol
# GULP energy per Si atom -12391.152482 kJ/mol
# Density = 2.057263 g / cm^3
# Si number density = 20.619565 Si / 1000 Ang^3
#
#
#
# Elastic Constant Matrix: (Units=GPa)
#
#
# Indices 1 2 3 4 5 6 
#
# 1 95.7786 33.0170 46.5816 0.0002 -5.8432 -0.0001
# 2 33.0170 106.0950 35.5970 0.0003 2.5785 -0.0001
# 3 46.5816 35.5970 80.4700 0.0014 -12.5524 -0.0005
# 4 0.0002 0.0003 0.0014 28.7529 -0.0003 -3.4630
# 5 -5.8432 2.5785 -12.5524 -0.0003 29.7575 0.0001
# 6 -0.0001 -0.0001 -0.0005 -3.4630 0.0001 18.4699
#
#
#
# Elastic Compliance Matrix: (Units=1/GPa)
#
#
# Indices 1 2 3 4 5 6 
#
# 1 0.014902 -0.002032 -0.007754 0.000000 -0.000169 0.000000
# 2 -0.002032 0.011645 -0.004490 0.000000 -0.003302 0.000000
# 3 -0.007754 -0.004490 0.020044 -0.000001 0.007321 0.000000
# 4 0.000000 0.000000 -0.000001 0.035583 0.000000 0.006671
# 5 -0.000169 -0.003302 0.007321 0.000000 0.036946 0.000000
# 6 0.000000 0.000000 0.000000 0.006671 0.000000 0.055393
#
#
# Mechanical properties :
#
#
# Convention : Reuss Voigt Hill
#
# Bulk Modulus (GPa) = 55.43566 56.97051 56.20309
# Shear Modulus (GPa) = 23.91472 26.53926 25.22699
#
# Velocity S-wave (km/s) = 3.40929 3.59150 3.50158
# Velocity P-wave (km/s) = 6.51468 6.69984 6.60790
#
# Compressibility (1/GPa) = 0.01803893
#
# Stress axis : x y z
#
# Youngs Moduli (GPa) = 67.10564 85.87678 49.89110
#
# Poissons Ratio (x) = 0.17449 0.38684
# Poissons Ratio (y) = 0.13635 0.22401
# Poissons Ratio (z) = 0.52032 0.38559
#
# Static dielectric constant tensor:
#      x y z
#    x 3.690370 0.000000 -0.378580 
#    y 0.000000 3.955220 0.000000 
#    z -0.378580 0.000000 3.848410 
# 
# 
# High freq. dielectric constant tensor:
#      x y z
#    x 1.783050 0.000000 -0.032920 
#    y 0.000000 1.792150 0.000000 
#    z -0.032920 0.000000 1.801840 
# 
# From -- ./inp_files/160097.got.cif
#   From: 2010.06.25/outbox.cif.g09.slc.cpg/sg12_81_cif.got.tgz:160097.got - 2010.06.28 00:19:55.
