data_PCOD8088684
_publ_section_title
;
Structure prediction by ZEFSAII (Michael W. Deem and Ramdas Pophale) SiO2 
 PCOD8088684
Probable space group: C 2/M
;
_chemical_formula_sum "Si O2"
_cell_formula_units_Z 48
_cell_length_a 24.016855
_cell_length_b 10.382778
_cell_length_c 13.747078
_cell_angle_alpha 90.000000
_cell_angle_beta 135.489522
_cell_angle_gamma 90.000000
_cell_volume 2403.160112
_symmetry_space_group_name_H-M "C 2/M"
_symmetry_group_IT_number 12
_symmetry_cell_setting 'monoclinic'
loop_
_space_group_symop_operation_xyz
x,y,z
-x,y,-z
-x,-y,-z
x,-y,z
1/2+x,1/2+y,z
1/2-x,1/2+y,-z
1/2-x,1/2-y,-z
1/2+x,1/2-y,z
loop_
_atom_site_type_symbol
_atom_site_label
_atom_site_fract_x
_atom_site_fract_y
_atom_site_fract_z
Si Si1 0.815941 0.149201 0.879114
Si Si2 0.906878 0.854568 0.181467
Si Si3 0.681254 0.356072 0.736516
Si Si4 0.848162 0.639461 0.564113
Si Si5 0.336435 0.356484 0.691590
Si Si6 0.955247 0.275995 0.536380
O O1 0.741651 0.245175 0.781250
O O2 0.864573 0.160104 0.838312
O O3 0.787552 0.000000 0.859786
O O4 0.874262 0.195470 0.037408
O O5 0.835152 0.843722 0.169140
O O6 0.981448 0.771206 0.306114
O O7 0.936843 0.000000 0.208694
O O8 0.713898 0.500000 0.752942
O O9 0.598122 0.339372 0.574763
O O10 0.855995 0.500000 0.625683
O O11 0.757773 0.666849 0.423134
O O12 0.878709 0.751801 0.674761
O O13 0.898152 0.630787 0.526407
O O14 0.357579 0.500000 0.679411
O O15 0.000000 0.344613 0.500000
#
# Coordination Sequence:
#
# PCOD8088684 Si02
#       6
#     8   8   8   8   8   8
#     4  10  19  35  56  79 110 144 184 230 274 323
#     4   9  19  34  52  78 113 150 184 222 269 327
#     4  10  19  32  54  82 110 144 187 229 270 319
#     4  10  20  36  56  83 111 139 183 233 276 321
#     4   9  19  35  56  81 107 141 185 230 274 321
#     4  10  20  35  55  82 115 148 181 222 272 328
#
# _framework density 19.973700000000001
#
# number of rings (size 3 to 8) (size 9 to 14) (size 15 to 20)
#    0.000    2.333    1.667    1.000    0.000    4.333 
#    0.000    4.167    0.000    4.000    0.000    0.000 
#    0.000    0.000    0.000    0.000    0.000    0.000 
#
# Total GULP energy -297433.541756 kJ/mol
# GULP energy per Si atom -12393.064240 kJ/mol
# Density = 1.992824 g / cm^3
# Si number density = 19.973700 Si / 1000 Ang^3
#
#
#
# Elastic Constant Matrix: (Units=GPa)
#
#
# Indices 1 2 3 4 5 6 
#
# 1 83.1260 41.2541 29.0525 0.0000 -17.5240 0.0000
# 2 41.2541 107.2480 47.5116 0.0000 -13.2735 0.0000
# 3 29.0525 47.5116 104.7702 0.0000 -19.7306 0.0000
# 4 0.0000 0.0000 0.0000 14.9003 0.0000 -7.6593
# 5 -17.5240 -13.2735 -19.7306 0.0000 28.0473 0.0000
# 6 0.0000 0.0000 0.0000 -7.6593 0.0000 20.6994
#
#
#
# Elastic Compliance Matrix: (Units=1/GPa)
#
#
# Indices 1 2 3 4 5 6 
#
# 1 0.016345 -0.004991 -0.000911 0.000000 0.007209 0.000000
# 2 -0.004991 0.013298 -0.004667 0.000000 -0.000108 0.000000
# 3 -0.000911 -0.004667 0.013130 0.000000 0.006459 0.000000
# 4 0.000000 0.000000 0.000000 0.082877 0.000000 0.030666
# 5 0.007209 -0.000108 0.006459 0.000000 0.044651 0.000000
# 6 0.000000 0.000000 0.000000 0.030666 0.000000 0.059658
#
#
# Mechanical properties :
#
#
# Convention : Reuss Voigt Hill
#
# Bulk Modulus (GPa) = 46.22235 58.97563 52.59899
# Shear Modulus (GPa) = 19.35660 24.55112 21.95386
#
# Velocity S-wave (km/s) = 3.11642 3.50976 3.31892
# Velocity P-wave (km/s) = 6.01176 6.78346 6.40923
#
# Compressibility (1/GPa) = 0.02163455
#
# Stress axis : x y z
#
# Youngs Moduli (GPa) = 61.17915 75.19796 76.16119
#
# Poissons Ratio (x) = 0.37535 0.06941
# Poissons Ratio (y) = 0.30537 0.35543
# Poissons Ratio (z) = 0.05575 0.35093
#
# Static dielectric constant tensor:
#      x y z
#    x 3.526290 0.000000 -0.292530 
#    y 0.000000 3.518510 0.000000 
#    z -0.292530 0.000000 3.669990 
# 
# 
# High freq. dielectric constant tensor:
#      x y z
#    x 1.763630 0.000000 -0.021440 
#    y 0.000000 1.766990 0.000000 
#    z -0.021440 0.000000 1.772020 
# 
# From -- ./inp_files/174855.got.cif
#   From: 2010.06.25/outbox.cif.g09.slc.cpg/sg12_88_cif.got.tgz:174855.got - 2010.06.28 00:19:55.
