data_PCOD8088777
_publ_section_title
;
Structure prediction by ZEFSAII (Michael W. Deem and Ramdas Pophale) SiO2 
 PCOD8088777
Probable space group: C 2/M
;
_chemical_formula_sum "Si O2"
_cell_formula_units_Z 56
_cell_length_a 27.354234
_cell_length_b 8.983594
_cell_length_c 13.635472
_cell_angle_alpha 90.000000
_cell_angle_beta 60.389223
_cell_angle_gamma 90.000000
_cell_volume 2913.167715
_symmetry_space_group_name_H-M "C 2/M"
_symmetry_group_IT_number 12
_symmetry_cell_setting 'monoclinic'
loop_
_space_group_symop_operation_xyz
x,y,z
-x,y,-z
-x,-y,-z
x,-y,z
1/2+x,1/2+y,z
1/2-x,1/2+y,-z
1/2-x,1/2-y,-z
1/2+x,1/2-y,z
loop_
_atom_site_type_symbol
_atom_site_label
_atom_site_fract_x
_atom_site_fract_y
_atom_site_fract_z
Si Si1 0.405845 0.677045 0.742290
Si Si2 0.693569 0.323860 0.018633
Si Si3 0.169316 0.327881 0.841073
Si Si4 0.973892 0.823167 0.306121
Si Si5 0.118863 0.177178 0.449798
Si Si6 0.047241 0.327680 0.877043
Si Si7 0.261837 0.674906 0.590795
O O1 0.407394 0.500000 0.737755
O O2 0.357122 0.733802 0.862742
O O3 0.465266 0.739367 0.722389
O O4 0.394308 0.741147 0.645147
O O5 0.700068 0.500000 0.018412
O O6 0.750000 0.250000 0.000000
O O7 0.681034 0.276732 0.920884
O O8 0.177561 0.500000 0.863199
O O9 0.107061 0.295381 0.865697
O O10 0.212338 0.281497 0.713701
O O11 0.928173 0.762500 0.428812
O O12 0.957883 0.767342 0.215291
O O13 0.973917 0.000000 0.304457
O O14 0.179619 0.236160 0.423646
O O15 0.118438 0.000000 0.447058
O O16 0.039492 0.500000 0.857541
O O17 0.000000 0.274206 0.000000
O O18 0.264899 0.500000 0.570385
O O19 0.250000 0.750000 0.500000
#
# Coordination Sequence:
#
# PCOD8088777 Si02
#       7
#     8   8   8   8   8   8   8
#     4   9  18  33  53  78 106 135 170 213 260 309
#     4  11  22  36  56  80 107 139 175 217 262 310
#     4  10  21  37  55  76 106 143 179 216 261 311
#     4  10  19  32  55  82 103 130 172 219 259 301
#     4   9  17  31  52  77 104 133 167 210 261 311
#     4  10  21  36  53  74 105 144 177 210 259 313
#     4  10  20  34  53  76 104 138 173 215 265 314
#
# _framework density 19.223061000000001
#
# number of rings (size 3 to 8) (size 9 to 14) (size 15 to 20)
#    0.000    2.143    0.000    3.429    0.000    5.429 
#    0.000    0.714    0.000    4.286    0.000    0.000 
#    0.000    0.000    0.000    0.000    0.000    0.000 
#
# Total GULP energy -347293.908062 kJ/mol
# GULP energy per Si atom -12403.353859 kJ/mol
# Density = 1.917931 g / cm^3
# Si number density = 19.223061 Si / 1000 Ang^3
#
#
#
# Elastic Constant Matrix: (Units=GPa)
#
#
# Indices 1 2 3 4 5 6 
#
# 1 146.6746 32.4258 85.3120 0.0000 -14.3449 0.0000
# 2 32.4258 30.2937 39.3655 0.0000 -0.0001 0.0000
# 3 85.3120 39.3655 175.8633 0.0000 -8.8197 0.0000
# 4 0.0000 0.0000 0.0000 22.3561 0.0000 10.0005
# 5 -14.3449 -0.0001 -8.8197 0.0000 44.9804 0.0000
# 6 0.0000 0.0000 0.0000 10.0005 0.0000 23.5949
#
#
#
# Elastic Compliance Matrix: (Units=1/GPa)
#
#
# Indices 1 2 3 4 5 6 
#
# 1 0.010622 -0.006839 -0.003486 0.000000 0.002704 0.000000
# 2 -0.006839 0.051145 -0.008322 0.000000 -0.003813 0.000000
# 3 -0.003486 -0.008322 0.009276 0.000000 0.000707 0.000000
# 4 0.000000 0.000000 0.000000 0.055195 0.000000 -0.023394
# 5 0.002704 -0.003813 0.000707 0.000000 0.023233 0.000000
# 6 0.000000 0.000000 0.000000 -0.023394 0.000000 0.052298
#
#
# Mechanical properties :
#
#
# Convention : Reuss Voigt Hill
#
# Bulk Modulus (GPa) = 29.63171 74.11537 51.87354
# Shear Modulus (GPa) = 19.97508 31.23482 25.60495
#
# Velocity S-wave (km/s) = 3.22704 4.03533 3.65361
# Velocity P-wave (km/s) = 5.41601 7.76859 6.69642
#
# Compressibility (1/GPa) = 0.03374763
#
# Stress axis : x y z
#
# Youngs Moduli (GPa) = 94.14430 19.55241 107.80959
#
# Poissons Ratio (x) = 0.13373 0.37585
# Poissons Ratio (y) = 0.64389 0.89716
# Poissons Ratio (z) = 0.32821 0.16271
#
# Static dielectric constant tensor:
#      x y z
#    x 3.176300 0.000000 -0.054440 
#    y 0.000000 3.145550 0.000000 
#    z -0.054440 0.000000 3.702940 
# 
# 
# High freq. dielectric constant tensor:
#      x y z
#    x 1.769640 0.000000 -0.004070 
#    y 0.000000 1.709010 0.000000 
#    z -0.004070 0.000000 1.767030 
# 
# From -- ./inp_files/174788.got.cif
#   From: 2010.06.25/outbox.cif.g09.slc.cpg/sg12_88_cif.got.tgz:174788.got - 2010.06.28 00:19:55.
