data_PCOD8088012
_publ_section_title
;
Structure prediction by ZEFSAII (Michael W. Deem and Ramdas Pophale) SiO2 
 PCOD8088012
Probable space group: C 2/M
;
_chemical_formula_sum "Si O2"
_cell_formula_units_Z 64
_cell_length_a 20.301642
_cell_length_b 9.315797
_cell_length_c 20.054609
_cell_angle_alpha 90.000000
_cell_angle_beta 111.522811
_cell_angle_gamma 90.000000
_cell_volume 3528.378231
_symmetry_space_group_name_H-M "C 2/M"
_symmetry_group_IT_number 12
_symmetry_cell_setting 'monoclinic'
loop_
_space_group_symop_operation_xyz
x,y,z
-x,y,-z
-x,-y,-z
x,-y,z
1/2+x,1/2+y,z
1/2-x,1/2+y,-z
1/2-x,1/2-y,-z
1/2+x,1/2-y,z
loop_
_atom_site_type_symbol
_atom_site_label
_atom_site_fract_x
_atom_site_fract_y
_atom_site_fract_z
Si Si1 0.298761 0.170512 0.465905
Si Si2 0.937011 0.671225 0.304746
Si Si3 0.441519 0.170629 0.158350
Si Si4 0.709801 0.829893 0.689132
Si Si5 0.812102 0.165344 0.841290
Si Si6 0.544324 0.829814 0.081554
Si Si7 0.457252 0.170378 0.546166
Si Si8 0.786991 0.664609 0.071017
O O1 0.250000 0.250000 0.500000
O O2 0.280133 0.220655 0.383554
O O3 0.377164 0.224549 0.513511
O O4 0.290310 0.000000 0.470344
O O5 0.932056 0.500000 0.302021
O O6 0.952697 0.732083 0.236801
O O7 0.863450 0.733322 0.307601
O O8 0.003783 0.724552 0.372742
O O9 0.502618 0.225248 0.131500
O O10 0.366107 0.226726 0.104662
O O11 0.440747 0.000000 0.159727
O O12 0.777761 0.780777 0.758435
O O13 0.703579 0.000000 0.689576
O O14 0.878815 0.258947 0.888208
O O15 0.750672 0.185547 0.872442
O O16 0.836252 0.000000 0.845344
O O17 0.554913 0.000000 0.085119
O O18 0.500000 0.781330 0.000000
O O19 0.500000 0.235879 0.500000
O O20 0.458385 0.000000 0.542121
O O21 0.787620 0.500000 0.049487
O O22 0.750000 0.750000 0.000000
#
# Coordination Sequence:
#
# PCOD8088012 Si02
#       8
#     8   8   8   8   8   8   8   8
#     4  10  20  33  51  78 110 139 170 211 260 310
#     4   9  14  25  48  75  99 124 166 221 259 286
#     4   9  17  30  48  70  96 128 167 207 248 297
#     4   9  16  30  51  75 104 135 167 212 265 308
#     4  10  20  34  54  78 101 134 177 213 254 310
#     4  10  21  36  52  73 106 142 169 203 260 318
#     4   9  15  25  46  75  99 124 166 215 251 283
#     4  10  19  32  52  76  99 126 166 212 253 299
#
# _framework density 18.138645
#
# number of rings (size 3 to 8) (size 9 to 14) (size 15 to 20)
#    0.000    2.500    2.500    0.750    0.000    2.750 
#    0.000    2.500    0.000    0.375    0.000    0.875 
#    0.000    0.000    0.000    0.000    0.000    0.000 
#
# Total GULP energy -396679.977432 kJ/mol
# GULP energy per Si atom -12396.249295 kJ/mol
# Density = 1.809736 g / cm^3
# Si number density = 18.138645 Si / 1000 Ang^3
#
#
#
# Elastic Constant Matrix: (Units=GPa)
#
#
# Indices 1 2 3 4 5 6 
#
# 1 96.5034 24.6611 39.5999 0.0000 7.4014 0.0000
# 2 24.6611 22.2538 25.2361 0.0000 2.7243 0.0000
# 3 39.5999 25.2361 140.5193 0.0000 8.9217 0.0000
# 4 0.0000 0.0000 0.0000 16.6694 0.0000 -3.1112
# 5 7.4014 2.7243 8.9217 0.0000 38.5906 0.0000
# 6 0.0000 0.0000 0.0000 -3.1112 0.0000 20.9360
#
#
#
# Elastic Compliance Matrix: (Units=1/GPa)
#
#
# Indices 1 2 3 4 5 6 
#
# 1 0.014795 -0.014558 -0.001461 0.000000 -0.001472 0.000000
# 2 -0.014558 0.070859 -0.008609 0.000000 -0.000220 0.000000
# 3 -0.001461 -0.008609 0.009152 0.000000 -0.001228 0.000000
# 4 0.000000 0.000000 0.000000 0.061701 0.000000 0.009169
# 5 -0.001472 -0.000220 -0.001228 0.000000 0.026495 0.000000
# 6 0.000000 0.000000 0.000000 0.009169 0.000000 0.049127
#
#
# Mechanical properties :
#
#
# Convention : Reuss Voigt Hill
#
# Bulk Modulus (GPa) = 21.95433 48.69675 35.32554
# Shear Modulus (GPa) = 16.85940 26.55782 21.70861
#
# Velocity S-wave (km/s) = 3.05203 3.83058 3.46325
# Velocity P-wave (km/s) = 4.95477 6.81687 5.95901
#
# Compressibility (1/GPa) = 0.04554911
#
# Stress axis : x y z
#
# Youngs Moduli (GPa) = 67.58933 14.11254 109.26091
#
# Poissons Ratio (x) = 0.20545 0.15968
# Poissons Ratio (y) = 0.98398 0.94064
# Poissons Ratio (z) = 0.09878 0.12150
#
# Static dielectric constant tensor:
#      x y z
#    x 3.250670 0.000000 0.474590 
#    y 0.000000 2.817610 0.000000 
#    z 0.474590 0.000000 2.709960 
# 
# 
# High freq. dielectric constant tensor:
#      x y z
#    x 1.709160 0.000000 0.002850 
#    y 0.000000 1.637490 0.000000 
#    z 0.002850 0.000000 1.724010 
# 
# From -- ./inp_files/276564.got.cif
#   From: 2010.06.25/outbox.cif.g09.slc.cpg/sg12_139_cif.got.tgz:276564.got - 2010.06.28 00:19:55.
