data_PCOD8088037
_publ_section_title
;
Structure prediction by ZEFSAII (Michael W. Deem and Ramdas Pophale) SiO2 
 PCOD8088037
Probable space group: C 2/M
;
_chemical_formula_sum "Si O2"
_cell_formula_units_Z 64
_cell_length_a 14.271200
_cell_length_b 9.036268
_cell_length_c 27.360502
_cell_angle_alpha 90.000000
_cell_angle_beta 74.935467
_cell_angle_gamma 90.000000
_cell_volume 3407.109345
_symmetry_space_group_name_H-M "C 2/M"
_symmetry_group_IT_number 12
_symmetry_cell_setting 'monoclinic'
loop_
_space_group_symop_operation_xyz
x,y,z
-x,y,-z
-x,-y,-z
x,-y,z
1/2+x,1/2+y,z
1/2-x,1/2+y,-z
1/2-x,1/2-y,-z
1/2+x,1/2-y,z
loop_
_atom_site_type_symbol
_atom_site_label
_atom_site_fract_x
_atom_site_fract_y
_atom_site_fract_z
Si Si1 0.032526 0.326535 0.606570
Si Si2 0.365102 0.673184 0.325182
Si Si3 0.173775 0.671867 0.408345
Si Si4 0.607111 0.332703 0.507288
Si Si5 0.033332 0.825529 0.941933
Si Si6 0.794605 0.323162 0.134608
Si Si7 0.415226 0.673231 0.865722
Si Si8 0.609232 0.674622 0.789357
O O1 0.050645 0.500000 0.603381
O O2 0.051200 0.261938 0.657859
O O3 0.108708 0.252124 0.558661
O O4 0.923075 0.284100 0.607618
O O5 0.386659 0.500000 0.327538
O O6 0.261611 0.718124 0.361582
O O7 0.366221 0.722565 0.268872
O O8 0.174366 0.500000 0.421384
O O9 0.180913 0.757637 0.458967
O O10 0.500000 0.323285 0.500000
O O11 0.640682 0.500000 0.512220
O O12 0.130947 0.738263 0.915705
O O13 0.948170 0.779317 0.915767
O O14 0.055255 0.000000 0.935496
O O15 0.000000 0.776850 0.000000
O O16 0.799294 0.500000 0.134617
O O17 0.688686 0.258164 0.134315
O O18 0.817882 0.261641 0.185224
O O19 0.401625 0.500000 0.865131
O O20 0.498540 0.722494 0.816161
O O21 0.623682 0.500000 0.796170
#
# Coordination Sequence:
#
# PCOD8088037 Si02
#       8
#     8   8   8   8   8   8   8   8
#     4  10  20  34  52  74 102 132 161 202 255 305
#     4  10  21  36  54  75  99 130 168 208 250 301
#     4   9  19  35  52  73 102 132 162 202 254 303
#     4   9  17  31  52  75  98 128 167 205 242 297
#     4   9  18  34  54  76 107 145 178 207 245 299
#     4  10  19  32  52  77 104 134 170 214 258 295
#     4   8  16  32  52  74 102 136 171 208 253 298
#     4   9  19  37  55  71  98 135 172 209 251 303
#
# _framework density 18.784251000000001
#
# number of rings (size 3 to 8) (size 9 to 14) (size 15 to 20)
#    0.000    2.750    0.000    1.875    0.000    5.250 
#    0.000    5.000    0.000    0.000    0.000    0.000 
#    0.000    0.000    0.000    0.000    0.000    0.000 
#
# Total GULP energy -396809.021137 kJ/mol
# GULP energy per Si atom -12400.281911 kJ/mol
# Density = 1.874150 g / cm^3
# Si number density = 18.784251 Si / 1000 Ang^3
#
#
#
# Elastic Constant Matrix: (Units=GPa)
#
#
# Indices 1 2 3 4 5 6 
#
# 1 110.0180 28.8697 52.9745 0.0000 4.4062 0.0000
# 2 28.8697 53.1420 36.9408 0.0000 2.3514 0.0000
# 3 52.9745 36.9408 152.4034 0.0000 1.3664 0.0000
# 4 0.0000 0.0000 0.0000 29.9793 0.0000 2.8822
# 5 4.4062 2.3514 1.3664 0.0000 17.1590 0.0000
# 6 0.0000 0.0000 0.0000 2.8822 0.0000 23.8479
#
#
#
# Elastic Compliance Matrix: (Units=1/GPa)
#
#
# Indices 1 2 3 4 5 6 
#
# 1 0.011738 -0.004158 -0.003053 0.000000 -0.002201 0.000000
# 2 -0.004158 0.024226 -0.004410 0.000000 -0.001901 0.000000
# 3 -0.003053 -0.004410 0.008685 0.000000 0.000697 0.000000
# 4 0.000000 0.000000 0.000000 0.033749 0.000000 -0.004079
# 5 -0.002201 -0.001901 0.000697 0.000000 0.059049 0.000000
# 6 0.000000 0.000000 0.000000 -0.004079 0.000000 0.042425
#
#
# Mechanical properties :
#
#
# Convention : Reuss Voigt Hill
#
# Bulk Modulus (GPa) = 46.70889 61.45928 54.08409
# Shear Modulus (GPa) = 23.78135 27.31579 25.54857
#
# Velocity S-wave (km/s) = 3.56199 3.81752 3.69196
# Velocity P-wave (km/s) = 6.46815 7.22639 6.85776
#
# Compressibility (1/GPa) = 0.02140920
#
# Stress axis : x y z
#
# Youngs Moduli (GPa) = 85.18988 41.27853 115.13705
#
# Poissons Ratio (x) = 0.17162 0.35148
# Poissons Ratio (y) = 0.35418 0.50774
# Poissons Ratio (z) = 0.26006 0.18203
#
# Static dielectric constant tensor:
#      x y z
#    x 3.559980 0.000000 0.022790 
#    y 0.000000 3.278530 0.000000 
#    z 0.022790 0.000000 3.520830 
# 
# 
# High freq. dielectric constant tensor:
#      x y z
#    x 1.731770 0.000000 0.003320 
#    y 0.000000 1.715420 0.000000 
#    z 0.003320 0.000000 1.730110 
# 
# From -- ./inp_files/359851.got.cif
#   From: 2010.06.25/outbox.cif.g09.slc.cpg/sg12_180_cif.got.tgz:359851.got - 2010.06.28 00:19:55.
