data_PCOD8088786
_publ_section_title
;
Structure prediction by ZEFSAII (Michael W. Deem and Ramdas Pophale) SiO2 
 PCOD8088786
Probable space group: C 2/M
;
_chemical_formula_sum "Si O2"
_cell_formula_units_Z 36
_cell_length_a 9.134028
_cell_length_b 21.874959
_cell_length_c 12.467579
_cell_angle_alpha 90.000000
_cell_angle_beta 53.951184
_cell_angle_gamma 90.000000
_cell_volume 2014.096544
_symmetry_space_group_name_H-M "C 2/M"
_symmetry_group_IT_number 12
_symmetry_cell_setting 'monoclinic'
loop_
_space_group_symop_operation_xyz
x,y,z
-x,y,-z
-x,-y,-z
x,-y,z
1/2+x,1/2+y,z
1/2-x,1/2+y,-z
1/2-x,1/2-y,-z
1/2+x,1/2-y,z
loop_
_atom_site_type_symbol
_atom_site_label
_atom_site_fract_x
_atom_site_fract_y
_atom_site_fract_z
Si Si1 0.500000 0.752301 0.500000
Si Si2 0.785697 0.432127 0.082653
Si Si3 0.806018 0.067888 0.636696
Si Si4 0.632727 0.809988 0.042512
Si Si5 0.634689 0.817525 0.650890
O O1 0.562845 0.795183 0.568843
O O2 0.673603 0.711619 0.393392
O O3 0.715910 0.500000 0.072299
O O4 0.691988 0.416033 0.237125
O O5 0.748662 0.373726 0.019295
O O6 0.000000 0.436773 0.000000
O O7 0.667214 0.110018 0.631277
O O8 0.000000 0.076225 0.500000
O O9 0.730723 0.000000 0.654074
O O10 0.520642 0.805960 0.198347
O O11 0.500000 0.805592 0.000000
O O12 0.750000 0.750000 0.000000
#
# Coordination Sequence:
#
# PCOD8088786 Si02
#       5
#     4   8   8   8   8
#     4  10  24  34  54  74 114 152 178 222 278 328
#     4   9  17  31  51  78 104 137 179 222 266 318
#     4  10  19  32  55  82 108 140 182 229 271 322
#     4  11  21  33  55  82 110 139 182 231 275 323
#     4  11  20  37  52  79 109 147 185 222 275 329
#
# _framework density 17.874019000000001
#
# number of rings (size 3 to 8) (size 9 to 14) (size 15 to 20)
#    0.000    1.778    5.556    1.333    0.000    0.000 
#    0.000    0.556    0.000    0.667    0.000    1.556 
#    0.000    0.000    0.000    0.000    0.000    0.000 
#
# Total GULP energy -222987.865007 kJ/mol
# GULP energy per Si atom -12388.214723 kJ/mol
# Density = 1.783334 g / cm^3
# Si number density = 17.874019 Si / 1000 Ang^3
#
#
#
# Elastic Constant Matrix: (Units=GPa)
#
#
# Indices 1 2 3 4 5 6 
#
# 1 51.6873 44.0509 17.5208 0.0000 -2.0619 0.0000
# 2 44.0509 173.1216 55.7934 0.0000 -5.1524 0.0000
# 3 17.5208 55.7934 138.7806 0.0000 -10.3987 0.0000
# 4 0.0000 0.0000 0.0000 32.3424 0.0000 -1.6609
# 5 -2.0619 -5.1524 -10.3987 0.0000 14.1058 0.0000
# 6 0.0000 0.0000 0.0000 -1.6609 0.0000 33.5232
#
#
#
# Elastic Compliance Matrix: (Units=1/GPa)
#
#
# Indices 1 2 3 4 5 6 
#
# 1 0.024772 -0.006078 -0.000613 0.000000 0.000949 0.000000
# 2 -0.006078 0.008130 -0.002482 0.000000 0.000251 0.000000
# 3 -0.000613 -0.002482 0.008686 0.000000 0.005407 0.000000
# 4 0.000000 0.000000 0.000000 0.030998 0.000000 0.001536
# 5 0.000949 0.000251 0.005407 0.000000 0.075110 0.000000
# 6 0.000000 0.000000 0.000000 0.001536 0.000000 0.029906
#
#
# Mechanical properties :
#
#
# Convention : Reuss Voigt Hill
#
# Bulk Modulus (GPa) = 43.02415 66.47997 54.75206
# Shear Modulus (GPa) = 24.54636 32.40924 28.47780
#
# Velocity S-wave (km/s) = 3.70982 4.26279 3.99589
# Velocity P-wave (km/s) = 6.51716 7.84238 7.21028
#
# Compressibility (1/GPa) = 0.02324276
#
# Stress axis : x y z
#
# Youngs Moduli (GPa) = 40.36751 122.99759 115.12554
#
# Poissons Ratio (x) = 0.74752 0.07058
# Poissons Ratio (y) = 0.24534 0.28579
# Poissons Ratio (z) = 0.02475 0.30534
#
# Static dielectric constant tensor:
#      x y z
#    x 2.828820 0.000000 -0.086500 
#    y 0.000000 10.452690 0.000000 
#    z -0.086500 0.000000 3.316470 
# 
# 
# High freq. dielectric constant tensor:
#      x y z
#    x 1.626920 0.000000 -0.008170 
#    y 0.000000 1.720580 0.000000 
#    z -0.008170 0.000000 1.719120 
# 
# From -- ./inp_files/39512.got.cif
#   From: 2010.06.25/outbox.cif.g09.slc.cpg/sg12_20_cif.got.tgz:39512.got - 2010.06.28 00:19:55.
