data_PCOD8088366
_publ_section_title
;
Structure prediction by ZEFSAII (Michael W. Deem and Ramdas Pophale) SiO2 
 PCOD8088366
Probable space group: C 2/M
;
_chemical_formula_sum "Si O2"
_cell_formula_units_Z 56
_cell_length_a 20.516613
_cell_length_b 9.401393
_cell_length_c 27.131232
_cell_angle_alpha 90.000000
_cell_angle_beta 145.980824
_cell_angle_gamma 90.000000
_cell_volume 2927.820554
_symmetry_space_group_name_H-M "C 2/M"
_symmetry_group_IT_number 12
_symmetry_cell_setting 'monoclinic'
loop_
_space_group_symop_operation_xyz
x,y,z
-x,y,-z
-x,-y,-z
x,-y,z
1/2+x,1/2+y,z
1/2-x,1/2+y,-z
1/2-x,1/2-y,-z
1/2+x,1/2-y,z
loop_
_atom_site_type_symbol
_atom_site_label
_atom_site_fract_x
_atom_site_fract_y
_atom_site_fract_z
Si Si1 0.833544 0.344387 0.493997
Si Si2 0.497805 0.164947 0.056327
Si Si3 0.868180 0.343926 0.628332
Si Si4 0.972143 0.163888 0.427733
Si Si5 0.706218 0.665286 0.019896
Si Si6 0.240713 0.162054 0.769485
Si Si7 0.872511 0.662765 0.215016
O O1 0.840638 0.500000 0.473112
O O2 0.818830 0.364199 0.542738
O O3 0.722451 0.261035 0.400928
O O4 0.951930 0.257759 0.561226
O O5 0.625294 0.195965 0.159195
O O6 0.461263 0.000000 0.040143
O O7 0.500000 0.205786 0.000000
O O8 0.410160 0.264629 0.031135
O O9 0.868939 0.500000 0.654878
O O10 0.997112 0.275416 0.710006
O O11 0.837018 0.188351 0.328260
O O12 0.000000 0.217370 0.500000
O O13 0.008824 0.000000 0.444550
O O14 0.680944 0.500000 0.991139
O O15 0.808914 0.677798 0.123470
O O16 0.750000 0.750000 0.000000
O O17 0.198594 0.255250 0.788412
O O18 0.229092 0.000000 0.780266
O O19 0.882075 0.500000 0.238746
#
# Coordination Sequence:
#
# PCOD8088366 Si02
#       7
#     8   8   8   8   8   8   8
#     4  10  19  32  53  79 107 140 179 226 278 329
#     4  10  20  37  62  91 121 152 193 245 295 352
#     4   9  18  33  53  78 107 138 177 227 278 328
#     4  10  21  37  55  77 110 151 192 233 282 339
#     4  11  24  41  62  87 120 158 194 239 296 355
#     4  10  20  35  59  86 111 148 194 239 287 342
#     4  10  20  36  59  85 111 145 189 238 288 341
#
# _framework density 19.126854999999999
#
# number of rings (size 3 to 8) (size 9 to 14) (size 15 to 20)
#    0.000    2.000    2.857    0.857    0.000    2.857 
#    2.571    0.000    0.000    0.000    0.000    0.000 
#    0.000    0.000    0.000    0.000    0.000    0.000 
#
# Total GULP energy -347153.926121 kJ/mol
# GULP energy per Si atom -12398.354504 kJ/mol
# Density = 1.908332 g / cm^3
# Si number density = 19.126855 Si / 1000 Ang^3
#
#
#
# Elastic Constant Matrix: (Units=GPa)
#
#
# Indices 1 2 3 4 5 6 
#
# 1 77.4870 52.8117 47.2207 0.0000 8.3573 0.0000
# 2 52.8117 102.8892 54.7608 0.0000 12.6073 0.0000
# 3 47.2207 54.7608 121.3321 0.0000 20.2897 0.0000
# 4 0.0000 0.0000 0.0000 20.2458 0.0000 5.1510
# 5 8.3573 12.6073 20.2897 0.0000 33.0697 0.0000
# 6 0.0000 0.0000 0.0000 5.1510 0.0000 25.5749
#
#
#
# Elastic Compliance Matrix: (Units=1/GPa)
#
#
# Indices 1 2 3 4 5 6 
#
# 1 0.021557 -0.008716 -0.004569 0.000000 0.000679 0.000000
# 2 -0.008716 0.016382 -0.003706 0.000000 -0.001769 0.000000
# 3 -0.004569 -0.003706 0.012551 0.000000 -0.005133 0.000000
# 4 0.000000 0.000000 0.000000 0.052061 0.000000 -0.010486
# 5 0.000679 -0.001769 -0.005133 0.000000 0.033892 0.000000
# 6 0.000000 0.000000 0.000000 -0.010486 0.000000 0.041213
#
#
# Mechanical properties :
#
#
# Convention : Reuss Voigt Hill
#
# Bulk Modulus (GPa) = 60.57690 67.92164 64.24927
# Shear Modulus (GPa) = 23.02648 25.57240 24.29944
#
# Velocity S-wave (km/s) = 3.47346 3.66045 3.56818
# Velocity P-wave (km/s) = 6.91567 7.31119 7.11618
#
# Compressibility (1/GPa) = 0.01650794
#
# Stress axis : x y z
#
# Youngs Moduli (GPa) = 46.38761 61.04174 79.67469
#
# Poissons Ratio (x) = 0.53206 0.36406
# Poissons Ratio (y) = 0.40433 0.29525
# Poissons Ratio (z) = 0.21196 0.22620
#
# Static dielectric constant tensor:
#      x y z
#    x 3.182680 0.000000 0.119800 
#    y 0.000000 3.773380 0.000000 
#    z 0.119800 0.000000 3.748850 
# 
# 
# High freq. dielectric constant tensor:
#      x y z
#    x 1.713790 0.000000 0.014910 
#    y 0.000000 1.747820 0.000000 
#    z 0.014910 0.000000 1.754820 
# 
# From -- ./inp_files/380815.got.cif
#   From: 2010.06.25/outbox.cif.g09.slc.cpg/sg12_191_cif.got.tgz:380815.got - 2010.06.28 00:19:55.
