data_PCOD8088670
_publ_section_title
;
Structure prediction by ZEFSAII (Michael W. Deem and Ramdas Pophale) SiO2 
 PCOD8088670
Probable space group: C 2/M
;
_chemical_formula_sum "Si O2"
_cell_formula_units_Z 64
_cell_length_a 17.062755
_cell_length_b 13.718778
_cell_length_c 15.524259
_cell_angle_alpha 90.000000
_cell_angle_beta 81.602155
_cell_angle_gamma 90.000000
_cell_volume 3594.957314
_symmetry_space_group_name_H-M "C 2/M"
_symmetry_group_IT_number 12
_symmetry_cell_setting 'monoclinic'
loop_
_space_group_symop_operation_xyz
x,y,z
-x,y,-z
-x,-y,-z
x,-y,z
1/2+x,1/2+y,z
1/2-x,1/2+y,-z
1/2-x,1/2-y,-z
1/2+x,1/2-y,z
loop_
_atom_site_type_symbol
_atom_site_label
_atom_site_fract_x
_atom_site_fract_y
_atom_site_fract_z
Si Si1 0.461567 0.748794 0.342484
Si Si2 0.559776 0.276030 0.065561
Si Si3 0.565931 0.604063 0.417487
Si Si4 0.098158 0.612122 0.341164
Si Si5 0.059743 0.111696 0.805580
Si Si6 0.160538 0.255208 0.484351
Si Si7 0.147173 0.388057 0.146578
Si Si8 0.179611 0.109905 0.938309
O O1 0.531526 0.672153 0.349934
O O2 0.510468 0.849364 0.327192
O O3 0.421358 0.698092 0.266294
O O4 0.396158 0.768979 0.424833
O O5 0.519778 0.360296 0.129853
O O6 0.578887 0.180981 0.119072
O O7 0.500000 0.243128 0.000000
O O8 0.640837 0.319182 0.014492
O O9 0.500000 0.591876 0.500000
O O10 0.589269 0.500000 0.373714
O O11 0.644900 0.649806 0.445262
O O12 0.087807 0.500000 0.368632
O O13 0.139446 0.662813 0.417066
O O14 0.153985 0.625234 0.248742
O O15 0.134996 0.115451 0.854946
O O16 0.050925 0.000000 0.769796
O O17 0.250000 0.250000 0.500000
O O18 0.125199 0.500000 0.128175
O O19 0.230401 0.357462 0.091525
O O20 0.175836 0.000000 0.975004
#
# Coordination Sequence:
#
# PCOD8088670 Si02
#       8
#     8   8   8   8   8   8   8   8
#     4  10  19  34  53  75 102 134 180 216 261 317
#     4  10  19  34  55  82 111 143 179 221 268 320
#     4   8  15  30  49  69  96 128 160 201 252 307
#     4  10  21  38  57  76 104 144 188 223 258 312
#     4  10  19  32  54  82 109 137 174 222 272 322
#     4  10  22  34  51  80 105 134 172 221 270 317
#     4  10  20  35  55  81 110 144 184 222 263 317
#     4   9  19  33  53  82 112 141 175 217 271 327
#
# _framework density 17.802714000000002
#
# number of rings (size 3 to 8) (size 9 to 14) (size 15 to 20)
#    0.000    2.375    1.250    2.250    1.750    3.750 
#    0.000    0.000    0.000    0.000    0.000    0.000 
#    0.000    0.000    0.000    0.000    0.000    0.000 
#
# Total GULP energy -396544.274117 kJ/mol
# GULP energy per Si atom -12392.008566 kJ/mol
# Density = 1.776219 g / cm^3
# Si number density = 17.802714 Si / 1000 Ang^3
#
#
#
# Elastic Constant Matrix: (Units=GPa)
#
#
# Indices 1 2 3 4 5 6 
#
# 1 77.8037 43.7037 18.4000 0.0000 2.3241 0.0000
# 2 43.7037 112.2184 40.0272 0.0000 5.0886 0.0000
# 3 18.4000 40.0272 79.5935 0.0000 -2.6023 0.0000
# 4 0.0000 0.0000 0.0000 30.4500 0.0000 -1.1985
# 5 2.3241 5.0886 -2.6023 0.0000 21.4848 0.0000
# 6 0.0000 0.0000 0.0000 -1.1985 0.0000 21.0376
#
#
#
# Elastic Compliance Matrix: (Units=1/GPa)
#
#
# Indices 1 2 3 4 5 6 
#
# 1 0.016488 -0.006139 -0.000738 0.000000 -0.000419 0.000000
# 2 -0.006139 0.013375 -0.005410 0.000000 -0.003159 0.000000
# 3 -0.000738 -0.005410 0.015561 0.000000 0.003246 0.000000
# 4 0.000000 0.000000 0.000000 0.032915 0.000000 0.001875
# 5 -0.000419 -0.003159 0.003246 0.000000 0.047731 0.000000
# 6 0.000000 0.000000 0.000000 0.001875 0.000000 0.047641
#
#
# Mechanical properties :
#
#
# Convention : Reuss Voigt Hill
#
# Bulk Modulus (GPa) = 47.96204 52.65304 50.30754
# Shear Modulus (GPa) = 24.36211 25.76013 25.06112
#
# Velocity S-wave (km/s) = 3.70327 3.80804 3.75602
# Velocity P-wave (km/s) = 6.72941 6.99821 6.86513
#
# Compressibility (1/GPa) = 0.02084982
#
# Stress axis : x y z
#
# Youngs Moduli (GPa) = 60.64872 74.76536 64.26146
#
# Poissons Ratio (x) = 0.45900 0.04743
# Poissons Ratio (y) = 0.37233 0.34768
# Poissons Ratio (z) = 0.04476 0.40451
#
# Static dielectric constant tensor:
#      x y z
#    x 3.060280 0.000000 -0.066460 
#    y 0.000000 3.575330 0.000000 
#    z -0.066460 0.000000 3.225040 
# 
# 
# High freq. dielectric constant tensor:
#      x y z
#    x 1.675100 0.000000 -0.002800 
#    y 0.000000 1.692560 0.000000 
#    z -0.002800 0.000000 1.687150 
# 
# From -- ./inp_files/224785.got.cif
#   From: 2010.06.25/outbox.cif.g09.slc.cpg/sg12_113_cif.got.tgz:224785.got - 2010.06.28 00:19:55.
