data_PCOD8088798
_publ_section_title
;
Structure prediction by ZEFSAII (Michael W. Deem and Ramdas Pophale) SiO2 
 PCOD8088798
Probable space group: C 2/M
;
_chemical_formula_sum "Si O2"
_cell_formula_units_Z 48
_cell_length_a 10.301203
_cell_length_b 18.080532
_cell_length_c 15.061484
_cell_angle_alpha 90.000000
_cell_angle_beta 68.673832
_cell_angle_gamma 90.000000
_cell_volume 2613.133130
_symmetry_space_group_name_H-M "C 2/M"
_symmetry_group_IT_number 12
_symmetry_cell_setting 'monoclinic'
loop_
_space_group_symop_operation_xyz
x,y,z
-x,y,-z
-x,-y,-z
x,-y,z
1/2+x,1/2+y,z
1/2-x,1/2+y,-z
1/2-x,1/2-y,-z
1/2+x,1/2-y,z
loop_
_atom_site_type_symbol
_atom_site_label
_atom_site_fract_x
_atom_site_fract_y
_atom_site_fract_z
Si Si1 0.846501 0.169230 0.568072
Si Si2 0.346470 0.587907 0.748165
Si Si3 0.656297 0.087935 0.959078
Si Si4 0.647267 0.587167 0.737378
Si Si5 0.150267 0.911847 0.933834
Si Si6 0.343249 0.159146 0.551108
O O1 0.802315 0.127596 0.668385
O O2 0.736114 0.146523 0.521164
O O3 0.841355 0.256709 0.585121
O O4 0.000000 0.143380 0.500000
O O5 0.345084 0.500000 0.733946
O O6 0.235694 0.612892 0.850162
O O7 0.499027 0.617420 0.738993
O O8 0.653650 0.000000 0.963751
O O9 0.500000 0.120469 0.000000
O O10 0.735297 0.119637 0.026124
O O11 0.635848 0.500000 0.744504
O O12 0.680816 0.618080 0.827328
O O13 0.772813 0.610040 0.643548
O O14 0.150968 0.000000 0.936493
O O15 0.000000 0.881652 0.000000
O O16 0.500000 0.130533 0.500000
#
# Coordination Sequence:
#
# PCOD8088798 Si02
#       6
#     8   8   8   8   8   8
#     4  10  20  37  57  75 102 143 179 212 261 322
#     4  10  19  32  56  85 105 133 179 222 261 306
#     4   9  17  29  47  76 111 139 166 208 261 314
#     4  10  19  32  55  83 107 136 177 222 262 304
#     4   9  15  27  48  74 104 137 170 204 253 315
#     4  10  22  37  53  76 106 141 178 213 262 320
#
# _framework density 18.368755
#
# number of rings (size 3 to 8) (size 9 to 14) (size 15 to 20)
#    0.000    2.333    3.333    0.000    0.000    2.667 
#    0.000    1.667    0.000    2.000    0.000    0.000 
#    0.000    0.000    0.000    0.000    0.000    0.000 
#
# Total GULP energy -297602.458119 kJ/mol
# GULP energy per Si atom -12400.102422 kJ/mol
# Density = 1.832695 g / cm^3
# Si number density = 18.368755 Si / 1000 Ang^3
#
#
#
# Elastic Constant Matrix: (Units=GPa)
#
#
# Indices 1 2 3 4 5 6 
#
# 1 162.3845 18.4824 82.6410 0.0000 -1.8437 0.0000
# 2 18.4824 12.6857 23.4561 0.0000 8.5821 0.0000
# 3 82.6410 23.4561 153.4840 0.0000 8.2868 0.0000
# 4 0.0000 0.0000 0.0000 -6.0759 0.0000 -4.4369
# 5 -1.8437 8.5821 8.2868 0.0000 36.3086 0.0000
# 6 0.0000 0.0000 0.0000 -4.4369 0.0000 7.2290
#
#
#
# Elastic Compliance Matrix: (Units=1/GPa)
#
#
# Indices 1 2 3 4 5 6 
#
# 1 0.009084 -0.008524 -0.003769 0.000000 0.003336 0.000000
# 2 -0.008524 0.139429 -0.015102 0.000000 -0.029942 0.000000
# 3 -0.003769 -0.015102 0.010803 0.000000 0.000913 0.000000
# 4 0.000000 0.000000 0.000000 -0.113648 0.000000 -0.069752
# 5 0.003336 -0.029942 0.000913 0.000000 0.034580 0.000000
# 6 0.000000 0.000000 0.000000 -0.069752 0.000000 0.095520
#
#
# Mechanical properties :
#
#
# Convention : Reuss Voigt Hill
#
# Bulk Modulus (GPa) = 9.56691 64.19037 36.87864
# Shear Modulus (GPa) = 18.83951 21.09065 19.96508
#
# Velocity S-wave (km/s) = 3.20602 3.39216 3.30040
# Velocity P-wave (km/s) = 4.35021 7.09673 5.88591
#
# Compressibility (1/GPa) = 0.10452695
#
# Stress axis : x y z
#
# Youngs Moduli (GPa) = 110.08028 7.17213 92.56483
#
# Poissons Ratio (x) = 0.06113 0.34885
# Poissons Ratio (y) = 0.93831 1.39791
# Poissons Ratio (z) = 0.41487 0.10831
#
# Static dielectric constant tensor:
#      x y z
#    x 3.656340 0.000000 0.060630 
#    y 0.000000 2.873770 0.000000 
#    z 0.060630 0.000000 3.474990 
# 
# 
# High freq. dielectric constant tensor:
#      x y z
#    x 1.723120 0.000000 0.005050 
#    y 0.000000 1.660720 0.000000 
#    z 0.005050 0.000000 1.725170 
# 
# From -- ./inp_files/196899.got.cif
#   From: 2010.06.25/outbox.cif.g09.slc.cpg/sg12_99_cif.got.tgz:196899.got - 2010.06.28 00:19:55.
