data_PCOD8088787
_publ_section_title
;
Structure prediction by ZEFSAII (Michael W. Deem and Ramdas Pophale) SiO2 
 PCOD8088787
Probable space group: C 2/M
;
_chemical_formula_sum "Si O2"
_cell_formula_units_Z 56
_cell_length_a 23.978478
_cell_length_b 13.299771
_cell_length_c 9.813061
_cell_angle_alpha 90.000000
_cell_angle_beta 70.312595
_cell_angle_gamma 90.000000
_cell_volume 2946.532143
_symmetry_space_group_name_H-M "C 2/M"
_symmetry_group_IT_number 12
_symmetry_cell_setting 'monoclinic'
loop_
_space_group_symop_operation_xyz
x,y,z
-x,y,-z
-x,-y,-z
x,-y,z
1/2+x,1/2+y,z
1/2-x,1/2+y,-z
1/2-x,1/2-y,-z
1/2+x,1/2-y,z
loop_
_atom_site_type_symbol
_atom_site_label
_atom_site_fract_x
_atom_site_fract_y
_atom_site_fract_z
Si Si1 0.291860 0.766503 0.658890
Si Si2 0.614942 0.114516 0.947841
Si Si3 0.837960 0.729690 0.335101
Si Si4 0.567505 0.615986 0.800977
Si Si5 0.441491 0.306105 0.899422
Si Si6 0.778055 0.614776 0.936147
Si Si7 0.836298 0.119048 0.815692
O O1 0.222604 0.758371 0.688862
O O2 0.325302 0.809945 0.498228
O O3 0.303216 0.838627 0.777285
O O4 0.320379 0.658846 0.677358
O O5 0.628017 0.144817 0.780128
O O6 0.591181 0.000000 0.972152
O O7 0.565576 0.188748 0.052536
O O8 0.675137 0.127225 0.981750
O O9 0.876499 0.831185 0.314678
O O10 0.565630 0.500000 0.757910
O O11 0.508574 0.673662 0.797667
O O12 0.573685 0.623109 0.959378
O O13 0.398708 0.335952 0.811423
O O14 0.765835 0.500000 0.912055
O O15 0.715218 0.661030 0.039347
O O16 0.838350 0.000000 0.807635
#
# Coordination Sequence:
#
# PCOD8088787 Si02
#       7
#     8   8   8   8   8   8   8
#     4  11  21  36  53  82 115 151 190 234 284 343
#     4  10  19  35  58  84 111 141 185 240 287 335
#     4  10  23  36  54  78 117 155 186 232 289 334
#     4  10  20  37  57  83 117 151 192 232 277 339
#     4  10  19  34  58  85 114 149 188 237 286 330
#     4  10  19  32  55  82 108 140 184 237 285 334
#     4  11  20  32  56  86 114 147 191 240 287 336
#
# _framework density 19.005392000000001
#
# number of rings (size 3 to 8) (size 9 to 14) (size 15 to 20)
#    0.000    1.714    2.857    3.857    0.000    2.857 
#    0.000    9.286    0.000    1.714    0.000    2.000 
#    0.000    0.000    0.000    0.000    0.000    0.000 
#
# Total GULP energy -347199.342287 kJ/mol
# GULP energy per Si atom -12399.976510 kJ/mol
# Density = 1.896214 g / cm^3
# Si number density = 19.005392 Si / 1000 Ang^3
#
#
#
# Elastic Constant Matrix: (Units=GPa)
#
#
# Indices 1 2 3 4 5 6 
#
# 1 112.2468 53.5777 33.4676 0.0000 -3.9877 0.0000
# 2 53.5777 107.2458 37.0353 0.0000 4.5965 0.0000
# 3 33.4676 37.0353 80.4596 0.0000 12.2576 0.0000
# 4 0.0000 0.0000 0.0000 15.9883 0.0000 0.6971
# 5 -3.9877 4.5965 12.2576 0.0000 11.1245 0.0000
# 6 0.0000 0.0000 0.0000 0.6971 0.0000 28.3623
#
#
#
# Elastic Compliance Matrix: (Units=1/GPa)
#
#
# Indices 1 2 3 4 5 6 
#
# 1 0.013497 -0.005566 -0.004975 0.000000 0.012620 0.000000
# 2 -0.005566 0.013396 -0.003249 0.000000 -0.003950 0.000000
# 3 -0.004975 -0.003249 0.019301 0.000000 -0.021707 0.000000
# 4 0.000000 0.000000 0.000000 0.062613 0.000000 -0.001539
# 5 0.012620 -0.003950 -0.021707 0.000000 0.119966 0.000000
# 6 0.000000 0.000000 0.000000 -0.001539 0.000000 0.035296
#
#
# Mechanical properties :
#
#
# Convention : Reuss Voigt Hill
#
# Bulk Modulus (GPa) = 53.72292 60.90146 57.31219
# Shear Modulus (GPa) = 16.78676 22.81978 19.80327
#
# Velocity S-wave (km/s) = 2.97520 3.46887 3.23148
# Velocity P-wave (km/s) = 6.33490 6.93959 6.64413
#
# Compressibility (1/GPa) = 0.01861403
#
# Stress axis : x y z
#
# Youngs Moduli (GPa) = 74.08920 74.64720 51.81188
#
# Poissons Ratio (x) = 0.41547 0.25776
# Poissons Ratio (y) = 0.41237 0.16836
# Poissons Ratio (z) = 0.36858 0.24256
#
# Static dielectric constant tensor:
#      x y z
#    x 3.523410 0.000000 0.032640 
#    y 0.000000 3.579920 0.000000 
#    z 0.032640 0.000000 3.297230 
# 
# 
# High freq. dielectric constant tensor:
#      x y z
#    x 1.739960 0.000000 0.006190 
#    y 0.000000 1.740170 0.000000 
#    z 0.006190 0.000000 1.712550 
# 
# From -- ./inp_files/96232.got.cif
#   From: 2010.06.25/outbox.cif.g09.slc.cpg/sg12_49_cif.got.tgz:96232.got - 2010.06.28 00:19:55.
