data_PCOD8088803
_publ_section_title
;
Structure prediction by ZEFSAII (Michael W. Deem and Ramdas Pophale) SiO2 
 PCOD8088803
Probable space group: C 2/M
;
_chemical_formula_sum "Si O2"
_cell_formula_units_Z 40
_cell_length_a 31.178448
_cell_length_b 8.556013
_cell_length_c 23.700189
_cell_angle_alpha 90.000000
_cell_angle_beta 161.054980
_cell_angle_gamma 90.000000
_cell_volume 2052.614827
_symmetry_space_group_name_H-M "C 2/M"
_symmetry_group_IT_number 12
_symmetry_cell_setting 'monoclinic'
loop_
_space_group_symop_operation_xyz
x,y,z
-x,y,-z
-x,-y,-z
x,-y,z
1/2+x,1/2+y,z
1/2-x,1/2+y,-z
1/2-x,1/2-y,-z
1/2+x,1/2-y,z
loop_
_atom_site_type_symbol
_atom_site_label
_atom_site_fract_x
_atom_site_fract_y
_atom_site_fract_z
Si Si1 0.128296 0.815038 0.499624
Si Si2 0.075788 0.314425 0.149871
Si Si3 0.883518 0.313897 0.006152
Si Si4 0.876535 0.315923 0.124704
Si Si5 0.374461 0.685874 0.375908
O O1 0.272172 0.759825 0.657098
O O2 0.118297 0.757873 0.551205
O O3 0.014137 0.727791 0.324262
O O4 0.108020 0.000000 0.468196
O O5 0.070095 0.500000 0.138061
O O6 0.007619 0.255535 0.123025
O O7 0.000000 0.246721 0.000000
O O8 0.881435 0.500000 0.005085
O O9 0.885158 0.247397 0.071774
O O10 0.754540 0.246163 0.814828
O O11 0.858894 0.500000 0.101275
O O12 0.750000 0.250000 0.000000
O O13 0.500000 0.755745 0.500000
O O14 0.371761 0.500000 0.369802
#
# Coordination Sequence:
#
# PCOD8088803 Si02
#       5
#     8   8   8   8   8
#     4  10  19  32  55  83 109 138 174 221 272 316
#     4   9  15  28  52  84 112 133 172 228 269 305
#     4   9  17  30  50  78 108 139 178 223 265 306
#     4  11  23  38  55  76 109 146 180 219 266 320
#     4   9  15  25  46  76 103 131 176 225 260 296
#
# _framework density 19.487338000000001
#
# number of rings (size 3 to 8) (size 9 to 14) (size 15 to 20)
#    0.000    2.400    2.000    1.800    0.000    4.000 
#    0.000    0.000    0.000    8.400    0.000    0.000 
#    0.000    0.000    0.000    0.000    0.000    0.000 
#
# Total GULP energy -247917.890887 kJ/mol
# GULP energy per Si atom -12395.894544 kJ/mol
# Density = 1.944298 g / cm^3
# Si number density = 19.487338 Si / 1000 Ang^3
#
#
#
# Elastic Constant Matrix: (Units=GPa)
#
#
# Indices 1 2 3 4 5 6 
#
# 1 196.3297 17.7099 91.7608 0.0000 10.6803 0.0000
# 2 17.7099 20.8791 13.9236 0.0000 -0.3399 0.0000
# 3 91.7608 13.9236 160.2569 0.0000 9.4359 0.0000
# 4 0.0000 0.0000 0.0000 24.3375 0.0000 -3.1282
# 5 10.6803 -0.3399 9.4359 0.0000 46.9453 0.0000
# 6 0.0000 0.0000 0.0000 -3.1282 0.0000 16.0674
#
#
#
# Elastic Compliance Matrix: (Units=1/GPa)
#
#
# Indices 1 2 3 4 5 6 
#
# 1 0.007234 -0.003635 -0.003773 0.000000 -0.000914 0.000000
# 2 -0.003635 0.052742 -0.002603 0.000000 0.001732 0.000000
# 3 -0.003773 -0.002603 0.008680 0.000000 -0.000905 0.000000
# 4 0.000000 0.000000 0.000000 0.042144 0.000000 0.008205
# 5 -0.000914 0.001732 -0.000905 0.000000 0.021704 0.000000
# 6 0.000000 0.000000 0.000000 0.008205 0.000000 0.063835
#
#
# Mechanical properties :
#
#
# Convention : Reuss Voigt Hill
#
# Bulk Modulus (GPa) = 20.56152 69.36161 44.96157
# Shear Modulus (GPa) = 21.49872 34.40813 27.95342
#
# Velocity S-wave (km/s) = 3.32507 4.20654 3.79151
# Velocity P-wave (km/s) = 5.03146 7.69830 6.50305
#
# Compressibility (1/GPa) = 0.04863453
#
# Stress axis : x y z
#
# Youngs Moduli (GPa) = 138.22900 18.96016 115.21292
#
# Poissons Ratio (x) = 0.06893 0.43466
# Poissons Ratio (y) = 0.50250 0.29988
# Poissons Ratio (z) = 0.52149 0.04935
#
# Static dielectric constant tensor:
#      x y z
#    x 3.986970 0.000000 0.133080 
#    y 0.000000 2.889930 0.000000 
#    z 0.133080 0.000000 3.752430 
# 
# 
# High freq. dielectric constant tensor:
#      x y z
#    x 1.776680 0.000000 0.007290 
#    y 0.000000 1.692290 0.000000 
#    z 0.007290 0.000000 1.773700 
# 
# From -- ./inp_files/151649.got.cif
#   From: 2010.06.25/outbox.cif.g09.slc.cpg/sg12_76_cif.got.tgz:151649.got - 2010.06.28 00:19:55.
