data_PCOD8088619
_publ_section_title
;
Structure prediction by ZEFSAII (Michael W. Deem and Ramdas Pophale) SiO2 
 PCOD8088619
Probable space group: C 2/M
;
_chemical_formula_sum "Si O2"
_cell_formula_units_Z 56
_cell_length_a 19.438354
_cell_length_b 17.371609
_cell_length_c 28.095600
_cell_angle_alpha 90.000000
_cell_angle_beta 161.140670
_cell_angle_gamma 90.000000
_cell_volume 3066.695877
_symmetry_space_group_name_H-M "C 2/M"
_symmetry_group_IT_number 12
_symmetry_cell_setting 'monoclinic'
loop_
_space_group_symop_operation_xyz
x,y,z
-x,y,-z
-x,-y,-z
x,-y,z
1/2+x,1/2+y,z
1/2-x,1/2+y,-z
1/2-x,1/2-y,-z
1/2+x,1/2-y,z
loop_
_atom_site_type_symbol
_atom_site_label
_atom_site_fract_x
_atom_site_fract_y
_atom_site_fract_z
Si Si1 0.318704 0.410985 0.345437
Si Si2 0.833502 0.830641 0.995202
Si Si3 0.653025 0.584971 0.145412
Si Si4 0.130817 0.344906 0.960118
Si Si5 0.445949 0.411403 0.598154
Si Si6 0.297213 0.089185 0.894122
Si Si7 0.524479 0.091685 0.718069
O O1 0.500000 0.381286 0.500000
O O2 0.261947 0.500000 0.319225
O O3 0.402154 0.399737 0.347195
O O4 0.108977 0.359399 0.215234
O O5 0.790966 0.859024 0.021159
O O6 0.648982 0.862826 0.840540
O O7 0.838875 0.738910 0.997449
O O8 0.065621 0.859302 0.129501
O O9 0.665440 0.500000 0.176218
O O10 0.881123 0.610037 0.272954
O O11 0.500000 0.584869 0.000000
O O12 0.190829 0.403419 0.041381
O O13 0.393103 0.500000 0.572929
O O14 0.576848 0.375297 0.728560
O O15 0.214492 0.373635 0.438810
O O16 0.294737 0.000000 0.878359
O O17 0.500000 0.127865 0.000000
O O18 0.541126 0.000000 0.740156
#
# Coordination Sequence:
#
# PCOD8088619 Si02
#       7
#     8   8   8   8   8   8   8
#     4  10  19  32  54  81 105 134 173 218 269 313
#     4  10  21  34  50  74 106 138 178 217 261 308
#     4   8  15  30  53  77  99 125 166 221 268 300
#     4  11  22  34  50  72 109 145 173 212 258 312
#     4   9  17  31  52  80 108 131 164 214 262 311
#     4  10  19  33  52  75 106 142 175 204 253 321
#     4   9  17  33  58  83 104 127 169 227 271 302
#
# _framework density 18.260694999999998
#
# number of rings (size 3 to 8) (size 9 to 14) (size 15 to 20)
#    0.000    2.429    1.429    2.571    0.000    5.143 
#    0.000    0.714    6.286    0.000    0.000    4.000 
#    0.000    0.000    0.000    0.000    0.000    0.000 
#
# Total GULP energy -347034.071642 kJ/mol
# GULP energy per Si atom -12394.073987 kJ/mol
# Density = 1.821913 g / cm^3
# Si number density = 18.260695 Si / 1000 Ang^3
#
#
#
# Elastic Constant Matrix: (Units=GPa)
#
#
# Indices 1 2 3 4 5 6 
#
# 1 92.9929 32.4435 27.3526 -0.0500 1.6823 0.0304
# 2 32.4435 44.8782 33.5452 0.0095 4.6678 -0.0144
# 3 27.3526 33.5452 88.8491 -0.0259 -9.0531 0.0558
# 4 -0.0500 0.0095 -0.0259 11.0101 0.0175 0.1822
# 5 1.6823 4.6678 -9.0531 0.0175 31.0393 0.0056
# 6 0.0304 -0.0144 0.0558 0.1822 0.0056 26.1920
#
#
#
# Elastic Compliance Matrix: (Units=1/GPa)
#
#
# Indices 1 2 3 4 5 6 
#
# 1 0.014420 -0.010040 -0.000592 0.000072 0.000556 -0.000022
# 2 -0.010040 0.040277 -0.013066 -0.000097 -0.009324 0.000064
# 3 -0.000592 -0.013066 0.017082 0.000038 0.006979 -0.000045
# 4 0.000072 -0.000097 0.000038 0.090837 -0.000029 -0.000632
# 5 0.000556 -0.009324 0.006979 -0.000029 0.035625 -0.000028
# 6 -0.000022 0.000064 -0.000045 -0.000632 -0.000028 0.038184
#
#
# Mechanical properties :
#
#
# Convention : Reuss Voigt Hill
#
# Bulk Modulus (GPa) = 41.01252 45.93365 43.47308
# Shear Modulus (GPa) = 17.12630 22.54020 19.83325
#
# Velocity S-wave (km/s) = 3.06580 3.51715 3.29920
# Velocity P-wave (km/s) = 5.91949 6.45777 6.19448
#
# Compressibility (1/GPa) = 0.02438280
#
# Stress axis : x y z
#
# Youngs Moduli (GPa) = 69.34588 24.82809 58.54279
#
# Poissons Ratio (x) = 0.24928 0.03466
# Poissons Ratio (y) = 0.69624 0.76491
# Poissons Ratio (z) = 0.04106 0.32440
#
# Static dielectric constant tensor:
#      x y z
#    x 3.458710 0.000010 0.236440 
#    y 0.000010 3.081970 -0.000390 
#    z 0.236440 -0.000390 3.586270 
# 
# 
# High freq. dielectric constant tensor:
#      x y z
#    x 1.709690 0.000010 0.011660 
#    y 0.000010 1.673690 -0.000040 
#    z 0.011660 -0.000040 1.703750 
# 
# From -- ./inp_files/157968.got.cif
#   From: 2010.06.25/outbox.cif.g09.slc.cpg/sg12_79_cif.got.tgz:157968.got - 2010.06.28 00:19:55.
