data_PCOD8088880
_publ_section_title
;
Structure prediction by ZEFSAII (Michael W. Deem and Ramdas Pophale) SiO2 
 PCOD8088880
Probable space group: C 2/M
;
_chemical_formula_sum "Si O2"
_cell_formula_units_Z 40
_cell_length_a 20.415526
_cell_length_b 13.598898
_cell_length_c 17.399707
_cell_angle_alpha 90.000000
_cell_angle_beta 157.629616
_cell_angle_gamma 90.000000
_cell_volume 1838.511590
_symmetry_space_group_name_H-M "C 2/M"
_symmetry_group_IT_number 12
_symmetry_cell_setting 'monoclinic'
loop_
_space_group_symop_operation_xyz
x,y,z
-x,y,-z
-x,-y,-z
x,-y,z
1/2+x,1/2+y,z
1/2-x,1/2+y,-z
1/2-x,1/2-y,-z
1/2+x,1/2-y,z
loop_
_atom_site_type_symbol
_atom_site_label
_atom_site_fract_x
_atom_site_fract_y
_atom_site_fract_z
Si Si1 0.634774 0.241873 0.495040
Si Si2 0.194222 0.107499 0.688922
Si Si3 0.946198 0.193208 0.751175
Si Si4 0.810527 0.388411 0.136130
Si Si5 0.404242 0.109483 0.067463
O O1 0.716881 0.304752 0.653146
O O2 0.781031 0.162656 0.624036
O O3 0.585717 0.319760 0.374449
O O4 0.465170 0.179986 0.336296
O O5 0.000000 0.094363 0.500000
O O6 0.261821 0.000000 0.731809
O O7 0.289792 0.137156 0.870454
O O8 0.944518 0.311623 0.763971
O O9 0.125456 0.143171 0.970977
O O10 0.848250 0.500000 0.202633
O O11 0.792175 0.378993 0.023945
O O12 0.482462 0.000000 0.146672
#
# Coordination Sequence:
#
# PCOD8088880 Si02
#       5
#     8   8   8   8   8
#     4  10  21  35  54  83 114 146 186 226 270 327
#     4  10  19  32  55  87 119 147 175 217 279 344
#     4  10  20  35  55  79 112 151 186 223 269 325
#     4  10  20  37  59  80 109 148 189 233 272 314
#     4   9  18  33  55  84 115 144 175 218 279 342
#
# _framework density 21.756729
#
# number of rings (size 3 to 8) (size 9 to 14) (size 15 to 20)
#    0.000    2.200    0.000    4.800    0.000    4.800 
#    0.000    6.000    0.000    5.400    0.000    7.000 
#    0.000    0.000    0.000    0.000    0.000    0.000 
#
# Total GULP energy -247779.512628 kJ/mol
# GULP energy per Si atom -12388.975631 kJ/mol
# Density = 2.170721 g / cm^3
# Si number density = 21.756729 Si / 1000 Ang^3
#
#
#
# Elastic Constant Matrix: (Units=GPa)
#
#
# Indices 1 2 3 4 5 6 
#
# 1 47.6001 25.3206 18.7874 -0.0007 -3.5723 0.0001
# 2 25.3206 81.6954 18.2763 -0.0008 -12.7094 -0.0003
# 3 18.7874 18.2763 65.3669 -0.0007 8.1487 -0.0014
# 4 -0.0007 -0.0008 -0.0007 23.4554 -0.0006 -7.3722
# 5 -3.5723 -12.7094 8.1487 -0.0006 48.0051 -0.0004
# 6 0.0001 -0.0003 -0.0014 -7.3722 -0.0004 27.0502
#
#
#
# Elastic Compliance Matrix: (Units=1/GPa)
#
#
# Indices 1 2 3 4 5 6 
#
# 1 0.027135 -0.006871 -0.006031 0.000000 0.001224 0.000000
# 2 -0.006871 0.015666 -0.002921 0.000000 0.004132 0.000000
# 3 -0.006031 -0.002921 0.018390 0.000001 -0.004344 0.000001
# 4 0.000000 0.000000 0.000001 0.046628 0.000001 0.012708
# 5 0.001224 0.004132 -0.004344 0.000001 0.022754 0.000000
# 6 0.000000 0.000000 0.000001 0.012708 0.000000 0.040432
#
#
# Mechanical properties :
#
#
# Convention : Reuss Voigt Hill
#
# Bulk Modulus (GPa) = 33.84406 35.49234 34.66820
# Shear Modulus (GPa) = 23.52964 28.52067 26.02515
#
# Velocity S-wave (km/s) = 3.29217 3.62455 3.46235
# Velocity P-wave (km/s) = 5.48093 5.81938 5.65269
#
# Compressibility (1/GPa) = 0.02954728
#
# Stress axis : x y z
#
# Youngs Moduli (GPa) = 36.85234 63.83113 54.37849
#
# Poissons Ratio (x) = 0.43857 0.32794
# Poissons Ratio (y) = 0.25320 0.15882
# Poissons Ratio (z) = 0.22224 0.18643
#
# Static dielectric constant tensor:
#      x y z
#    x 3.654860 0.000000 0.218770 
#    y 0.000000 3.968030 0.000000 
#    z 0.218770 0.000000 3.493510 
# 
# 
# High freq. dielectric constant tensor:
#      x y z
#    x 1.830120 0.000000 0.010210 
#    y 0.000000 1.834900 0.000000 
#    z 0.010210 0.000000 1.860740 
# 
# From -- ./inp_files/103868.got.cif
#   From: 2010.06.25/outbox.cif.g09.slc.cpg/sg12_52_cif.got.tgz:103868.got - 2010.06.28 00:19:55.
