data_PCOD8088054
_publ_section_title
;
Structure prediction by ZEFSAII (Michael W. Deem and Ramdas Pophale) SiO2 
 PCOD8088054
Probable space group: C 2/M
;
_chemical_formula_sum "Si O2"
_cell_formula_units_Z 48
_cell_length_a 22.569809
_cell_length_b 8.652080
_cell_length_c 28.725519
_cell_angle_alpha 90.000000
_cell_angle_beta 152.053912
_cell_angle_gamma 90.000000
_cell_volume 2628.791615
_symmetry_space_group_name_H-M "C 2/M"
_symmetry_group_IT_number 12
_symmetry_cell_setting 'monoclinic'
loop_
_space_group_symop_operation_xyz
x,y,z
-x,y,-z
-x,-y,-z
x,-y,z
1/2+x,1/2+y,z
1/2-x,1/2+y,-z
1/2-x,1/2-y,-z
1/2+x,1/2-y,z
loop_
_atom_site_type_symbol
_atom_site_label
_atom_site_fract_x
_atom_site_fract_y
_atom_site_fract_z
Si Si1 0.722176 0.821623 0.554435
Si Si2 0.064687 0.678831 0.354852
Si Si3 0.800745 0.818185 0.188843
Si Si4 0.291650 0.678446 0.780995
Si Si5 0.645413 0.679338 0.596141
Si Si6 0.462433 0.830056 0.027274
O O1 0.860273 0.780285 0.630664
O O2 0.616521 0.785840 0.442343
O O3 0.691653 0.712792 0.576387
O O4 0.720066 0.000000 0.568306
O O5 0.082352 0.500000 0.354377
O O6 0.918723 0.724293 0.251121
O O7 0.772828 0.776778 0.222997
O O8 0.828053 0.000000 0.205681
O O9 0.683084 0.771793 0.073422
O O10 0.273595 0.500000 0.780537
O O11 0.225968 0.717082 0.687009
O O12 0.441828 0.714878 0.880106
O O13 0.500000 0.727737 0.500000
O O14 0.666039 0.500000 0.622217
O O15 0.473082 0.000000 0.057958
O O16 0.500000 0.843453 0.000000
#
# Coordination Sequence:
#
# PCOD8088054 Si02
#       6
#     8   8   8   8   8   8
#     4  10  21  36  53  75 104 136 171 210 252 299
#     4  10  20  34  54  78 104 134 169 211 254 299
#     4  10  19  32  52  77 105 136 171 211 254 300
#     4  11  21  32  50  76 106 137 169 210 257 304
#     4  11  23  37  54  75 102 137 173 208 250 303
#     4   8  16  31  49  71 101 135 169 207 252 300
#
# _framework density 18.259339000000001
#
# number of rings (size 3 to 8) (size 9 to 14) (size 15 to 20)
#    0.000    2.000    0.000    5.500    0.000    9.667 
#    0.000    0.000    0.000    1.000    0.000    0.000 
#    0.000    0.000    0.000    0.000    0.000    0.000 
#
# Total GULP energy -297638.576279 kJ/mol
# GULP energy per Si atom -12401.607345 kJ/mol
# Density = 1.821778 g / cm^3
# Si number density = 18.259339 Si / 1000 Ang^3
#
#
#
# Elastic Constant Matrix: (Units=GPa)
#
#
# Indices 1 2 3 4 5 6 
#
# 1 59.0347 10.9266 37.3246 -0.0009 7.6318 -0.0003
# 2 10.9266 58.5112 32.3842 -0.0001 -0.8591 0.0008
# 3 37.3246 32.3842 116.6854 -0.0032 17.6634 -0.0020
# 4 -0.0009 -0.0001 -0.0032 15.7123 -0.0010 -7.6921
# 5 7.6318 -0.8591 17.6634 -0.0010 26.4199 -0.0003
# 6 -0.0003 0.0008 -0.0020 -7.6921 -0.0003 22.3129
#
#
#
# Elastic Compliance Matrix: (Units=1/GPa)
#
#
# Indices 1 2 3 4 5 6 
#
# 1 0.021319 -0.000464 -0.006404 0.000000 -0.001892 0.000000
# 2 -0.000464 0.020789 -0.006390 -0.000002 0.005083 -0.000002
# 3 -0.006404 -0.006390 0.013511 0.000003 -0.007391 0.000002
# 4 0.000000 -0.000002 0.000003 0.076566 0.000001 0.026395
# 5 -0.001892 0.005083 -0.007391 0.000001 0.043503 0.000000
# 6 0.000000 -0.000002 0.000002 0.026395 0.000000 0.053917
#
#
# Mechanical properties :
#
#
# Convention : Reuss Voigt Hill
#
# Bulk Modulus (GPa) = 34.36346 43.94469 39.15407
# Shear Modulus (GPa) = 18.80951 23.12874 20.96912
#
# Velocity S-wave (km/s) = 3.21305 3.56291 3.39249
# Velocity P-wave (km/s) = 5.71187 6.40663 6.06920
#
# Compressibility (1/GPa) = 0.02910068
#
# Stress axis : x y z
#
# Youngs Moduli (GPa) = 46.90726 48.10221 74.01434
#
# Poissons Ratio (x) = 0.02234 0.47399
# Poissons Ratio (y) = 0.02179 0.47299
# Poissons Ratio (z) = 0.30039 0.30740
#
# Static dielectric constant tensor:
#      x y z
#    x 3.065090 0.000000 0.233930 
#    y 0.000000 3.362790 0.000000 
#    z 0.233930 0.000000 3.666370 
# 
# 
# High freq. dielectric constant tensor:
#      x y z
#    x 1.675200 0.000000 0.016650 
#    y 0.000000 1.717460 0.000000 
#    z 0.016650 0.000000 1.713420 
# 
# From -- ./inp_files/365543.got.cif
#   From: 2010.06.25/outbox.cif.g09.slc.cpg/sg12_183_cif.got.tgz:365543.got - 2010.06.28 00:19:55.
