data_PCOD8088019
_publ_section_title
;
Structure prediction by ZEFSAII (Michael W. Deem and Ramdas Pophale) SiO2 
 PCOD8088019
Probable space group: C 2/M
;
_chemical_formula_sum "Si O2"
_cell_formula_units_Z 56
_cell_length_a 19.111607
_cell_length_b 8.970008
_cell_length_c 25.478367
_cell_angle_alpha 90.000000
_cell_angle_beta 133.810696
_cell_angle_gamma 90.000000
_cell_volume 3151.931792
_symmetry_space_group_name_H-M "C 2/M"
_symmetry_group_IT_number 12
_symmetry_cell_setting 'monoclinic'
loop_
_space_group_symop_operation_xyz
x,y,z
-x,y,-z
-x,-y,-z
x,-y,z
1/2+x,1/2+y,z
1/2-x,1/2+y,-z
1/2-x,1/2-y,-z
1/2+x,1/2-y,z
loop_
_atom_site_type_symbol
_atom_site_label
_atom_site_fract_x
_atom_site_fract_y
_atom_site_fract_z
Si Si1 0.586746 0.329625 0.078011
Si Si2 0.223398 0.167926 0.057541
Si Si3 0.981896 0.169792 0.429058
Si Si4 0.393475 0.325018 0.102797
Si Si5 0.175548 0.322704 0.503171
Si Si6 0.105399 0.822489 0.202758
Si Si7 0.207115 0.324131 0.640319
O O1 0.553068 0.500000 0.071139
O O2 0.684761 0.320005 0.096089
O O3 0.609824 0.255369 0.145962
O O4 0.500000 0.250490 0.000000
O O5 0.321670 0.262023 0.109228
O O6 0.250076 0.000000 0.055878
O O7 0.143819 0.228257 0.974243
O O8 0.877993 0.249884 0.368966
O O9 0.000000 0.175131 0.500000
O O10 0.066646 0.255381 0.440606
O O11 0.977396 0.000000 0.405947
O O12 0.393433 0.500000 0.106192
O O13 0.501837 0.267221 0.171405
O O14 0.172334 0.500000 0.492114
O O15 0.250000 0.250000 0.500000
O O16 0.209244 0.282181 0.579785
O O17 0.192355 0.760665 0.283608
O O18 0.113392 0.000000 0.205861
O O19 0.194615 0.500000 0.640568
#
# Coordination Sequence:
#
# PCOD8088019 Si02
#       7
#     8   8   8   8   8   8   8
#     4   9  14  24  44  69  91 115 156 202 232 267
#     4   9  16  26  43  66  88 112 152 199 235 268
#     4   9  17  31  52  75  99 128 162 197 237 288
#     4   9  16  27  44  64  88 120 153 187 232 281
#     4  10  19  32  52  77 102 129 164 203 241 285
#     4   9  16  28  47  69  94 125 159 195 238 284
#     4   9  18  32  50  73 100 129 162 200 244 294
#
# _framework density 17.766881999999999
#
# number of rings (size 3 to 8) (size 9 to 14) (size 15 to 20)
#    0.000    2.857    1.429    0.857    0.000    2.286 
#    0.000    2.143    0.000    5.571    0.000    0.000 
#    0.000    0.000    0.000    0.000    0.000    0.000 
#
# Total GULP energy -346959.857328 kJ/mol
# GULP energy per Si atom -12391.423476 kJ/mol
# Density = 1.772644 g / cm^3
# Si number density = 17.766882 Si / 1000 Ang^3
#
#
#
# Elastic Constant Matrix: (Units=GPa)
#
#
# Indices 1 2 3 4 5 6 
#
# 1 136.4946 46.7505 61.5647 0.0000 25.3118 0.0000
# 2 46.7505 46.9978 25.2473 0.0000 9.4178 0.0000
# 3 61.5647 25.2473 104.9981 0.0000 24.4484 0.0000
# 4 0.0000 0.0000 0.0000 12.1985 0.0000 4.6326
# 5 25.3118 9.4178 24.4484 0.0000 31.6337 0.0000
# 6 0.0000 0.0000 0.0000 4.6326 0.0000 31.3677
#
#
#
# Elastic Compliance Matrix: (Units=1/GPa)
#
#
# Indices 1 2 3 4 5 6 
#
# 1 0.013731 -0.010338 -0.004541 0.000000 -0.004400 0.000000
# 2 -0.010338 0.032509 -0.001741 0.000000 -0.000061 0.000000
# 3 -0.004541 -0.001741 0.014192 0.000000 -0.006817 0.000000
# 4 0.000000 0.000000 0.000000 0.086849 0.000000 -0.012827
# 5 -0.004400 -0.000061 -0.006817 0.000000 0.040419 0.000000
# 6 0.000000 0.000000 0.000000 -0.012827 0.000000 0.033774
#
#
# Mechanical properties :
#
#
# Convention : Reuss Voigt Hill
#
# Bulk Modulus (GPa) = 36.77501 61.73506 49.25503
# Shear Modulus (GPa) = 18.95534 25.36851 22.16193
#
# Velocity S-wave (km/s) = 3.26987 3.78280 3.53565
# Velocity P-wave (km/s) = 5.91605 7.34180 6.66715
#
# Compressibility (1/GPa) = 0.02719238
#
# Stress axis : x y z
#
# Youngs Moduli (GPa) = 72.82732 30.76109 70.45986
#
# Poissons Ratio (x) = 0.31800 0.31995
# Poissons Ratio (y) = 0.75288 0.12269
# Poissons Ratio (z) = 0.33070 0.05356
#
# Static dielectric constant tensor:
#      x y z
#    x 3.390600 0.000000 0.185440 
#    y 0.000000 3.046350 0.000000 
#    z 0.185440 0.000000 3.329650 
# 
# 
# High freq. dielectric constant tensor:
#      x y z
#    x 1.695560 0.000000 0.015240 
#    y 0.000000 1.654600 0.000000 
#    z 0.015240 0.000000 1.663220 
# 
# From -- ./inp_files/365048.got.cif
#   From: 2010.06.25/outbox.cif.g09.slc.cpg/sg12_183_cif.got.tgz:365048.got - 2010.06.28 00:19:55.
