data_PCOD8088255
_publ_section_title
;
Structure prediction by ZEFSAII (Michael W. Deem and Ramdas Pophale) SiO2 
 PCOD8088255
Probable space group: C 2/M
;
_chemical_formula_sum "Si O2"
_cell_formula_units_Z 48
_cell_length_a 14.044526
_cell_length_b 7.880480
_cell_length_c 26.844143
_cell_angle_alpha 90.000000
_cell_angle_beta 120.747163
_cell_angle_gamma 90.000000
_cell_volume 2553.410756
_symmetry_space_group_name_H-M "C 2/M"
_symmetry_group_IT_number 12
_symmetry_cell_setting 'monoclinic'
loop_
_space_group_symop_operation_xyz
x,y,z
-x,y,-z
-x,-y,-z
x,-y,z
1/2+x,1/2+y,z
1/2-x,1/2+y,-z
1/2-x,1/2-y,-z
1/2+x,1/2-y,z
loop_
_atom_site_type_symbol
_atom_site_label
_atom_site_fract_x
_atom_site_fract_y
_atom_site_fract_z
Si Si1 0.504339 0.699360 0.252199
Si Si2 0.676594 0.000000 0.068608
Si Si3 0.890395 0.190124 0.120845
Si Si4 0.042923 0.500000 0.931364
Si Si5 0.693947 0.691524 0.434845
Si Si6 0.744082 0.297923 0.341967
Si Si7 0.959401 0.694831 0.347414
O O1 0.491938 0.500000 0.257016
O O2 0.440914 0.759467 0.185948
O O3 0.632764 0.755394 0.282666
O O4 0.450363 0.787905 0.285634
O O5 0.756503 0.832119 0.091713
O O6 0.589065 0.000000 0.091231
O O7 0.611330 0.000000 0.999985
O O8 0.923119 0.328088 0.088311
O O9 0.938941 0.000000 0.120481
O O10 0.727809 0.500000 0.438135
O O11 0.750000 0.750000 0.500000
O O12 0.740274 0.782003 0.397010
O O13 0.561690 0.709624 0.400380
O O14 0.750027 0.500000 0.345454
O O15 0.849040 0.222143 0.341270
O O16 0.970547 0.500000 0.365497
#
# Coordination Sequence:
#
# PCOD8088255 Si02
#       7
#     8   4   8   4   8   8   8
#     4   9  18  36  53  75 111 139 175 229 275 329
#     4   9  22  40  57  95 119 159 211 252 294 372
#     4   9  21  38  59  87 121 159 203 249 303 359
#     4  11  20  40  63  83 129 159 203 256 304 354
#     4  10  20  36  53  71 101 136 172 218 266 315
#     4   8  17  33  52  72  99 139 170 209 273 329
#     4  10  19  32  53  77 101 132 176 215 264 333
#
# _framework density 18.798386000000001
#
# number of rings (size 3 to 8) (size 9 to 14) (size 15 to 20)
#    0.500    2.167    0.000    2.500    1.167    2.000 
#    1.500   12.500    0.000    0.000    0.000    0.000 
#    0.000    0.000    0.000    0.000    0.000    0.000 
#
# Total GULP energy -297369.068302 kJ/mol
# GULP energy per Si atom -12390.377846 kJ/mol
# Density = 1.875560 g / cm^3
# Si number density = 18.798386 Si / 1000 Ang^3
#
#
#
# Elastic Constant Matrix: (Units=GPa)
#
#
# Indices 1 2 3 4 5 6 
#
# 1 168.8427 25.9845 71.2764 0.0000 -8.7983 0.0000
# 2 25.9845 51.0343 23.0130 0.0000 -4.8893 0.0000
# 3 71.2764 23.0130 134.1009 0.0000 11.3284 0.0000
# 4 0.0000 0.0000 0.0000 25.8254 0.0000 -1.8976
# 5 -8.7983 -4.8893 11.3284 0.0000 17.7139 0.0000
# 6 0.0000 0.0000 0.0000 -1.8976 0.0000 25.4908
#
#
#
# Elastic Compliance Matrix: (Units=1/GPa)
#
#
# Indices 1 2 3 4 5 6 
#
# 1 0.008583 -0.001494 -0.004895 0.000000 0.006981 0.000000
# 2 -0.001494 0.022834 -0.003800 0.000000 0.007991 0.000000
# 3 -0.004895 -0.003800 0.011634 0.000000 -0.010920 0.000000
# 4 0.000000 0.000000 0.000000 0.038934 0.000000 0.002898
# 5 0.006981 0.007991 -0.010920 0.000000 0.069110 0.000000
# 6 0.000000 0.000000 0.000000 0.002898 0.000000 0.039446
#
#
# Mechanical properties :
#
#
# Convention : Reuss Voigt Hill
#
# Bulk Modulus (GPa) = 44.10500 66.05839 55.08170
# Shear Modulus (GPa) = 22.88587 29.38629 26.13608
#
# Velocity S-wave (km/s) = 3.49297 3.95807 3.73277
# Velocity P-wave (km/s) = 6.30720 7.49034 6.92409
#
# Compressibility (1/GPa) = 0.02267316
#
# Stress axis : x y z
#
# Youngs Moduli (GPa) = 116.51052 43.79409 85.95814
#
# Poissons Ratio (x) = 0.06542 0.42080
# Poissons Ratio (y) = 0.17404 0.32661
# Poissons Ratio (z) = 0.57036 0.16640
#
# Static dielectric constant tensor:
#      x y z
#    x 3.630720 0.000000 0.081840 
#    y 0.000000 3.298120 0.000000 
#    z 0.081840 0.000000 3.463040 
# 
# 
# High freq. dielectric constant tensor:
#      x y z
#    x 1.727460 0.000000 0.003940 
#    y 0.000000 1.713060 0.000000 
#    z 0.003940 0.000000 1.734320 
# 
# From -- ./inp_files/308625.got.cif
#   From: 2010.06.25/outbox.cif.g09.slc.cpg/sg12_155_cif.got.tgz:308625.got - 2010.06.28 00:19:55.
