data_PCOD8088488
_publ_section_title
;
Structure prediction by ZEFSAII (Michael W. Deem and Ramdas Pophale) SiO2 
 PCOD8088488
Probable space group: C 2/M
;
_chemical_formula_sum "Si O2"
_cell_formula_units_Z 56
_cell_length_a 18.599185
_cell_length_b 36.229575
_cell_length_c 7.860295
_cell_angle_alpha 90.000000
_cell_angle_beta 33.525906
_cell_angle_gamma 90.000000
_cell_volume 2925.378226
_symmetry_space_group_name_H-M "C 2/M"
_symmetry_group_IT_number 12
_symmetry_cell_setting 'monoclinic'
loop_
_space_group_symop_operation_xyz
x,y,z
-x,y,-z
-x,-y,-z
x,-y,z
1/2+x,1/2+y,z
1/2-x,1/2+y,-z
1/2-x,1/2-y,-z
1/2+x,1/2-y,z
loop_
_atom_site_type_symbol
_atom_site_label
_atom_site_fract_x
_atom_site_fract_y
_atom_site_fract_z
Si Si1 0.345246 0.041251 0.804988
Si Si2 0.766906 0.333387 0.150995
Si Si3 0.152608 0.590682 0.509729
Si Si4 0.510638 0.708726 0.679352
Si Si5 0.743418 0.665855 0.807743
Si Si6 0.149099 0.409292 0.896020
Si Si7 0.988539 0.290783 0.215988
O O1 0.500000 0.039263 0.500000
O O2 0.294492 0.061839 0.734846
O O3 0.286195 0.000000 0.921863
O O4 0.296360 0.062021 0.071816
O O5 0.647215 0.309792 0.459641
O O6 0.775646 0.370668 0.242529
O O7 0.743357 0.345405 0.004472
O O8 0.896895 0.309140 0.901694
O O9 0.230927 0.628890 0.348944
O O10 0.169472 0.573895 0.666501
O O11 0.001952 0.599476 0.768774
O O12 0.500000 0.716549 0.500000
O O13 0.499443 0.746921 0.800368
O O14 0.396050 0.682061 0.970388
O O15 0.850194 0.697181 0.563208
O O16 0.000000 0.304462 0.000000
#
# Coordination Sequence:
#
# PCOD8088488 Si02
#       7
#     8   8   8   8   8   8   8
#     4   9  18  32  52  81 114 148 179 218 277 329
#     4  11  21  37  58  78 107 147 191 234 281 334
#     4  10  19  32  53  82 111 145 187 225 270 332
#     4  10  24  40  54  78 108 143 190 241 287 330
#     4  11  21  37  58  78 107 147 191 234 281 334
#     4  10  19  32  53  82 111 145 187 225 270 332
#     4  12  24  36  54  80 108 145 190 236 285 338
#
# _framework density 19.142824000000001
#
# number of rings (size 3 to 8) (size 9 to 14) (size 15 to 20)
#    0.000    1.571    2.857    3.000    0.000    6.286 
#    0.000    2.857    0.000    0.000    0.000    2.000 
#    0.000    2.286    0.000    0.000    0.000    0.000 
#
# Total GULP energy -347305.625254 kJ/mol
# GULP energy per Si atom -12403.772331 kJ/mol
# Density = 1.909925 g / cm^3
# Si number density = 19.142824 Si / 1000 Ang^3
#
#
#
# Elastic Constant Matrix: (Units=GPa)
#
#
# Indices 1 2 3 4 5 6 
#
# 1 63.3616 37.1131 29.0491 0.0000 23.4816 0.0000
# 2 37.1131 125.5911 29.4999 0.0000 13.1485 0.0000
# 3 29.0491 29.4999 69.1173 0.0000 0.5114 0.0000
# 4 0.0000 0.0000 0.0000 7.1446 0.0000 6.2348
# 5 23.4816 13.1485 0.5114 0.0000 27.0114 0.0000
# 6 0.0000 0.0000 0.0000 6.2348 0.0000 17.0632
#
#
#
# Elastic Compliance Matrix: (Units=1/GPa)
#
#
# Indices 1 2 3 4 5 6 
#
# 1 0.034033 -0.004326 -0.012256 0.000000 -0.027248 0.000000
# 2 -0.004326 0.009912 -0.002405 0.000000 -0.001019 0.000000
# 3 -0.012256 -0.002405 0.020561 0.000000 0.011436 0.000000
# 4 0.000000 0.000000 0.000000 0.205491 0.000000 -0.075086
# 5 -0.027248 -0.001019 0.011436 0.000000 0.060988 0.000000
# 6 0.000000 0.000000 0.000000 -0.075086 0.000000 0.086042
#
#
# Mechanical properties :
#
#
# Convention : Reuss Voigt Hill
#
# Bulk Modulus (GPa) = 37.68861 49.93269 43.81065
# Shear Modulus (GPa) = 10.77949 21.07104 15.92526
#
# Velocity S-wave (km/s) = 2.37557 3.32132 2.88743
# Velocity P-wave (km/s) = 5.22066 6.39133 5.83543
#
# Compressibility (1/GPa) = 0.02653321
#
# Stress axis : x y z
#
# Youngs Moduli (GPa) = 29.38337 100.88553 48.63572
#
# Poissons Ratio (x) = 0.43639 0.59607
# Poissons Ratio (y) = 0.12710 0.11697
# Poissons Ratio (z) = 0.36012 0.24264
#
# Static dielectric constant tensor:
#      x y z
#    x 3.499700 0.000000 0.133540 
#    y 0.000000 3.464940 0.000000 
#    z 0.133540 0.000000 3.347370 
# 
# 
# High freq. dielectric constant tensor:
#      x y z
#    x 1.742830 0.000000 0.022810 
#    y 0.000000 1.737160 0.000000 
#    z 0.022810 0.000000 1.721640 
# 
# From -- ./inp_files/91541.got.cif
#   From: 2010.06.25/outbox.cif.g09.slc.cpg/sg12_46_cif.got.tgz:91541.got - 2010.06.28 00:19:55.
