data_PCOD8088928
_publ_section_title
;
Structure prediction by ZEFSAII (Michael W. Deem and Ramdas Pophale) SiO2 
 PCOD8088928
Probable space group: C 2/M
;
_chemical_formula_sum "Si O2"
_cell_formula_units_Z 56
_cell_length_a 19.408449
_cell_length_b 9.386814
_cell_length_c 18.488644
_cell_angle_alpha 90.000000
_cell_angle_beta 66.535640
_cell_angle_gamma 90.000000
_cell_volume 3089.792059
_symmetry_space_group_name_H-M "C 2/M"
_symmetry_group_IT_number 12
_symmetry_cell_setting 'monoclinic'
loop_
_space_group_symop_operation_xyz
x,y,z
-x,y,-z
-x,-y,-z
x,-y,z
1/2+x,1/2+y,z
1/2-x,1/2+y,-z
1/2-x,1/2-y,-z
1/2+x,1/2-y,z
loop_
_atom_site_type_symbol
_atom_site_label
_atom_site_fract_x
_atom_site_fract_y
_atom_site_fract_z
Si Si1 0.216275 0.837523 0.370350
Si Si2 0.698046 0.163551 0.969319
Si Si3 0.928905 0.164309 0.209838
Si Si4 0.301641 0.838867 0.193554
Si Si5 0.053830 0.841610 0.045287
Si Si6 0.082225 0.667736 0.491724
Si Si7 0.377072 0.166949 0.363272
O O1 0.233729 0.815413 0.278125
O O2 0.145529 0.739611 0.416502
O O3 0.289507 0.792841 0.387020
O O4 0.194556 0.000000 0.396912
O O5 0.728131 0.185317 0.875031
O O6 0.699700 0.000000 0.991650
O O7 0.750000 0.250000 0.000000
O O8 0.614014 0.218333 0.013156
O O9 0.867780 0.228396 0.180778
O O10 0.929301 0.247598 0.285579
O O11 0.009721 0.180776 0.138879
O O12 0.908595 0.000000 0.232406
O O13 0.333374 0.000000 0.189588
O O14 0.090692 0.000000 0.030021
O O15 0.000000 0.826958 0.000000
O O16 0.090733 0.500000 0.478048
O O17 0.096451 0.713403 0.568448
O O18 0.000000 0.719300 0.500000
O O19 0.389220 0.000000 0.344297
#
# Coordination Sequence:
#
# PCOD8088928 Si02
#       7
#     8   8   8   8   8   8   8
#     4   9  18  34  57  81 103 135 177 221 267 316
#     4  11  23  38  57  80 112 152 190 229 275 330
#     4  10  19  32  56  86 110 139 181 231 274 317
#     4   9  19  36  56  80 111 144 179 225 276 324
#     4  10  20  36  57  82 114 145 182 233 279 321
#     4  10  21  37  55  78 110 143 173 215 270 322
#     4   9  19  36  56  78 110 142 176 223 267 320
#
# _framework density 18.124198
#
# number of rings (size 3 to 8) (size 9 to 14) (size 15 to 20)
#    0.000    2.286    1.429    2.143    0.000    5.143 
#    2.571    0.000    0.000    0.000    0.000    0.000 
#    0.000    0.000    0.000    0.000    0.000    0.000 
#
# Total GULP energy -347211.311374 kJ/mol
# GULP energy per Si atom -12400.403978 kJ/mol
# Density = 1.808295 g / cm^3
# Si number density = 18.124198 Si / 1000 Ang^3
#
#
#
# Elastic Constant Matrix: (Units=GPa)
#
#
# Indices 1 2 3 4 5 6 
#
# 1 95.1830 50.5228 69.9217 0.0000 4.0023 0.0000
# 2 50.5228 93.2963 64.8781 0.0000 0.4658 0.0000
# 3 69.9217 64.8781 126.2734 0.0000 3.1607 0.0000
# 4 0.0000 0.0000 0.0000 29.4951 0.0000 -3.1918
# 5 4.0023 0.4658 3.1607 0.0000 22.9560 0.0000
# 6 0.0000 0.0000 0.0000 -3.1918 0.0000 30.6651
#
#
#
# Elastic Compliance Matrix: (Units=1/GPa)
#
#
# Indices 1 2 3 4 5 6 
#
# 1 0.019000 -0.004666 -0.008071 0.000000 -0.002107 0.000000
# 2 -0.004666 0.017839 -0.006616 0.000000 0.001362 0.000000
# 3 -0.008071 -0.006616 0.015804 0.000000 -0.000635 0.000000
# 4 0.000000 0.000000 0.000000 0.034290 0.000000 0.003569
# 5 -0.002107 0.001362 -0.000635 0.000000 0.043989 0.000000
# 6 0.000000 0.000000 0.000000 0.003569 0.000000 0.032982
#
#
# Mechanical properties :
#
#
# Convention : Reuss Voigt Hill
#
# Bulk Modulus (GPa) = 71.75117 76.15533 73.95325
# Shear Modulus (GPa) = 24.12476 25.25191 24.68834
#
# Velocity S-wave (km/s) = 3.65236 3.73670 3.69477
# Velocity P-wave (km/s) = 7.58029 7.79276 7.68726
#
# Compressibility (1/GPa) = 0.01393705
#
# Stress axis : x y z
#
# Youngs Moduli (GPa) = 52.63035 56.05575 63.27691
#
# Poissons Ratio (x) = 0.26157 0.51070
# Poissons Ratio (y) = 0.24559 0.41864
# Poissons Ratio (z) = 0.42478 0.37086
#
# Static dielectric constant tensor:
#      x y z
#    x 3.015290 0.000000 0.121170 
#    y 0.000000 3.436950 0.000000 
#    z 0.121170 0.000000 3.514370 
# 
# 
# High freq. dielectric constant tensor:
#      x y z
#    x 1.678650 0.000000 0.004210 
#    y 0.000000 1.707990 0.000000 
#    z 0.004210 0.000000 1.713700 
# 
# From -- ./inp_files/275114.got.cif
#   From: 2010.06.25/outbox.cif.g09.slc.cpg/sg12_138_cif.got.tgz:275114.got - 2010.06.28 00:19:55.
