data_PCOD8088992
_publ_section_title
;
Structure prediction by ZEFSAII (Michael W. Deem and Ramdas Pophale) SiO2 
 PCOD8088992
Probable space group: C 2/M
;
_chemical_formula_sum "Si O2"
_cell_formula_units_Z 64
_cell_length_a 26.861792
_cell_length_b 17.664419
_cell_length_c 8.814437
_cell_angle_alpha 90.000000
_cell_angle_beta 130.310196
_cell_angle_gamma 90.000000
_cell_volume 3189.327197
_symmetry_space_group_name_H-M "C 2/M"
_symmetry_group_IT_number 12
_symmetry_cell_setting 'monoclinic'
loop_
_space_group_symop_operation_xyz
x,y,z
-x,y,-z
-x,-y,-z
x,-y,z
1/2+x,1/2+y,z
1/2-x,1/2+y,-z
1/2-x,1/2-y,-z
1/2+x,1/2-y,z
loop_
_atom_site_type_symbol
_atom_site_label
_atom_site_fract_x
_atom_site_fract_y
_atom_site_fract_z
Si Si1 0.751106 0.086005 0.693387
Si Si2 0.006975 0.334458 0.183870
Si Si3 0.754405 0.671949 0.607454
Si Si4 0.993540 0.154104 0.818360
Si Si5 0.623630 0.646019 0.904218
Si Si6 0.627261 0.824496 0.941471
Si Si7 0.130911 0.338865 0.611572
Si Si8 0.133168 0.164395 0.588108
O O1 0.753275 0.101322 0.519073
O O2 0.698615 0.142265 0.664105
O O3 0.730307 0.000000 0.684540
O O4 0.823202 0.101391 0.895271
O O5 0.010730 0.244289 0.182539
O O6 0.069302 0.372091 0.394229
O O7 0.942720 0.356619 0.149179
O O8 0.000000 0.367778 0.000000
O O9 0.750000 0.750000 0.500000
O O10 0.699855 0.664192 0.627745
O O11 0.822022 0.656720 0.826034
O O12 0.924795 0.124005 0.618803
O O13 0.051901 0.124368 0.825536
O O14 0.000000 0.120486 0.000000
O O15 0.632876 0.734859 0.939752
O O16 0.635925 0.621098 0.754475
O O17 0.639032 0.865767 0.802432
O O18 0.115552 0.250558 0.588287
#
# Coordination Sequence:
#
# PCOD8088992 Si02
#       8
#     8   8   8   8   8   8   8   8
#     4  12  25  39  57  81 119 160 192 238 295 355
#     4   9  17  28  52  85 120 148 181 236 298 343
#     4  12  21  35  58  83 114 151 197 248 287 337
#     4   9  17  28  52  85 120 148 181 236 298 343
#     4  10  19  35  55  85 118 149 193 239 294 348
#     4  10  19  32  58  89 114 146 190 250 296 333
#     4  10  19  35  55  85 118 149 193 239 294 348
#     4  10  19  32  58  89 114 146 190 250 296 333
#
# _framework density 20.066928000000001
#
# number of rings (size 3 to 8) (size 9 to 14) (size 15 to 20)
#    0.000    1.750    2.500    3.000    3.500    5.000 
#    0.000    2.500    0.000    9.750    0.000    0.000 
#    0.000    0.000    0.000    0.000    0.000    0.000 
#
# Total GULP energy -396620.930541 kJ/mol
# GULP energy per Si atom -12394.404079 kJ/mol
# Density = 2.002126 g / cm^3
# Si number density = 20.066928 Si / 1000 Ang^3
#
#
#
# Elastic Constant Matrix: (Units=GPa)
#
#
# Indices 1 2 3 4 5 6 
#
# 1 96.5535 8.4791 12.7932 0.0000 -13.2731 0.0000
# 2 8.4791 22.8795 18.2049 0.0000 -2.3525 0.0000
# 3 12.7932 18.2049 110.4277 0.0000 -6.7903 0.0000
# 4 0.0000 0.0000 0.0000 4.5835 0.0000 -1.0019
# 5 -13.2731 -2.3525 -6.7903 0.0000 44.6303 0.0000
# 6 0.0000 0.0000 0.0000 -1.0019 0.0000 4.8922
#
#
#
# Elastic Compliance Matrix: (Units=1/GPa)
#
#
# Indices 1 2 3 4 5 6 
#
# 1 0.011146 -0.003382 -0.000546 0.000000 0.003054 0.000000
# 2 -0.003382 0.051420 -0.008056 0.000000 0.000479 0.000000
# 3 -0.000546 -0.008056 0.010509 0.000000 0.001012 0.000000
# 4 0.000000 0.000000 0.000000 0.228396 0.000000 0.046773
# 5 0.003054 0.000479 0.001012 0.000000 0.023494 0.000000
# 6 0.000000 0.000000 0.000000 0.046773 0.000000 0.213988
#
#
# Mechanical properties :
#
#
# Convention : Reuss Voigt Hill
#
# Bulk Modulus (GPa) = 20.36367 34.31279 27.33823
# Shear Modulus (GPa) = 8.63126 23.51343 16.07235
#
# Velocity S-wave (km/s) = 2.07619 3.42680 2.83315
# Velocity P-wave (km/s) = 3.98965 5.72657 4.93512
#
# Compressibility (1/GPa) = 0.04910706
#
# Stress axis : x y z
#
# Youngs Moduli (GPa) = 89.71765 19.44781 95.15462
#
# Poissons Ratio (x) = 0.06578 0.05195
# Poissons Ratio (y) = 0.30346 0.76653
# Poissons Ratio (z) = 0.04898 0.15667
#
# Static dielectric constant tensor:
#      x y z
#    x 3.758310 0.000000 -0.167450 
#    y 0.000000 2.975100 0.000000 
#    z -0.167450 0.000000 4.086370 
# 
# 
# High freq. dielectric constant tensor:
#      x y z
#    x 1.800160 0.000000 -0.004600 
#    y 0.000000 1.702820 0.000000 
#    z -0.004600 0.000000 1.808870 
# 
# From -- ./inp_files/99126.got.cif
#   From: 2010.06.25/outbox.cif.g09.slc.cpg/sg12_50_cif.got.tgz:99126.got - 2010.06.28 00:19:55.
