data_PCOD8088719
_publ_section_title
;
Structure prediction by ZEFSAII (Michael W. Deem and Ramdas Pophale) SiO2 
 PCOD8088719
Probable space group: C 2/M
;
_chemical_formula_sum "Si O2"
_cell_formula_units_Z 56
_cell_length_a 34.313435
_cell_length_b 8.910344
_cell_length_c 22.164089
_cell_angle_alpha 90.000000
_cell_angle_beta 26.184908
_cell_angle_gamma 90.000000
_cell_volume 2990.284145
_symmetry_space_group_name_H-M "C 2/M"
_symmetry_group_IT_number 12
_symmetry_cell_setting 'monoclinic'
loop_
_space_group_symop_operation_xyz
x,y,z
-x,y,-z
-x,-y,-z
x,-y,z
1/2+x,1/2+y,z
1/2-x,1/2+y,-z
1/2-x,1/2-y,-z
1/2+x,1/2-y,z
loop_
_atom_site_type_symbol
_atom_site_label
_atom_site_fract_x
_atom_site_fract_y
_atom_site_fract_z
Si Si1 0.119994 0.174064 0.687145
Si Si2 0.176309 0.676100 0.397157
Si Si3 0.241537 0.324382 0.606126
Si Si4 0.755038 0.327461 0.827974
Si Si5 0.818308 0.822625 0.858884
Si Si6 0.056549 0.828470 0.130128
Si Si7 0.477413 0.176787 0.698718
O O1 0.150206 0.265131 0.704163
O O2 0.177218 0.224168 0.549634
O O3 0.018256 0.213083 0.814814
O O4 0.134917 0.000000 0.680261
O O5 0.185965 0.500000 0.393000
O O6 0.244265 0.753685 0.348193
O O7 0.201481 0.724485 0.294779
O O8 0.076994 0.730413 0.548261
O O9 0.234552 0.500000 0.623854
O O10 0.778773 0.500000 0.810406
O O11 0.793765 0.220279 0.825192
O O12 0.649955 0.306982 0.967916
O O13 0.916214 0.762703 0.736027
O O14 0.814885 0.000000 0.872195
O O15 0.750000 0.750000 0.000000
O O16 0.051305 0.718452 0.194008
O O17 0.043245 0.000000 0.171263
O O18 0.465920 0.000000 0.705200
#
# Coordination Sequence:
#
# PCOD8088719 Si02
#       7
#     8   8   8   8   8   8   8
#     4   9  18  32  53  83 113 144 189 240 288 336
#     4  10  22  39  58  84 118 155 190 231 286 346
#     4  10  19  32  54  83 114 149 189 237 288 338
#     4  10  22  40  61  84 115 153 191 233 287 342
#     4  12  24  39  60  87 116 148 190 237 286 337
#     4  10  19  35  59  85 111 146 193 241 284 335
#     4  11  22  36  59  86 115 150 190 235 284 337
#
# _framework density 18.727318
#
# number of rings (size 3 to 8) (size 9 to 14) (size 15 to 20)
#    0.000    1.714    2.857    2.143    0.000    2.857 
#    0.000    3.571    0.000    4.286    0.000    0.000 
#    0.000    0.000    0.000    0.000    0.000    0.000 
#
# Total GULP energy -347336.499890 kJ/mol
# GULP energy per Si atom -12404.874996 kJ/mol
# Density = 1.868469 g / cm^3
# Si number density = 18.727318 Si / 1000 Ang^3
#
#
#
# Elastic Constant Matrix: (Units=GPa)
#
#
# Indices 1 2 3 4 5 6 
#
# 1 135.0263 54.8185 44.0868 0.0020 -12.8307 0.0010
# 2 54.8185 78.0518 27.0818 0.0071 -3.7275 0.0045
# 3 44.0868 27.0818 72.1208 -0.0040 -3.9654 0.0022
# 4 0.0020 0.0071 -0.0040 21.5237 0.0039 -2.4411
# 5 -12.8307 -3.7275 -3.9654 0.0039 33.5123 0.0004
# 6 0.0010 0.0045 0.0022 -2.4411 0.0004 38.1974
#
#
#
# Elastic Compliance Matrix: (Units=1/GPa)
#
#
# Indices 1 2 3 4 5 6 
#
# 1 0.011906 -0.006603 -0.004618 0.000000 0.003278 0.000001
# 2 -0.006603 0.018426 -0.002928 -0.000006 -0.000825 -0.000002
# 3 -0.004618 -0.002928 0.017789 0.000005 0.000011 0.000000
# 4 0.000000 -0.000006 0.000005 0.046800 -0.000006 0.002991
# 5 0.003278 -0.000825 0.000011 -0.000006 0.031004 -0.000001
# 6 0.000001 -0.000002 0.000000 0.002991 -0.000001 0.026371
#
#
# Mechanical properties :
#
#
# Convention : Reuss Voigt Hill
#
# Bulk Modulus (GPa) = 50.44885 59.68588 55.06736
# Shear Modulus (GPa) = 26.70906 29.26080 27.98493
#
# Velocity S-wave (km/s) = 3.78061 3.95709 3.86986
# Velocity P-wave (km/s) = 6.78635 7.26762 7.03110
#
# Compressibility (1/GPa) = 0.01982206
#
# Stress axis : x y z
#
# Youngs Moduli (GPa) = 83.99072 54.27068 56.21478
#
# Poissons Ratio (x) = 0.35835 0.25962
# Poissons Ratio (y) = 0.55460 0.16460
# Poissons Ratio (z) = 0.38790 0.15891
#
# Static dielectric constant tensor:
#      x y z
#    x 3.497180 0.000000 -0.189960 
#    y 0.000000 3.393130 0.000010 
#    z -0.189960 0.000010 3.452140 
# 
# 
# High freq. dielectric constant tensor:
#      x y z
#    x 1.732460 0.000000 -0.017080 
#    y 0.000000 1.726790 0.000000 
#    z -0.017080 0.000000 1.715410 
# 
# From -- ./inp_files/329568.got.cif
#   From: 2010.06.25/outbox.cif.g09.slc.cpg/sg12_165_cif.got.tgz:329568.got - 2010.06.28 00:19:55.
