data_PCOD8088949
_publ_section_title
;
Structure prediction by ZEFSAII (Michael W. Deem and Ramdas Pophale) SiO2 
 PCOD8088949
Probable space group: C 2/M
;
_chemical_formula_sum "Si O2"
_cell_formula_units_Z 64
_cell_length_a 31.746839
_cell_length_b 15.594577
_cell_length_c 9.891378
_cell_angle_alpha 90.000000
_cell_angle_beta 38.567307
_cell_angle_gamma 90.000000
_cell_volume 3052.959646
_symmetry_space_group_name_H-M "C 2/M"
_symmetry_group_IT_number 12
_symmetry_cell_setting 'monoclinic'
loop_
_space_group_symop_operation_xyz
x,y,z
-x,y,-z
-x,-y,-z
x,-y,z
1/2+x,1/2+y,z
1/2-x,1/2+y,-z
1/2-x,1/2-y,-z
1/2+x,1/2-y,z
loop_
_atom_site_type_symbol
_atom_site_label
_atom_site_fract_x
_atom_site_fract_y
_atom_site_fract_z
Si Si1 0.787094 0.700206 0.177250
Si Si2 0.585958 0.094472 0.799464
Si Si3 0.959807 0.598310 0.378615
Si Si4 0.068451 0.726580 0.077772
Si Si5 0.684587 0.905904 0.150784
Si Si6 0.704425 0.593340 0.584267
Si Si7 0.553205 0.599069 0.986075
Si Si8 0.228684 0.375370 0.318716
O O1 0.762646 0.649716 0.370885
O O2 0.731717 0.773383 0.299416
O O3 0.862762 0.734724 0.009943
O O4 0.783272 0.648545 0.048685
O O5 0.534110 0.104727 0.802015
O O6 0.658966 0.089532 0.549094
O O7 0.575090 0.000000 0.897282
O O8 0.584269 0.176509 0.899675
O O9 0.974591 0.500000 0.387676
O O10 0.887415 0.630213 0.614949
O O11 0.015449 0.666236 0.294203
O O12 0.038339 0.823225 0.129800
O O13 0.737218 0.910262 0.144335
O O14 0.673436 0.000000 0.118528
O O15 0.716518 0.500000 0.493603
O O16 0.712166 0.593971 0.728132
O O17 0.627920 0.621075 0.741261
O O18 0.551303 0.500000 0.050369
O O19 0.500000 0.606565 0.000000
#
# Coordination Sequence:
#
# PCOD8088949 Si02
#       8
#     8   8   8   8   8   8   8   8
#     4  12  24  36  57  93 125 151 201 251 295 357
#     4  10  19  32  56  89 120 152 193 239 294 360
#     4   9  20  36  56  83 117 160 199 233 288 366
#     4  12  21  34  56  88 123 158 195 245 302 350
#     4  10  23  42  60  85 122 162 200 242 300 366
#     4  11  21  37  62  90 120 155 196 248 306 357
#     4  10  22  39  58  86 120 156 201 254 304 350
#     4  11  20  38  58  82 118 159 199 241 293 356
#
# _framework density 20.963265
#
# number of rings (size 3 to 8) (size 9 to 14) (size 15 to 20)
#    0.000    1.375    2.500    5.250    0.000    4.000 
#    0.000    1.250    0.000    0.000    0.000    3.500 
#    0.000    0.500    0.000    0.000    0.000    0.000 
#
# Total GULP energy -396541.239879 kJ/mol
# GULP energy per Si atom -12391.913746 kJ/mol
# Density = 2.091555 g / cm^3
# Si number density = 20.963265 Si / 1000 Ang^3
#
#
#
# Elastic Constant Matrix: (Units=GPa)
#
#
# Indices 1 2 3 4 5 6 
#
# 1 97.9266 22.7584 26.7419 0.0000 -8.3413 0.0000
# 2 22.7584 126.0040 28.5605 0.0000 -1.0757 0.0000
# 3 26.7419 28.5605 51.5242 0.0000 4.1387 0.0000
# 4 0.0000 0.0000 0.0000 13.5791 0.0000 -26.9438
# 5 -8.3413 -1.0757 4.1387 0.0000 25.8892 0.0000
# 6 0.0000 0.0000 0.0000 -26.9438 0.0000 62.4852
#
#
#
# Elastic Compliance Matrix: (Units=1/GPa)
#
#
# Indices 1 2 3 4 5 6 
#
# 1 0.012602 -0.000752 -0.006531 0.000000 0.005073 0.000000
# 2 -0.000752 0.009158 -0.004758 0.000000 0.000899 0.000000
# 3 -0.006531 -0.004758 0.025954 0.000000 -0.006451 0.000000
# 4 0.000000 0.000000 0.000000 0.509970 0.000000 0.219900
# 5 0.005073 0.000899 -0.006451 0.000000 0.041329 0.000000
# 6 0.000000 0.000000 0.000000 0.219900 0.000000 0.110825
#
#
# Mechanical properties :
#
#
# Convention : Reuss Voigt Hill
#
# Bulk Modulus (GPa) = 42.31780 47.95293 45.13536
# Shear Modulus (GPa) = 6.74037 33.55032 20.14534
#
# Velocity S-wave (km/s) = 1.79508 4.00488 3.10334
# Velocity P-wave (km/s) = 4.95246 6.65656 5.86672
#
# Compressibility (1/GPa) = 0.02363072
#
# Stress axis : x y z
#
# Youngs Moduli (GPa) = 79.35072 109.18992 38.52989
#
# Poissons Ratio (x) = 0.08216 0.25165
# Poissons Ratio (y) = 0.05971 0.18333
# Poissons Ratio (z) = 0.51825 0.51955
#
# Static dielectric constant tensor:
#      x y z
#    x 3.894590 0.000000 -0.166790 
#    y 0.000000 4.046370 0.000000 
#    z -0.166790 0.000000 3.568060 
# 
# 
# High freq. dielectric constant tensor:
#      x y z
#    x 1.819440 0.000000 -0.018080 
#    y 0.000000 1.832330 0.000000 
#    z -0.018080 0.000000 1.791400 
# 
# From -- ./inp_files/111945.got.cif
#   From: 2010.06.25/outbox.cif.g09.slc.cpg/sg12_56_cif.got.tgz:111945.got - 2010.06.28 00:19:55.
