data_PCOD8088280
_publ_section_title
;
Structure prediction by ZEFSAII (Michael W. Deem and Ramdas Pophale) SiO2 
 PCOD8088280
Probable space group: C 2/M
;
_chemical_formula_sum "Si O2"
_cell_formula_units_Z 40
_cell_length_a 16.776022
_cell_length_b 13.563398
_cell_length_c 12.519839
_cell_angle_alpha 90.000000
_cell_angle_beta 132.065108
_cell_angle_gamma 90.000000
_cell_volume 2114.875608
_symmetry_space_group_name_H-M "C 2/M"
_symmetry_group_IT_number 12
_symmetry_cell_setting 'monoclinic'
loop_
_space_group_symop_operation_xyz
x,y,z
-x,y,-z
-x,-y,-z
x,-y,z
1/2+x,1/2+y,z
1/2-x,1/2+y,-z
1/2-x,1/2-y,-z
1/2+x,1/2-y,z
loop_
_atom_site_type_symbol
_atom_site_label
_atom_site_fract_x
_atom_site_fract_y
_atom_site_fract_z
Si Si1 0.934083 0.612051 0.048197
Si Si2 0.094958 0.111064 0.499999
Si Si3 0.735132 0.717442 0.785514
Si Si4 0.449615 0.282559 0.214483
Si Si5 0.885886 0.112051 0.951801
O O1 0.941431 0.500000 0.094652
O O2 0.982965 0.681881 0.184135
O O3 0.810535 0.640354 0.915984
O O4 0.000000 0.630035 0.000000
O O5 0.196757 0.168288 0.640525
O O6 0.000000 0.106184 0.500000
O O7 0.056230 0.168287 0.359471
O O8 0.129904 0.000000 0.499999
O O9 0.634288 0.744175 0.768574
O O10 0.798830 0.818119 0.815862
O O11 0.394548 0.359645 0.084012
O O12 0.846778 0.000000 0.905346
O O13 0.000000 0.130034 0.000000
#
# Coordination Sequence:
#
# PCOD8088280 Si02
#       5
#     8   8   8   8   8
#     4  10  20  34  51  73 103 135 166 204 251 301
#     4   9  18  32  50  75 105 133 165 208 256 302
#     4  10  19  32  53  77  99 128 169 212 251 295
#     4  10  19  32  53  77  99 128 169 212 251 295
#     4  10  20  34  51  73 103 135 166 204 251 301
#
# _framework density 18.913641999999999
#
# number of rings (size 3 to 8) (size 9 to 14) (size 15 to 20)
#    0.000    2.200    0.000    6.000    0.000    4.800 
#    0.000    5.000    0.000    8.400    0.000    0.000 
#    0.000    0.000    0.000    0.000    0.000    0.000 
#
# Total GULP energy -248018.037368 kJ/mol
# GULP energy per Si atom -12400.901868 kJ/mol
# Density = 1.887059 g / cm^3
# Si number density = 18.913642 Si / 1000 Ang^3
#
#
#
# Elastic Constant Matrix: (Units=GPa)
#
#
# Indices 1 2 3 4 5 6 
#
# 1 53.2775 45.3550 13.9973 0.0000 0.1517 0.0000
# 2 45.3550 203.4759 88.0990 0.0000 -0.5207 0.0000
# 3 13.9973 88.0990 133.1629 0.0000 -1.1249 0.0000
# 4 0.0000 0.0000 0.0000 32.0185 0.0000 -0.0296
# 5 0.1517 -0.5207 -1.1249 0.0000 13.4427 0.0000
# 6 0.0000 0.0000 0.0000 -0.0296 0.0000 29.5957
#
#
#
# Elastic Compliance Matrix: (Units=1/GPa)
#
#
# Indices 1 2 3 4 5 6 
#
# 1 0.023348 -0.005804 0.001382 0.000000 -0.000373 0.000000
# 2 -0.005804 0.008330 -0.004901 0.000000 -0.000022 0.000000
# 3 0.001382 -0.004901 0.010613 0.000000 0.000683 0.000000
# 4 0.000000 0.000000 0.000000 0.031232 0.000000 0.000031
# 5 -0.000373 -0.000022 0.000683 0.000000 0.074450 0.000000
# 6 0.000000 0.000000 0.000000 0.000031 0.000000 0.033789
#
#
# Mechanical properties :
#
#
# Convention : Reuss Voigt Hill
#
# Bulk Modulus (GPa) = 42.29100 76.09099 59.19099
# Shear Modulus (GPa) = 24.00498 31.17573 27.59036
#
# Velocity S-wave (km/s) = 3.56643 4.06435 3.82351
# Velocity P-wave (km/s) = 6.27438 7.89578 7.13131
#
# Compressibility (1/GPa) = 0.02364569
#
# Stress axis : x y z
#
# Youngs Moduli (GPa) = 42.82968 120.04277 94.22617
#
# Poissons Ratio (x) = 0.69671 -0.13025
# Poissons Ratio (y) = 0.24858 0.46184
# Poissons Ratio (z) = -0.05921 0.58838
#
# Static dielectric constant tensor:
#      x y z
#    x 3.302370 0.000000 -0.002110 
#    y 0.000000 3.635590 0.000000 
#    z -0.002110 0.000000 3.475740 
# 
# 
# High freq. dielectric constant tensor:
#      x y z
#    x 1.721380 0.000000 0.000030 
#    y 0.000000 1.743600 0.000000 
#    z 0.000030 0.000000 1.719170 
# 
# From -- ./inp_files/142529.got.cif
#   From: 2010.06.25/outbox.cif.g09.slc.cpg/sg12_72_cif.got.tgz:142529.got - 2010.06.28 00:19:55.
