data_PCOD8088997
_publ_section_title
;
Structure prediction by ZEFSAII (Michael W. Deem and Ramdas Pophale) SiO2 
 PCOD8088997
Probable space group: C 2/M
;
_chemical_formula_sum "Si O2"
_cell_formula_units_Z 56
_cell_length_a 11.909008
_cell_length_b 21.461527
_cell_length_c 11.099996
_cell_angle_alpha 90.000000
_cell_angle_beta 101.220376
_cell_angle_gamma 90.000000
_cell_volume 2782.771663
_symmetry_space_group_name_H-M "C 2/M"
_symmetry_group_IT_number 12
_symmetry_cell_setting 'monoclinic'
loop_
_space_group_symop_operation_xyz
x,y,z
-x,y,-z
-x,-y,-z
x,-y,z
1/2+x,1/2+y,z
1/2-x,1/2+y,-z
1/2-x,1/2-y,-z
1/2+x,1/2-y,z
loop_
_atom_site_type_symbol
_atom_site_label
_atom_site_fract_x
_atom_site_fract_y
_atom_site_fract_z
Si Si1 0.618784 0.775447 0.592878
Si Si2 0.275995 0.345929 0.442124
Si Si3 0.354696 0.572421 0.658130
Si Si4 0.642027 0.883177 0.766411
Si Si5 0.461229 0.573014 0.119148
Si Si6 0.295433 0.928588 0.969227
Si Si7 0.395221 0.070307 0.741093
O O1 0.500000 0.782445 0.500000
O O2 0.649137 0.702649 0.621560
O O3 0.714884 0.807160 0.532896
O O4 0.618716 0.811683 0.720921
O O5 0.357250 0.394893 0.528128
O O6 0.186477 0.380993 0.340166
O O7 0.371264 0.500000 0.636898
O O8 0.235978 0.583214 0.703824
O O9 0.460453 0.601009 0.757601
O O10 0.524802 0.921326 0.725239
O O11 0.679694 0.883144 0.913917
O O12 0.487327 0.500000 0.120585
O O13 0.328154 0.587465 0.114637
O O14 0.500000 0.602919 0.000000
O O15 0.388803 0.918759 0.883997
O O16 0.296624 0.000000 0.017379
O O17 0.355413 0.000000 0.701347
#
# Coordination Sequence:
#
# PCOD8088997 Si02
#       7
#     8   8   8   8   8   8   8
#     4  10  21  41  61  79 108 156 210 251 284 333
#     4  10  22  38  58  85 115 152 199 246 294 352
#     4  10  19  32  58  91 119 150 192 245 301 353
#     4  11  20  35  59  88 119 159 200 240 287 357
#     4   9  16  30  51  79 119 158 193 232 280 351
#     4  10  20  34  55  87 126 161 189 232 303 365
#     4  11  22  36  58  92 131 157 183 238 308 368
#
# _framework density 20.123821
#
# number of rings (size 3 to 8) (size 9 to 14) (size 15 to 20)
#    0.000    1.857    2.857    2.143    0.000    2.286 
#    0.000    2.857    0.000    4.286    0.000    0.000 
#    0.000    0.000    0.000    0.000    0.000    0.000 
#
# Total GULP energy -347171.097078 kJ/mol
# GULP energy per Si atom -12398.967753 kJ/mol
# Density = 2.007802 g / cm^3
# Si number density = 20.123821 Si / 1000 Ang^3
#
#
#
# Elastic Constant Matrix: (Units=GPa)
#
#
# Indices 1 2 3 4 5 6 
#
# 1 61.5213 36.8144 34.4012 0.0000 13.2848 0.0000
# 2 36.8144 98.6174 61.4955 0.0000 7.1256 0.0000
# 3 34.4012 61.4955 114.9338 0.0000 22.4877 0.0000
# 4 0.0000 0.0000 0.0000 39.7318 0.0000 49.4324
# 5 13.2848 7.1256 22.4877 0.0000 34.2170 0.0000
# 6 0.0000 0.0000 0.0000 49.4324 0.0000 169.6321
#
#
#
# Elastic Compliance Matrix: (Units=1/GPa)
#
#
# Indices 1 2 3 4 5 6 
#
# 1 0.022762 -0.006834 -0.001958 0.000000 -0.006128 0.000000
# 2 -0.006834 0.017458 -0.008152 0.000000 0.004375 0.000000
# 3 -0.001958 -0.008152 0.015110 0.000000 -0.007473 0.000000
# 4 0.000000 0.000000 0.000000 0.039484 0.000000 -0.011506
# 5 -0.006128 0.004375 -0.007473 0.000000 0.035605 0.000000
# 6 0.000000 0.000000 0.000000 -0.011506 0.000000 0.009248
#
#
# Mechanical properties :
#
#
# Convention : Reuss Voigt Hill
#
# Bulk Modulus (GPa) = 46.63209 60.05496 53.34353
# Shear Modulus (GPa) = 27.67008 58.20695 42.93851
#
# Velocity S-wave (km/s) = 3.71211 5.38398 4.62423
# Velocity P-wave (km/s) = 6.44949 8.27992 7.42135
#
# Compressibility (1/GPa) = 0.02144446
#
# Stress axis : x y z
#
# Youngs Moduli (GPa) = 43.93373 57.27937 66.17990
#
# Poissons Ratio (x) = 0.39142 0.12956
# Poissons Ratio (y) = 0.30022 0.53948
# Poissons Ratio (z) = 0.08601 0.46692
#
# Static dielectric constant tensor:
#      x y z
#    x 3.712300 0.000000 0.081550 
#    y 0.000000 3.694050 0.000000 
#    z 0.081550 0.000000 3.690960 
# 
# 
# High freq. dielectric constant tensor:
#      x y z
#    x 1.792760 0.000000 0.010620 
#    y 0.000000 1.757070 0.000000 
#    z 0.010620 0.000000 1.783410 
# 
# From -- ./inp_files/133956.got.cif
#   From: 2010.06.25/outbox.cif.g09.slc.cpg/sg12_67_cif.got.tgz:133956.got - 2010.06.28 00:19:55.
