data_PCOD8088372
_publ_section_title
;
Structure prediction by ZEFSAII (Michael W. Deem and Ramdas Pophale) SiO2 
 PCOD8088372
Probable space group: C 2/M
;
_chemical_formula_sum "Si O2"
_cell_formula_units_Z 64
_cell_length_a 18.121126
_cell_length_b 17.655944
_cell_length_c 11.377791
_cell_angle_alpha 90.000000
_cell_angle_beta 103.180353
_cell_angle_gamma 90.000000
_cell_volume 3544.378809
_symmetry_space_group_name_H-M "C 2/M"
_symmetry_group_IT_number 12
_symmetry_cell_setting 'monoclinic'
loop_
_space_group_symop_operation_xyz
x,y,z
-x,y,-z
-x,-y,-z
x,-y,z
1/2+x,1/2+y,z
1/2-x,1/2+y,-z
1/2-x,1/2-y,-z
1/2+x,1/2-y,z
loop_
_atom_site_type_symbol
_atom_site_label
_atom_site_fract_x
_atom_site_fract_y
_atom_site_fract_z
Si Si1 0.941371 0.199154 0.696338
Si Si2 0.279263 0.915916 0.403731
Si Si3 0.730757 0.588329 0.126501
Si Si4 0.824519 0.719542 0.083399
Si Si5 0.896871 0.193487 0.309431
Si Si6 0.586966 0.314315 0.052133
Si Si7 0.923421 0.683052 0.506055
Si Si8 0.639042 0.413383 0.507325
O O1 0.901038 0.203707 0.806998
O O2 0.925234 0.283419 0.638471
O O3 0.911491 0.132054 0.603338
O O4 0.030381 0.179133 0.747470
O O5 0.233112 0.898303 0.267877
O O6 0.348865 0.861933 0.451230
O O7 0.225389 0.906575 0.496256
O O8 0.312861 0.000000 0.408643
O O9 0.735669 0.500000 0.094131
O O10 0.806188 0.630434 0.100429
O O11 0.650684 0.621156 0.046112
O O12 0.833849 0.763459 0.210436
O O13 0.750000 0.750000 0.000000
O O14 0.894620 0.738791 0.020298
O O15 0.927666 0.244063 0.425437
O O16 0.864520 0.117793 0.359891
O O17 0.500000 0.341656 0.000000
O O18 0.000000 0.635486 0.500000
O O19 0.610892 0.500000 0.497329
#
# Coordination Sequence:
#
# PCOD8088372 Si02
#       8
#     8   8   8   8   8   8   8   8
#     4  10  20  34  55  82 110 143 184 230 286 335
#     4  10  19  32  53  79 108 142 181 227 278 337
#     4  10  21  38  57  82 116 153 192 232 286 345
#     4  10  21  36  58  82 111 149 196 236 276 332
#     4  10  19  35  53  79 110 143 184 226 280 333
#     4  11  21  36  60  87 114 148 195 243 279 339
#     4   9  19  33  53  77 106 136 178 235 284 331
#     4  10  21  35  54  81 116 150 182 225 282 349
#
# _framework density 18.056760000000001
#
# number of rings (size 3 to 8) (size 9 to 14) (size 15 to 20)
#    0.000    2.000    3.750    1.125    0.000    5.500 
#    0.000    2.500    0.000    1.125    0.000    0.000 
#    0.000    0.000    0.000    0.000    0.000    0.000 
#
# Total GULP energy -396460.661513 kJ/mol
# GULP energy per Si atom -12389.395672 kJ/mol
# Density = 1.801566 g / cm^3
# Si number density = 18.056760 Si / 1000 Ang^3
#
#
#
# Elastic Constant Matrix: (Units=GPa)
#
#
# Indices 1 2 3 4 5 6 
#
# 1 90.9967 54.5648 25.4152 0.0000 4.7440 0.0000
# 2 54.5648 100.4215 34.8470 0.0000 -5.0500 0.0000
# 3 25.4152 34.8470 75.1641 0.0000 -6.2979 0.0000
# 4 0.0000 0.0000 0.0000 17.2336 0.0000 -3.7133
# 5 4.7440 -5.0500 -6.2979 0.0000 30.6967 0.0000
# 6 0.0000 0.0000 0.0000 -3.7133 0.0000 5.4982
#
#
#
# Elastic Compliance Matrix: (Units=1/GPa)
#
#
# Indices 1 2 3 4 5 6 
#
# 1 0.017070 -0.008781 -0.002079 0.000000 -0.004509 0.000000
# 2 -0.008781 0.016405 -0.004372 0.000000 0.003159 0.000000
# 3 -0.002079 -0.004372 0.016281 0.000000 0.002942 0.000000
# 4 0.000000 0.000000 0.000000 0.067909 0.000000 0.045864
# 5 -0.004509 0.003159 0.002942 0.000000 0.034397 0.000000
# 6 0.000000 0.000000 0.000000 0.045864 0.000000 0.212854
#
#
# Mechanical properties :
#
#
# Convention : Reuss Voigt Hill
#
# Bulk Modulus (GPa) = 51.83262 55.13739 53.48500
# Shear Modulus (GPa) = 12.44372 20.80270 16.62321
#
# Velocity S-wave (km/s) = 2.62800 3.39790 3.03745
# Velocity P-wave (km/s) = 6.16249 6.78205 6.47968
#
# Compressibility (1/GPa) = 0.01929287
#
# Stress axis : x y z
#
# Youngs Moduli (GPa) = 58.58124 60.95716 61.42284
#
# Poissons Ratio (x) = 0.53524 0.12770
# Poissons Ratio (y) = 0.51438 0.26853
# Poissons Ratio (z) = 0.12179 0.26650
#
# Static dielectric constant tensor:
#      x y z
#    x 3.630310 0.000000 -0.301620 
#    y 0.000000 3.536960 0.000000 
#    z -0.301620 0.000000 3.032970 
# 
# 
# High freq. dielectric constant tensor:
#      x y z
#    x 1.703320 0.000000 0.000050 
#    y 0.000000 1.673710 0.000000 
#    z 0.000050 0.000000 1.701660 
# 
# From -- ./inp_files/157838.got.cif
#   From: 2010.06.25/outbox.cif.g09.slc.cpg/sg12_79_cif.got.tgz:157838.got - 2010.06.28 00:19:55.
