data_PCOD8088208
_publ_section_title
;
Structure prediction by ZEFSAII (Michael W. Deem and Ramdas Pophale) SiO2 
 PCOD8088208
Probable space group: C 2/M
;
_chemical_formula_sum "Si O2"
_cell_formula_units_Z 48
_cell_length_a 13.350485
_cell_length_b 18.801986
_cell_length_c 12.541802
_cell_angle_alpha 90.000000
_cell_angle_beta 130.140607
_cell_angle_gamma 90.000000
_cell_volume 2406.678873
_symmetry_space_group_name_H-M "C 2/M"
_symmetry_group_IT_number 12
_symmetry_cell_setting 'monoclinic'
loop_
_space_group_symop_operation_xyz
x,y,z
-x,y,-z
-x,-y,-z
x,-y,z
1/2+x,1/2+y,z
1/2-x,1/2+y,-z
1/2-x,1/2-y,-z
1/2+x,1/2-y,z
loop_
_atom_site_type_symbol
_atom_site_label
_atom_site_fract_x
_atom_site_fract_y
_atom_site_fract_z
Si Si1 0.765667 0.162328 0.090255
Si Si2 0.365091 0.920088 0.183760
Si Si3 0.152377 0.338148 0.620913
Si Si4 0.454472 0.271017 0.078745
Si Si5 0.673199 0.919794 0.428304
Si Si6 0.786464 0.311908 0.716861
O O1 0.915895 0.174449 0.148448
O O2 0.764588 0.143308 0.214951
O O3 0.690706 0.103451 0.969163
O O4 0.685720 0.236017 0.040256
O O5 0.308327 0.868219 0.236144
O O6 0.521023 0.917607 0.293055
O O7 0.316180 0.000000 0.172276
O O8 0.204286 0.394047 0.569297
O O9 0.210875 0.260842 0.644787
O O10 0.000000 0.329881 0.500000
O O11 0.558978 0.209641 0.179780
O O12 0.500000 0.310423 0.000000
O O13 0.747392 0.865901 0.401045
O O14 0.727214 0.000000 0.453439
#
# Coordination Sequence:
#
# PCOD8088208 Si02
#       6
#     8   8   8   8   8   8
#     4  10  19  32  52  82 115 142 174 226 280 335
#     4  10  19  34  56  82 115 149 183 228 281 333
#     4  10  21  36  57  83 109 145 196 237 273 319
#     4   9  17  30  51  77 111 140 177 221 274 323
#     4  10  21  36  54  81 115 147 185 231 281 332
#     4  11  21  34  58  85 112 146 185 234 282 333
#
# _framework density 19.944496999999998
#
# number of rings (size 3 to 8) (size 9 to 14) (size 15 to 20)
#    0.000    2.000    1.667    4.000    2.333    2.667 
#    0.000    1.667    0.000    6.000    0.000    0.000 
#    0.000    0.000    0.000    0.000    0.000    0.000 
#
# Total GULP energy -297380.335616 kJ/mol
# GULP energy per Si atom -12390.847317 kJ/mol
# Density = 1.989910 g / cm^3
# Si number density = 19.944497 Si / 1000 Ang^3
#
#
#
# Elastic Constant Matrix: (Units=GPa)
#
#
# Indices 1 2 3 4 5 6 
#
# 1 79.7556 29.6399 48.0128 0.0000 -56.7576 0.0000
# 2 29.6399 127.2241 55.3140 0.0000 -47.0735 0.0000
# 3 48.0128 55.3140 13.4624 0.0000 45.2885 0.0000
# 4 0.0000 0.0000 0.0000 24.0223 0.0000 -2.8784
# 5 -56.7576 -47.0735 45.2885 0.0000 -81.8171 0.0000
# 6 0.0000 0.0000 0.0000 -2.8784 0.0000 25.4093
#
#
#
# Elastic Compliance Matrix: (Units=1/GPa)
#
#
# Indices 1 2 3 4 5 6 
#
# 1 0.010720 -0.004033 -0.001555 0.000000 -0.005977 0.000000
# 2 -0.004033 0.009088 -0.005163 0.000000 -0.005289 0.000000
# 3 -0.001555 -0.005163 0.030543 0.000000 0.020956 0.000000
# 4 0.000000 0.000000 0.000000 0.042201 0.000000 0.004781
# 5 -0.005977 -0.005289 0.020956 0.000000 0.006567 0.000000
# 6 0.000000 0.000000 0.000000 0.004781 0.000000 0.039897
#
#
# Mechanical properties :
#
#
# Convention : Reuss Voigt Hill
#
# Bulk Modulus (GPa) = 34.66376 54.04171 44.35273
# Shear Modulus (GPa) = 29.38859 -0.64540 14.37159
#
# Velocity S-wave (km/s) = 3.84281 -0.56948 2.68727
# Velocity P-wave (km/s) = 6.09159 5.16938 5.64933
#
# Compressibility (1/GPa) = 0.02884857
#
# Stress axis : x y z
#
# Youngs Moduli (GPa) = 93.28598 110.03955 32.74030
#
# Poissons Ratio (x) = 0.44377 0.05091
# Poissons Ratio (y) = 0.37621 0.16905
# Poissons Ratio (z) = 0.14505 0.56818
#
# Static dielectric constant tensor:
#      x y z
#    x 4.069510 0.000000 -0.404420 
#    y 0.000000 3.446950 0.000000 
#    z -0.404420 0.000000 3.538020 
# 
# 
# High freq. dielectric constant tensor:
#      x y z
#    x 1.777370 0.000000 -0.026450 
#    y 0.000000 1.754400 0.000000 
#    z -0.026450 0.000000 1.763420 
# 
# From -- ./inp_files/132999.got.cif
#   From: 2010.06.25/outbox.cif.g09.slc.cpg/sg12_67_cif.got.tgz:132999.got - 2010.06.28 00:19:55.
