data_PCOD8088920
_publ_section_title
;
Structure prediction by ZEFSAII (Michael W. Deem and Ramdas Pophale) SiO2 
 PCOD8088920
Probable space group: C 2/M
;
_chemical_formula_sum "Si O2"
_cell_formula_units_Z 48
_cell_length_a 20.204611
_cell_length_b 9.296983
_cell_length_c 27.018472
_cell_angle_alpha 90.000000
_cell_angle_beta 32.255043
_cell_angle_gamma 90.000000
_cell_volume 2708.579126
_symmetry_space_group_name_H-M "C 2/M"
_symmetry_group_IT_number 12
_symmetry_cell_setting 'monoclinic'
loop_
_space_group_symop_operation_xyz
x,y,z
-x,y,-z
-x,-y,-z
x,-y,z
1/2+x,1/2+y,z
1/2-x,1/2+y,-z
1/2-x,1/2-y,-z
1/2+x,1/2-y,z
loop_
_atom_site_type_symbol
_atom_site_label
_atom_site_fract_x
_atom_site_fract_y
_atom_site_fract_z
Si Si1 0.266289 0.835476 0.759748
Si Si2 0.987714 0.836897 0.950867
Si Si3 0.878880 0.165057 0.775103
Si Si4 0.537765 0.668558 0.421557
Si Si5 0.725591 0.833247 0.965508
Si Si6 0.873948 0.834504 0.432622
O O1 0.120751 0.825466 0.840165
O O2 0.292243 0.765853 0.796749
O O3 0.337505 0.752561 0.671255
O O4 0.311442 0.000000 0.732874
O O5 0.935606 0.000000 0.979389
O O6 0.000000 0.792234 0.000000
O O7 0.898217 0.725284 0.981174
O O8 0.843589 0.189885 0.854619
O O9 0.023548 0.201996 0.674322
O O10 0.854117 0.000000 0.774608
O O11 0.500000 0.719195 0.500000
O O12 0.567610 0.500000 0.400797
O O13 0.429056 0.708157 0.451496
O O14 0.706016 0.000000 0.990033
O O15 0.750000 0.750000 0.000000
O O16 0.750000 0.750000 0.500000
O O17 0.836963 0.000000 0.454945
#
# Coordination Sequence:
#
# PCOD8088920 Si02
#       6
#     8   8   8   8   8   8
#     4  10  19  32  56  85 109 139 179 225 269 315
#     4  10  20  36  57  82 113 143 178 226 272 322
#     4   9  19  36  56  77 106 144 181 219 269 324
#     4   9  19  37  57  76 108 144 176 221 271 319
#     4  11  23  38  57  80 111 148 184 226 274 326
#     4   9  18  34  55  78 102 134 174 217 264 314
#
# _framework density 17.721468999999999
#
# number of rings (size 3 to 8) (size 9 to 14) (size 15 to 20)
#    0.000    2.333    1.667    2.000    0.000    5.333 
#    3.000    0.000    0.000    0.000    0.000    0.000 
#    0.000    0.000    0.000    0.000    0.000    0.000 
#
# Total GULP energy -297616.729367 kJ/mol
# GULP energy per Si atom -12400.697057 kJ/mol
# Density = 1.768113 g / cm^3
# Si number density = 17.721469 Si / 1000 Ang^3
#
#
#
# Elastic Constant Matrix: (Units=GPa)
#
#
# Indices 1 2 3 4 5 6 
#
# 1 104.5568 62.6356 74.2853 -0.0008 8.2523 0.0040
# 2 62.6356 97.1955 63.4533 -0.0009 2.9790 0.0002
# 3 74.2853 63.4533 127.3542 -0.0002 7.7207 -0.0007
# 4 -0.0008 -0.0009 -0.0002 32.0679 0.0001 -3.1577
# 5 8.2523 2.9790 7.7207 0.0001 33.0126 -0.0011
# 6 0.0040 0.0002 -0.0007 -3.1577 -0.0011 33.3205
#
#
#
# Elastic Compliance Matrix: (Units=1/GPa)
#
#
# Indices 1 2 3 4 5 6 
#
# 1 0.019723 -0.007739 -0.007498 0.000000 -0.002478 -0.000003
# 2 -0.007739 0.018291 -0.004683 0.000000 0.001379 0.000001
# 3 -0.007498 -0.004683 0.014627 0.000000 -0.001124 0.000001
# 4 0.000000 0.000000 0.000000 0.031478 0.000000 0.002983
# 5 -0.002478 0.001379 -0.001124 0.000000 0.031049 0.000001
# 6 -0.000003 0.000001 0.000001 0.002983 0.000001 0.030294
#
#
# Mechanical properties :
#
#
# Convention : Reuss Voigt Hill
#
# Bulk Modulus (GPa) = 78.11932 81.09501 79.60717
# Shear Modulus (GPa) = 26.37558 28.26235 27.31897
#
# Velocity S-wave (km/s) = 3.86209 3.99784 3.93055
# Velocity P-wave (km/s) = 8.00407 8.19576 8.10048
#
# Compressibility (1/GPa) = 0.01280093
#
# Stress axis : x y z
#
# Youngs Moduli (GPa) = 50.70120 54.67306 68.36634
#
# Poissons Ratio (x) = 0.42312 0.51264
# Poissons Ratio (y) = 0.39238 0.32013
# Poissons Ratio (z) = 0.38018 0.25601
#
# Static dielectric constant tensor:
#      x y z
#    x 3.658890 0.000000 0.169930 
#    y 0.000000 3.345970 0.000000 
#    z 0.169930 0.000000 3.490380 
# 
# 
# High freq. dielectric constant tensor:
#      x y z
#    x 1.663850 0.000000 0.003500 
#    y 0.000000 1.692160 0.000000 
#    z 0.003500 0.000000 1.695270 
# 
# From -- ./inp_files/345394.got.cif
#   From: 2010.06.25/outbox.cif.g09.slc.cpg/sg12_173_cif.got.tgz:345394.got - 2010.06.28 00:19:55.
