data_PCOD8088679
_publ_section_title
;
Structure prediction by ZEFSAII (Michael W. Deem and Ramdas Pophale) SiO2 
 PCOD8088679
Probable space group: C 2/M
;
_chemical_formula_sum "Si O2"
_cell_formula_units_Z 64
_cell_length_a 24.876164
_cell_length_b 9.078670
_cell_length_c 15.111270
_cell_angle_alpha 90.000000
_cell_angle_beta 74.402192
_cell_angle_gamma 90.000000
_cell_volume 3287.084292
_symmetry_space_group_name_H-M "C 2/M"
_symmetry_group_IT_number 12
_symmetry_cell_setting 'monoclinic'
loop_
_space_group_symop_operation_xyz
x,y,z
-x,y,-z
-x,-y,-z
x,-y,z
1/2+x,1/2+y,z
1/2-x,1/2+y,-z
1/2-x,1/2-y,-z
1/2+x,1/2-y,z
loop_
_atom_site_type_symbol
_atom_site_label
_atom_site_fract_x
_atom_site_fract_y
_atom_site_fract_z
Si Si1 0.498503 0.667065 0.166351
Si Si2 0.598795 0.172407 0.565006
Si Si3 0.687072 0.675028 0.864588
Si Si4 0.612628 0.173498 0.761285
Si Si5 0.369730 0.672079 0.612739
Si Si6 0.617313 0.674182 0.064517
Si Si7 0.488300 0.334257 0.633065
Si Si8 0.196480 0.174370 0.186264
O O1 0.483560 0.500000 0.143214
O O2 0.445274 0.769099 0.170677
O O3 0.552975 0.730540 0.091021
O O4 0.515343 0.671678 0.260574
O O5 0.617124 0.216295 0.655964
O O6 0.641520 0.243481 0.474918
O O7 0.536814 0.232103 0.572891
O O8 0.598844 0.000000 0.551736
O O9 0.689212 0.500000 0.853969
O O10 0.664423 0.746712 0.784571
O O11 0.747812 0.736567 0.858698
O O12 0.647219 0.726839 0.962106
O O13 0.616421 0.000000 0.774632
O O14 0.367933 0.500000 0.594075
O O15 0.429604 0.722972 0.622843
O O16 0.323494 0.714576 0.705865
O O17 0.614985 0.500000 0.072736
O O18 0.651021 0.731587 0.135348
O O19 0.500992 0.500000 0.595262
O O20 0.207194 0.000000 0.171599
#
# Coordination Sequence:
#
# PCOD8088679 Si02
#       8
#     8   8   8   8   8   8   8   8
#     4   9  16  32  58  84 111 145 181 223 269 322
#     4  10  21  34  51  77 110 145 180 223 274 322
#     4  11  23  38  58  83 108 144 190 233 273 320
#     4  10  22  40  56  76 111 151 188 227 274 326
#     4  10  19  32  54  82 109 142 182 219 264 326
#     4   9  18  35  60  87 114 142 179 223 274 332
#     4   9  16  29  51  79 110 144 180 215 260 325
#     4  10  20  38  60  83 114 147 179 222 275 329
#
# _framework density 19.470144000000001
#
# number of rings (size 3 to 8) (size 9 to 14) (size 15 to 20)
#    0.000    2.250    1.250    1.875    0.000    4.500 
#    0.000    5.625    0.000    0.000    0.000    0.000 
#    0.000    0.000    0.000    0.000    0.000    0.000 
#
# Total GULP energy -396800.619647 kJ/mol
# GULP energy per Si atom -12400.019364 kJ/mol
# Density = 1.942583 g / cm^3
# Si number density = 19.470144 Si / 1000 Ang^3
#
#
#
# Elastic Constant Matrix: (Units=GPa)
#
#
# Indices 1 2 3 4 5 6 
#
# 1 48.7856 16.8382 8.9070 0.0000 8.5336 0.0000
# 2 16.8382 55.0602 29.4466 0.0000 2.4995 0.0000
# 3 8.9070 29.4466 76.7319 0.0000 -7.0242 0.0000
# 4 0.0000 0.0000 0.0000 22.7143 0.0000 -3.8550
# 5 8.5336 2.4995 -7.0242 0.0000 16.8130 0.0000
# 6 0.0000 0.0000 0.0000 -3.8550 0.0000 29.1196
#
#
#
# Elastic Compliance Matrix: (Units=1/GPa)
#
#
# Indices 1 2 3 4 5 6 
#
# 1 0.025145 -0.006223 -0.001679 0.000000 -0.012539 0.000000
# 2 -0.006223 0.025298 -0.009401 0.000000 -0.004530 0.000000
# 3 -0.001679 -0.009401 0.017718 0.000000 0.009652 0.000000
# 4 0.000000 0.000000 0.000000 0.045037 0.000000 0.005962
# 5 -0.012539 -0.004530 0.009652 0.000000 0.070548 0.000000
# 6 0.000000 0.000000 0.000000 0.005962 0.000000 0.035130
#
#
# Mechanical properties :
#
#
# Convention : Reuss Voigt Hill
#
# Bulk Modulus (GPa) = 29.79952 32.32903 31.06427
# Shear Modulus (GPa) = 18.89158 22.08844 20.49001
#
# Velocity S-wave (km/s) = 3.11832 3.37185 3.24756
# Velocity P-wave (km/s) = 5.32012 5.63912 5.48194
#
# Compressibility (1/GPa) = 0.03355759
#
# Stress axis : x y z
#
# Youngs Moduli (GPa) = 39.76862 39.52842 56.43829
#
# Poissons Ratio (x) = 0.24598 0.09474
# Poissons Ratio (y) = 0.24747 0.53056
# Poissons Ratio (z) = 0.06676 0.37160
#
# Static dielectric constant tensor:
#      x y z
#    x 3.453260 0.000000 -0.062480 
#    y 0.000000 3.341180 0.000000 
#    z -0.062480 0.000000 3.787020 
# 
# 
# High freq. dielectric constant tensor:
#      x y z
#    x 1.745220 0.000000 -0.000100 
#    y 0.000000 1.736800 0.000000 
#    z -0.000100 0.000000 1.770130 
# 
# From -- ./inp_files/243893.got.cif
#   From: 2010.06.25/outbox.cif.g09.slc.cpg/sg12_122_cif.got.tgz:243893.got - 2010.06.28 00:19:55.
