data_PCOD8088491
_publ_section_title
;
Structure prediction by ZEFSAII (Michael W. Deem and Ramdas Pophale) SiO2 
 PCOD8088491
Probable space group: C 2/M
;
_chemical_formula_sum "Si O2"
_cell_formula_units_Z 64
_cell_length_a 20.048800
_cell_length_b 8.656139
_cell_length_c 24.533582
_cell_angle_alpha 90.000000
_cell_angle_beta 125.757558
_cell_angle_gamma 90.000000
_cell_volume 3455.098514
_symmetry_space_group_name_H-M "C 2/M"
_symmetry_group_IT_number 12
_symmetry_cell_setting 'monoclinic'
loop_
_space_group_symop_operation_xyz
x,y,z
-x,y,-z
-x,-y,-z
x,-y,z
1/2+x,1/2+y,z
1/2-x,1/2+y,-z
1/2-x,1/2-y,-z
1/2+x,1/2-y,z
loop_
_atom_site_type_symbol
_atom_site_label
_atom_site_fract_x
_atom_site_fract_y
_atom_site_fract_z
Si Si1 0.706584 0.817612 0.426951
Si Si2 0.025320 0.683422 0.320898
Si Si3 0.865457 0.317530 0.298898
Si Si4 0.276758 0.316748 0.848379
Si Si5 0.958291 0.678276 0.172904
Si Si6 0.783610 0.818511 0.071435
Si Si7 0.750043 0.817879 0.663340
Si Si8 0.377421 0.178748 0.805747
O O1 0.750000 0.750000 0.500000
O O2 0.614120 0.748093 0.379091
O O3 0.756247 0.768523 0.396971
O O4 0.705621 0.000000 0.431077
O O5 0.031191 0.500000 0.325028
O O6 0.957225 0.746641 0.331533
O O7 0.999458 0.737568 0.248436
O O8 0.866886 0.500000 0.295257
O O9 0.804202 0.258201 0.222454
O O10 0.831713 0.267562 0.341955
O O11 0.285380 0.500000 0.852973
O O12 0.271284 0.253975 0.906719
O O13 0.355861 0.246206 0.854998
O O14 0.930124 0.500000 0.165187
O O15 0.879574 0.780657 0.122552
O O16 0.024973 0.699035 0.156662
O O17 0.770600 0.000000 0.065722
O O18 0.750000 0.750000 0.000000
O O19 0.830168 0.769916 0.735572
O O20 0.752850 0.000000 0.654669
O O21 0.351946 0.000000 0.789364
#
# Coordination Sequence:
#
# PCOD8088491 Si02
#       8
#     8   8   8   8   8   8   8   8
#     4  11  22  37  56  79 110 151 188 232 287 346
#     4   9  16  32  57  82 107 142 187 230 279 333
#     4   8  15  29  54  82 106 136 181 229 272 323
#     4  10  19  35  58  84 116 151 188 235 286 339
#     4  10  19  36  60  85 115 150 190 236 283 338
#     4  12  25  40  59  85 117 154 192 235 286 345
#     4  10  19  32  53  82 112 145 185 233 284 338
#     4  10  19  33  56  87 119 151 188 234 285 337
#
# _framework density 18.523351000000002
#
# number of rings (size 3 to 8) (size 9 to 14) (size 15 to 20)
#    0.000    2.000    2.500    3.375    0.000    1.000 
#    0.000    1.250    0.000    7.500    0.000    0.000 
#    0.000    0.000    0.000    0.000    0.000    0.000 
#
# Total GULP energy -396765.714575 kJ/mol
# GULP energy per Si atom -12398.928580 kJ/mol
# Density = 1.848119 g / cm^3
# Si number density = 18.523351 Si / 1000 Ang^3
#
#
#
# Elastic Constant Matrix: (Units=GPa)
#
#
# Indices 1 2 3 4 5 6 
#
# 1 141.8097 35.3014 54.9978 0.0000 -14.7042 0.0000
# 2 35.3014 59.9945 23.2096 0.0000 -1.4244 0.0000
# 3 54.9978 23.2096 96.8644 0.0000 -11.1157 0.0000
# 4 0.0000 0.0000 0.0000 28.3999 0.0000 -4.0721
# 5 -14.7042 -1.4244 -11.1157 0.0000 29.2881 0.0000
# 6 0.0000 0.0000 0.0000 -4.0721 0.0000 30.0225
#
#
#
# Elastic Compliance Matrix: (Units=1/GPa)
#
#
# Indices 1 2 3 4 5 6 
#
# 1 0.010125 -0.004188 -0.004376 0.000000 0.003219 0.000000
# 2 -0.004188 0.020122 -0.002689 0.000000 -0.002145 0.000000
# 3 -0.004376 -0.002689 0.013786 0.000000 0.002904 0.000000
# 4 0.000000 0.000000 0.000000 0.035910 0.000000 0.004871
# 5 0.003219 -0.002145 0.002904 0.000000 0.036758 0.000000
# 6 0.000000 0.000000 0.000000 0.004871 0.000000 0.033969
#
#
# Mechanical properties :
#
#
# Convention : Reuss Voigt Hill
#
# Bulk Modulus (GPa) = 46.45604 58.40958 52.43281
# Shear Modulus (GPa) = 27.72341 29.88609 28.80475
#
# Velocity S-wave (km/s) = 3.87288 4.02111 3.94769
# Velocity P-wave (km/s) = 6.71812 7.29112 7.01048
#
# Compressibility (1/GPa) = 0.02152572
#
# Stress axis : x y z
#
# Youngs Moduli (GPa) = 98.76303 49.69618 72.53733
#
# Poissons Ratio (x) = 0.20815 0.31742
# Poissons Ratio (y) = 0.41367 0.19509
# Poissons Ratio (z) = 0.43218 0.13366
#
# Static dielectric constant tensor:
#      x y z
#    x 6.873450 0.000000 1.293720 
#    y 0.000000 3.278710 0.000000 
#    z 1.293720 0.000000 3.795190 
# 
# 
# High freq. dielectric constant tensor:
#      x y z
#    x 1.738540 0.000000 -0.009130 
#    y 0.000000 1.706170 0.000000 
#    z -0.009130 0.000000 1.688940 
# 
# From -- ./inp_files/346232.got.cif
#   From: 2010.06.25/outbox.cif.g09.slc.cpg/sg12_174_cif.got.tgz:346232.got - 2010.06.28 00:19:55.
