data_PCOD8088464
_publ_section_title
;
Structure prediction by ZEFSAII (Michael W. Deem and Ramdas Pophale) SiO2 
 PCOD8088464
Probable space group: C 2/M
;
_chemical_formula_sum "Si O2"
_cell_formula_units_Z 40
_cell_length_a 20.615528
_cell_length_b 8.575237
_cell_length_c 12.603134
_cell_angle_alpha 90.000000
_cell_angle_beta 104.499651
_cell_angle_gamma 90.000000
_cell_volume 2157.056016
_symmetry_space_group_name_H-M "C 2/M"
_symmetry_group_IT_number 12
_symmetry_cell_setting 'monoclinic'
loop_
_space_group_symop_operation_xyz
x,y,z
-x,y,-z
-x,-y,-z
x,-y,z
1/2+x,1/2+y,z
1/2-x,1/2+y,-z
1/2-x,1/2-y,-z
1/2+x,1/2-y,z
loop_
_atom_site_type_symbol
_atom_site_label
_atom_site_fract_x
_atom_site_fract_y
_atom_site_fract_z
Si Si1 0.544074 0.183279 0.779879
Si Si2 0.071545 0.183094 0.574890
Si Si3 0.920829 0.327961 0.982000
Si Si4 0.323176 0.182947 0.544762
Si Si5 0.599576 0.319867 0.238677
O O1 0.584634 0.229228 0.691442
O O2 0.590700 0.228010 0.900949
O O3 0.474922 0.278040 0.754009
O O4 0.527001 0.000000 0.775764
O O5 0.128778 0.230906 0.517681
O O6 0.000000 0.236932 0.500000
O O7 0.073785 0.000000 0.596103
O O8 0.890015 0.500000 0.951059
O O9 0.888899 0.212561 0.882068
O O10 0.000000 0.334653 0.000000
O O11 0.250000 0.250000 0.500000
O O12 0.347334 0.218347 0.673943
O O13 0.324180 0.000000 0.523165
O O14 0.612740 0.500000 0.267807
#
# Coordination Sequence:
#
# PCOD8088464 Si02
#       5
#     8   8   8   8   8
#     4  10  19  32  53  81 112 147 186 229 279 329
#     4  11  22  36  57  85 116 147 186 233 280 333
#     4   8  16  30  48  75 109 144 183 226 275 328
#     4  12  25  41  60  81 112 150 190 231 280 336
#     4  11  20  32  52  80 112 146 186 229 278 331
#
# _framework density 18.543793999999998
#
# number of rings (size 3 to 8) (size 9 to 14) (size 15 to 20)
#    0.000    1.600    2.000    6.000    0.000    5.200 
#    0.000    0.000    0.000    1.200    0.000    0.000 
#    0.000    0.000    0.000    0.000    0.000    0.000 
#
# Total GULP energy -248002.027377 kJ/mol
# GULP energy per Si atom -12400.101369 kJ/mol
# Density = 1.850159 g / cm^3
# Si number density = 18.543794 Si / 1000 Ang^3
#
#
#
# Elastic Constant Matrix: (Units=GPa)
#
#
# Indices 1 2 3 4 5 6 
#
# 1 73.4218 9.6414 38.1293 0.0000 -0.8252 0.0000
# 2 9.6414 57.9391 24.1126 0.0000 -3.8596 0.0000
# 3 38.1293 24.1126 145.0002 0.0000 -10.8108 0.0000
# 4 0.0000 0.0000 0.0000 33.0517 0.0000 -1.8274
# 5 -0.8252 -3.8596 -10.8108 0.0000 19.5769 0.0000
# 6 0.0000 0.0000 0.0000 -1.8274 0.0000 23.9306
#
#
#
# Elastic Compliance Matrix: (Units=1/GPa)
#
#
# Indices 1 2 3 4 5 6 
#
# 1 0.015886 -0.001042 -0.004140 0.000000 -0.001822 0.000000
# 2 -0.001042 0.018689 -0.002673 0.000000 0.002165 0.000000
# 3 -0.004140 -0.002673 0.008737 0.000000 0.004123 0.000000
# 4 0.000000 0.000000 0.000000 0.030384 0.000000 0.002320
# 5 -0.001822 0.002165 0.004123 0.000000 0.053708 0.000000
# 6 0.000000 0.000000 0.000000 0.002320 0.000000 0.041965
#
#
# Mechanical properties :
#
#
# Convention : Reuss Voigt Hill
#
# Bulk Modulus (GPa) = 36.22711 46.68086 41.45398
# Shear Modulus (GPa) = 25.73616 28.94370 27.33993
#
# Velocity S-wave (km/s) = 3.72944 3.95502 3.84388
# Velocity P-wave (km/s) = 6.17441 6.78853 6.48874
#
# Compressibility (1/GPa) = 0.02760364
#
# Stress axis : x y z
#
# Youngs Moduli (GPa) = 62.94745 53.50643 114.45507
#
# Poissons Ratio (x) = 0.05575 0.47385
# Poissons Ratio (y) = 0.06559 0.30588
# Poissons Ratio (z) = 0.26060 0.14300
#
# Static dielectric constant tensor:
#      x y z
#    x 2.539320 0.000000 -0.378230 
#    y 0.000000 3.440510 0.000000 
#    z -0.378230 0.000000 3.747610 
# 
# 
# High freq. dielectric constant tensor:
#      x y z
#    x 1.661270 0.000000 -0.008180 
#    y 0.000000 1.730190 0.000000 
#    z -0.008180 0.000000 1.743780 
# 
# From -- ./inp_files/151965.got.cif
#   From: 2010.06.25/outbox.cif.g09.slc.cpg/sg12_76_cif.got.tgz:151965.got - 2010.06.28 00:19:55.
