data_PCOD8088824
_publ_section_title
;
Structure prediction by ZEFSAII (Michael W. Deem and Ramdas Pophale) SiO2 
 PCOD8088824
Probable space group: C 2/M
;
_chemical_formula_sum "Si O2"
_cell_formula_units_Z 52
_cell_length_a 8.796684
_cell_length_b 19.895811
_cell_length_c 17.517168
_cell_angle_alpha 90.000000
_cell_angle_beta 126.632128
_cell_angle_gamma 90.000000
_cell_volume 2460.256490
_symmetry_space_group_name_H-M "C 2/M"
_symmetry_group_IT_number 12
_symmetry_cell_setting 'monoclinic'
loop_
_space_group_symop_operation_xyz
x,y,z
-x,y,-z
-x,-y,-z
x,-y,z
1/2+x,1/2+y,z
1/2-x,1/2+y,-z
1/2-x,1/2-y,-z
1/2+x,1/2-y,z
loop_
_atom_site_type_symbol
_atom_site_label
_atom_site_fract_x
_atom_site_fract_y
_atom_site_fract_z
Si Si1 0.000000 0.360152 0.000000
Si Si2 0.000507 0.423335 0.164475
Si Si3 0.599413 0.350410 0.458948
Si Si4 0.898017 0.811360 0.148841
Si Si5 0.924475 0.076850 0.277068
Si Si6 0.291216 0.182695 0.203746
Si Si7 0.005713 0.701222 0.413690
O O1 0.187816 0.313641 0.049560
O O2 0.995821 0.406126 0.073529
O O3 0.936047 0.500000 0.155892
O O4 0.854832 0.379935 0.171142
O O5 0.218976 0.412683 0.256091
O O6 0.500000 0.386979 0.500000
O O7 0.591041 0.400696 0.384957
O O8 0.799941 0.331285 0.555407
O O9 0.495653 0.281514 0.402677
O O10 0.939318 0.880405 0.204892
O O11 0.905159 0.747317 0.206912
O O12 0.063017 0.805642 0.133688
O O13 0.957268 0.000000 0.263220
O O14 0.344322 0.171577 0.309415
O O15 0.000000 0.678140 0.500000
#
# Coordination Sequence:
#
# PCOD8088824 Si02
#       7
#     4   8   8   8   8   8   8
#     4  10  23  46  68  94 127 158 210 268 315 398
#     4  10  23  42  67  95 128 169 208 260 322 383
#     4  10  19  32  55  83 119 159 211 253 305 364
#     4  11  24  40  65  94 123 166 211 260 331 369
#     4  10  20  38  61  89 126 166 212 261 316 376
#     4  12  24  40  66  92 131 165 213 268 312 385
#     4  10  21  34  57  87 123 164 210 259 305 366
#
# _framework density 21.136009000000001
#
# number of rings (size 3 to 8) (size 9 to 14) (size 15 to 20)
#    0.000    1.538    1.538    3.923    4.308    4.615 
#    0.000    1.538    0.000    1.846    0.000    0.000 
#    0.000    0.000    0.000    0.000    0.000    0.000 
#
# Total GULP energy -322287.433901 kJ/mol
# GULP energy per Si atom -12395.670535 kJ/mol
# Density = 2.108790 g / cm^3
# Si number density = 21.136009 Si / 1000 Ang^3
#
#
#
# Elastic Constant Matrix: (Units=GPa)
#
#
# Indices 1 2 3 4 5 6 
#
# 1 108.0298 50.0630 18.2738 0.0000 6.7984 0.0000
# 2 50.0630 104.7425 30.2596 0.0000 -10.6399 0.0000
# 3 18.2738 30.2596 87.3593 0.0000 1.5721 0.0000
# 4 0.0000 0.0000 0.0000 11.8100 0.0000 1.8053
# 5 6.7984 -10.6399 1.5721 0.0000 21.8316 0.0000
# 6 0.0000 0.0000 0.0000 1.8053 0.0000 27.8641
#
#
#
# Elastic Compliance Matrix: (Units=1/GPa)
#
#
# Indices 1 2 3 4 5 6 
#
# 1 0.012940 -0.006878 -0.000192 0.000000 -0.007368 0.000000
# 2 -0.006878 0.014952 -0.003915 0.000000 0.009711 0.000000
# 3 -0.000192 -0.003915 0.012893 0.000000 -0.002777 0.000000
# 4 0.000000 0.000000 0.000000 0.085521 0.000000 -0.005541
# 5 -0.007368 0.009711 -0.002777 0.000000 0.053032 0.000000
# 6 0.000000 0.000000 0.000000 -0.005541 0.000000 0.036248
#
#
# Mechanical properties :
#
#
# Convention : Reuss Voigt Hill
#
# Bulk Modulus (GPa) = 53.14729 55.25828 54.20279
# Shear Modulus (GPa) = 20.50624 25.73680 23.12152
#
# Velocity S-wave (km/s) = 3.11819 3.49331 3.31106
# Velocity P-wave (km/s) = 6.17771 6.51704 6.34964
#
# Compressibility (1/GPa) = 0.01881563
#
# Stress axis : x y z
#
# Youngs Moduli (GPa) = 77.27868 66.88003 77.56009
#
# Poissons Ratio (x) = 0.46000 0.01488
# Poissons Ratio (y) = 0.53152 0.30366
# Poissons Ratio (z) = 0.01483 0.26185
#
# Static dielectric constant tensor:
#      x y z
#    x 3.929360 0.000000 0.280740 
#    y 0.000000 3.587370 0.000000 
#    z 0.280740 0.000000 4.013650 
# 
# 
# High freq. dielectric constant tensor:
#      x y z
#    x 1.826560 0.000000 0.002350 
#    y 0.000000 1.807830 0.000000 
#    z 0.002350 0.000000 1.829120 
# 
# From -- ./inp_files/301171.got.cif
#   From: 2010.06.25/outbox.cif.g09.slc.cpg/sg12_151_cif.got.tgz:301171.got - 2010.06.28 00:19:55.
