data_PCOD8088555
_publ_section_title
;
Structure prediction by ZEFSAII (Michael W. Deem and Ramdas Pophale) SiO2 
 PCOD8088555
Probable space group: C 2/M
;
_chemical_formula_sum "Si O2"
_cell_formula_units_Z 56
_cell_length_a 14.969142
_cell_length_b 9.167091
_cell_length_c 22.521858
_cell_angle_alpha 90.000000
_cell_angle_beta 72.830994
_cell_angle_gamma 90.000000
_cell_volume 2952.808354
_symmetry_space_group_name_H-M "C 2/M"
_symmetry_group_IT_number 12
_symmetry_cell_setting 'monoclinic'
loop_
_space_group_symop_operation_xyz
x,y,z
-x,y,-z
-x,-y,-z
x,-y,z
1/2+x,1/2+y,z
1/2-x,1/2+y,-z
1/2-x,1/2-y,-z
1/2+x,1/2-y,z
loop_
_atom_site_type_symbol
_atom_site_label
_atom_site_fract_x
_atom_site_fract_y
_atom_site_fract_z
Si Si1 0.152611 0.326933 0.500479
Si Si2 0.041437 0.673061 0.407121
Si Si3 0.880739 0.673140 0.731153
Si Si4 0.117984 0.832895 0.067414
Si Si5 0.796379 0.164734 0.069632
Si Si6 0.675246 0.667361 0.800776
Si Si7 0.001803 0.672048 0.180721
O O1 0.169707 0.500000 0.500305
O O2 0.250000 0.250000 0.500000
O O3 0.117344 0.277061 0.441840
O O4 0.065970 0.277661 0.559931
O O5 0.042413 0.500000 0.406732
O O6 0.073731 0.739120 0.337581
O O7 0.887127 0.500000 0.728511
O O8 0.774360 0.724604 0.757880
O O9 0.933293 0.730986 0.779029
O O10 0.216079 0.782220 0.075516
O O11 0.034970 0.738136 0.111449
O O12 0.100751 0.000000 0.088457
O O13 0.121499 0.813002 0.995207
O O14 0.838259 0.187235 0.126192
O O15 0.754290 0.000000 0.072189
O O16 0.659223 0.500000 0.785464
O O17 0.600871 0.770433 0.783388
O O18 0.002050 0.500000 0.175445
#
# Coordination Sequence:
#
# PCOD8088555 Si02
#       7
#     8   8   8   8   8   8   8
#     4   9  17  31  54  82 111 137 173 215 253 302
#     4   8  16  32  53  77 104 144 181 205 248 313
#     4   9  18  35  56  73 102 143 179 213 255 309
#     4  10  19  32  54  78 101 132 171 218 267 320
#     4   9  18  34  54  76 102 133 171 214 269 322
#     4  10  20  36  55  75 100 135 176 216 262 317
#     4  11  22  36  53  76 104 136 176 220 265 315
#
# _framework density 18.964997
#
# number of rings (size 3 to 8) (size 9 to 14) (size 15 to 20)
#    0.000    2.571    1.429    1.714    0.000    2.857 
#    0.000    4.286    0.000    3.429    0.000    0.000 
#    0.000    0.000    0.000    0.000    0.000    0.000 
#
# Total GULP energy -347062.963549 kJ/mol
# GULP energy per Si atom -12395.105841 kJ/mol
# Density = 1.892183 g / cm^3
# Si number density = 18.964997 Si / 1000 Ang^3
#
#
#
# Elastic Constant Matrix: (Units=GPa)
#
#
# Indices 1 2 3 4 5 6 
#
# 1 117.2134 39.5624 56.2456 0.0000 -29.1387 0.0000
# 2 39.5624 57.5113 35.5203 0.0000 -7.5458 0.0000
# 3 56.2456 35.5203 136.3310 0.0000 -17.0643 0.0000
# 4 0.0000 0.0000 0.0000 15.7880 0.0000 -5.3992
# 5 -29.1387 -7.5458 -17.0643 0.0000 17.3246 0.0000
# 6 0.0000 0.0000 0.0000 -5.3992 0.0000 33.6149
#
#
#
# Elastic Compliance Matrix: (Units=1/GPa)
#
#
# Indices 1 2 3 4 5 6 
#
# 1 0.018825 -0.008063 -0.002444 0.000000 0.025744 0.000000
# 2 -0.008063 0.024451 -0.003888 0.000000 -0.006741 0.000000
# 3 -0.002444 -0.003888 0.009843 0.000000 0.003892 0.000000
# 4 0.000000 0.000000 0.000000 0.067021 0.000000 0.010765
# 5 0.025744 -0.006741 0.003892 0.000000 0.101918 0.000000
# 6 0.000000 0.000000 0.000000 0.010765 0.000000 0.031478
#
#
# Mechanical properties :
#
#
# Convention : Reuss Voigt Hill
#
# Bulk Modulus (GPa) = 41.09992 63.74581 52.42287
# Shear Modulus (GPa) = 17.21549 25.32734 21.27141
#
# Velocity S-wave (km/s) = 3.01616 3.65838 3.35268
# Velocity P-wave (km/s) = 5.81791 7.17846 6.53370
#
# Compressibility (1/GPa) = 0.02433094
#
# Stress axis : x y z
#
# Youngs Moduli (GPa) = 53.11977 40.89766 101.59136
#
# Poissons Ratio (x) = 0.32976 0.24825
# Poissons Ratio (y) = 0.42831 0.39497
# Poissons Ratio (z) = 0.12980 0.15900
#
# Static dielectric constant tensor:
#      x y z
#    x 3.379080 0.000000 -0.025390 
#    y 0.000000 3.168400 0.000000 
#    z -0.025390 0.000000 3.868010 
# 
# 
# High freq. dielectric constant tensor:
#      x y z
#    x 1.732710 0.000000 -0.007110 
#    y 0.000000 1.704760 0.000000 
#    z -0.007110 0.000000 1.741930 
# 
# From -- ./inp_files/338154.got.cif
#   From: 2010.06.25/outbox.cif.g09.slc.cpg/sg12_170_cif.got.tgz:338154.got - 2010.06.28 00:19:55.
