data_PCOD8088011
_publ_section_title
;
Structure prediction by ZEFSAII (Michael W. Deem and Ramdas Pophale) SiO2 
 PCOD8088011
Probable space group: C 2/M
;
_chemical_formula_sum "Si O2"
_cell_formula_units_Z 64
_cell_length_a 20.226987
_cell_length_b 9.432852
_cell_length_c 20.051547
_cell_angle_alpha 90.000000
_cell_angle_beta 111.692697
_cell_angle_gamma 90.000000
_cell_volume 3554.854338
_symmetry_space_group_name_H-M "C 2/M"
_symmetry_group_IT_number 12
_symmetry_cell_setting 'monoclinic'
loop_
_space_group_symop_operation_xyz
x,y,z
-x,y,-z
-x,-y,-z
x,-y,z
1/2+x,1/2+y,z
1/2-x,1/2+y,-z
1/2-x,1/2-y,-z
1/2+x,1/2-y,z
loop_
_atom_site_type_symbol
_atom_site_label
_atom_site_fract_x
_atom_site_fract_y
_atom_site_fract_z
Si Si1 0.200383 0.331763 0.531929
Si Si2 0.934064 0.668777 0.302188
Si Si3 0.428207 0.160387 0.152315
Si Si4 0.711631 0.831542 0.688010
Si Si5 0.822914 0.168493 0.836164
Si Si6 0.517373 0.667456 0.082071
Si Si7 0.459470 0.168204 0.548530
Si Si8 0.762467 0.659878 0.069392
O O1 0.210405 0.500000 0.527903
O O2 0.250000 0.250000 0.500000
O O3 0.217554 0.281253 0.613689
O O4 0.121503 0.281433 0.482727
O O5 0.928298 0.500000 0.300258
O O6 0.949529 0.721178 0.232901
O O7 0.860300 0.730166 0.305030
O O8 0.000634 0.723790 0.370528
O O9 0.459674 0.259921 0.107403
O O10 0.343790 0.163772 0.120184
O O11 0.456147 0.000000 0.151776
O O12 0.780787 0.775960 0.754841
O O13 0.707782 0.000000 0.688662
O O14 0.783713 0.226144 0.887648
O O15 0.904294 0.222219 0.867197
O O16 0.820406 0.000000 0.836632
O O17 0.510391 0.500000 0.088426
O O18 0.500000 0.712341 0.000000
O O19 0.500000 0.232921 0.500000
O O20 0.463208 0.000000 0.546432
O O21 0.737231 0.500000 0.045034
O O22 0.750000 0.750000 0.000000
#
# Coordination Sequence:
#
# PCOD8088011 Si02
#       8
#     8   8   8   8   8   8   8   8
#     4  10  20  32  50  77 106 134 166 206 249 294
#     4   9  15  27  49  77 103 125 162 214 255 286
#     4  10  20  33  52  78 103 127 161 210 258 294
#     4   9  15  28  51  75  98 128 169 211 244 288
#     4   9  17  31  51  72  95 130 173 206 240 293
#     4  10  21  36  52  71 100 137 170 203 246 300
#     4   9  15  26  48  76 100 128 170 212 244 283
#     4  10  19  32  52  76  99 125 163 209 250 291
#
# _framework density 18.003551000000002
#
# number of rings (size 3 to 8) (size 9 to 14) (size 15 to 20)
#    0.000    2.500    2.500    0.750    0.000    2.750 
#    0.000    0.625    0.000    1.875    0.000    0.000 
#    0.000    0.000    0.000    0.000    0.000    0.000 
#
# Total GULP energy -396705.881098 kJ/mol
# GULP energy per Si atom -12397.058784 kJ/mol
# Density = 1.796257 g / cm^3
# Si number density = 18.003551 Si / 1000 Ang^3
#
#
#
# Elastic Constant Matrix: (Units=GPa)
#
#
# Indices 1 2 3 4 5 6 
#
# 1 87.0974 20.7192 34.3696 0.0000 -4.9817 0.0000
# 2 20.7192 22.9564 26.1151 0.0000 -6.1622 0.0000
# 3 34.3696 26.1151 135.9579 0.0000 -0.3087 0.0000
# 4 0.0000 0.0000 0.0000 15.8951 0.0000 -5.7632
# 5 -4.9817 -6.1622 -0.3087 0.0000 39.2034 0.0000
# 6 0.0000 0.0000 0.0000 -5.7632 0.0000 21.4053
#
#
#
# Elastic Compliance Matrix: (Units=1/GPa)
#
#
# Indices 1 2 3 4 5 6 
#
# 1 0.014859 -0.011679 -0.001513 0.000000 0.000040 0.000000
# 2 -0.011679 0.068037 -0.010096 0.000000 0.009131 0.000000
# 3 -0.001513 -0.010096 0.009673 0.000000 -0.001703 0.000000
# 4 0.000000 0.000000 0.000000 0.069719 0.000000 0.018771
# 5 0.000040 0.009131 -0.001703 0.000000 0.026935 0.000000
# 6 0.000000 0.000000 0.000000 0.018771 0.000000 0.051771
#
#
# Mechanical properties :
#
#
# Convention : Reuss Voigt Hill
#
# Bulk Modulus (GPa) = 21.74177 45.37994 33.56086
# Shear Modulus (GPa) = 16.50706 26.28794 21.39750
#
# Velocity S-wave (km/s) = 3.03128 3.82534 3.45123
# Velocity P-wave (km/s) = 4.93499 6.69117 5.87903
#
# Compressibility (1/GPa) = 0.04599441
#
# Stress axis : x y z
#
# Youngs Moduli (GPa) = 67.29947 14.69778 103.38060
#
# Poissons Ratio (x) = 0.17166 0.15640
# Poissons Ratio (y) = 0.78599 1.04369
# Poissons Ratio (z) = 0.10182 0.14838
#
# Static dielectric constant tensor:
#      x y z
#    x 3.656840 0.000000 0.639310 
#    y 0.000000 2.964700 0.000000 
#    z 0.639310 0.000000 4.609640 
# 
# 
# High freq. dielectric constant tensor:
#      x y z
#    x 1.703280 0.000000 0.005300 
#    y 0.000000 1.632590 0.000000 
#    z 0.005300 0.000000 1.717430 
# 
# From -- ./inp_files/276563.got.cif
#   From: 2010.06.25/outbox.cif.g09.slc.cpg/sg12_139_cif.got.tgz:276563.got - 2010.06.28 00:19:55.
