data_PCOD8088242
_publ_section_title
;
Structure prediction by ZEFSAII (Michael W. Deem and Ramdas Pophale) SiO2 
 PCOD8088242
Probable space group: C 2/M
;
_chemical_formula_sum "Si O2"
_cell_formula_units_Z 48
_cell_length_a 20.100244
_cell_length_b 23.196071
_cell_length_c 13.148591
_cell_angle_alpha 90.000000
_cell_angle_beta 154.922898
_cell_angle_gamma 90.000000
_cell_volume 2598.330172
_symmetry_space_group_name_H-M "C 2/M"
_symmetry_group_IT_number 12
_symmetry_cell_setting 'monoclinic'
loop_
_space_group_symop_operation_xyz
x,y,z
-x,y,-z
-x,-y,-z
x,-y,z
1/2+x,1/2+y,z
1/2-x,1/2+y,-z
1/2-x,1/2-y,-z
1/2+x,1/2-y,z
loop_
_atom_site_type_symbol
_atom_site_label
_atom_site_fract_x
_atom_site_fract_y
_atom_site_fract_z
Si Si1 0.235383 0.436883 0.790004
Si Si2 0.089583 0.064628 0.351128
Si Si3 0.012664 0.841742 0.398259
Si Si4 0.686563 0.170538 0.837890
Si Si5 0.634858 0.779731 0.552664
Si Si6 0.821343 0.127781 0.718200
O O1 0.157262 0.500000 0.687743
O O2 0.150740 0.395685 0.754999
O O3 0.221814 0.412272 0.657296
O O4 0.418239 0.440748 0.067910
O O5 0.084775 0.100435 0.449270
O O6 0.195430 0.099700 0.416438
O O7 0.157583 0.000000 0.464953
O O8 0.128594 0.789066 0.530789
O O9 0.000000 0.852293 0.500000
O O10 0.841299 0.825347 0.119517
O O11 0.540697 0.194380 0.699057
O O12 0.710917 0.207248 0.768378
O O13 0.741476 0.808556 0.611987
O O14 0.000000 0.134450 0.000000
#
# Coordination Sequence:
#
# PCOD8088242 Si02
#       6
#     8   8   8   8   8   8
#     4   8  14  27  50  74 100 130 161 206 259 302
#     4   9  18  32  49  72 100 131 173 212 241 289
#     4  11  21  33  55  76 101 136 169 207 254 294
#     4   9  18  33  49  78 107 128 164 209 253 306
#     4  10  19  32  53  76 106 132 160 206 261 304
#     4   9  17  31  50  75 104 131 164 205 256 303
#
# _framework density 18.473402
#
# number of rings (size 3 to 8) (size 9 to 14) (size 15 to 20)
#    0.000    2.667    1.667    2.000    0.000    3.000 
#    0.000    7.500    0.000    0.000    0.000    1.167 
#    0.000    0.000    0.000    0.000    0.000    0.000 
#
# Total GULP energy -297474.789995 kJ/mol
# GULP energy per Si atom -12394.782916 kJ/mol
# Density = 1.843136 g / cm^3
# Si number density = 18.473402 Si / 1000 Ang^3
#
#
#
# Elastic Constant Matrix: (Units=GPa)
#
#
# Indices 1 2 3 4 5 6 
#
# 1 94.6991 69.7724 28.0101 0.0000 -6.7534 0.0000
# 2 69.7724 144.2424 23.1572 0.0000 -9.7691 0.0000
# 3 28.0101 23.1572 53.2762 0.0000 -16.7465 0.0000
# 4 0.0000 0.0000 0.0000 16.9877 0.0000 -0.4421
# 5 -6.7534 -9.7691 -16.7465 0.0000 21.7214 0.0000
# 6 0.0000 0.0000 0.0000 -0.4421 0.0000 21.9443
#
#
#
# Elastic Compliance Matrix: (Units=1/GPa)
#
#
# Indices 1 2 3 4 5 6 
#
# 1 0.018297 -0.007919 -0.007271 0.000000 -0.003478 0.000000
# 2 -0.007919 0.010901 0.000254 0.000000 0.002636 0.000000
# 3 -0.007271 0.000254 0.028783 0.000000 0.020044 0.000000
# 4 0.000000 0.000000 0.000000 0.058897 0.000000 0.001187
# 5 -0.003478 0.002636 0.020044 0.000000 0.061595 0.000000
# 6 0.000000 0.000000 0.000000 0.001187 0.000000 0.045594
#
#
# Mechanical properties :
#
#
# Convention : Reuss Voigt Hill
#
# Bulk Modulus (GPa) = 35.57590 59.34412 47.46001
# Shear Modulus (GPa) = 18.98914 23.54920 21.26917
#
# Velocity S-wave (km/s) = 3.20959 3.57426 3.39682
# Velocity P-wave (km/s) = 5.74761 7.01624 6.41337
#
# Compressibility (1/GPa) = 0.02810892
#
# Stress axis : x y z
#
# Youngs Moduli (GPa) = 54.65507 91.73498 34.74251
#
# Poissons Ratio (x) = 0.72641 0.25261
# Poissons Ratio (y) = 0.43279 -0.00881
# Poissons Ratio (z) = 0.39739 -0.02327
#
# Static dielectric constant tensor:
#      x y z
#    x 3.306770 0.000000 0.036130 
#    y 0.000000 3.783600 0.000000 
#    z 0.036130 0.000000 3.097720 
# 
# 
# High freq. dielectric constant tensor:
#      x y z
#    x 1.701530 0.000000 0.004070 
#    y 0.000000 1.727650 0.000000 
#    z 0.004070 0.000000 1.677880 
# 
# From -- ./inp_files/160506.got.cif
#   From: 2010.06.25/outbox.cif.g09.slc.cpg/sg12_81_cif.got.tgz:160506.got - 2010.06.28 00:19:55.
