data_PCOD8088775
_publ_section_title
;
Structure prediction by ZEFSAII (Michael W. Deem and Ramdas Pophale) SiO2 
 PCOD8088775
Probable space group: C 2/M
;
_chemical_formula_sum "Si O2"
_cell_formula_units_Z 56
_cell_length_a 17.503030
_cell_length_b 12.981193
_cell_length_c 14.703651
_cell_angle_alpha 90.000000
_cell_angle_beta 122.807559
_cell_angle_gamma 90.000000
_cell_volume 2807.942633
_symmetry_space_group_name_H-M "C 2/M"
_symmetry_group_IT_number 12
_symmetry_cell_setting 'monoclinic'
loop_
_space_group_symop_operation_xyz
x,y,z
-x,y,-z
-x,-y,-z
x,-y,z
1/2+x,1/2+y,z
1/2-x,1/2+y,-z
1/2-x,1/2-y,-z
1/2+x,1/2-y,z
loop_
_atom_site_type_symbol
_atom_site_label
_atom_site_fract_x
_atom_site_fract_y
_atom_site_fract_z
Si Si1 0.317768 0.384747 0.893175
Si Si2 0.397704 0.178828 0.925846
Si Si3 0.674523 0.830045 0.654778
Si Si4 0.665944 0.119228 0.924191
Si Si5 0.759632 0.389019 0.690991
Si Si6 0.678489 0.840567 0.456261
Si Si7 0.021261 0.622219 0.689153
O O1 0.357844 0.500000 0.932196
O O2 0.398462 0.303840 0.926989
O O3 0.249180 0.385396 0.764341
O O4 0.262750 0.341804 0.946480
O O5 0.352286 0.135155 0.805875
O O6 0.500000 0.137307 0.000000
O O7 0.338895 0.138219 0.972355
O O8 0.689546 0.705382 0.658477
O O9 0.682365 0.885583 0.561288
O O10 0.575203 0.850964 0.631445
O O11 0.579572 0.164623 0.813064
O O12 0.665434 0.000000 0.898990
O O13 0.718643 0.500000 0.697989
O O14 0.788785 0.411582 0.605488
O O15 0.750000 0.750000 0.500000
O O16 0.572333 0.812489 0.370439
O O17 0.999283 0.500000 0.679395
#
# Coordination Sequence:
#
# PCOD8088775 Si02
#       7
#     8   8   8   8   8   8   8
#     4   9  19  35  52  73 100 131 170 210 250 297
#     4  11  21  32  50  75 103 135 167 205 251 298
#     4   9  19  34  53  78 102 129 168 214 256 292
#     4   9  18  33  53  75  99 128 165 210 253 293
#     4  10  21  35  51  74 104 137 169 202 248 307
#     4  10  20  33  50  74 106 136 163 202 251 301
#     4  10  19  32  55  82 101 126 170 216 253 293
#
# _framework density 19.943427
#
# number of rings (size 3 to 8) (size 9 to 14) (size 15 to 20)
#    0.000    2.286    0.000    3.857    0.000    5.429 
#    0.000    0.000    0.000    7.714    0.000    0.000 
#    0.000    0.000    0.000    0.000    0.000    0.000 
#
# Total GULP energy -346877.836507 kJ/mol
# GULP energy per Si atom -12388.494161 kJ/mol
# Density = 1.989803 g / cm^3
# Si number density = 19.943427 Si / 1000 Ang^3
#
#
#
# Elastic Constant Matrix: (Units=GPa)
#
#
# Indices 1 2 3 4 5 6 
#
# 1 62.7373 20.6579 19.5902 0.0000 -1.4712 0.0000
# 2 20.6579 77.3347 11.3009 0.0000 0.8200 0.0000
# 3 19.5902 11.3009 65.4704 0.0000 -16.1157 0.0000
# 4 0.0000 0.0000 0.0000 12.9375 0.0000 -0.8511
# 5 -1.4712 0.8200 -16.1157 0.0000 36.9682 0.0000
# 6 0.0000 0.0000 0.0000 -0.8511 0.0000 18.2155
#
#
#
# Elastic Compliance Matrix: (Units=1/GPa)
#
#
# Indices 1 2 3 4 5 6 
#
# 1 0.018967 -0.004277 -0.005296 0.000000 -0.001459 0.000000
# 2 -0.004277 0.014299 -0.001466 0.000000 -0.001126 0.000000
# 3 -0.005296 -0.001466 0.019120 0.000000 0.008157 0.000000
# 4 0.000000 0.000000 0.000000 0.077533 0.000000 0.003623
# 5 -0.001459 -0.001126 0.008157 0.000000 0.030573 0.000000
# 6 0.000000 0.000000 0.000000 0.003623 0.000000 0.055068
#
#
# Mechanical properties :
#
#
# Convention : Reuss Voigt Hill
#
# Bulk Modulus (GPa) = 32.99451 34.29339 33.64395
# Shear Modulus (GPa) = 20.18235 23.89046 22.03641
#
# Velocity S-wave (km/s) = 3.18461 3.46484 3.32768
# Velocity P-wave (km/s) = 5.48656 5.76537 5.62769
#
# Compressibility (1/GPa) = 0.03030807
#
# Stress axis : x y z
#
# Youngs Moduli (GPa) = 52.72180 69.93272 52.30226
#
# Poissons Ratio (x) = 0.29912 0.27701
# Poissons Ratio (y) = 0.22550 0.07666
# Poissons Ratio (z) = 0.27924 0.10250
#
# Static dielectric constant tensor:
#      x y z
#    x 3.620140 0.000000 -0.253520 
#    y 0.000000 3.516930 0.000000 
#    z -0.253520 0.000000 3.810710 
# 
# 
# High freq. dielectric constant tensor:
#      x y z
#    x 1.765920 0.000000 -0.018690 
#    y 0.000000 1.763410 0.000000 
#    z -0.018690 0.000000 1.783970 
# 
# From -- ./inp_files/223939.got.cif
#   From: 2010.06.25/outbox.cif.g09.slc.cpg/sg12_112_cif.got.tgz:223939.got - 2010.06.28 00:19:55.
