data_PCOD8088763
_publ_section_title
;
Structure prediction by ZEFSAII (Michael W. Deem and Ramdas Pophale) SiO2 
 PCOD8088763
Probable space group: C 2/M
;
_chemical_formula_sum "Si O2"
_cell_formula_units_Z 56
_cell_length_a 20.073235
_cell_length_b 9.040463
_cell_length_c 19.474784
_cell_angle_alpha 90.000000
_cell_angle_beta 122.577302
_cell_angle_gamma 90.000000
_cell_volume 2978.077827
_symmetry_space_group_name_H-M "C 2/M"
_symmetry_group_IT_number 12
_symmetry_cell_setting 'monoclinic'
loop_
_space_group_symop_operation_xyz
x,y,z
-x,y,-z
-x,-y,-z
x,-y,z
1/2+x,1/2+y,z
1/2-x,1/2+y,-z
1/2-x,1/2-y,-z
1/2+x,1/2-y,z
loop_
_atom_site_type_symbol
_atom_site_label
_atom_site_fract_x
_atom_site_fract_y
_atom_site_fract_z
Si Si1 0.484323 0.175397 0.067128
Si Si2 0.331628 0.825793 0.063371
Si Si3 0.126709 0.831205 0.776037
Si Si4 0.387716 0.824258 0.754253
Si Si5 0.555616 0.668350 0.347896
Si Si6 0.786318 0.824371 0.311000
Si Si7 0.418863 0.324115 0.485832
O O1 0.396860 0.221928 0.043164
O O2 0.549267 0.240306 0.156013
O O3 0.492521 0.000000 0.069963
O O4 0.500000 0.241753 0.000000
O O5 0.362276 0.776677 0.154233
O O6 0.319168 0.000000 0.056652
O O7 0.250000 0.750000 0.000000
O O8 0.185044 0.775838 0.748495
O O9 0.038532 0.818557 0.698673
O O10 0.146286 0.000000 0.808807
O O11 0.409474 0.773391 0.690477
O O12 0.301536 0.761469 0.726106
O O13 0.388790 0.000000 0.755906
O O14 0.580220 0.500000 0.345087
O O15 0.591125 0.722280 0.440260
O O16 0.844745 0.759579 0.401849
O O17 0.786895 0.000000 0.316222
O O18 0.500000 0.257490 0.500000
O O19 0.422179 0.500000 0.481573
#
# Coordination Sequence:
#
# PCOD8088763 Si02
#       7
#     8   8   8   8   8   8   8
#     4   9  19  35  55  77 102 137 177 218 261 311
#     4  11  23  38  58  83 110 139 175 222 269 320
#     4  10  19  34  57  82 106 139 182 225 264 311
#     4  10  20  35  54  77 107 141 180 220 265 324
#     4  10  19  32  55  80 109 143 177 222 272 319
#     4   9  18  31  53  81 106 141 189 229 257 307
#     4   9  15  28  50  80 110 138 181 230 269 305
#
# _framework density 18.804075999999998
#
# number of rings (size 3 to 8) (size 9 to 14) (size 15 to 20)
#    0.000    2.286    2.857    0.429    2.000    0.571 
#    0.000    0.714    0.000    3.429    0.000    0.000 
#    0.000    0.000    0.000    0.000    0.000    0.000 
#
# Total GULP energy -347198.800273 kJ/mol
# GULP energy per Si atom -12399.957153 kJ/mol
# Density = 1.876128 g / cm^3
# Si number density = 18.804076 Si / 1000 Ang^3
#
#
#
# Elastic Constant Matrix: (Units=GPa)
#
#
# Indices 1 2 3 4 5 6 
#
# 1 156.6668 31.5089 71.0554 0.0000 -6.0099 0.0000
# 2 31.5089 26.7908 28.7716 0.0000 1.8918 0.0000
# 3 71.0554 28.7716 128.8235 0.0000 -7.8693 0.0000
# 4 0.0000 0.0000 0.0000 22.6229 0.0000 -4.7829
# 5 -6.0099 1.8918 -7.8693 0.0000 33.1577 0.0000
# 6 0.0000 0.0000 0.0000 -4.7829 0.0000 20.8873
#
#
#
# Elastic Compliance Matrix: (Units=1/GPa)
#
#
# Indices 1 2 3 4 5 6 
#
# 1 0.009538 -0.007564 -0.003490 0.000000 0.001332 0.000000
# 2 -0.007564 0.056105 -0.008765 0.000000 -0.006652 0.000000
# 3 -0.003490 -0.008765 0.011808 0.000000 0.002670 0.000000
# 4 0.000000 0.000000 0.000000 0.046452 0.000000 0.010637
# 5 0.001332 -0.006652 0.002670 0.000000 0.031414 0.000000
# 6 0.000000 0.000000 0.000000 0.010637 0.000000 0.050312
#
#
# Mechanical properties :
#
#
# Convention : Reuss Voigt Hill
#
# Bulk Modulus (GPa) = 26.44567 63.88369 45.16468
# Shear Modulus (GPa) = 19.38953 27.39659 23.39306
#
# Velocity S-wave (km/s) = 3.21461 3.82114 3.53092
# Velocity P-wave (km/s) = 5.27945 7.31541 6.37918
#
# Compressibility (1/GPa) = 0.03781337
#
# Stress axis : x y z
#
# Youngs Moduli (GPa) = 104.83988 17.82381 84.68514
#
# Poissons Ratio (x) = 0.13481 0.29559
# Poissons Ratio (y) = 0.79298 0.74226
# Poissons Ratio (z) = 0.36594 0.15622
#
# Static dielectric constant tensor:
#      x y z
#    x 3.672740 0.000000 0.085330 
#    y 0.000000 3.019790 0.000000 
#    z 0.085330 0.000000 3.730240 
# 
# 
# High freq. dielectric constant tensor:
#      x y z
#    x 1.740880 0.000000 -0.001580 
#    y 0.000000 1.676800 0.000000 
#    z -0.001580 0.000000 1.744430 
# 
# From -- ./inp_files/281594.got.cif
#   From: 2010.06.25/outbox.cif.g09.slc.cpg/sg12_141_cif.got.tgz:281594.got - 2010.06.28 00:19:55.
