data_PCOD8088221
_publ_section_title
;
Structure prediction by ZEFSAII (Michael W. Deem and Ramdas Pophale) SiO2 
 PCOD8088221
Probable space group: C 2/M
;
_chemical_formula_sum "Si O2"
_cell_formula_units_Z 48
_cell_length_a 34.511902
_cell_length_b 7.863626
_cell_length_c 16.017678
_cell_angle_alpha 90.000000
_cell_angle_beta 36.020691
_cell_angle_gamma 90.000000
_cell_volume 2556.382122
_symmetry_space_group_name_H-M "C 2/M"
_symmetry_group_IT_number 12
_symmetry_cell_setting 'monoclinic'
loop_
_space_group_symop_operation_xyz
x,y,z
-x,y,-z
-x,-y,-z
x,-y,z
1/2+x,1/2+y,z
1/2-x,1/2+y,-z
1/2-x,1/2-y,-z
1/2+x,1/2-y,z
loop_
_atom_site_type_symbol
_atom_site_label
_atom_site_fract_x
_atom_site_fract_y
_atom_site_fract_z
Si Si1 0.807272 0.809677 0.790342
Si Si2 0.313538 0.693059 0.440057
Si Si3 0.120919 0.192295 0.996507
Si Si4 0.656843 0.190023 0.103197
Si Si5 0.054251 0.500000 0.024890
Si Si6 0.231736 0.308490 0.310790
Si Si7 0.905092 0.500000 0.231586
O O1 0.856598 0.745805 0.777476
O O2 0.813081 0.702952 0.694669
O O3 0.826750 0.000000 0.733104
O O4 0.733992 0.794952 0.952524
O O5 0.334265 0.500000 0.378386
O O6 0.250000 0.750000 0.500000
O O7 0.297029 0.689259 0.567129
O O8 0.371262 0.826125 0.320827
O O9 0.070346 0.327754 0.047084
O O10 0.193655 0.247641 0.839474
O O11 0.103125 0.000000 0.998596
O O12 0.118403 0.195763 0.102252
O O13 0.630872 0.000000 0.136170
O O14 0.094824 0.500000 0.868472
O O15 0.977060 0.500000 0.144684
O O16 0.229902 0.500000 0.347778
#
# Coordination Sequence:
#
# PCOD8088221 Si02
#       7
#     8   8   8   8   4   8   4
#     4   9  16  24  40  71 113 151 183 226 280 337
#     4  12  23  39  62  87 115 146 184 233 285 340
#     4  10  20  33  56  84 113 151 192 232 277 334
#     4   9  15  26  43  70 109 152 187 225 277 330
#     4  11  24  42  62  79 115 151 189 233 277 339
#     4  10  19  32  52  83 117 151 189 231 286 342
#     4  11  26  44  60  87 113 148 187 233 287 336
#
# _framework density 18.776534999999999
#
# number of rings (size 3 to 8) (size 9 to 14) (size 15 to 20)
#    0.000    1.833    2.500    2.500    2.333    6.667 
#    0.000    1.667    0.000    0.000    0.000    2.333 
#    0.000    4.000    0.000    0.000    0.000    0.000 
#
# Total GULP energy -297508.303321 kJ/mol
# GULP energy per Si atom -12396.179305 kJ/mol
# Density = 1.873380 g / cm^3
# Si number density = 18.776535 Si / 1000 Ang^3
#
#
#
# Elastic Constant Matrix: (Units=GPa)
#
#
# Indices 1 2 3 4 5 6 
#
# 1 104.9882 52.9895 39.0216 -0.0008 15.3889 0.0004
# 2 52.9895 122.1781 28.7694 -0.0128 4.1156 0.0042
# 3 39.0216 28.7694 49.4167 -0.0113 8.9488 0.0031
# 4 -0.0008 -0.0128 -0.0113 21.9241 -0.0006 2.8263
# 5 15.3889 4.1156 8.9488 -0.0006 19.6690 0.0005
# 6 0.0004 0.0042 0.0031 2.8263 0.0005 31.9990
#
#
#
# Elastic Compliance Matrix: (Units=1/GPa)
#
#
# Indices 1 2 3 4 5 6 
#
# 1 0.016301 -0.004761 -0.008686 -0.000007 -0.007805 0.000002
# 2 -0.004761 0.010882 -0.003092 0.000005 0.002855 -0.000002
# 3 -0.008686 -0.003092 0.030021 0.000014 -0.006216 -0.000003
# 4 -0.000007 0.000005 0.000014 0.046137 0.000000 -0.004075
# 5 -0.007805 0.002855 -0.006216 0.000000 0.059179 -0.000001
# 6 0.000002 -0.000002 -0.000003 -0.004075 -0.000001 0.031611
#
#
# Mechanical properties :
#
#
# Convention : Reuss Voigt Hill
#
# Bulk Modulus (GPa) = 41.45368 57.57155 49.51261
# Shear Modulus (GPa) = 21.25387 25.10526 23.17956
#
# Velocity S-wave (km/s) = 3.36808 3.66054 3.51735
# Velocity P-wave (km/s) = 6.10333 6.97095 6.55151
#
# Compressibility (1/GPa) = 0.02412331
#
# Stress axis : x y z
#
# Youngs Moduli (GPa) = 61.34750 91.89645 33.31000
#
# Poissons Ratio (x) = 0.43756 0.28934
# Poissons Ratio (y) = 0.29210 0.10301
# Poissons Ratio (z) = 0.53288 0.28418
#
# Static dielectric constant tensor:
#      x y z
#    x 3.590650 0.000000 0.365950 
#    y 0.000000 3.610450 0.000000 
#    z 0.365950 0.000000 3.019970 
# 
# 
# High freq. dielectric constant tensor:
#      x y z
#    x 1.735690 0.000000 0.038640 
#    y 0.000000 1.744960 0.000000 
#    z 0.038640 0.000000 1.666510 
# 
# From -- ./inp_files/248841.got.cif
#   From: 2010.06.25/outbox.cif.g09.slc.cpg/sg12_125_cif.got.tgz:248841.got - 2010.06.28 00:19:55.
