data_PCOD8088101
_publ_section_title
;
Structure prediction by ZEFSAII (Michael W. Deem and Ramdas Pophale) SiO2 
 PCOD8088101
Probable space group: C 2/M
;
_chemical_formula_sum "Si O2"
_cell_formula_units_Z 56
_cell_length_a 20.887728
_cell_length_b 13.082818
_cell_length_c 23.648190
_cell_angle_alpha 90.000000
_cell_angle_beta 154.834517
_cell_angle_gamma 90.000000
_cell_volume 2748.011261
_symmetry_space_group_name_H-M "C 2/M"
_symmetry_group_IT_number 12
_symmetry_cell_setting 'monoclinic'
loop_
_space_group_symop_operation_xyz
x,y,z
-x,y,-z
-x,-y,-z
x,-y,z
1/2+x,1/2+y,z
1/2-x,1/2+y,-z
1/2-x,1/2-y,-z
1/2+x,1/2-y,z
loop_
_atom_site_type_symbol
_atom_site_label
_atom_site_fract_x
_atom_site_fract_y
_atom_site_fract_z
Si Si1 0.373604 0.122535 0.577902
Si Si2 0.675499 0.618328 0.757567
Si Si3 0.672214 0.699713 0.637481
Si Si4 0.097552 0.116892 0.893436
Si Si5 0.820527 0.117662 0.473305
Si Si6 0.753206 0.114765 0.643169
Si Si7 0.166780 0.260782 0.846833
O O1 0.262019 0.164934 0.537799
O O2 0.313255 0.161940 0.468627
O O3 0.539031 0.166607 0.719203
O O4 0.377746 0.000000 0.581068
O O5 0.716239 0.500000 0.800602
O O6 0.744477 0.653281 0.752132
O O7 0.497418 0.639398 0.619197
O O8 0.746701 0.691307 0.862341
O O9 0.500000 0.663896 0.500000
O O10 0.750316 0.657958 0.642505
O O11 0.690929 0.822287 0.647598
O O12 0.098245 0.182015 0.836963
O O13 0.932313 0.119337 0.787132
O O14 0.145356 0.000000 0.917945
O O15 0.208807 0.164915 0.028082
O O16 0.783702 0.000000 0.443782
O O17 0.694747 0.000000 0.604351
#
# Coordination Sequence:
#
# PCOD8088101 Si02
#       7
#     8   8   8   8   8   8   8
#     4  10  19  32  55  87 115 139 177 227 269 309
#     4  10  20  34  53  78 107 141 181 221 265 321
#     4  10  19  32  52  78 109 143 181 222 265 314
#     4  10  22  39  57  80 111 144 177 216 268 328
#     4   9  17  29  49  80 115 145 173 215 271 321
#     4  10  21  37  56  79 109 144 181 222 269 320
#     4  11  21  35  58  83 110 143 177 219 269 318
#
# _framework density 20.378374000000001
#
# number of rings (size 3 to 8) (size 9 to 14) (size 15 to 20)
#    0.000    2.000    0.000    4.714    0.000    6.000 
#    0.000    2.143    0.000    5.143    0.000    0.000 
#    0.000    0.000    0.000    0.000    0.000    0.000 
#
# Total GULP energy -347173.646036 kJ/mol
# GULP energy per Si atom -12399.058787 kJ/mol
# Density = 2.033199 g / cm^3
# Si number density = 20.378374 Si / 1000 Ang^3
#
#
#
# Elastic Constant Matrix: (Units=GPa)
#
#
# Indices 1 2 3 4 5 6 
#
# 1 77.4798 31.0584 16.0339 0.0008 -15.4654 -0.0001
# 2 31.0584 67.8600 26.4961 0.0217 -9.5873 0.0084
# 3 16.0339 26.4961 62.7250 0.0222 -5.3023 0.0092
# 4 0.0008 0.0217 0.0222 22.1337 -0.0012 -2.7258
# 5 -15.4654 -9.5873 -5.3023 -0.0012 9.7102 -0.0016
# 6 -0.0001 0.0084 0.0092 -2.7258 -0.0016 41.2598
#
#
#
# Elastic Compliance Matrix: (Units=1/GPa)
#
#
# Indices 1 2 3 4 5 6 
#
# 1 0.020613 -0.005308 -0.000728 0.000007 0.027191 0.000003
# 2 -0.005308 0.021037 -0.006802 -0.000014 0.008602 -0.000003
# 3 -0.000728 -0.006802 0.019224 -0.000013 0.002621 -0.000004
# 4 0.000007 -0.000014 -0.000013 0.045551 -0.000003 0.003009
# 5 0.027191 0.008602 0.002621 -0.000003 0.156216 0.000003
# 6 0.000003 -0.000003 -0.000004 0.003009 0.000003 0.024435
#
#
# Mechanical properties :
#
#
# Convention : Reuss Voigt Hill
#
# Bulk Modulus (GPa) = 28.41248 39.47128 33.94188
# Shear Modulus (GPa) = 15.40904 23.58584 19.49744
#
# Velocity S-wave (km/s) = 2.75280 3.40574 3.09653
# Velocity P-wave (km/s) = 4.90679 5.90565 5.42924
#
# Compressibility (1/GPa) = 0.03519580
#
# Stress axis : x y z
#
# Youngs Moduli (GPa) = 48.51410 47.53547 52.01902
#
# Poissons Ratio (x) = 0.25232 0.03789
# Poissons Ratio (y) = 0.25752 0.35385
# Poissons Ratio (z) = 0.03533 0.32335
#
# Static dielectric constant tensor:
#      x y z
#    x 3.770640 -0.000010 -0.260060 
#    y -0.000010 3.945500 -0.000020 
#    z -0.260060 -0.000020 3.356400 
# 
# 
# High freq. dielectric constant tensor:
#      x y z
#    x 1.791220 0.000000 -0.017490 
#    y 0.000000 1.825410 0.000000 
#    z -0.017490 0.000000 1.760180 
# 
# From -- ./inp_files/316749.got.cif
#   From: 2010.06.25/outbox.cif.g09.slc.cpg/sg12_159_cif.got.tgz:316749.got - 2010.06.28 00:19:55.
