data_PCOD8088941
_publ_section_title
;
Structure prediction by ZEFSAII (Michael W. Deem and Ramdas Pophale) SiO2 
 PCOD8088941
Probable space group: C 2/M
;
_chemical_formula_sum "Si O2"
_cell_formula_units_Z 48
_cell_length_a 22.774692
_cell_length_b 14.318347
_cell_length_c 19.380356
_cell_angle_alpha 90.000000
_cell_angle_beta 21.318233
_cell_angle_gamma 90.000000
_cell_volume 2297.568920
_symmetry_space_group_name_H-M "C 2/M"
_symmetry_group_IT_number 12
_symmetry_cell_setting 'monoclinic'
loop_
_space_group_symop_operation_xyz
x,y,z
-x,y,-z
-x,-y,-z
x,-y,z
1/2+x,1/2+y,z
1/2-x,1/2+y,-z
1/2-x,1/2-y,-z
1/2+x,1/2-y,z
loop_
_atom_site_type_symbol
_atom_site_label
_atom_site_fract_x
_atom_site_fract_y
_atom_site_fract_z
Si Si1 0.334258 0.105883 0.139814
Si Si2 0.309589 0.276148 0.589516
Si Si3 0.168173 0.103077 0.970593
Si Si4 0.833102 0.604313 0.650552
Si Si5 0.501685 0.208556 0.838206
Si Si6 0.093911 0.299183 0.200507
O O1 0.195861 0.154590 0.338324
O O2 0.280846 0.000000 0.181779
O O3 0.500000 0.108284 0.000000
O O4 0.360577 0.162494 0.039818
O O5 0.273319 0.170554 0.654248
O O6 0.484721 0.276209 0.361752
O O7 0.176677 0.306814 0.679228
O O8 0.195074 0.105076 0.859353
O O9 0.341859 0.120374 0.818496
O O10 0.105438 0.000000 0.061492
O O11 0.035229 0.181402 0.133264
O O12 0.857802 0.500000 0.593687
O O13 0.000000 0.642754 0.500000
O O14 0.502641 0.160827 0.760873
O O15 0.250000 0.250000 0.000000
#
# Coordination Sequence:
#
# PCOD8088941 Si02
#       6
#     8   8   8   8   8   8
#     4   9  19  36  58  84 114 150 194 245 298 349
#     4  11  20  36  61  85 116 153 200 250 299 345
#     4  10  20  36  57  84 119 153 186 231 290 357
#     4  10  19  32  56  87 116 149 188 230 287 355
#     4  10  21  37  58  89 117 152 195 249 302 352
#     4  10  22  38  56  79 116 161 198 240 293 354
#
# _framework density 20.891646999999999
#
# number of rings (size 3 to 8) (size 9 to 14) (size 15 to 20)
#    0.000    2.000    3.333    0.500    0.000    1.333 
#    0.000    5.000    0.000   15.500    0.000    0.000 
#    0.000    0.000    0.000    0.000    0.000    0.000 
#
# Total GULP energy -297488.914657 kJ/mol
# GULP energy per Si atom -12395.371444 kJ/mol
# Density = 2.084410 g / cm^3
# Si number density = 20.891647 Si / 1000 Ang^3
#
#
#
# Elastic Constant Matrix: (Units=GPa)
#
#
# Indices 1 2 3 4 5 6 
#
# 1 75.8445 22.3474 17.8013 0.0010 15.9052 0.0008
# 2 22.3474 108.0448 28.1194 0.0056 11.2226 -0.0028
# 3 17.8013 28.1194 86.9678 0.0064 23.0155 -0.0056
# 4 0.0010 0.0056 0.0064 22.1539 -0.0053 -5.7034
# 5 15.9052 11.2226 23.0155 -0.0053 29.6391 0.0026
# 6 0.0008 -0.0028 -0.0056 -5.7034 0.0026 16.9166
#
#
#
# Elastic Compliance Matrix: (Units=1/GPa)
#
#
# Indices 1 2 3 4 5 6 
#
# 1 0.015467 -0.002327 -0.000567 -0.000002 -0.006979 -0.000001
# 2 -0.002327 0.010518 -0.002770 -0.000002 -0.000583 0.000000
# 3 -0.000567 -0.002770 0.015295 -0.000005 -0.010524 0.000005
# 4 -0.000002 -0.000002 -0.000005 0.049429 0.000013 0.016665
# 5 -0.006979 -0.000583 -0.010524 0.000013 0.045877 -0.000006
# 6 -0.000001 0.000000 0.000005 0.016665 -0.000006 0.064732
#
#
# Mechanical properties :
#
#
# Convention : Reuss Voigt Hill
#
# Bulk Modulus (GPa) = 33.38551 45.26592 39.32571
# Shear Modulus (GPa) = 22.45867 27.24785 24.85326
#
# Velocity S-wave (km/s) = 3.28229 3.61535 3.45284
# Velocity P-wave (km/s) = 5.51176 6.25634 5.89582
#
# Compressibility (1/GPa) = 0.02995312
#
# Stress axis : x y z
#
# Youngs Moduli (GPa) = 64.65378 95.07325 65.37902
#
# Poissons Ratio (x) = 0.22121 0.03705
# Poissons Ratio (y) = 0.15043 0.18113
# Poissons Ratio (z) = 0.03664 0.26339
#
# Static dielectric constant tensor:
#      x y z
#    x 4.403940 -0.000010 0.142930 
#    y -0.000010 3.743840 0.000000 
#    z 0.142930 0.000000 3.558390 
# 
# 
# High freq. dielectric constant tensor:
#      x y z
#    x 1.822700 0.000000 0.012060 
#    y 0.000000 1.795470 0.000000 
#    z 0.012060 0.000000 1.799190 
# 
# From -- ./inp_files/111762.got.cif
#   From: 2010.06.25/outbox.cif.g09.slc.cpg/sg12_56_cif.got.tgz:111762.got - 2010.06.28 00:19:55.
