data_PCOD8088032
_publ_section_title
;
Structure prediction by ZEFSAII (Michael W. Deem and Ramdas Pophale) SiO2 
 PCOD8088032
Probable space group: C 2/M
;
_chemical_formula_sum "Si O2"
_cell_formula_units_Z 60
_cell_length_a 17.703134
_cell_length_b 18.322137
_cell_length_c 11.055829
_cell_angle_alpha 90.000000
_cell_angle_beta 114.949237
_cell_angle_gamma 90.000000
_cell_volume 3251.415892
_symmetry_space_group_name_H-M "C 2/M"
_symmetry_group_IT_number 12
_symmetry_cell_setting 'monoclinic'
loop_
_space_group_symop_operation_xyz
x,y,z
-x,y,-z
-x,-y,-z
x,-y,z
1/2+x,1/2+y,z
1/2-x,1/2+y,-z
1/2-x,1/2-y,-z
1/2+x,1/2-y,z
loop_
_atom_site_type_symbol
_atom_site_label
_atom_site_fract_x
_atom_site_fract_y
_atom_site_fract_z
Si Si1 0.035401 0.671874 0.286977
Si Si2 0.997406 0.829192 0.356023
Si Si3 0.836372 0.914077 0.253687
Si Si4 0.848583 0.917702 0.541402
Si Si5 0.329143 0.084269 0.982608
Si Si6 0.500000 0.138158 0.000000
Si Si7 0.112804 0.585884 0.728351
Si Si8 0.331952 0.085631 0.495878
O O1 0.004260 0.744659 0.330386
O O2 0.127930 0.642141 0.379825
O O3 0.982198 0.606887 0.310692
O O4 0.021963 0.685083 0.134384
O O5 0.078424 0.867997 0.353699
O O6 0.000000 0.842333 0.500000
O O7 0.912874 0.866977 0.249323
O O8 0.827049 0.898782 0.388966
O O9 0.750823 0.881747 0.138808
O O10 0.851284 0.000000 0.237263
O O11 0.766771 0.904582 0.565135
O O12 0.880951 0.000000 0.573530
O O13 0.416833 0.091746 0.970804
O O14 0.309789 0.000000 0.979112
O O15 0.334003 0.117885 0.122002
O O16 0.119309 0.500000 0.731087
O O17 0.143352 0.615387 0.620184
O O18 0.356018 0.000000 0.535920
#
# Coordination Sequence:
#
# PCOD8088032 Si02
#       8
#     8   8   8   8   8   4   8   8
#     4  11  21  34  50  72 101 135 168 200 246 299
#     4  10  20  34  52  73 100 132 169 209 246 292
#     4   9  17  32  54  77 100 129 166 205 248 296
#     4   9  18  32  52  78 102 126 161 209 256 291
#     4   9  17  31  53  77 100 130 166 204 248 296
#     4  10  21  34  48  74 107 130 160 208 252 294
#     4   9  18  32  50  74 103 132 163 201 242 291
#     4  10  19  32  52  77 104 132 164 202 247 299
#
# _framework density 18.453498
#
# number of rings (size 3 to 8) (size 9 to 14) (size 15 to 20)
#    0.000    2.400    0.000    3.000    0.000    5.867 
#    0.000    5.333    0.000    0.000    0.000    5.600 
#    0.000    0.000    0.000    0.000    0.000    0.000 
#
# Total GULP energy -371767.457704 kJ/mol
# GULP energy per Si atom -12392.248590 kJ/mol
# Density = 1.841150 g / cm^3
# Si number density = 18.453498 Si / 1000 Ang^3
#
#
#
# Elastic Constant Matrix: (Units=GPa)
#
#
# Indices 1 2 3 4 5 6 
#
# 1 94.5300 21.2704 51.3104 0.0000 12.0379 0.0000
# 2 21.2704 28.0835 21.2525 0.0000 5.3972 0.0000
# 3 51.3104 21.2525 80.0281 0.0000 11.3225 0.0000
# 4 0.0000 0.0000 0.0000 12.4104 0.0000 -5.0418
# 5 12.0379 5.3972 11.3225 0.0000 30.3419 0.0000
# 6 0.0000 0.0000 0.0000 -5.0418 0.0000 18.5254
#
#
#
# Elastic Compliance Matrix: (Units=1/GPa)
#
#
# Indices 1 2 3 4 5 6 
#
# 1 0.017101 -0.005572 -0.009148 0.000000 -0.002380 0.000000
# 2 -0.005572 0.046778 -0.008430 0.000000 -0.002964 0.000000
# 3 -0.009148 -0.008430 0.020982 0.000000 -0.002701 0.000000
# 4 0.000000 0.000000 0.000000 0.090594 0.000000 0.024656
# 5 -0.002380 -0.002964 -0.002701 0.000000 0.035437 0.000000
# 6 0.000000 0.000000 0.000000 0.024656 0.000000 0.060690
#
#
# Mechanical properties :
#
#
# Convention : Reuss Voigt Hill
#
# Bulk Modulus (GPa) = 25.93388 43.36757 34.65073
# Shear Modulus (GPa) = 15.11778 19.50942 17.31360
#
# Velocity S-wave (km/s) = 2.86534 3.25502 3.06638
# Velocity P-wave (km/s) = 5.00310 6.13831 5.59955
#
# Compressibility (1/GPa) = 0.03855960
#
# Stress axis : x y z
#
# Youngs Moduli (GPa) = 58.47629 21.37762 47.66047
#
# Poissons Ratio (x) = 0.11912 0.43599
# Poissons Ratio (y) = 0.32583 0.40180
# Poissons Ratio (z) = 0.53494 0.18022
#
# Static dielectric constant tensor:
#      x y z
#    x 3.479020 0.000000 0.092210 
#    y 0.000000 3.093720 0.000000 
#    z 0.092210 0.000000 3.667710 
# 
# 
# High freq. dielectric constant tensor:
#      x y z
#    x 1.718640 0.000000 0.008080 
#    y 0.000000 1.687790 0.000000 
#    z 0.008080 0.000000 1.710030 
# 
# From -- ./inp_files/146199.got.cif
#   From: 2010.06.25/outbox.cif.g09.slc.cpg/sg12_74_cif.got.tgz:146199.got - 2010.06.28 00:19:55.
