data_PCOD8088146
_publ_section_title
;
Structure prediction by ZEFSAII (Michael W. Deem and Ramdas Pophale) SiO2 
 PCOD8088146
Probable space group: C 2/M
;
_chemical_formula_sum "Si O2"
_cell_formula_units_Z 48
_cell_length_a 28.049755
_cell_length_b 8.894862
_cell_length_c 10.306680
_cell_angle_alpha 90.000000
_cell_angle_beta 89.580587
_cell_angle_gamma 90.000000
_cell_volume 2571.434364
_symmetry_space_group_name_H-M "C 2/M"
_symmetry_group_IT_number 12
_symmetry_cell_setting 'monoclinic'
loop_
_space_group_symop_operation_xyz
x,y,z
-x,y,-z
-x,-y,-z
x,-y,z
1/2+x,1/2+y,z
1/2-x,1/2+y,-z
1/2-x,1/2-y,-z
1/2+x,1/2-y,z
loop_
_atom_site_type_symbol
_atom_site_label
_atom_site_fract_x
_atom_site_fract_y
_atom_site_fract_z
Si Si1 0.196018 0.825363 0.855115
Si Si2 0.600524 0.826276 0.248607
Si Si3 0.055519 0.174277 0.007112
Si Si4 0.446640 0.178221 0.486160
Si Si5 0.302255 0.827837 0.876015
Si Si6 0.606627 0.177882 0.765983
O O1 0.250722 0.786193 0.816605
O O2 0.160935 0.737589 0.758680
O O3 0.184842 0.000000 0.842098
O O4 0.185515 0.777592 0.003166
O O5 0.572619 0.724585 0.147653
O O6 0.585444 0.771435 0.391463
O O7 0.657538 0.803994 0.234112
O O8 0.586141 0.000000 0.226130
O O9 0.067302 0.000000 0.985148
O O10 0.082233 0.269745 0.898351
O O11 0.000000 0.208599 0.000000
O O12 0.500000 0.244851 0.500000
O O13 0.422493 0.243282 0.356263
O O14 0.449225 0.000000 0.476120
O O15 0.301526 0.000000 0.926337
O O16 0.607859 0.000000 0.763012
#
# Coordination Sequence:
#
# PCOD8088146 Si02
#       6
#     8   8   8   8   8   8
#     4  10  19  32  52  79 113 143 175 224 276 323
#     4  10  19  35  58  81 105 138 184 229 269 317
#     4  11  23  36  52  79 111 139 175 226 279 326
#     4   9  19  35  55  79 107 141 182 228 273 318
#     4   9  18  32  53  81 108 141 181 223 272 322
#     4  11  21  35  56  81 108 142 185 224 268 325
#
# _framework density 18.666625
#
# number of rings (size 3 to 8) (size 9 to 14) (size 15 to 20)
#    0.000    2.000    1.667    2.500    0.000    3.333 
#    0.000    2.500    0.000    4.500    0.000    0.000 
#    0.000    0.000    0.000    0.000    0.000    0.000 
#
# Total GULP energy -297634.771541 kJ/mol
# GULP energy per Si atom -12401.448814 kJ/mol
# Density = 1.862414 g / cm^3
# Si number density = 18.666625 Si / 1000 Ang^3
#
#
#
# Elastic Constant Matrix: (Units=GPa)
#
#
# Indices 1 2 3 4 5 6 
#
# 1 145.0416 40.3554 56.7211 0.0000 9.4889 0.0000
# 2 40.3554 54.7102 21.4029 0.0000 7.4260 0.0000
# 3 56.7211 21.4029 88.6522 0.0000 8.2269 0.0000
# 4 0.0000 0.0000 0.0000 10.5801 0.0000 3.4199
# 5 9.4889 7.4260 8.2269 0.0000 36.5361 0.0000
# 6 0.0000 0.0000 0.0000 3.4199 0.0000 26.3543
#
#
#
# Elastic Compliance Matrix: (Units=1/GPa)
#
#
# Indices 1 2 3 4 5 6 
#
# 1 0.010598 -0.005661 -0.005378 0.000000 -0.000391 0.000000
# 2 -0.005661 0.023551 -0.001794 0.000000 -0.002913 0.000000
# 3 -0.005378 -0.001794 0.015311 0.000000 -0.001686 0.000000
# 4 0.000000 0.000000 0.000000 0.098655 0.000000 -0.012802
# 5 -0.000391 -0.002913 -0.001686 0.000000 0.028443 0.000000
# 6 0.000000 0.000000 0.000000 -0.012802 0.000000 0.039606
#
#
# Mechanical properties :
#
#
# Convention : Reuss Voigt Hill
#
# Bulk Modulus (GPa) = 42.02611 58.37365 50.19988
# Shear Modulus (GPa) = 20.01923 26.02241 23.02082
#
# Velocity S-wave (km/s) = 3.27840 3.73776 3.51559
# Velocity P-wave (km/s) = 6.07400 7.06876 6.59018
#
# Compressibility (1/GPa) = 0.02379473
#
# Stress axis : x y z
#
# Youngs Moduli (GPa) = 94.35482 42.46192 65.31456
#
# Poissons Ratio (x) = 0.24036 0.35127
# Poissons Ratio (y) = 0.53410 0.11715
# Poissons Ratio (z) = 0.50745 0.07616
#
# Static dielectric constant tensor:
#      x y z
#    x 3.828850 0.000000 0.080900 
#    y 0.000000 3.306060 0.000000 
#    z 0.080900 0.000000 3.317070 
# 
# 
# High freq. dielectric constant tensor:
#      x y z
#    x 1.746520 0.000000 0.001510 
#    y 0.000000 1.711710 0.000000 
#    z 0.001510 0.000000 1.701720 
# 
# From -- ./inp_files/108776.got.cif
#   From: 2010.06.25/outbox.cif.g09.slc.cpg/sg12_55_cif.got.tgz:108776.got - 2010.06.28 00:19:55.
