data_PCOD8088324
_publ_section_title
;
Structure prediction by ZEFSAII (Michael W. Deem and Ramdas Pophale) SiO2 
 PCOD8088324
Probable space group: C 2/M
;
_chemical_formula_sum "Si O2"
_cell_formula_units_Z 56
_cell_length_a 27.739262
_cell_length_b 9.132758
_cell_length_c 12.602437
_cell_angle_alpha 90.000000
_cell_angle_beta 67.152578
_cell_angle_gamma 90.000000
_cell_volume 2942.161907
_symmetry_space_group_name_H-M "C 2/M"
_symmetry_group_IT_number 12
_symmetry_cell_setting 'monoclinic'
loop_
_space_group_symop_operation_xyz
x,y,z
-x,y,-z
-x,-y,-z
x,-y,z
1/2+x,1/2+y,z
1/2-x,1/2+y,-z
1/2-x,1/2-y,-z
1/2+x,1/2-y,z
loop_
_atom_site_type_symbol
_atom_site_label
_atom_site_fract_x
_atom_site_fract_y
_atom_site_fract_z
Si Si1 0.397198 0.669002 0.338391
Si Si2 0.146202 0.171676 0.002407
Si Si3 0.708046 0.828538 0.606943
Si Si4 0.443131 0.671793 0.524546
Si Si5 0.556347 0.328613 0.925384
Si Si6 0.645045 0.671357 0.244629
Si Si7 0.738525 0.827515 0.817964
O O1 0.378400 0.500000 0.353291
O O2 0.348104 0.774605 0.381904
O O3 0.431033 0.704924 0.412693
O O4 0.432395 0.705367 0.206616
O O5 0.101598 0.237559 0.962541
O O6 0.201360 0.250100 0.935142
O O7 0.154754 0.000000 0.975259
O O8 0.128546 0.204080 0.137822
O O9 0.750000 0.750000 0.500000
O O10 0.717400 0.785614 0.720444
O O11 0.712891 0.000000 0.584308
O O12 0.500000 0.741947 0.500000
O O13 0.445348 0.500000 0.546243
O O14 0.398533 0.741611 0.639573
O O15 0.554029 0.500000 0.951567
O O16 0.500000 0.257037 0.000000
O O17 0.648101 0.500000 0.265357
O O18 0.702672 0.735880 0.220032
O O19 0.736951 0.000000 0.841220
#
# Coordination Sequence:
#
# PCOD8088324 Si02
#       7
#     8   8   8   8   8   8   8
#     4  10  19  34  55  79 110 141 178 224 268 318
#     4  10  19  32  53  78 105 135 172 216 259 312
#     4  11  22  35  55  79 108 143 179 220 268 321
#     4   9  18  31  51  79 107 138 178 221 265 314
#     4   9  18  30  49  79 109 136 171 219 268 308
#     4   9  18  31  48  73 104 136 172 215 262 309
#     4  10  20  35  52  74 107 139 170 213 265 317
#
# _framework density 19.033622999999999
#
# number of rings (size 3 to 8) (size 9 to 14) (size 15 to 20)
#    0.000    2.286    1.429    1.714    2.000    2.857 
#    0.000    0.000    0.000    3.000    0.000    0.000 
#    0.000    0.000    0.000    0.000    0.000    0.000 
#
# Total GULP energy -347212.082222 kJ/mol
# GULP energy per Si atom -12400.431508 kJ/mol
# Density = 1.899030 g / cm^3
# Si number density = 19.033623 Si / 1000 Ang^3
#
#
#
# Elastic Constant Matrix: (Units=GPa)
#
#
# Indices 1 2 3 4 5 6 
#
# 1 155.0169 18.6560 76.5742 0.0000 -9.5565 0.0000
# 2 18.6560 25.5197 27.0438 0.0000 0.7837 0.0000
# 3 76.5742 27.0438 131.2995 0.0000 -10.5158 0.0000
# 4 0.0000 0.0000 0.0000 15.3673 0.0000 -5.8451
# 5 -9.5565 0.7837 -10.5158 0.0000 38.2215 0.0000
# 6 0.0000 0.0000 0.0000 -5.8451 0.0000 18.8788
#
#
#
# Elastic Compliance Matrix: (Units=1/GPa)
#
#
# Indices 1 2 3 4 5 6 
#
# 1 0.009129 -0.001460 -0.004947 0.000000 0.000951 0.000000
# 2 -0.001460 0.050952 -0.009976 0.000000 -0.004154 0.000000
# 3 -0.004947 -0.009976 0.012754 0.000000 0.002477 0.000000
# 4 0.000000 0.000000 0.000000 0.073759 0.000000 0.022837
# 5 0.000951 -0.004154 0.002477 0.000000 0.027168 0.000000
# 6 0.000000 0.000000 0.000000 0.022837 0.000000 0.060040
#
#
# Mechanical properties :
#
#
# Convention : Reuss Voigt Hill
#
# Bulk Modulus (GPa) = 24.95686 61.82048 43.38867
# Shear Modulus (GPa) = 17.86193 27.13099 22.49646
#
# Velocity S-wave (km/s) = 3.06672 3.77957 3.44165
# Velocity P-wave (km/s) = 5.06756 7.18311 6.21600
#
# Compressibility (1/GPa) = 0.04006914
#
# Stress axis : x y z
#
# Youngs Moduli (GPa) = 109.54041 19.62634 78.40454
#
# Poissons Ratio (x) = 0.02866 0.38787
# Poissons Ratio (y) = 0.15997 0.78213
# Poissons Ratio (z) = 0.54191 0.19578
#
# Static dielectric constant tensor:
#      x y z
#    x 3.726190 0.000000 -0.165980 
#    y 0.000000 2.990050 0.000000 
#    z -0.165980 0.000000 4.025680 
# 
# 
# High freq. dielectric constant tensor:
#      x y z
#    x 1.753710 0.000000 0.000790 
#    y 0.000000 1.681230 0.000000 
#    z 0.000790 0.000000 1.756080 
# 
# From -- ./inp_files/186834.got.cif
#   From: 2010.06.25/outbox.cif.g09.slc.cpg/sg12_94_cif.got.tgz:186834.got - 2010.06.28 00:19:55.
