data_PCOD8088915
_publ_section_title
;
Structure prediction by ZEFSAII (Michael W. Deem and Ramdas Pophale) SiO2 
 PCOD8088915
Probable space group: C 2/M
;
_chemical_formula_sum "Si O2"
_cell_formula_units_Z 52
_cell_length_a 13.676648
_cell_length_b 13.838813
_cell_length_c 20.969380
_cell_angle_alpha 90.000000
_cell_angle_beta 46.547813
_cell_angle_gamma 90.000000
_cell_volume 2881.177007
_symmetry_space_group_name_H-M "C 2/M"
_symmetry_group_IT_number 12
_symmetry_cell_setting 'monoclinic'
loop_
_space_group_symop_operation_xyz
x,y,z
-x,y,-z
-x,-y,-z
x,-y,z
1/2+x,1/2+y,z
1/2-x,1/2+y,-z
1/2-x,1/2-y,-z
1/2+x,1/2-y,z
loop_
_atom_site_type_symbol
_atom_site_label
_atom_site_fract_x
_atom_site_fract_y
_atom_site_fract_z
Si Si1 0.568839 0.111123 0.766560
Si Si2 0.000000 0.727165 0.000000
Si Si3 0.902297 0.232678 0.913548
Si Si4 0.328843 0.887192 0.415509
Si Si5 0.149282 0.890819 0.303211
Si Si6 0.430913 0.736132 0.466527
Si Si7 0.224886 0.107762 0.125486
O O1 0.454522 0.174073 0.851517
O O2 0.568302 0.123466 0.690144
O O3 0.712479 0.146697 0.728168
O O4 0.542331 0.000000 0.797956
O O5 0.134859 0.664490 0.939126
O O6 0.991364 0.789211 0.937714
O O7 0.894120 0.142699 0.869017
O O8 0.750000 0.250000 0.000000
O O9 0.387152 0.834530 0.451463
O O10 0.189544 0.835348 0.459919
O O11 0.303586 0.000000 0.442374
O O12 0.157466 0.886038 0.224075
O O13 0.029155 0.821765 0.376477
O O14 0.120289 0.000000 0.340069
O O15 0.500000 0.771188 0.500000
O O16 0.263424 0.000000 0.088710
#
# Coordination Sequence:
#
# PCOD8088915 Si02
#       7
#     8   4   8   8   8   8   8
#     4  10  19  35  58  82 107 142 187 230 271 322
#     4  10  19  34  53  78 104 136 177 224 273 320
#     4  10  21  34  53  81 109 137 175 227 277 323
#     4  10  22  37  56  83 113 147 187 226 269 325
#     4  10  19  32  56  84 108 140 183 230 274 319
#     4  11  21  35  57  84 114 149 181 228 275 321
#     4  10  20  34  54  78 104 139 178 222 270 323
#
# _framework density 18.048179999999999
#
# number of rings (size 3 to 8) (size 9 to 14) (size 15 to 20)
#    0.000    1.846    3.077    1.615    0.000    3.385 
#    0.000    0.385    0.000    1.846    0.000    0.000 
#    0.000    0.000    0.000    0.000    0.000    0.000 
#
# Total GULP energy -322285.545513 kJ/mol
# GULP energy per Si atom -12395.597904 kJ/mol
# Density = 1.800710 g / cm^3
# Si number density = 18.048180 Si / 1000 Ang^3
#
#
#
# Elastic Constant Matrix: (Units=GPa)
#
#
# Indices 1 2 3 4 5 6 
#
# 1 130.0045 56.5186 32.8282 0.0000 17.2373 0.0000
# 2 56.5186 68.0732 33.9140 0.0000 8.9172 0.0000
# 3 32.8282 33.9140 80.5386 0.0000 1.7893 0.0000
# 4 0.0000 0.0000 0.0000 10.8176 0.0000 17.4224
# 5 17.2373 8.9172 1.7893 0.0000 27.1292 0.0000
# 6 0.0000 0.0000 0.0000 17.4224 0.0000 0.1939
#
#
#
# Elastic Compliance Matrix: (Units=1/GPa)
#
#
# Indices 1 2 3 4 5 6 
#
# 1 0.012683 -0.009320 -0.001136 0.000000 -0.004920 0.000000
# 2 -0.009320 0.026329 -0.007238 0.000000 -0.002255 0.000000
# 3 -0.001136 -0.007238 0.015882 0.000000 0.002053 0.000000
# 4 0.000000 0.000000 0.000000 -0.000643 0.000000 0.057797
# 5 -0.004920 -0.002255 0.002053 0.000000 0.040593 0.000000
# 6 0.000000 0.000000 0.000000 0.057797 0.000000 -0.035886
#
#
# Mechanical properties :
#
#
# Convention : Reuss Voigt Hill
#
# Bulk Modulus (GPa) = 51.26509 58.34867 54.80688
# Shear Modulus (GPa) = 49.58009 17.98518 33.78263
#
# Velocity S-wave (km/s) = 5.24696 3.16018 4.33113
# Velocity P-wave (km/s) = 8.07302 6.76130 7.44610
#
# Compressibility (1/GPa) = 0.01950645
#
# Stress axis : x y z
#
# Youngs Moduli (GPa) = 78.84601 37.98036 62.96558
#
# Poissons Ratio (x) = 0.35397 0.07152
# Poissons Ratio (y) = 0.73483 0.45575
# Poissons Ratio (z) = 0.08956 0.27491
#
# Static dielectric constant tensor:
#      x y z
#    x 3.424210 0.000000 0.278470 
#    y 0.000000 3.404610 0.000000 
#    z 0.278470 0.000000 3.432810 
# 
# 
# High freq. dielectric constant tensor:
#      x y z
#    x 1.702020 0.000000 0.014440 
#    y 0.000000 1.680160 0.000000 
#    z 0.014440 0.000000 1.710450 
# 
# From -- ./inp_files/305364.got.cif
#   From: 2010.06.25/outbox.cif.g09.slc.cpg/sg12_153_cif.got.tgz:305364.got - 2010.06.28 00:19:55.
