data_PCOD8088195
_publ_section_title
;
Structure prediction by ZEFSAII (Michael W. Deem and Ramdas Pophale) SiO2 
 PCOD8088195
Probable space group: C 2/M
;
_chemical_formula_sum "Si O2"
_cell_formula_units_Z 48
_cell_length_a 27.879521
_cell_length_b 12.903365
_cell_length_c 23.961832
_cell_angle_alpha 90.000000
_cell_angle_beta 18.072775
_cell_angle_gamma 90.000000
_cell_volume 2674.143700
_symmetry_space_group_name_H-M "C 2/M"
_symmetry_group_IT_number 12
_symmetry_cell_setting 'monoclinic'
loop_
_space_group_symop_operation_xyz
x,y,z
-x,y,-z
-x,-y,-z
x,-y,z
1/2+x,1/2+y,z
1/2-x,1/2+y,-z
1/2-x,1/2-y,-z
1/2+x,1/2-y,z
loop_
_atom_site_type_symbol
_atom_site_label
_atom_site_fract_x
_atom_site_fract_y
_atom_site_fract_z
Si Si1 0.156084 0.618310 0.056900
Si Si2 0.963315 0.380041 0.929620
Si Si3 0.738515 0.709827 0.350147
Si Si4 0.939981 0.731495 0.728905
Si Si5 0.167712 0.884020 0.320436
Si Si6 0.557969 0.119258 0.498643
O O1 0.206902 0.500000 0.010435
O O2 0.308531 0.682916 0.875244
O O3 0.039422 0.627897 0.134067
O O4 0.066013 0.659138 0.210356
O O5 0.992322 0.500000 0.916135
O O6 0.095417 0.302364 0.805286
O O7 0.802616 0.335697 0.132761
O O8 0.605870 0.708925 0.544689
O O9 0.716525 0.615311 0.331216
O O10 0.715768 0.814609 0.337015
O O11 0.926804 0.660270 0.687521
O O12 0.000000 0.825479 0.500000
O O13 0.144906 0.000000 0.323427
O O14 0.500000 0.135448 0.500000
O O15 0.595879 0.000000 0.468745
#
# Coordination Sequence:
#
# PCOD8088195 Si02
#       6
#     8   8   8   8   8   8
#     4  10  20  36  56  81 112 145 185 226 273 330
#     4  10  21  34  53  83 119 148 172 216 278 339
#     4  10  20  32  53  80 110 145 180 224 270 326
#     4   9  21  35  57  82 104 146 187 234 273 317
#     4  10  19  32  52  81 113 145 178 217 269 329
#     4   9  19  36  58  81 105 144 191 233 276 320
#
# _framework density 17.949672
#
# number of rings (size 3 to 8) (size 9 to 14) (size 15 to 20)
#    1.000    1.333    0.000    3.000    2.333    4.667 
#    0.000    0.000    0.000    7.500    0.000    0.000 
#    0.000    0.000    0.000    0.000    0.000    0.000 
#
# Total GULP energy -297340.778060 kJ/mol
# GULP energy per Si atom -12389.199086 kJ/mol
# Density = 1.790882 g / cm^3
# Si number density = 17.949672 Si / 1000 Ang^3
#
#
#
# Elastic Constant Matrix: (Units=GPa)
#
#
# Indices 1 2 3 4 5 6 
#
# 1 120.5794 50.6267 71.0725 0.0079 7.7911 -0.0022
# 2 50.6267 84.7549 35.7538 0.0048 -0.3875 0.0001
# 3 71.0725 35.7538 112.6441 0.0175 5.6075 -0.0064
# 4 0.0079 0.0048 0.0175 21.9400 -0.0060 0.2871
# 5 7.7911 -0.3875 5.6075 -0.0060 31.2471 0.0011
# 6 -0.0022 0.0001 -0.0064 0.2871 0.0011 28.9640
#
#
#
# Elastic Compliance Matrix: (Units=1/GPa)
#
#
# Indices 1 2 3 4 5 6 
#
# 1 0.015584 -0.006034 -0.007790 0.000001 -0.002563 0.000000
# 2 -0.006034 0.015988 -0.001364 0.000000 0.001948 -0.000001
# 3 -0.007790 -0.001364 0.014257 -0.000008 -0.000633 0.000003
# 4 0.000001 0.000000 -0.000008 0.045585 0.000010 -0.000452
# 5 -0.002563 0.001948 -0.000633 0.000010 0.032780 -0.000002
# 6 0.000000 -0.000001 0.000003 -0.000452 -0.000002 0.034530
#
#
# Mechanical properties :
#
#
# Convention : Reuss Voigt Hill
#
# Bulk Modulus (GPa) = 64.71655 70.32047 67.51851
# Shear Modulus (GPa) = 25.74000 27.13192 26.43596
#
# Velocity S-wave (km/s) = 3.79094 3.89209 3.84185
# Velocity P-wave (km/s) = 7.43602 7.71099 7.57475
#
# Compressibility (1/GPa) = 0.01545200
#
# Stress axis : x y z
#
# Youngs Moduli (GPa) = 64.16866 62.54843 70.14136
#
# Poissons Ratio (x) = 0.37744 0.54638
# Poissons Ratio (y) = 0.38722 0.09568
# Poissons Ratio (z) = 0.49986 0.08532
#
# Static dielectric constant tensor:
#      x y z
#    x 3.295300 0.000000 0.173310 
#    y 0.000000 3.276430 0.000020 
#    z 0.173310 0.000020 3.235700 
# 
# 
# High freq. dielectric constant tensor:
#      x y z
#    x 1.694350 0.000000 0.014540 
#    y 0.000000 1.687210 0.000000 
#    z 0.014540 0.000000 1.681890 
# 
# From -- ./inp_files/325623.got.cif
#   From: 2010.06.25/outbox.cif.g09.slc.cpg/sg12_163_cif.got.tgz:325623.got - 2010.06.28 00:19:55.
