data_PCOD8088395
_publ_section_title
;
Structure prediction by ZEFSAII (Michael W. Deem and Ramdas Pophale) SiO2 
 PCOD8088395
Probable space group: C 2/M
;
_chemical_formula_sum "Si O2"
_cell_formula_units_Z 56
_cell_length_a 26.748216
_cell_length_b 8.992128
_cell_length_c 13.257595
_cell_angle_alpha 90.000000
_cell_angle_beta 114.915701
_cell_angle_gamma 90.000000
_cell_volume 2891.979089
_symmetry_space_group_name_H-M "C 2/M"
_symmetry_group_IT_number 12
_symmetry_cell_setting 'monoclinic'
loop_
_space_group_symop_operation_xyz
x,y,z
-x,y,-z
-x,-y,-z
x,-y,z
1/2+x,1/2+y,z
1/2-x,1/2+y,-z
1/2-x,1/2-y,-z
1/2+x,1/2-y,z
loop_
_atom_site_type_symbol
_atom_site_label
_atom_site_fract_x
_atom_site_fract_y
_atom_site_fract_z
Si Si1 0.698995 0.174495 0.675594
Si Si2 0.977375 0.826427 0.746607
Si Si3 0.417066 0.174315 0.103597
Si Si4 0.698536 0.176489 0.901958
Si Si5 0.621598 0.174143 0.434557
Si Si6 0.086096 0.832584 0.104192
Si Si7 0.310660 0.671121 0.676824
O O1 0.694276 0.239440 0.784190
O O2 0.643632 0.210683 0.565767
O O3 0.752343 0.239113 0.662678
O O4 0.708722 0.000000 0.691933
O O5 0.936549 0.756126 0.629083
O O6 0.954341 0.792438 0.838460
O O7 0.037531 0.754149 0.787651
O O8 0.980676 0.000000 0.727046
O O9 0.356951 0.226313 0.088514
O O10 0.425243 0.000000 0.123173
O O11 0.425561 0.218390 0.994815
O O12 0.705908 0.000000 0.910856
O O13 0.750000 0.250000 0.000000
O O14 0.667830 0.229118 0.396046
O O15 0.612674 0.000000 0.410237
O O16 0.148920 0.817567 0.193126
O O17 0.074143 0.000000 0.055089
O O18 0.307168 0.500000 0.636669
#
# Coordination Sequence:
#
# PCOD8088395 Si02
#       7
#     8   8   8   8   8   8   8
#     4   9  18  34  55  76 104 144 180 210 254 313
#     4  10  21  37  55  75 104 141 175 210 259 319
#     4  11  22  34  53  80 106 134 173 222 264 298
#     4  10  22  40  58  79 107 138 175 214 254 305
#     4  10  19  32  53  80 107 136 173 218 263 304
#     4   9  18  32  52  77 106 142 176 206 254 319
#     4   9  17  31  52  78 108 142 175 208 255 314
#
# _framework density 19.363903000000001
#
# number of rings (size 3 to 8) (size 9 to 14) (size 15 to 20)
#    0.000    2.286    0.000    3.857    0.000    6.857 
#    0.000    3.571    0.000    4.286    0.000    0.000 
#    0.000    0.000    0.000    0.000    0.000    0.000 
#
# Total GULP energy -347240.486837 kJ/mol
# GULP energy per Si atom -12401.445958 kJ/mol
# Density = 1.931983 g / cm^3
# Si number density = 19.363903 Si / 1000 Ang^3
#
#
#
# Elastic Constant Matrix: (Units=GPa)
#
#
# Indices 1 2 3 4 5 6 
#
# 1 97.2418 44.2619 60.7050 0.0000 29.9338 0.0000
# 2 44.2619 76.4872 51.3945 0.0000 13.1106 0.0000
# 3 60.7050 51.3945 133.3908 0.0000 14.0014 0.0000
# 4 0.0000 0.0000 0.0000 28.9041 0.0000 6.4266
# 5 29.9338 13.1106 14.0014 0.0000 28.4608 0.0000
# 6 0.0000 0.0000 0.0000 6.4266 0.0000 25.3593
#
#
#
# Elastic Compliance Matrix: (Units=1/GPa)
#
#
# Indices 1 2 3 4 5 6 
#
# 1 0.022037 -0.005718 -0.005978 0.000000 -0.017602 0.000000
# 2 -0.005718 0.019839 -0.004970 0.000000 -0.000680 0.000000
# 3 -0.005978 -0.004970 0.011844 0.000000 0.002750 0.000000
# 4 0.000000 0.000000 0.000000 0.036663 0.000000 -0.009291
# 5 -0.017602 -0.000680 0.002750 0.000000 0.052609 0.000000
# 6 0.000000 0.000000 0.000000 -0.009291 0.000000 0.041788
#
#
# Mechanical properties :
#
#
# Convention : Reuss Voigt Hill
#
# Bulk Modulus (GPa) = 49.05158 68.87140 58.96149
# Shear Modulus (GPa) = 22.23129 26.59541 24.41335
#
# Velocity S-wave (km/s) = 3.39201 3.71003 3.55458
# Velocity P-wave (km/s) = 6.38180 7.34824 6.88200
#
# Compressibility (1/GPa) = 0.02038670
#
# Stress axis : x y z
#
# Youngs Moduli (GPa) = 45.37875 50.40479 84.43412
#
# Poissons Ratio (x) = 0.28823 0.50474
# Poissons Ratio (y) = 0.25949 0.41966
# Poissons Ratio (z) = 0.27127 0.25052
#
# Static dielectric constant tensor:
#      x y z
#    x 3.577980 0.000000 0.158420 
#    y 0.000000 3.357610 0.000000 
#    z 0.158420 0.000000 3.592340 
# 
# 
# High freq. dielectric constant tensor:
#      x y z
#    x 1.746040 0.000000 0.020120 
#    y 0.000000 1.739580 0.000000 
#    z 0.020120 0.000000 1.757680 
# 
# From -- ./inp_files/248570.got.cif
#   From: 2010.06.25/outbox.cif.g09.slc.cpg/sg12_125_cif.got.tgz:248570.got - 2010.06.28 00:19:55.
