data_PCOD8088089
_publ_section_title
;
Structure prediction by ZEFSAII (Michael W. Deem and Ramdas Pophale) SiO2 
 PCOD8088089
Probable space group: C 2/M
;
_chemical_formula_sum "Si O2"
_cell_formula_units_Z 64
_cell_length_a 19.906740
_cell_length_b 9.438963
_cell_length_c 25.510026
_cell_angle_alpha 90.000000
_cell_angle_beta 50.458117
_cell_angle_gamma 90.000000
_cell_volume 3696.404494
_symmetry_space_group_name_H-M "C 2/M"
_symmetry_group_IT_number 12
_symmetry_cell_setting 'monoclinic'
loop_
_space_group_symop_operation_xyz
x,y,z
-x,y,-z
-x,-y,-z
x,-y,z
1/2+x,1/2+y,z
1/2-x,1/2+y,-z
1/2-x,1/2-y,-z
1/2+x,1/2-y,z
loop_
_atom_site_type_symbol
_atom_site_label
_atom_site_fract_x
_atom_site_fract_y
_atom_site_fract_z
Si Si1 0.990416 0.836010 0.165969
Si Si2 0.190019 0.837215 0.068181
Si Si3 0.423208 0.833238 0.575751
Si Si4 0.072029 0.661968 0.706411
Si Si5 0.439278 0.163112 0.686569
Si Si6 0.346828 0.837969 0.188557
Si Si7 0.246061 0.838326 0.343695
Si Si8 0.203207 0.164635 0.180077
O O1 0.977121 0.764029 0.228867
O O2 0.931080 0.762498 0.150917
O O3 0.090447 0.818004 0.099660
O O4 0.964159 0.000000 0.183727
O O5 0.203866 0.779522 0.120324
O O6 0.218982 0.000000 0.050822
O O7 0.250000 0.750000 0.000000
O O8 0.500000 0.779345 0.500000
O O9 0.448189 0.786822 0.622267
O O10 0.333950 0.761209 0.601627
O O11 0.409723 0.000000 0.577305
O O12 0.056910 0.500000 0.732920
O O13 0.175468 0.693186 0.654356
O O14 0.032807 0.686667 0.668093
O O15 0.366937 0.252506 0.751607
O O16 0.410250 0.000000 0.703795
O O17 0.279621 0.802461 0.268656
O O18 0.298781 0.809906 0.157374
O O19 0.378484 0.000000 0.177457
O O20 0.214335 0.000000 0.362946
O O21 0.176751 0.000000 0.195216
#
# Coordination Sequence:
#
# PCOD8088089 Si02
#       8
#     8   8   8   8   8   8   8   8
#     4  10  19  32  52  78 106 134 169 213 259 306
#     4  10  22  37  54  77 106 141 174 211 259 309
#     4  10  21  35  50  73 107 141 172 211 261 313
#     4   9  18  32  51  76 103 132 170 215 261 306
#     4  10  19  32  53  78 102 135 177 216 257 306
#     4   9  18  32  53  78 105 135 168 213 262 306
#     4   9  17  31  51  74 100 133 171 212 257 307
#     4  10  19  35  55  78 106 134 173 220 258 299
#
# _framework density 17.314122000000001
#
# number of rings (size 3 to 8) (size 9 to 14) (size 15 to 20)
#    0.000    2.375    2.500    1.125    0.000    4.250 
#    0.000    1.250    0.000    3.750    0.000    0.000 
#    0.000    0.000    0.000    0.000    0.000    0.000 
#
# Total GULP energy -396808.277746 kJ/mol
# GULP energy per Si atom -12400.258680 kJ/mol
# Density = 1.727471 g / cm^3
# Si number density = 17.314122 Si / 1000 Ang^3
#
#
#
# Elastic Constant Matrix: (Units=GPa)
#
#
# Indices 1 2 3 4 5 6 
#
# 1 124.9401 51.1262 60.0664 -0.0001 -0.0510 -0.0001
# 2 51.1262 72.4834 54.1284 -0.0003 -7.4657 -0.0005
# 3 60.0664 54.1284 108.9926 0.0000 -0.2904 0.0000
# 4 -0.0001 -0.0003 0.0000 26.0043 0.0000 -6.6220
# 5 -0.0510 -7.4657 -0.2904 0.0000 23.9209 0.0000
# 6 -0.0001 -0.0005 0.0000 -6.6220 0.0000 30.2207
#
#
#
# Elastic Compliance Matrix: (Units=1/GPa)
#
#
# Indices 1 2 3 4 5 6 
#
# 1 0.012293 -0.006047 -0.003777 0.000000 -0.001907 0.000000
# 2 -0.006047 0.026037 -0.009577 0.000000 0.007997 0.000000
# 3 -0.003777 -0.009577 0.016005 0.000000 -0.002803 0.000000
# 4 0.000000 0.000000 0.000000 0.040728 0.000000 0.008924
# 5 -0.001907 0.007997 -0.002803 0.000000 0.044262 0.000000
# 6 0.000000 0.000000 0.000000 0.008924 0.000000 0.035045
#
#
# Mechanical properties :
#
#
# Convention : Reuss Voigt Hill
#
# Bulk Modulus (GPa) = 64.37540 70.78423 67.57982
# Shear Modulus (GPa) = 22.89905 25.43550 24.16728
#
# Velocity S-wave (km/s) = 3.64065 3.83699 3.74011
# Velocity P-wave (km/s) = 7.41175 7.78467 7.60050
#
# Compressibility (1/GPa) = 0.01553388
#
# Stress axis : x y z
#
# Youngs Moduli (GPa) = 81.34493 38.40714 62.48073
#
# Poissons Ratio (x) = 0.23225 0.23598
# Poissons Ratio (y) = 0.49190 0.59836
# Poissons Ratio (z) = 0.30723 0.36781
#
# Static dielectric constant tensor:
#      x y z
#    x 3.605080 0.000000 0.107070 
#    y 0.000000 3.224510 0.000000 
#    z 0.107070 0.000000 2.943540 
# 
# 
# High freq. dielectric constant tensor:
#      x y z
#    x 1.686140 0.000000 0.000630 
#    y 0.000000 1.669220 0.000000 
#    z 0.000630 0.000000 1.632970 
# 
# From -- ./inp_files/319127.got.cif
#   From: 2010.06.25/outbox.cif.g09.slc.cpg/sg12_160_cif.got.tgz:319127.got - 2010.06.28 00:19:55.
