data_PCOD8088566
_publ_section_title
;
Structure prediction by ZEFSAII (Michael W. Deem and Ramdas Pophale) SiO2 
 PCOD8088566
Probable space group: C 2/M
;
_chemical_formula_sum "Si O2"
_cell_formula_units_Z 60
_cell_length_a 17.827859
_cell_length_b 30.939793
_cell_length_c 6.244734
_cell_angle_alpha 90.000000
_cell_angle_beta 116.140803
_cell_angle_gamma 90.000000
_cell_volume 3092.207001
_symmetry_space_group_name_H-M "C 2/M"
_symmetry_group_IT_number 12
_symmetry_cell_setting 'monoclinic'
loop_
_space_group_symop_operation_xyz
x,y,z
-x,y,-z
-x,-y,-z
x,-y,z
1/2+x,1/2+y,z
1/2-x,1/2+y,-z
1/2-x,1/2-y,-z
1/2+x,1/2-y,z
loop_
_atom_site_type_symbol
_atom_site_label
_atom_site_fract_x
_atom_site_fract_y
_atom_site_fract_z
Si Si1 0.416458 0.273705 0.532933
Si Si2 0.416386 0.894372 0.284449
Si Si3 0.409730 0.347936 0.849713
Si Si4 0.000000 0.572610 0.000000
Si Si5 0.340811 0.815361 0.395756
Si Si6 0.799306 0.824227 0.088892
Si Si7 0.651227 0.048576 0.459064
Si Si8 0.254181 0.377605 0.410912
O O1 0.500000 0.277686 0.500000
O O2 0.425148 0.300597 0.762519
O O3 0.394992 0.223949 0.558893
O O4 0.336289 0.290803 0.303825
O O5 0.500000 0.909879 0.500000
O O6 0.399099 0.844835 0.319977
O O7 0.349056 0.927191 0.308899
O O8 0.432381 0.898660 0.049579
O O9 0.348963 0.376516 0.623489
O O10 0.500000 0.370537 0.000000
O O11 0.372743 0.343943 0.039211
O O12 0.059382 0.545130 0.231890
O O13 0.304372 0.842518 0.546235
O O14 0.265616 0.799530 0.147382
O O15 0.755390 0.864377 0.160958
O O16 0.716646 0.074513 0.390394
O O17 0.684508 0.000000 0.534480
#
# Coordination Sequence:
#
# PCOD8088566 Si02
#       8
#     8   8   8   4   8   8   8   8
#     4  11  21  33  51  75 104 136 179 221 257 299
#     4   9  19  34  50  73 108 145 179 212 252 301
#     4  10  20  37  56  77 102 135 179 221 261 317
#     4  10  19  32  54  78 106 146 184 210 250 310
#     4  10  20  34  50  73 107 141 175 215 257 305
#     4  10  20  35  53  73 100 135 176 215 265 308
#     4  10  20  35  54  80 109 138 174 218 262 313
#     4   9  21  36  55  77 104 139 175 214 264 317
#
# _framework density 19.403618000000002
#
# number of rings (size 3 to 8) (size 9 to 14) (size 15 to 20)
#    0.000    2.133    1.333    1.800    0.000    8.800 
#    0.000    1.333    1.467    0.400    0.000    0.933 
#    0.000    0.000    0.000    0.000    0.000    0.000 
#
# Total GULP energy -371820.660102 kJ/mol
# GULP energy per Si atom -12394.022003 kJ/mol
# Density = 1.935945 g / cm^3
# Si number density = 19.403618 Si / 1000 Ang^3
#
#
#
# Elastic Constant Matrix: (Units=GPa)
#
#
# Indices 1 2 3 4 5 6 
#
# 1 100.7030 40.5594 21.0421 0.0000 -18.3259 0.0000
# 2 40.5594 92.6600 8.9737 0.0000 -2.9241 0.0000
# 3 21.0421 8.9737 55.8751 0.0000 -12.7010 0.0000
# 4 0.0000 0.0000 0.0000 12.3753 0.0000 -0.4273
# 5 -18.3259 -2.9241 -12.7010 0.0000 35.8956 0.0000
# 6 0.0000 0.0000 0.0000 -0.4273 0.0000 13.9830
#
#
#
# Elastic Compliance Matrix: (Units=1/GPa)
#
#
# Indices 1 2 3 4 5 6 
#
# 1 0.013820 -0.005579 -0.003054 0.000000 0.005521 0.000000
# 2 -0.005579 0.013218 -0.000462 0.000000 -0.001935 0.000000
# 3 -0.003054 -0.000462 0.020399 0.000000 0.005621 0.000000
# 4 0.000000 0.000000 0.000000 0.080892 0.000000 0.002472
# 5 0.005521 -0.001935 0.005621 0.000000 0.032508 0.000000
# 6 0.000000 0.000000 0.000000 0.002472 0.000000 0.071591
#
#
# Mechanical properties :
#
#
# Convention : Reuss Voigt Hill
#
# Bulk Modulus (GPa) = 34.19042 43.37652 38.78347
# Shear Modulus (GPa) = 19.20370 24.36163 21.78266
#
# Velocity S-wave (km/s) = 3.14936 3.54718 3.35417
# Velocity P-wave (km/s) = 5.55729 6.25939 5.91876
#
# Compressibility (1/GPa) = 0.02924796
#
# Stress axis : x y z
#
# Youngs Moduli (GPa) = 72.35854 75.65433 49.02228
#
# Poissons Ratio (x) = 0.42211 0.14969
# Poissons Ratio (y) = 0.40372 0.02263
# Poissons Ratio (z) = 0.22095 0.03492
#
# Static dielectric constant tensor:
#      x y z
#    x 3.840090 0.000000 -0.155910 
#    y 0.000000 3.171400 0.000000 
#    z -0.155910 0.000000 3.698290 
# 
# 
# High freq. dielectric constant tensor:
#      x y z
#    x 1.762490 0.000000 -0.007000 
#    y 0.000000 1.711710 0.000000 
#    z -0.007000 0.000000 1.758270 
# 
# From -- ./inp_files/18337.got.cif
#   From: 2010.06.25/outbox.cif.g09.slc.cpg/sg12_10_cif.got.tgz:18337.got - 2010.06.28 00:19:55.
