data_PCOD8088365
_publ_section_title
;
Structure prediction by ZEFSAII (Michael W. Deem and Ramdas Pophale) SiO2 
 PCOD8088365
Probable space group: C 2/M
;
_chemical_formula_sum "Si O2"
_cell_formula_units_Z 56
_cell_length_a 14.301992
_cell_length_b 19.280269
_cell_length_c 15.213621
_cell_angle_alpha 90.000000
_cell_angle_beta 133.803890
_cell_angle_gamma 90.000000
_cell_volume 3027.658458
_symmetry_space_group_name_H-M "C 2/M"
_symmetry_group_IT_number 12
_symmetry_cell_setting 'monoclinic'
loop_
_space_group_symop_operation_xyz
x,y,z
-x,y,-z
-x,-y,-z
x,-y,z
1/2+x,1/2+y,z
1/2-x,1/2+y,-z
1/2-x,1/2-y,-z
1/2+x,1/2-y,z
loop_
_atom_site_type_symbol
_atom_site_label
_atom_site_fract_x
_atom_site_fract_y
_atom_site_fract_z
Si Si1 0.026200 0.811471 0.662078
Si Si2 0.938929 0.918871 0.164436
Si Si3 0.041185 0.332995 0.295342
Si Si4 0.295707 0.081099 0.112435
Si Si5 0.868321 0.645584 0.462201
Si Si6 0.817836 0.921279 0.781572
Si Si7 0.798589 0.205876 0.386048
O O1 0.052500 0.877728 0.739442
O O2 0.149981 0.803239 0.679098
O O3 0.011065 0.742183 0.709841
O O4 0.897463 0.826822 0.521506
O O5 0.048284 0.889508 0.168168
O O6 0.963379 0.000000 0.200647
O O7 0.799098 0.906502 0.030828
O O8 0.098566 0.374798 0.416647
O O9 0.157075 0.328612 0.300160
O O10 0.926792 0.377276 0.177208
O O11 0.230468 0.113179 0.158823
O O12 0.328724 0.000000 0.146158
O O13 0.794818 0.583324 0.365564
O O14 0.777559 0.713340 0.397361
O O15 0.000000 0.667346 0.500000
O O16 0.846838 0.000000 0.823802
#
# Coordination Sequence:
#
# PCOD8088365 Si02
#       7
#     8   8   8   8   8   8   8
#     4  10  19  36  56  78 105 136 178 218 256 314
#     4  10  21  37  55  74 102 144 184 218 260 306
#     4  11  20  33  55  81 110 139 172 211 267 315
#     4  10  21  36  52  76 110 141 174 219 264 309
#     4  11  17  32  53  81 110 137 165 207 267 316
#     4  10  19  32  53  79 107 140 175 211 258 319
#     4  10  19  34  55  80 106 138 168 216 270 314
#
# _framework density 18.496141000000001
#
# number of rings (size 3 to 8) (size 9 to 14) (size 15 to 20)
#    0.000    1.714    4.286    3.857    0.000    3.143 
#    0.000    3.571    0.000    1.714    0.000    0.000 
#    0.000    0.000    0.000    0.000    0.000    0.000 
#
# Total GULP energy -347180.085084 kJ/mol
# GULP energy per Si atom -12399.288753 kJ/mol
# Density = 1.845404 g / cm^3
# Si number density = 18.496141 Si / 1000 Ang^3
#
#
#
# Elastic Constant Matrix: (Units=GPa)
#
#
# Indices 1 2 3 4 5 6 
#
# 1 130.3977 37.5959 43.8753 0.0000 14.7593 0.0000
# 2 37.5959 53.3773 40.5364 0.0000 5.0684 0.0000
# 3 43.8753 40.5364 76.2388 0.0000 9.8513 0.0000
# 4 0.0000 0.0000 0.0000 30.0811 0.0000 1.9124
# 5 14.7593 5.0684 9.8513 0.0000 24.7668 0.0000
# 6 0.0000 0.0000 0.0000 1.9124 0.0000 21.8988
#
#
#
# Elastic Compliance Matrix: (Units=1/GPa)
#
#
# Indices 1 2 3 4 5 6 
#
# 1 0.010507 -0.004732 -0.003001 0.000000 -0.004099 0.000000
# 2 -0.004732 0.033556 -0.015386 0.000000 0.002073 0.000000
# 3 -0.003001 -0.015386 0.023600 0.000000 -0.004450 0.000000
# 4 0.000000 0.000000 0.000000 0.033429 0.000000 -0.002919
# 5 -0.004099 0.002073 -0.004450 0.000000 0.044165 0.000000
# 6 0.000000 0.000000 0.000000 -0.002919 0.000000 0.045919
#
#
# Mechanical properties :
#
#
# Convention : Reuss Voigt Hill
#
# Bulk Modulus (GPa) = 46.67752 56.00322 51.34037
# Shear Modulus (GPa) = 20.44525 24.54975 22.49750
#
# Velocity S-wave (km/s) = 3.32833 3.64715 3.49138
# Velocity P-wave (km/s) = 6.32942 6.93395 6.63857
#
# Compressibility (1/GPa) = 0.02142359
#
# Stress axis : x y z
#
# Youngs Moduli (GPa) = 95.17499 29.80135 42.37377
#
# Poissons Ratio (x) = 0.14103 0.12716
# Poissons Ratio (y) = 0.45040 0.65196
# Poissons Ratio (z) = 0.28561 0.45852
#
# Static dielectric constant tensor:
#      x y z
#    x 3.512340 0.000000 0.043190 
#    y 0.000000 3.164360 0.000000 
#    z 0.043190 0.000000 3.257680 
# 
# 
# High freq. dielectric constant tensor:
#      x y z
#    x 1.722900 0.000000 0.008180 
#    y 0.000000 1.689840 0.000000 
#    z 0.008180 0.000000 1.705610 
# 
# From -- ./inp_files/216437.got.cif
#   From: 2010.06.25/outbox.cif.g09.slc.cpg/sg12_109_cif.got.tgz:216437.got - 2010.06.28 00:19:55.
