data_PCOD8088933
_publ_section_title
;
Structure prediction by ZEFSAII (Michael W. Deem and Ramdas Pophale) SiO2 
 PCOD8088933
Probable space group: C 2/M
;
_chemical_formula_sum "Si O2"
_cell_formula_units_Z 56
_cell_length_a 21.062443
_cell_length_b 21.278336
_cell_length_c 11.196550
_cell_angle_alpha 90.000000
_cell_angle_beta 32.436826
_cell_angle_gamma 90.000000
_cell_volume 2691.501293
_symmetry_space_group_name_H-M "C 2/M"
_symmetry_group_IT_number 12
_symmetry_cell_setting 'monoclinic'
loop_
_space_group_symop_operation_xyz
x,y,z
-x,y,-z
-x,-y,-z
x,-y,z
1/2+x,1/2+y,z
1/2-x,1/2+y,-z
1/2-x,1/2-y,-z
1/2+x,1/2-y,z
loop_
_atom_site_type_symbol
_atom_site_label
_atom_site_fract_x
_atom_site_fract_y
_atom_site_fract_z
Si Si1 0.492928 0.930810 0.879921
Si Si2 0.366289 0.206172 0.193140
Si Si3 0.256997 0.881880 0.188048
Si Si4 0.670367 0.345424 0.675613
Si Si5 0.286680 0.427640 0.992860
Si Si6 0.814702 0.573244 0.604233
Si Si7 0.454019 0.573664 0.315372
O O1 0.569946 0.899728 0.649339
O O2 0.545829 0.000000 0.810762
O O3 0.500000 0.897680 0.000000
O O4 0.357116 0.933602 0.055808
O O5 0.312121 0.184640 0.149812
O O6 0.368930 0.280670 0.202323
O O7 0.287534 0.168241 0.412768
O O8 0.500000 0.182945 0.000000
O O9 0.235177 0.879250 0.080626
O O10 0.135598 0.904300 0.439542
O O11 0.699320 0.393329 0.734779
O O12 0.567503 0.379444 0.762430
O O13 0.278671 0.500000 0.960887
O O14 0.414798 0.414953 0.845606
O O15 0.184877 0.413563 0.253924
O O16 0.796200 0.500000 0.612893
O O17 0.433166 0.500000 0.315517
#
# Coordination Sequence:
#
# PCOD8088933 Si02
#       7
#     8   8   8   8   8   8   8
#     4  10  19  32  56  86 114 147 189 238 288 341
#     4  10  22  38  59  83 107 149 198 247 285 329
#     4  11  20  36  57  82 117 155 194 237 281 337
#     4  10  21  37  59  84 112 146 191 242 295 336
#     4  10  22  36  54  87 125 157 187 227 286 355
#     4  10  21  36  56  87 121 148 185 236 295 356
#     4  10  20  35  60  90 117 150 191 237 292 350
#
# _framework density 20.806232999999999
#
# number of rings (size 3 to 8) (size 9 to 14) (size 15 to 20)
#    0.000    1.857    0.000    5.143    2.000    2.857 
#    0.000    5.000    0.000    0.429    3.714    0.000 
#    0.000    0.000    0.000    0.000    0.000    0.000 
#
# Total GULP energy -346871.009426 kJ/mol
# GULP energy per Si atom -12388.250337 kJ/mol
# Density = 2.075888 g / cm^3
# Si number density = 20.806233 Si / 1000 Ang^3
#
#
#
# Elastic Constant Matrix: (Units=GPa)
#
#
# Indices 1 2 3 4 5 6 
#
# 1 113.3702 56.8983 43.2085 0.0000 18.3771 0.0001
# 2 56.8983 104.9973 33.3382 0.0001 18.6772 -0.0001
# 3 43.2085 33.3382 104.5934 0.0004 6.7458 -0.0004
# 4 0.0000 0.0001 0.0004 18.4543 -0.0002 7.3954
# 5 18.3771 18.6772 6.7458 -0.0002 32.0923 0.0001
# 6 0.0001 -0.0001 -0.0004 7.3954 0.0001 26.8836
#
#
#
# Elastic Compliance Matrix: (Units=1/GPa)
#
#
# Indices 1 2 3 4 5 6 
#
# 1 0.013593 -0.005547 -0.003603 0.000000 -0.003799 0.000000
# 2 -0.005547 0.013926 -0.001855 0.000000 -0.004539 0.000000
# 3 -0.003603 -0.001855 0.011595 0.000000 0.000705 0.000000
# 4 0.000000 0.000000 0.000000 0.060901 0.000000 -0.016753
# 5 -0.003799 -0.004539 0.000705 0.000000 0.035829 0.000000
# 6 0.000000 0.000000 0.000000 -0.016753 0.000000 0.041806
#
#
# Mechanical properties :
#
#
# Convention : Reuss Voigt Hill
#
# Bulk Modulus (GPa) = 58.45818 65.53900 61.99859
# Shear Modulus (GPa) = 24.34751 28.12044 26.23397
#
# Velocity S-wave (km/s) = 3.42453 3.68032 3.55473
# Velocity P-wave (km/s) = 6.61771 7.04469 6.83454
#
# Compressibility (1/GPa) = 0.01710625
#
# Stress axis : x y z
#
# Youngs Moduli (GPa) = 73.56643 71.80800 86.24573
#
# Poissons Ratio (x) = 0.39829 0.31070
# Poissons Ratio (y) = 0.40804 0.15996
# Poissons Ratio (z) = 0.26503 0.13318
#
# Static dielectric constant tensor:
#      x y z
#    x 3.553050 0.000000 0.076970 
#    y 0.000000 3.609120 0.000000 
#    z 0.076970 0.000000 4.026950 
# 
# 
# High freq. dielectric constant tensor:
#      x y z
#    x 1.797340 0.000000 0.000630 
#    y 0.000000 1.803340 0.000000 
#    z 0.000630 0.000000 1.833580 
# 
# From -- ./inp_files/178257.got.cif
#   From: 2010.06.25/outbox.cif.g09.slc.cpg/sg12_90_cif.got.tgz:178257.got - 2010.06.28 00:19:55.
