data_PCOD8088193
_publ_section_title
;
Structure prediction by ZEFSAII (Michael W. Deem and Ramdas Pophale) SiO2 
 PCOD8088193
Probable space group: C 2/M
;
_chemical_formula_sum "Si O2"
_cell_formula_units_Z 40
_cell_length_a 20.201280
_cell_length_b 8.774239
_cell_length_c 17.948970
_cell_angle_alpha 90.000000
_cell_angle_beta 42.909330
_cell_angle_gamma 90.000000
_cell_volume 2166.072738
_symmetry_space_group_name_H-M "C 2/M"
_symmetry_group_IT_number 12
_symmetry_cell_setting 'monoclinic'
loop_
_space_group_symop_operation_xyz
x,y,z
-x,y,-z
-x,-y,-z
x,-y,z
1/2+x,1/2+y,z
1/2-x,1/2+y,-z
1/2-x,1/2-y,-z
1/2+x,1/2-y,z
loop_
_atom_site_type_symbol
_atom_site_label
_atom_site_fract_x
_atom_site_fract_y
_atom_site_fract_z
Si Si1 0.219070 0.322903 0.768592
Si Si2 0.103273 0.324479 0.452261
Si Si3 0.645406 0.679480 0.571975
Si Si4 0.915367 0.171617 0.009522
Si Si5 0.051712 0.322703 0.787189
O O1 0.244196 0.500000 0.755249
O O2 0.315947 0.228308 0.673195
O O3 0.175641 0.264646 0.882651
O O4 0.144334 0.292421 0.763128
O O5 0.121363 0.500000 0.458875
O O6 0.107356 0.221685 0.522084
O O7 0.000000 0.299216 0.500000
O O8 0.655006 0.500000 0.571157
O O9 0.750000 0.750000 0.500000
O O10 0.568176 0.740456 0.695301
O O11 0.882794 0.000000 0.016893
O O12 0.000000 0.171145 0.000000
O O13 0.953816 0.254273 0.903680
O O14 0.035027 0.500000 0.787054
#
# Coordination Sequence:
#
# PCOD8088193 Si02
#       5
#     8   8   8   8   8
#     4  10  19  32  53  79 110 147 185 229 275 328
#     4  11  24  40  58  81 112 150 190 232 279 334
#     4  12  23  36  57  83 113 148 186 232 281 332
#     4   9  17  29  48  76 110 145 181 226 275 327
#     4  10  19  32  52  81 113 144 182 229 277 329
#
# _framework density 18.4666
#
# number of rings (size 3 to 8) (size 9 to 14) (size 15 to 20)
#    0.000    1.600    2.000    4.200    0.000    5.600 
#    0.000    0.000    0.000    1.200    0.000    0.000 
#    0.000    0.000    0.000    0.000    0.000    0.000 
#
# Total GULP energy -248090.831377 kJ/mol
# GULP energy per Si atom -12404.541569 kJ/mol
# Density = 1.842457 g / cm^3
# Si number density = 18.466600 Si / 1000 Ang^3
#
#
#
# Elastic Constant Matrix: (Units=GPa)
#
#
# Indices 1 2 3 4 5 6 
#
# 1 44.0096 30.3605 36.2776 0.0000 2.2187 0.0000
# 2 30.3605 111.7844 52.0900 -0.0001 5.2873 -0.0001
# 3 36.2776 52.0900 160.2507 0.0000 13.7417 0.0000
# 4 0.0000 -0.0001 0.0000 41.7531 0.0000 3.5518
# 5 2.2187 5.2873 13.7417 0.0000 19.0318 0.0000
# 6 0.0000 -0.0001 0.0000 3.5518 0.0000 21.7659
#
#
#
# Elastic Compliance Matrix: (Units=1/GPa)
#
#
# Indices 1 2 3 4 5 6 
#
# 1 0.031153 -0.006114 -0.005222 0.000000 0.001838 0.000000
# 2 -0.006114 0.011747 -0.002362 0.000000 -0.000845 0.000000
# 3 -0.005222 -0.002362 0.008615 0.000000 -0.004955 0.000000
# 4 0.000000 0.000000 0.000000 0.024287 0.000000 -0.003963
# 5 0.001838 -0.000845 -0.004955 0.000000 0.056142 0.000000
# 6 0.000000 0.000000 0.000000 -0.003963 0.000000 0.046590
#
#
# Mechanical properties :
#
#
# Convention : Reuss Voigt Hill
#
# Bulk Modulus (GPa) = 41.46336 61.50010 51.48173
# Shear Modulus (GPa) = 23.36767 29.66461 26.51614
#
# Velocity S-wave (km/s) = 3.56111 4.01233 3.79343
# Velocity P-wave (km/s) = 6.27778 7.40546 6.86481
#
# Compressibility (1/GPa) = 0.02411768
#
# Stress axis : x y z
#
# Youngs Moduli (GPa) = 32.10003 85.12843 116.07520
#
# Poissons Ratio (x) = 0.52050 0.60620
# Poissons Ratio (y) = 0.19627 0.27414
# Poissons Ratio (z) = 0.16764 0.20105
#
# Static dielectric constant tensor:
#      x y z
#    x 3.352980 0.000000 0.206930 
#    y 0.000000 3.594940 0.000000 
#    z 0.206930 0.000000 3.706520 
# 
# 
# High freq. dielectric constant tensor:
#      x y z
#    x 1.660710 0.000000 0.008730 
#    y 0.000000 1.737780 0.000000 
#    z 0.008730 0.000000 1.737170 
# 
# From -- ./inp_files/162737.got.cif
#   From: 2010.06.25/outbox.cif.g09.slc.cpg/sg12_82_cif.got.tgz:162737.got - 2010.06.28 00:19:55.
