data_PCOD8088079
_publ_section_title
;
Structure prediction by ZEFSAII (Michael W. Deem and Ramdas Pophale) SiO2 
 PCOD8088079
Probable space group: C 2/M
;
_chemical_formula_sum "Si O2"
_cell_formula_units_Z 64
_cell_length_a 19.915023
_cell_length_b 9.449236
_cell_length_c 25.167304
_cell_angle_alpha 90.000000
_cell_angle_beta 128.427505
_cell_angle_gamma 90.000000
_cell_volume 3710.181027
_symmetry_space_group_name_H-M "C 2/M"
_symmetry_group_IT_number 12
_symmetry_cell_setting 'monoclinic'
loop_
_space_group_symop_operation_xyz
x,y,z
-x,y,-z
-x,-y,-z
x,-y,z
1/2+x,1/2+y,z
1/2-x,1/2+y,-z
1/2-x,1/2-y,-z
1/2+x,1/2-y,z
loop_
_atom_site_type_symbol
_atom_site_label
_atom_site_fract_x
_atom_site_fract_y
_atom_site_fract_z
Si Si1 0.201885 0.337154 0.830123
Si Si2 0.189650 0.834481 0.930988
Si Si3 0.325451 0.662014 0.801248
Si Si4 0.254990 0.163036 0.672643
Si Si5 0.072992 0.336812 0.293202
Si Si6 0.063731 0.165172 0.576175
Si Si7 0.047227 0.337507 0.674550
Si Si8 0.497604 0.338494 0.835245
O O1 0.194607 0.500000 0.846567
O O2 0.198432 0.228832 0.876672
O O3 0.293014 0.311120 0.845230
O O4 0.126653 0.301390 0.751794
O O5 0.092661 0.813318 0.904857
O O6 0.214826 0.000000 0.942132
O O7 0.250000 0.750000 0.000000
O O8 0.308952 0.500000 0.777371
O O9 0.267953 0.751379 0.732855
O O10 0.426492 0.701247 0.845134
O O11 0.326602 0.205034 0.663769
O O12 0.160552 0.195366 0.603494
O O13 0.264136 0.000000 0.692981
O O14 0.057409 0.500000 0.271823
O O15 0.014232 0.253711 0.222958
O O16 0.041010 0.304688 0.336986
O O17 0.045915 0.240423 0.622720
O O18 0.000000 0.225538 0.500000
O O19 0.047178 0.000000 0.577453
O O20 0.051807 0.500000 0.658351
O O21 0.486256 0.500000 0.811597
#
# Coordination Sequence:
#
# PCOD8088079 Si02
#       8
#     8   8   8   8   8   8   8   8
#     4  10  19  33  54  79 105 132 166 210 256 301
#     4  11  23  37  54  76 105 139 172 206 249 301
#     4   9  17  31  52  77 103 128 162 210 255 296
#     4   9  17  30  49  72  99 133 169 206 251 300
#     4   9  17  30  50  75 101 128 163 209 256 300
#     4  10  21  35  50  71 103 140 174 210 253 301
#     4  10  19  32  52  78 103 130 168 212 256 301
#     4   9  18  32  51  76 102 131 167 205 249 298
#
# _framework density 17.249832999999999
#
# number of rings (size 3 to 8) (size 9 to 14) (size 15 to 20)
#    0.000    2.375    2.500    0.375    0.000    2.250 
#    0.000    1.250    0.000    3.750    0.000    0.000 
#    0.000    0.000    0.000    0.000    0.000    0.000 
#
# Total GULP energy -396697.648336 kJ/mol
# GULP energy per Si atom -12396.801510 kJ/mol
# Density = 1.721057 g / cm^3
# Si number density = 17.249833 Si / 1000 Ang^3
#
#
#
# Elastic Constant Matrix: (Units=GPa)
#
#
# Indices 1 2 3 4 5 6 
#
# 1 117.4399 48.2235 60.6459 0.0000 6.3665 0.0000
# 2 48.2235 68.4407 53.8402 0.0000 1.8790 0.0000
# 3 60.6459 53.8402 103.3539 0.0000 6.6124 0.0000
# 4 0.0000 0.0000 0.0000 26.3297 0.0000 -4.6618
# 5 6.3665 1.8790 6.6124 0.0000 22.0967 0.0000
# 6 0.0000 0.0000 0.0000 -4.6618 0.0000 26.1425
#
#
#
# Elastic Compliance Matrix: (Units=1/GPa)
#
#
# Indices 1 2 3 4 5 6 
#
# 1 0.013413 -0.005598 -0.004830 0.000000 -0.001943 0.000000
# 2 -0.005598 0.027162 -0.011031 0.000000 0.002604 0.000000
# 3 -0.004830 -0.011031 0.018461 0.000000 -0.003195 0.000000
# 4 0.000000 0.000000 0.000000 0.039218 0.000000 0.006994
# 5 -0.001943 0.002604 -0.003195 0.000000 0.046550 0.000000
# 6 0.000000 0.000000 0.000000 0.006994 0.000000 0.039499
#
#
# Mechanical properties :
#
#
# Convention : Reuss Voigt Hill
#
# Bulk Modulus (GPa) = 62.04620 68.29487 65.17053
# Shear Modulus (GPa) = 21.49661 23.34877 22.42269
#
# Velocity S-wave (km/s) = 3.53397 3.68307 3.60929
# Velocity P-wave (km/s) = 7.25942 7.60028 7.43181
#
# Compressibility (1/GPa) = 0.01611702
#
# Stress axis : x y z
#
# Youngs Moduli (GPa) = 74.55298 36.81602 54.16903
#
# Poissons Ratio (x) = 0.20609 0.26165
# Poissons Ratio (y) = 0.41734 0.59756
# Poissons Ratio (z) = 0.36010 0.40613
#
# Static dielectric constant tensor:
#      x y z
#    x 3.714110 0.000000 0.185140 
#    y 0.000000 3.250850 0.000000 
#    z 0.185140 0.000000 2.999470 
# 
# 
# High freq. dielectric constant tensor:
#      x y z
#    x 1.686390 0.000000 0.011980 
#    y 0.000000 1.668570 0.000000 
#    z 0.011980 0.000000 1.628820 
# 
# From -- ./inp_files/319124.got.cif
#   From: 2010.06.25/outbox.cif.g09.slc.cpg/sg12_160_cif.got.tgz:319124.got - 2010.06.28 00:19:55.
