data_PCOD8088341
_publ_section_title
;
Structure prediction by ZEFSAII (Michael W. Deem and Ramdas Pophale) SiO2 
 PCOD8088341
Probable space group: C 2/M
;
_chemical_formula_sum "Si O2"
_cell_formula_units_Z 56
_cell_length_a 12.695295
_cell_length_b 25.924653
_cell_length_c 12.138658
_cell_angle_alpha 90.000000
_cell_angle_beta 49.981250
_cell_angle_gamma 90.000000
_cell_volume 3059.574951
_symmetry_space_group_name_H-M "C 2/M"
_symmetry_group_IT_number 12
_symmetry_cell_setting 'monoclinic'
loop_
_space_group_symop_operation_xyz
x,y,z
-x,y,-z
-x,-y,-z
x,-y,z
1/2+x,1/2+y,z
1/2-x,1/2+y,-z
1/2-x,1/2-y,-z
1/2+x,1/2-y,z
loop_
_atom_site_type_symbol
_atom_site_label
_atom_site_fract_x
_atom_site_fract_y
_atom_site_fract_z
Si Si1 0.732551 0.276206 0.833052
Si Si2 0.650270 0.835340 0.868117
Si Si3 0.836855 0.942709 0.109771
Si Si4 0.532919 0.241035 0.594566
Si Si5 0.751390 0.672913 0.432573
Si Si6 0.665173 0.636200 0.710074
Si Si7 0.841075 0.857881 0.938293
O O1 0.637178 0.226705 0.878274
O O2 0.720807 0.311935 0.732083
O O3 0.884725 0.252448 0.751879
O O4 0.687151 0.306872 0.971444
O O5 0.704104 0.854120 0.711535
O O6 0.759589 0.857604 0.880062
O O7 0.500000 0.857910 0.000000
O O8 0.788099 0.914444 0.254519
O O9 0.771504 0.000000 0.147699
O O10 0.788323 0.908525 0.039144
O O11 0.000000 0.946107 0.000000
O O12 0.500000 0.212934 0.500000
O O13 0.609923 0.294773 0.514715
O O14 0.622477 0.208955 0.618759
O O15 0.729332 0.631291 0.544788
O O16 0.502072 0.639604 0.808364
#
# Coordination Sequence:
#
# PCOD8088341 Si02
#       7
#     8   8   8   8   8   8   8
#     4  11  19  33  49  73 104 140 180 213 245 290
#     4  12  23  34  46  70 106 148 175 206 247 298
#     4   8  16  34  58  82 102 122 157 210 265 310
#     4  11  19  33  48  68  99 150 180 208 245 282
#     4  11  22  33  47  71 104 137 184 210 245 300
#     4  10  19  32  53  79 102 132 168 217 258 298
#     4  10  21  32  51  77 105 134 173 209 255 302
#
# _framework density 18.303196
#
# number of rings (size 3 to 8) (size 9 to 14) (size 15 to 20)
#    0.000    1.571    2.857    5.143    0.000    0.000 
#    0.000    0.000    0.000    1.286    0.000   21.000 
#    0.000    0.000    0.000    0.000    0.000    0.000 
#
# Total GULP energy -347085.796363 kJ/mol
# GULP energy per Si atom -12395.921299 kJ/mol
# Density = 1.826154 g / cm^3
# Si number density = 18.303196 Si / 1000 Ang^3
#
#
#
# Elastic Constant Matrix: (Units=GPa)
#
#
# Indices 1 2 3 4 5 6 
#
# 1 87.3932 22.7745 42.1426 0.0000 15.6743 0.0000
# 2 22.7745 72.7396 30.2658 0.0000 10.8255 0.0000
# 3 42.1426 30.2658 130.2823 0.0000 21.9640 0.0000
# 4 0.0000 0.0000 0.0000 13.3164 0.0000 0.2623
# 5 15.6743 10.8255 21.9640 0.0000 40.8269 0.0000
# 6 0.0000 0.0000 0.0000 0.2623 0.0000 10.7254
#
#
#
# Elastic Compliance Matrix: (Units=1/GPa)
#
#
# Indices 1 2 3 4 5 6 
#
# 1 0.014350 -0.002582 -0.003551 0.000000 -0.002915 0.000000
# 2 -0.002582 0.015890 -0.002544 0.000000 -0.001854 0.000000
# 3 -0.003551 -0.002544 0.009976 0.000000 -0.003329 0.000000
# 4 0.000000 0.000000 0.000000 0.075132 0.000000 -0.001837
# 5 -0.002915 -0.001854 -0.003329 0.000000 0.027895 0.000000
# 6 0.000000 0.000000 0.000000 -0.001837 0.000000 0.093281
#
#
# Mechanical properties :
#
#
# Convention : Reuss Voigt Hill
#
# Bulk Modulus (GPa) = 43.73635 53.42008 48.57822
# Shear Modulus (GPa) = 19.12048 25.98923 22.55485
#
# Velocity S-wave (km/s) = 3.23561 3.77228 3.51421
# Velocity P-wave (km/s) = 6.15681 6.94428 6.56237
#
# Compressibility (1/GPa) = 0.02286428
#
# Stress axis : x y z
#
# Youngs Moduli (GPa) = 69.68473 62.93129 100.23586
#
# Poissons Ratio (x) = 0.16248 0.35592
# Poissons Ratio (y) = 0.17992 0.25498
# Poissons Ratio (z) = 0.24744 0.16009
#
# Static dielectric constant tensor:
#      x y z
#    x 3.511140 0.000000 0.066210 
#    y 0.000000 3.181640 0.000000 
#    z 0.066210 0.000000 3.499140 
# 
# 
# High freq. dielectric constant tensor:
#      x y z
#    x 1.719050 0.000000 0.006930 
#    y 0.000000 1.645070 0.000000 
#    z 0.006930 0.000000 1.718500 
# 
# From -- ./inp_files/136933.got.cif
#   From: 2010.06.25/outbox.cif.g09.slc.cpg/sg12_69_cif.got.tgz:136933.got - 2010.06.28 00:19:55.
