data_PCOD8088249
_publ_section_title
;
Structure prediction by ZEFSAII (Michael W. Deem and Ramdas Pophale) SiO2 
 PCOD8088249
Probable space group: C 2/M
;
_chemical_formula_sum "Si O2"
_cell_formula_units_Z 64
_cell_length_a 20.531526
_cell_length_b 9.276248
_cell_length_c 22.382200
_cell_angle_alpha 90.000000
_cell_angle_beta 124.410200
_cell_angle_gamma 90.000000
_cell_volume 3516.876323
_symmetry_space_group_name_H-M "C 2/M"
_symmetry_group_IT_number 12
_symmetry_cell_setting 'monoclinic'
loop_
_space_group_symop_operation_xyz
x,y,z
-x,y,-z
-x,-y,-z
x,-y,z
1/2+x,1/2+y,z
1/2-x,1/2+y,-z
1/2-x,1/2-y,-z
1/2+x,1/2-y,z
loop_
_atom_site_type_symbol
_atom_site_label
_atom_site_fract_x
_atom_site_fract_y
_atom_site_fract_z
Si Si1 0.348130 0.832098 0.164596
Si Si2 0.720413 0.668273 0.542192
Si Si3 0.500018 0.832141 0.677209
Si Si4 0.540762 0.330540 0.460258
Si Si5 0.906085 0.328945 0.066444
Si Si6 0.135400 0.669574 0.305872
Si Si7 0.689562 0.828641 0.097710
Si Si8 0.916843 0.328183 0.848273
O O1 0.418392 0.803945 0.246961
O O2 0.373186 0.772161 0.112511
O O3 0.274120 0.743299 0.150065
O O4 0.326045 0.000000 0.149524
O O5 0.726253 0.500000 0.530956
O O6 0.750000 0.750000 0.500000
O O7 0.632123 0.715718 0.512290
O O8 0.776445 0.709382 0.627122
O O9 0.502597 0.748507 0.616325
O O10 0.428755 0.768427 0.680605
O O11 0.486661 0.000000 0.656851
O O12 0.500000 0.279569 0.500000
O O13 0.531026 0.500000 0.445131
O O14 0.910933 0.500000 0.070229
O O15 0.994008 0.267959 0.100414
O O16 0.848602 0.275230 0.984205
O O17 0.121202 0.500000 0.295160
O O18 0.121736 0.733957 0.232748
O O19 0.633740 0.772278 0.122077
O O20 0.699424 0.000000 0.104440
O O21 0.917460 0.500000 0.848446
#
# Coordination Sequence:
#
# PCOD8088249 Si02
#       8
#     8   8   8   8   8   8   8   8
#     4  10  20  34  53  74 103 141 175 210 258 312
#     4  10  19  32  53  77 100 130 168 208 248 298
#     4  10  19  34  56  77  98 135 181 216 248 299
#     4  10  22  37  53  79 113 140 162 203 267 318
#     4   9  16  30  51  76 103 135 177 218 254 300
#     4   9  16  29  51  76  99 128 172 215 251 296
#     4  10  20  31  50  80 108 133 169 219 265 304
#     4   9  16  29  51  78 103 131 172 219 259 297
#
# _framework density 18.197967999999999
#
# number of rings (size 3 to 8) (size 9 to 14) (size 15 to 20)
#    0.000    2.375    2.500    0.750    0.000    3.250 
#    0.000    2.500    0.000    3.750    0.000    0.000 
#    0.000    0.000    0.000    0.000    0.000    0.000 
#
# Total GULP energy -396815.925074 kJ/mol
# GULP energy per Si atom -12400.497659 kJ/mol
# Density = 1.815655 g / cm^3
# Si number density = 18.197968 Si / 1000 Ang^3
#
#
#
# Elastic Constant Matrix: (Units=GPa)
#
#
# Indices 1 2 3 4 5 6 
#
# 1 143.7013 32.0556 63.8347 0.0000 -2.2075 0.0000
# 2 32.0556 23.3558 32.4925 0.0000 0.2016 0.0000
# 3 63.8347 32.4925 132.9572 0.0000 -5.5205 0.0000
# 4 0.0000 0.0000 0.0000 22.8144 0.0000 3.2172
# 5 -2.2075 0.2016 -5.5205 0.0000 33.2759 0.0000
# 6 0.0000 0.0000 0.0000 3.2172 0.0000 21.7273
#
#
#
# Elastic Compliance Matrix: (Units=1/GPa)
#
#
# Indices 1 2 3 4 5 6 
#
# 1 0.010477 -0.011223 -0.002272 0.000000 0.000386 0.000000
# 2 -0.011223 0.077201 -0.013622 0.000000 -0.003472 0.000000
# 3 -0.002272 -0.013622 0.012021 0.000000 0.001926 0.000000
# 4 0.000000 0.000000 0.000000 0.044767 0.000000 -0.006629
# 5 0.000386 -0.003472 0.001926 0.000000 0.030418 0.000000
# 6 0.000000 0.000000 0.000000 -0.006629 0.000000 0.047007
#
#
# Mechanical properties :
#
#
# Convention : Reuss Voigt Hill
#
# Bulk Modulus (GPa) = 21.99494 61.86442 41.92968
# Shear Modulus (GPa) = 17.16558 27.00560 22.08559
#
# Velocity S-wave (km/s) = 3.07460 3.85644 3.48750
# Velocity P-wave (km/s) = 4.97161 7.34156 6.26959
#
# Compressibility (1/GPa) = 0.04546501
#
# Stress axis : x y z
#
# Youngs Moduli (GPa) = 95.44272 12.95317 83.18873
#
# Poissons Ratio (x) = 0.14538 0.18897
# Poissons Ratio (y) = 1.07119 1.13322
# Poissons Ratio (z) = 0.21680 0.17645
#
# Static dielectric constant tensor:
#      x y z
#    x 3.224690 0.000000 -0.473310 
#    y 0.000000 2.893240 0.000000 
#    z -0.473310 0.000000 2.995410 
# 
# 
# High freq. dielectric constant tensor:
#      x y z
#    x 1.713320 0.000000 0.003500 
#    y 0.000000 1.654790 0.000000 
#    z 0.003500 0.000000 1.721000 
# 
# From -- ./inp_files/320047.got.cif
#   From: 2010.06.25/outbox.cif.g09.slc.cpg/sg12_161_cif.got.tgz:320047.got - 2010.06.28 00:19:55.
