data_PCOD8088769
_publ_section_title
;
Structure prediction by ZEFSAII (Michael W. Deem and Ramdas Pophale) SiO2 
 PCOD8088769
Probable space group: C 2/M
;
_chemical_formula_sum "Si O2"
_cell_formula_units_Z 48
_cell_length_a 20.541616
_cell_length_b 7.743765
_cell_length_c 16.796332
_cell_angle_alpha 90.000000
_cell_angle_beta 69.900918
_cell_angle_gamma 90.000000
_cell_volume 2509.070998
_symmetry_space_group_name_H-M "C 2/M"
_symmetry_group_IT_number 12
_symmetry_cell_setting 'monoclinic'
loop_
_space_group_symop_operation_xyz
x,y,z
-x,y,-z
-x,-y,-z
x,-y,z
1/2+x,1/2+y,z
1/2-x,1/2+y,-z
1/2-x,1/2-y,-z
1/2+x,1/2-y,z
loop_
_atom_site_type_symbol
_atom_site_label
_atom_site_fract_x
_atom_site_fract_y
_atom_site_fract_z
Si Si1 0.171254 0.292792 0.768947
Si Si2 0.939688 0.808673 0.764562
Si Si3 0.942973 0.000000 0.912824
Si Si4 0.084312 0.692628 0.654608
Si Si5 0.574819 0.696046 0.485633
Si Si6 0.827715 0.796070 0.690224
Si Si7 0.101872 0.000000 0.895616
O O1 0.163013 0.500000 0.789547
O O2 0.134065 0.236148 0.702675
O O3 0.249959 0.225696 0.729090
O O4 0.137417 0.178280 0.852810
O O5 0.871202 0.735362 0.749840
O O6 0.005312 0.690100 0.718525
O O7 0.957046 0.000000 0.721507
O O8 0.926942 0.828883 0.865333
O O9 0.023294 0.000000 0.900319
O O10 0.894213 0.000000 0.010053
O O11 0.106417 0.500000 0.623789
O O12 0.095513 0.799449 0.569352
O O13 0.500000 0.786920 0.500000
O O14 0.568631 0.500000 0.459590
O O15 0.634112 0.780683 0.404627
O O16 0.820778 0.000000 0.688748
#
# Coordination Sequence:
#
# PCOD8088769 Si02
#       7
#     8   8   4   8   8   8   4
#     4  10  22  39  58  82 118 157 185 229 293 347
#     4   9  16  35  60  77 104 148 184 230 277 334
#     4   9  20  34  68  90 107 133 200 239 282 346
#     4  11  21  33  51  81 117 148 188 235 281 331
#     4  10  19  32  55  81 105 148 200 235 274 326
#     4   9  18  35  57  78 109 153 190 228 283 336
#     4  11  20  40  62  93 111 146 185 245 290 346
#
# _framework density 19.130586000000001
#
# number of rings (size 3 to 8) (size 9 to 14) (size 15 to 20)
#    0.500    1.667    3.333    0.500    1.167    1.000 
#    3.000    3.333    0.000    0.000    0.000    0.000 
#    0.000    0.000    0.000    0.000    0.000    0.000 
#
# Total GULP energy -297397.359256 kJ/mol
# GULP energy per Si atom -12391.556636 kJ/mol
# Density = 1.908704 g / cm^3
# Si number density = 19.130586 Si / 1000 Ang^3
#
#
#
# Elastic Constant Matrix: (Units=GPa)
#
#
# Indices 1 2 3 4 5 6 
#
# 1 150.0069 13.4281 74.7895 0.0000 -1.2115 0.0000
# 2 13.4281 41.1365 28.0249 0.0000 -5.5799 0.0000
# 3 74.7895 28.0249 174.3168 0.0000 6.2059 0.0000
# 4 0.0000 0.0000 0.0000 12.8850 0.0000 -1.8669
# 5 -1.2115 -5.5799 6.2059 0.0000 29.9028 0.0000
# 6 0.0000 0.0000 0.0000 -1.8669 0.0000 13.8679
#
#
#
# Elastic Compliance Matrix: (Units=1/GPa)
#
#
# Indices 1 2 3 4 5 6 
#
# 1 0.008518 -0.000132 -0.003672 0.000000 0.001082 0.000000
# 2 -0.000132 0.028433 -0.004738 0.000000 0.006284 0.000000
# 3 -0.003672 -0.004738 0.008171 0.000000 -0.002729 0.000000
# 4 0.000000 0.000000 0.000000 0.079153 0.000000 0.010656
# 5 0.001082 0.006284 -0.002729 0.000000 0.035224 0.000000
# 6 0.000000 0.000000 0.000000 0.010656 0.000000 0.073543
#
#
# Mechanical properties :
#
#
# Convention : Reuss Voigt Hill
#
# Bulk Modulus (GPa) = 35.66691 66.43837 51.05264
# Shear Modulus (GPa) = 19.26991 27.94566 23.60779
#
# Velocity S-wave (km/s) = 3.17722 3.82617 3.51669
# Velocity P-wave (km/s) = 5.66957 7.37046 6.57524
#
# Compressibility (1/GPa) = 0.02803719
#
# Stress axis : x y z
#
# Youngs Moduli (GPa) = 117.40476 35.17080 122.38569
#
# Poissons Ratio (x) = 0.00465 0.44936
# Poissons Ratio (y) = 0.01551 0.57988
# Poissons Ratio (z) = 0.43107 0.16664
#
# Static dielectric constant tensor:
#      x y z
#    x 3.651710 0.000000 0.040650 
#    y 0.000000 3.132800 0.000000 
#    z 0.040650 0.000000 3.485230 
# 
# 
# High freq. dielectric constant tensor:
#      x y z
#    x 1.747140 0.000000 0.008530 
#    y 0.000000 1.715910 0.000000 
#    z 0.008530 0.000000 1.731680 
# 
# From -- ./inp_files/230007.got.cif
#   From: 2010.06.25/outbox.cif.g09.slc.cpg/sg12_116_cif.got.tgz:230007.got - 2010.06.28 00:19:55.
