data_PCOD8088353
_publ_section_title
;
Structure prediction by ZEFSAII (Michael W. Deem and Ramdas Pophale) SiO2 
 PCOD8088353
Probable space group: C 2/M
;
_chemical_formula_sum "Si O2"
_cell_formula_units_Z 56
_cell_length_a 23.753243
_cell_length_b 12.661423
_cell_length_c 10.818468
_cell_angle_alpha 90.000000
_cell_angle_beta 97.714171
_cell_angle_gamma 90.000000
_cell_volume 3224.207249
_symmetry_space_group_name_H-M "C 2/M"
_symmetry_group_IT_number 12
_symmetry_cell_setting 'monoclinic'
loop_
_space_group_symop_operation_xyz
x,y,z
-x,y,-z
-x,-y,-z
x,-y,z
1/2+x,1/2+y,z
1/2-x,1/2+y,-z
1/2-x,1/2-y,-z
1/2+x,1/2-y,z
loop_
_atom_site_type_symbol
_atom_site_label
_atom_site_fract_x
_atom_site_fract_y
_atom_site_fract_z
Si Si1 0.767959 0.690352 0.687710
Si Si2 0.900896 0.384979 0.133726
Si Si3 0.029114 0.124264 0.636238
Si Si4 0.990203 0.259173 0.855971
Si Si5 0.215098 0.381667 0.568732
Si Si6 0.353191 0.269223 0.309290
Si Si7 0.122584 0.381938 0.153817
O O1 0.779132 0.612618 0.576469
O O2 0.767551 0.813719 0.642441
O O3 0.705314 0.663814 0.726407
O O4 0.817469 0.672572 0.799285
O O5 0.894910 0.500000 0.196766
O O6 0.865088 0.294230 0.188124
O O7 0.967401 0.356860 0.150791
O O8 0.876377 0.392677 0.991125
O O9 0.095257 0.154046 0.642458
O O10 0.000000 0.163969 0.500000
O O11 0.001140 0.172742 0.752143
O O12 0.022667 0.000000 0.648588
O O13 0.927404 0.304800 0.815662
O O14 0.000000 0.213660 0.000000
O O15 0.215649 0.500000 0.623394
O O16 0.156581 0.319504 0.586216
O O17 0.116839 0.500000 0.210878
#
# Coordination Sequence:
#
# PCOD8088353 Si02
#       7
#     8   8   8   8   8   8   8
#     4   9  20  32  49  79 103 136 170 217 252 310
#     4   9  17  32  55  78 101 137 170 211 268 311
#     4  10  22  37  55  78 107 141 177 217 263 312
#     4   9  19  35  56  78 106 139 177 220 259 315
#     4   9  18  34  52  72 103 140 170 206 257 310
#     4   9  19  35  53  74 103 135 171 214 252 316
#     4  10  19  32  53  79 106 133 174 219 260 307
#
# _framework density 17.368611999999999
#
# number of rings (size 3 to 8) (size 9 to 14) (size 15 to 20)
#    0.857    1.857    0.000    1.286    2.000    3.714 
#    0.000    0.714    0.000    6.000    0.000    0.000 
#    0.000    0.000    0.000    0.000    0.000    0.000 
#
# Total GULP energy -346880.605712 kJ/mol
# GULP energy per Si atom -12388.593061 kJ/mol
# Density = 1.732908 g / cm^3
# Si number density = 17.368612 Si / 1000 Ang^3
#
#
#
# Elastic Constant Matrix: (Units=GPa)
#
#
# Indices 1 2 3 4 5 6 
#
# 1 126.6653 30.6738 52.1453 0.0000 10.0976 0.0000
# 2 30.6738 75.3510 40.6641 0.0000 5.0122 0.0000
# 3 52.1453 40.6641 76.6995 0.0000 5.1510 0.0000
# 4 0.0000 0.0000 0.0000 18.1907 0.0000 -1.0447
# 5 10.0976 5.0122 5.1510 0.0000 30.5929 0.0000
# 6 0.0000 0.0000 0.0000 -1.0447 0.0000 17.6638
#
#
#
# Elastic Compliance Matrix: (Units=1/GPa)
#
#
# Indices 1 2 3 4 5 6 
#
# 1 0.011154 -0.000526 -0.007143 0.000000 -0.002393 0.000000
# 2 -0.000526 0.018675 -0.009456 0.000000 -0.001294 0.000000
# 3 -0.007143 -0.009456 0.022904 0.000000 0.000051 0.000000
# 4 0.000000 0.000000 0.000000 0.055161 0.000000 0.003262
# 5 -0.002393 -0.001294 0.000051 0.000000 0.033680 0.000000
# 6 0.000000 0.000000 0.000000 0.003262 0.000000 0.056806
#
#
# Mechanical properties :
#
#
# Convention : Reuss Voigt Hill
#
# Bulk Modulus (GPa) = 54.10883 58.40910 56.25897
# Shear Modulus (GPa) = 20.93877 23.63832 22.28854
#
# Velocity S-wave (km/s) = 3.47587 3.69315 3.58616
# Velocity P-wave (km/s) = 6.87966 7.20333 7.04335
#
# Compressibility (1/GPa) = 0.01848127
#
# Stress axis : x y z
#
# Youngs Moduli (GPa) = 89.65590 53.54860 43.65982
#
# Poissons Ratio (x) = 0.02818 0.31188
# Poissons Ratio (y) = 0.04719 0.41285
# Poissons Ratio (z) = 0.64044 0.50636
#
# Static dielectric constant tensor:
#      x y z
#    x 3.265500 0.000000 -0.094010 
#    y 0.000000 3.143790 0.000000 
#    z -0.094010 0.000000 3.155100 
# 
# 
# High freq. dielectric constant tensor:
#      x y z
#    x 1.671780 0.000000 -0.008100 
#    y 0.000000 1.664170 0.000000 
#    z -0.008100 0.000000 1.658740 
# 
# From -- ./inp_files/175805.got.cif
#   From: 2010.06.25/outbox.cif.g09.slc.cpg/sg12_88_cif.got.tgz:175805.got - 2010.06.28 00:19:55.
