data_PCOD8088564
_publ_section_title
;
Structure prediction by ZEFSAII (Michael W. Deem and Ramdas Pophale) SiO2 
 PCOD8088564
Probable space group: C 2/M
;
_chemical_formula_sum "Si O2"
_cell_formula_units_Z 48
_cell_length_a 31.254988
_cell_length_b 9.148928
_cell_length_c 9.471095
_cell_angle_alpha 90.000000
_cell_angle_beta 102.956856
_cell_angle_gamma 90.000000
_cell_volume 2639.301728
_symmetry_space_group_name_H-M "C 2/M"
_symmetry_group_IT_number 12
_symmetry_cell_setting 'monoclinic'
loop_
_space_group_symop_operation_xyz
x,y,z
-x,y,-z
-x,-y,-z
x,-y,z
1/2+x,1/2+y,z
1/2-x,1/2+y,-z
1/2-x,1/2-y,-z
1/2+x,1/2-y,z
loop_
_atom_site_type_symbol
_atom_site_label
_atom_site_fract_x
_atom_site_fract_y
_atom_site_fract_z
Si Si1 0.928144 0.166894 0.170470
Si Si2 0.795507 0.170952 0.057766
Si Si3 0.018334 0.831970 0.363928
Si Si4 0.139906 0.330085 0.699994
Si Si5 0.132513 0.166438 0.122323
Si Si6 0.107199 0.668872 0.370589
O O1 0.905198 0.273924 0.264724
O O2 0.980430 0.188202 0.217950
O O3 0.914728 0.000000 0.200424
O O4 0.911715 0.200671 0.999924
O O5 0.818590 0.239833 0.212285
O O6 0.788009 0.000000 0.079291
O O7 0.750000 0.250000 0.000000
O O8 0.825448 0.199540 0.943248
O O9 0.059909 0.742491 0.344997
O O10 0.000000 0.774103 0.500000
O O11 0.032795 0.000000 0.389713
O O12 0.146076 0.500000 0.741875
O O13 0.136631 0.303798 0.530407
O O14 0.134612 0.268893 0.259705
O O15 0.132490 0.000000 0.175027
O O16 0.098426 0.500000 0.338610
#
# Coordination Sequence:
#
# PCOD8088564 Si02
#       6
#     8   8   8   8   8   8
#     4   9  18  34  54  78 104 141 191 233 271 319
#     4  10  21  39  64  89 109 136 175 219 267 327
#     4  10  19  32  54  78 105 145 191 233 272 320
#     4  10  20  34  54  80 110 144 180 222 269 320
#     4   9  20  37  56  78 109 143 178 221 270 324
#     4  11  23  35  51  79 114 148 183 226 273 317
#
# _framework density 18.186627000000001
#
# number of rings (size 3 to 8) (size 9 to 14) (size 15 to 20)
#    0.000    2.167    1.667    2.500    0.000    7.000 
#    0.000    4.167    0.000    0.000    0.000    0.000 
#    0.000    0.000    0.000    0.000    0.000    0.000 
#
# Total GULP energy -297647.915389 kJ/mol
# GULP energy per Si atom -12401.996475 kJ/mol
# Density = 1.814523 g / cm^3
# Si number density = 18.186627 Si / 1000 Ang^3
#
#
#
# Elastic Constant Matrix: (Units=GPa)
#
#
# Indices 1 2 3 4 5 6 
#
# 1 101.0893 59.8003 51.9521 0.0000 14.7241 0.0000
# 2 59.8003 115.7626 70.8804 0.0000 6.9251 0.0000
# 3 51.9521 70.8804 110.6185 0.0000 2.3319 0.0000
# 4 0.0000 0.0000 0.0000 31.8109 0.0000 0.9055
# 5 14.7241 6.9251 2.3319 0.0000 20.7691 0.0000
# 6 0.0000 0.0000 0.0000 0.9055 0.0000 32.2565
#
#
#
# Elastic Compliance Matrix: (Units=1/GPa)
#
#
# Indices 1 2 3 4 5 6 
#
# 1 0.016642 -0.005539 -0.004067 0.000000 -0.009494 0.000000
# 2 -0.005539 0.016353 -0.007863 0.000000 -0.000643 0.000000
# 3 -0.004067 -0.007863 0.015910 0.000000 0.003719 0.000000
# 4 0.000000 0.000000 0.000000 0.031461 0.000000 -0.000883
# 5 -0.009494 -0.000643 0.003719 0.000000 0.054676 0.000000
# 6 0.000000 0.000000 0.000000 -0.000883 0.000000 0.031026
#
#
# Mechanical properties :
#
#
# Convention : Reuss Voigt Hill
#
# Bulk Modulus (GPa) = 71.59730 76.97065 74.28397
# Shear Modulus (GPa) = 24.31187 26.62316 25.46751
#
# Velocity S-wave (km/s) = 3.66019 3.83023 3.74618
# Velocity P-wave (km/s) = 7.57075 7.87245 7.72307
#
# Compressibility (1/GPa) = 0.01396701
#
# Stress axis : x y z
#
# Youngs Moduli (GPa) = 60.09067 61.15195 62.85310
#
# Poissons Ratio (x) = 0.33871 0.25559
# Poissons Ratio (y) = 0.33283 0.49424
# Poissons Ratio (z) = 0.24436 0.48086
#
# Static dielectric constant tensor:
#      x y z
#    x 3.202740 0.000000 0.158460 
#    y 0.000000 3.415880 0.000000 
#    z 0.158460 0.000000 3.392460 
# 
# 
# High freq. dielectric constant tensor:
#      x y z
#    x 1.690490 0.000000 0.013380 
#    y 0.000000 1.710230 0.000000 
#    z 0.013380 0.000000 1.703930 
# 
# From -- ./inp_files/108565.got.cif
#   From: 2010.06.25/outbox.cif.g09.slc.cpg/sg12_55_cif.got.tgz:108565.got - 2010.06.28 00:19:55.
