data_PCOD8088258
_publ_section_title
;
Structure prediction by ZEFSAII (Michael W. Deem and Ramdas Pophale) SiO2 
 PCOD8088258
Probable space group: C 2/M
;
_chemical_formula_sum "Si O2"
_cell_formula_units_Z 64
_cell_length_a 28.164572
_cell_length_b 9.404304
_cell_length_c 23.228410
_cell_angle_alpha 90.000000
_cell_angle_beta 32.209237
_cell_angle_gamma 90.000000
_cell_volume 3279.343022
_symmetry_space_group_name_H-M "C 2/M"
_symmetry_group_IT_number 12
_symmetry_cell_setting 'monoclinic'
loop_
_space_group_symop_operation_xyz
x,y,z
-x,y,-z
-x,-y,-z
x,-y,z
1/2+x,1/2+y,z
1/2-x,1/2+y,-z
1/2-x,1/2-y,-z
1/2+x,1/2-y,z
loop_
_atom_site_type_symbol
_atom_site_label
_atom_site_fract_x
_atom_site_fract_y
_atom_site_fract_z
Si Si1 0.811611 0.159493 0.006546
Si Si2 0.840869 0.830081 0.397216
Si Si3 0.850840 0.833779 0.837545
Si Si4 0.768344 0.832090 0.243556
Si Si5 0.408412 0.332136 0.561939
Si Si6 0.456917 0.332017 0.385464
Si Si7 0.920655 0.838615 0.004525
Si Si8 0.391558 0.666906 0.218997
O O1 0.730589 0.257720 0.111142
O O2 0.892929 0.172113 0.966585
O O3 0.773956 0.000000 0.042392
O O4 0.849172 0.207053 0.906491
O O5 0.750000 0.750000 0.500000
O O6 0.904036 0.775943 0.384124
O O7 0.879893 0.776207 0.295949
O O8 0.826575 0.000000 0.412753
O O9 0.942648 0.771983 0.718188
O O10 0.841232 0.000000 0.836089
O O11 0.676130 0.750697 0.325046
O O12 0.845034 0.768278 0.122504
O O13 0.803168 0.799464 0.272575
O O14 0.751919 0.000000 0.250301
O O15 0.500000 0.287662 0.500000
O O16 0.392408 0.500000 0.585710
O O17 0.412398 0.285375 0.490995
O O18 0.462519 0.500000 0.375380
O O19 0.927152 0.000000 0.020082
O O20 0.019805 0.767894 0.903795
O O21 0.409164 0.500000 0.204705
#
# Coordination Sequence:
#
# PCOD8088258 Si02
#       8
#     8   8   8   8   8   8   8   8
#     4   9  17  29  46  72 100 126 159 200 247 292
#     4  10  19  32  53  77 102 132 167 208 254 302
#     4   9  17  30  49  69  94 127 164 204 242 289
#     4  10  20  34  54  79 104 131 169 215 258 298
#     4  10  22  38  54  72  99 137 177 213 253 305
#     4   9  18  33  52  72  94 128 171 204 242 299
#     4   9  17  30  51  76 104 135 167 203 250 306
#     4   9  17  31  53  80 106 134 170 208 250 306
#
# _framework density 19.516105
#
# number of rings (size 3 to 8) (size 9 to 14) (size 15 to 20)
#    0.000    2.625    0.000    1.875    1.750    4.750 
#    0.000    1.250    0.000    5.250    0.000    0.000 
#    0.000    0.000    0.000    0.000    0.000    0.000 
#
# Total GULP energy -396619.246141 kJ/mol
# GULP energy per Si atom -12394.351442 kJ/mol
# Density = 1.947169 g / cm^3
# Si number density = 19.516105 Si / 1000 Ang^3
#
#
#
# Elastic Constant Matrix: (Units=GPa)
#
#
# Indices 1 2 3 4 5 6 
#
# 1 80.8259 17.2040 39.9408 -0.0078 -6.4926 0.0093
# 2 17.2040 28.7741 32.4924 0.0116 -8.8350 -0.0031
# 3 39.9408 32.4924 142.7262 0.0095 -16.3239 -0.0020
# 4 -0.0078 0.0116 0.0095 25.6190 -0.0058 -4.6958
# 5 -6.4926 -8.8350 -16.3239 -0.0058 36.0027 0.0005
# 6 0.0093 -0.0031 -0.0020 -4.6958 0.0005 15.9507
#
#
#
# Elastic Compliance Matrix: (Units=1/GPa)
#
#
# Indices 1 2 3 4 5 6 
#
# 1 0.015022 -0.005702 -0.002907 0.000007 -0.000008 -0.000008
# 2 -0.005702 0.050686 -0.009111 -0.000018 0.007279 0.000006
# 3 -0.002907 -0.009111 0.010102 0.000000 0.001820 0.000001
# 4 0.000007 -0.000018 0.000000 0.041260 0.000003 0.012147
# 5 -0.000008 0.007279 0.001820 0.000003 0.030386 0.000002
# 6 -0.000008 0.000006 0.000001 0.012147 0.000002 0.066269
#
#
# Mechanical properties :
#
#
# Convention : Reuss Voigt Hill
#
# Bulk Modulus (GPa) = 24.77007 47.95563 36.36285
# Shear Modulus (GPa) = 19.03895 26.36041 22.69968
#
# Velocity S-wave (km/s) = 3.12677 3.67917 3.41416
# Velocity P-wave (km/s) = 5.07496 6.53254 5.84933
#
# Compressibility (1/GPa) = 0.04037131
#
# Stress axis : x y z
#
# Youngs Moduli (GPa) = 66.57106 19.72943 98.98900
#
# Poissons Ratio (x) = 0.11249 0.28772
# Poissons Ratio (y) = 0.37957 0.90187
# Poissons Ratio (z) = 0.19349 0.17975
#
# Static dielectric constant tensor:
#      x y z
#    x 3.789550 -0.000050 0.026590 
#    y -0.000050 3.101850 -0.000040 
#    z 0.026590 -0.000040 3.787100 
# 
# 
# High freq. dielectric constant tensor:
#      x y z
#    x 1.771620 0.000000 -0.000320 
#    y 0.000000 1.699540 0.000000 
#    z -0.000320 0.000000 1.773990 
# 
# From -- ./inp_files/351732.got.cif
#   From: 2010.06.25/outbox.cif.g09.slc.cpg/sg12_176_cif.got.tgz:351732.got - 2010.06.28 00:19:55.
