data_PCOD8088897
_publ_section_title
;
Structure prediction by ZEFSAII (Michael W. Deem and Ramdas Pophale) SiO2 
 PCOD8088897
Probable space group: C 2/M
;
_chemical_formula_sum "Si O2"
_cell_formula_units_Z 56
_cell_length_a 14.736507
_cell_length_b 23.032438
_cell_length_c 14.608430
_cell_angle_alpha 90.000000
_cell_angle_beta 143.705016
_cell_angle_gamma 90.000000
_cell_volume 2935.064303
_symmetry_space_group_name_H-M "C 2/M"
_symmetry_group_IT_number 12
_symmetry_cell_setting 'monoclinic'
loop_
_space_group_symop_operation_xyz
x,y,z
-x,y,-z
-x,-y,-z
x,-y,z
1/2+x,1/2+y,z
1/2-x,1/2+y,-z
1/2-x,1/2-y,-z
1/2+x,1/2-y,z
loop_
_atom_site_type_symbol
_atom_site_label
_atom_site_fract_x
_atom_site_fract_y
_atom_site_fract_z
Si Si1 0.976962 0.380350 0.783588
Si Si2 0.410584 0.168260 0.298412
Si Si3 0.085846 0.793889 0.662185
Si Si4 0.545122 0.000000 0.143062
Si Si5 0.607895 0.780858 0.164641
Si Si6 0.747314 0.834143 0.652433
Si Si7 0.113256 0.000000 0.508066
Si Si8 0.138656 0.115711 0.429190
O O1 0.022222 0.441869 0.865135
O O2 0.999923 0.326850 0.870925
O O3 0.801725 0.373949 0.608708
O O4 0.097048 0.371768 0.797818
O O5 0.376043 0.235843 0.248305
O O6 0.284465 0.143838 0.269118
O O7 0.583030 0.169214 0.473462
O O8 0.251797 0.818331 0.765914
O O9 0.000000 0.774537 0.500000
O O10 0.988729 0.839143 0.640889
O O11 0.724894 0.000000 0.309313
O O12 0.500000 0.000000 0.000000
O O13 0.672111 0.729220 0.281453
O O14 0.500000 0.751921 0.000000
O O15 0.848019 0.877891 0.670948
O O16 0.082033 0.947083 0.413953
O O17 0.000000 0.000000 0.500000
#
# Coordination Sequence:
#
# PCOD8088897 Si02
#       8
#     8   8   8   4   8   8   4   8
#     4  10  19  33  53  77 105 142 176 213 258 305
#     4   9  16  31  54  78 102 133 183 215 249 311
#     4  11  17  31  52  79 102 140 175 207 261 312
#     4  10  22  38  55  77 109 140 171 210 264 315
#     4  11  21  32  50  80 113 137 168 215 269 318
#     4   9  17  33  51  77 106 138 169 217 262 306
#     4  10  22  36  57  81 104 133 176 223 254 300
#     4  10  19  32  56  78 103 136 180 217 257 304
#
# _framework density 19.079650999999998
#
# number of rings (size 3 to 8) (size 9 to 14) (size 15 to 20)
#    0.000    2.000    4.286    1.714    2.000    2.286 
#    0.000    7.143    0.000    4.286    0.000    0.500 
#    0.000    0.000    0.000    0.000    0.000    0.000 
#
# Total GULP energy -346870.219804 kJ/mol
# GULP energy per Si atom -12388.222136 kJ/mol
# Density = 1.903622 g / cm^3
# Si number density = 19.079651 Si / 1000 Ang^3
#
#
#
# Elastic Constant Matrix: (Units=GPa)
#
#
# Indices 1 2 3 4 5 6 
#
# 1 167.3145 91.3308 29.7423 0.0000 -28.1466 0.0000
# 2 91.3308 118.0962 25.8837 0.0000 -26.0579 0.0000
# 3 29.7423 25.8837 39.1655 0.0000 -11.1916 0.0000
# 4 0.0000 0.0000 0.0000 12.0718 0.0000 -5.5373
# 5 -28.1466 -26.0579 -11.1916 0.0000 18.1095 0.0000
# 6 0.0000 0.0000 0.0000 -5.5373 0.0000 26.4994
#
#
#
# Elastic Compliance Matrix: (Units=1/GPa)
#
#
# Indices 1 2 3 4 5 6 
#
# 1 0.011076 -0.006718 -0.002204 0.000000 0.006187 0.000000
# 2 -0.006718 0.016955 -0.002570 0.000000 0.012368 0.000000
# 3 -0.002204 -0.002570 0.032632 0.000000 0.013044 0.000000
# 4 0.000000 0.000000 0.000000 0.091619 0.000000 0.019145
# 5 0.006187 0.012368 0.013044 0.000000 0.090693 0.000000
# 6 0.000000 0.000000 0.000000 0.019145 0.000000 0.041737
#
#
# Mechanical properties :
#
#
# Convention : Reuss Voigt Hill
#
# Bulk Modulus (GPa) = 26.53881 68.72108 47.62994
# Shear Modulus (GPa) = 15.61257 23.17744 19.39501
#
# Velocity S-wave (km/s) = 2.86367 3.48914 3.19176
# Velocity P-wave (km/s) = 4.98737 7.23383 6.21298
#
# Compressibility (1/GPa) = 0.03768067
#
# Stress axis : x y z
#
# Youngs Moduli (GPa) = 90.28253 58.97936 30.64504
#
# Poissons Ratio (x) = 0.39621 0.06753
# Poissons Ratio (y) = 0.60650 0.07875
# Poissons Ratio (z) = 0.19896 0.15156
#
# Static dielectric constant tensor:
#      x y z
#    x 4.027500 0.000000 -0.111390 
#    y 0.000000 3.419290 0.000000 
#    z -0.111390 0.000000 3.211180 
# 
# 
# High freq. dielectric constant tensor:
#      x y z
#    x 1.755740 0.000000 -0.002750 
#    y 0.000000 1.716040 0.000000 
#    z -0.002750 0.000000 1.708060 
# 
# From -- ./inp_files/218308.got.cif
#   From: 2010.06.25/outbox.cif.g09.slc.cpg/sg12_110_cif.got.tgz:218308.got - 2010.06.28 00:19:55.
