data_PCOD8088043
_publ_section_title
;
Structure prediction by ZEFSAII (Michael W. Deem and Ramdas Pophale) SiO2 
 PCOD8088043
Probable space group: C 2/M
;
_chemical_formula_sum "Si O2"
_cell_formula_units_Z 48
_cell_length_a 18.829201
_cell_length_b 9.472411
_cell_length_c 29.733249
_cell_angle_alpha 90.000000
_cell_angle_beta 29.654351
_cell_angle_gamma 90.000000
_cell_volume 2623.826028
_symmetry_space_group_name_H-M "C 2/M"
_symmetry_group_IT_number 12
_symmetry_cell_setting 'monoclinic'
loop_
_space_group_symop_operation_xyz
x,y,z
-x,y,-z
-x,-y,-z
x,-y,z
1/2+x,1/2+y,z
1/2-x,1/2+y,-z
1/2-x,1/2-y,-z
1/2+x,1/2-y,z
loop_
_atom_site_type_symbol
_atom_site_label
_atom_site_fract_x
_atom_site_fract_y
_atom_site_fract_z
Si Si1 0.455159 0.334429 0.752725
Si Si2 0.636572 0.160177 0.947705
Si Si3 0.118307 0.343042 0.061193
Si Si4 0.385563 0.833520 0.259298
Si Si5 0.102324 0.834525 0.577382
Si Si6 0.566533 0.332736 0.417511
O O1 0.462039 0.500000 0.761668
O O2 0.293259 0.273025 0.850511
O O3 0.565682 0.250189 0.723282
O O4 0.500547 0.307397 0.676375
O O5 0.646021 0.000000 0.924452
O O6 0.500000 0.238741 0.000000
O O7 0.589364 0.166863 0.024905
O O8 0.157721 0.500000 0.054816
O O9 0.982063 0.290157 0.163884
O O10 0.250000 0.250000 0.000000
O O11 0.230453 0.782518 0.328018
O O12 0.387805 0.000000 0.269428
O O13 0.250000 0.750000 0.500000
O O14 0.017060 0.776142 0.580543
O O15 0.139135 0.000000 0.552623
O O16 0.500000 0.270896 0.500000
O O17 0.555947 0.500000 0.422560
#
# Coordination Sequence:
#
# PCOD8088043 Si02
#       6
#     8   8   8   8   8   8
#     4  10  20  34  53  78 106 137 170 210 260 307
#     4   9  18  31  50  75 105 138 172 211 254 302
#     4  10  19  32  52  77 104 137 174 211 252 300
#     4  10  20  33  54  79 104 136 175 214 252 301
#     4  10  21  36  56  79 105 135 170 211 257 308
#     4   9  18  33  53  77 103 132 168 213 258 302
#
# _framework density 18.293896
#
# number of rings (size 3 to 8) (size 9 to 14) (size 15 to 20)
#    0.000    2.333    1.667    1.000    2.333    2.000 
#    0.000    0.833    0.000    5.000    0.000    0.000 
#    0.000    0.000    0.000    0.000    0.000    0.000 
#
# Total GULP energy -297478.688675 kJ/mol
# GULP energy per Si atom -12394.945361 kJ/mol
# Density = 1.825226 g / cm^3
# Si number density = 18.293896 Si / 1000 Ang^3
#
#
#
# Elastic Constant Matrix: (Units=GPa)
#
#
# Indices 1 2 3 4 5 6 
#
# 1 154.4312 38.6062 86.1445 -0.0001 -14.4152 0.0000
# 2 38.6062 31.7953 34.6981 -0.0001 -5.4068 0.0001
# 3 86.1445 34.6981 153.4744 -0.0001 -4.8632 0.0001
# 4 -0.0001 -0.0001 -0.0001 23.8748 0.0000 -1.0633
# 5 -14.4152 -5.4068 -4.8632 0.0000 40.8165 0.0000
# 6 0.0000 0.0001 0.0001 -1.0633 0.0000 23.7304
#
#
#
# Elastic Compliance Matrix: (Units=1/GPa)
#
#
# Indices 1 2 3 4 5 6 
#
# 1 0.011224 -0.008548 -0.004294 0.000000 0.002320 0.000000
# 2 -0.008548 0.049073 -0.006210 0.000000 0.002742 0.000000
# 3 -0.004294 -0.006210 0.010295 0.000000 -0.001113 0.000000
# 4 0.000000 0.000000 0.000000 0.041969 0.000000 0.001880
# 5 0.002320 0.002742 -0.001113 0.000000 0.025550 0.000000
# 6 0.000000 0.000000 0.000000 0.001880 0.000000 0.042224
#
#
# Mechanical properties :
#
#
# Convention : Reuss Voigt Hill
#
# Bulk Modulus (GPa) = 30.78017 73.17762 51.97890
# Shear Modulus (GPa) = 21.80852 29.70114 25.75483
#
# Velocity S-wave (km/s) = 3.45646 4.03371 3.75619
# Velocity P-wave (km/s) = 5.72637 7.86017 6.87654
#
# Compressibility (1/GPa) = 0.03248845
#
# Stress axis : x y z
#
# Youngs Moduli (GPa) = 89.09426 20.37770 97.13786
#
# Poissons Ratio (x) = 0.17419 0.41711
# Poissons Ratio (y) = 0.76156 0.60322
# Poissons Ratio (z) = 0.38257 0.12654
#
# Static dielectric constant tensor:
#      x y z
#    x 3.377080 0.000000 0.025580 
#    y 0.000000 3.045580 0.000000 
#    z 0.025580 0.000000 3.637610 
# 
# 
# High freq. dielectric constant tensor:
#      x y z
#    x 1.719760 0.000000 0.002320 
#    y 0.000000 1.662860 0.000000 
#    z 0.002320 0.000000 1.730080 
# 
# From -- ./inp_files/244593.got.cif
#   From: 2010.06.25/outbox.cif.g09.slc.cpg/sg12_123_cif.got.tgz:244593.got - 2010.06.28 00:19:55.
