data_PCOD8088762
_publ_section_title
;
Structure prediction by ZEFSAII (Michael W. Deem and Ramdas Pophale) SiO2 
 PCOD8088762
Probable space group: C 2/M
;
_chemical_formula_sum "Si O2"
_cell_formula_units_Z 56
_cell_length_a 25.235099
_cell_length_b 18.324783
_cell_length_c 9.430398
_cell_angle_alpha 90.000000
_cell_angle_beta 46.411045
_cell_angle_gamma 90.000000
_cell_volume 3158.604363
_symmetry_space_group_name_H-M "C 2/M"
_symmetry_group_IT_number 12
_symmetry_cell_setting 'monoclinic'
loop_
_space_group_symop_operation_xyz
x,y,z
-x,y,-z
-x,-y,-z
x,-y,z
1/2+x,1/2+y,z
1/2-x,1/2+y,-z
1/2-x,1/2-y,-z
1/2+x,1/2-y,z
loop_
_atom_site_type_symbol
_atom_site_label
_atom_site_fract_x
_atom_site_fract_y
_atom_site_fract_z
Si Si1 0.822935 0.317820 0.728279
Si Si2 0.659616 0.304417 0.098854
Si Si3 0.911531 0.697635 0.978490
Si Si4 0.962236 0.919893 0.716268
Si Si5 0.576519 0.083758 0.283995
Si Si6 0.532602 0.687020 0.796617
Si Si7 0.330619 0.772855 0.401599
O O1 0.857284 0.241301 0.724977
O O2 0.865649 0.386735 0.709847
O O3 0.823942 0.320901 0.556162
O O4 0.742980 0.328190 0.940450
O O5 0.644534 0.252315 0.993682
O O6 0.612793 0.377357 0.172385
O O7 0.920676 0.623737 0.873193
O O8 0.990906 0.736196 0.842476
O O9 0.874243 0.681161 0.200168
O O10 0.000000 0.933941 0.500000
O O11 0.019368 0.873051 0.702041
O O12 0.946073 0.000000 0.814812
O O13 0.500000 0.096666 0.500000
O O14 0.593326 0.000000 0.221029
O O15 0.619404 0.701852 0.654196
O O16 0.500000 0.652640 0.000000
O O17 0.250000 0.750000 0.500000
#
# Coordination Sequence:
#
# PCOD8088762 Si02
#       7
#     8   8   8   8   8   8   8
#     4  10  19  32  55  80 107 137 177 222 271 313
#     4   9  18  33  53  79 104 138 177 222 266 318
#     4   9  18  35  55  82 107 133 176 221 271 312
#     4  10  20  34  52  75 104 137 175 216 261 315
#     4  10  21  37  56  77 106 143 180 219 268 327
#     4   9  19  33  54  77 104 135 171 214 264 307
#     4  11  19  31  55  84 107 135 173 229 263 313
#
# _framework density 17.729348999999999
#
# number of rings (size 3 to 8) (size 9 to 14) (size 15 to 20)
#    0.000    2.286    1.429    1.714    0.000    4.857 
#    0.000    0.714    0.000    5.571    0.000    0.000 
#    0.000    0.000    0.000    0.000    0.000    0.000 
#
# Total GULP energy -347097.694993 kJ/mol
# GULP energy per Si atom -12396.346250 kJ/mol
# Density = 1.768900 g / cm^3
# Si number density = 17.729349 Si / 1000 Ang^3
#
#
#
# Elastic Constant Matrix: (Units=GPa)
#
#
# Indices 1 2 3 4 5 6 
#
# 1 118.9328 54.8274 43.2328 0.0000 -4.1393 0.0000
# 2 54.8274 112.0181 58.6303 0.0000 -3.3920 0.0000
# 3 43.2328 58.6303 81.4942 0.0000 13.6355 0.0000
# 4 0.0000 0.0000 0.0000 20.3824 0.0000 6.3809
# 5 -4.1393 -3.3920 13.6355 0.0000 39.8084 0.0000
# 6 0.0000 0.0000 0.0000 6.3809 0.0000 41.6220
#
#
#
# Elastic Compliance Matrix: (Units=1/GPa)
#
#
# Indices 1 2 3 4 5 6 
#
# 1 0.011549 -0.003494 -0.003993 0.000000 0.002271 0.000000
# 2 -0.003494 0.016396 -0.010730 0.000000 0.004709 0.000000
# 3 -0.003993 -0.010730 0.023689 0.000000 -0.009444 0.000000
# 4 0.000000 0.000000 0.000000 0.051535 0.000000 -0.007901
# 5 0.002271 0.004709 -0.009444 0.000000 0.028993 0.000000
# 6 0.000000 0.000000 0.000000 -0.007901 0.000000 0.025237
#
#
# Mechanical properties :
#
#
# Convention : Reuss Voigt Hill
#
# Bulk Modulus (GPa) = 65.79169 69.53622 67.66395
# Shear Modulus (GPa) = 25.13803 30.74619 27.94211
#
# Velocity S-wave (km/s) = 3.76956 4.16889 3.97424
# Velocity P-wave (km/s) = 7.49237 7.90436 7.70112
#
# Compressibility (1/GPa) = 0.01519949
#
# Stress axis : x y z
#
# Youngs Moduli (GPa) = 86.58414 60.98956 42.21321
#
# Poissons Ratio (x) = 0.21310 0.16856
# Poissons Ratio (y) = 0.30253 0.45297
# Poissons Ratio (z) = 0.34575 0.65445
#
# Static dielectric constant tensor:
#      x y z
#    x 3.929370 0.000000 -0.012420 
#    y 0.000000 3.088640 0.000000 
#    z -0.012420 0.000000 3.301290 
# 
# 
# High freq. dielectric constant tensor:
#      x y z
#    x 1.703450 0.000000 0.002780 
#    y 0.000000 1.650650 0.000000 
#    z 0.002780 0.000000 1.691170 
# 
# From -- ./inp_files/98030.got.cif
#   From: 2010.06.25/outbox.cif.g09.slc.cpg/sg12_50_cif.got.tgz:98030.got - 2010.06.28 00:19:55.
