data_PCOD8088841
_publ_section_title
;
Structure prediction by ZEFSAII (Michael W. Deem and Ramdas Pophale) SiO2 
 PCOD8088841
Probable space group: C 2/M
;
_chemical_formula_sum "Si O2"
_cell_formula_units_Z 56
_cell_length_a 8.554651
_cell_length_b 18.506378
_cell_length_c 21.788641
_cell_angle_alpha 90.000000
_cell_angle_beta 55.560395
_cell_angle_gamma 90.000000
_cell_volume 2844.866270
_symmetry_space_group_name_H-M "C 2/M"
_symmetry_group_IT_number 12
_symmetry_cell_setting 'monoclinic'
loop_
_space_group_symop_operation_xyz
x,y,z
-x,y,-z
-x,-y,-z
x,-y,z
1/2+x,1/2+y,z
1/2-x,1/2+y,-z
1/2-x,1/2-y,-z
1/2+x,1/2-y,z
loop_
_atom_site_type_symbol
_atom_site_label
_atom_site_fract_x
_atom_site_fract_y
_atom_site_fract_z
Si Si1 0.766134 0.917221 0.721052
Si Si2 0.661009 0.307004 0.119615
Si Si3 0.169831 0.919350 0.009081
Si Si4 0.566501 0.327705 0.712920
Si Si5 0.344181 0.650005 0.578248
Si Si6 0.024905 0.279323 0.370733
Si Si7 0.507150 0.156466 0.124888
O O1 0.766812 0.903202 0.648065
O O2 0.605678 0.867788 0.788837
O O3 0.974165 0.898462 0.702069
O O4 0.719515 0.000000 0.744796
O O5 0.637795 0.359851 0.067813
O O6 0.491479 0.324065 0.203664
O O7 0.648039 0.223109 0.105021
O O8 0.863890 0.319442 0.104166
O O9 0.174861 0.000000 0.036968
O O10 0.366778 0.908680 0.928877
O O11 0.000000 0.911847 0.000000
O O12 0.488431 0.257041 0.693923
O O13 0.794105 0.332095 0.662889
O O14 0.500000 0.610877 0.500000
O O15 0.164860 0.674190 0.576602
O O16 0.456057 0.718054 0.582032
#
# Coordination Sequence:
#
# PCOD8088841 Si02
#       7
#     8   8   8   8   8   8   8
#     4  10  22  38  56  78 110 151 187 227 280 334
#     4  11  21  35  60  86 109 142 185 235 281 325
#     4  11  25  41  56  80 116 152 186 228 277 328
#     4   9  18  33  56  81 109 139 179 230 274 330
#     4  10  19  32  55  84 114 145 182 229 280 336
#     4   9  17  33  55  84 113 141 179 229 284 328
#     4  11  22  39  61  83 110 144 188 233 277 329
#
# _framework density 19.684581999999999
#
# number of rings (size 3 to 8) (size 9 to 14) (size 15 to 20)
#    0.000    1.857    0.000    6.000    0.000    4.857 
#    0.000    0.714    0.000    0.857    0.000    0.000 
#    0.000    0.000    0.000    0.000    0.000    0.000 
#
# Total GULP energy -347202.099543 kJ/mol
# GULP energy per Si atom -12400.074984 kJ/mol
# Density = 1.963978 g / cm^3
# Si number density = 19.684582 Si / 1000 Ang^3
#
#
#
# Elastic Constant Matrix: (Units=GPa)
#
#
# Indices 1 2 3 4 5 6 
#
# 1 97.7024 34.8804 35.9389 -0.0001 -18.1924 0.0001
# 2 34.8804 101.5843 33.0399 0.0000 -6.6695 0.0000
# 3 35.9389 33.0399 105.3983 0.0000 -7.7040 0.0000
# 4 -0.0001 0.0000 0.0000 20.9615 0.0001 -3.5775
# 5 -18.1924 -6.6695 -7.7040 0.0001 28.8078 -0.0001
# 6 0.0001 0.0000 0.0000 -3.5775 -0.0001 20.6719
#
#
#
# Elastic Compliance Matrix: (Units=1/GPa)
#
#
# Indices 1 2 3 4 5 6 
#
# 1 0.013913 -0.003267 -0.003196 0.000000 0.007175 0.000000
# 2 -0.003267 0.011806 -0.002589 0.000000 -0.000022 0.000000
# 3 -0.003196 -0.002589 0.011421 0.000000 0.000437 0.000000
# 4 0.000000 0.000000 0.000000 0.049158 0.000000 0.008507
# 5 0.007175 -0.000022 0.000437 0.000000 0.039356 0.000000
# 6 0.000000 0.000000 0.000000 0.008507 0.000000 0.049847
#
#
# Mechanical properties :
#
#
# Convention : Reuss Voigt Hill
#
# Bulk Modulus (GPa) = 52.52628 56.93371 54.73000
# Shear Modulus (GPa) = 25.00631 27.47662 26.24146
#
# Velocity S-wave (km/s) = 3.56806 3.74015 3.65512
# Velocity P-wave (km/s) = 6.61186 6.90199 6.75848
#
# Compressibility (1/GPa) = 0.01903809
#
# Stress axis : x y z
#
# Youngs Moduli (GPa) = 71.87561 84.70092 87.55911
#
# Poissons Ratio (x) = 0.27670 0.27980
# Poissons Ratio (y) = 0.23480 0.22666
# Poissons Ratio (z) = 0.22968 0.21926
#
# Static dielectric constant tensor:
#      x y z
#    x 3.733410 0.000000 -0.035720 
#    y 0.000000 3.413730 0.000000 
#    z -0.035720 0.000000 3.578720 
# 
# 
# High freq. dielectric constant tensor:
#      x y z
#    x 1.775460 0.000000 -0.002790 
#    y 0.000000 1.739910 0.000000 
#    z -0.002790 0.000000 1.771790 
# 
# From -- ./inp_files/333300.got.cif
#   From: 2010.06.25/outbox.cif.g09.slc.cpg/sg12_167_cif.got.tgz:333300.got - 2010.06.28 00:19:55.
