data_PCOD8088336
_publ_section_title
;
Structure prediction by ZEFSAII (Michael W. Deem and Ramdas Pophale) SiO2 
 PCOD8088336
Probable space group: C 2/M
;
_chemical_formula_sum "Si O2"
_cell_formula_units_Z 64
_cell_length_a 22.714199
_cell_length_b 28.002073
_cell_length_c 12.316811
_cell_angle_alpha 90.000000
_cell_angle_beta 154.174809
_cell_angle_gamma 90.000000
_cell_volume 3412.719339
_symmetry_space_group_name_H-M "C 2/M"
_symmetry_group_IT_number 12
_symmetry_cell_setting 'monoclinic'
loop_
_space_group_symop_operation_xyz
x,y,z
-x,y,-z
-x,-y,-z
x,-y,z
1/2+x,1/2+y,z
1/2-x,1/2+y,-z
1/2-x,1/2-y,-z
1/2+x,1/2-y,z
loop_
_atom_site_type_symbol
_atom_site_label
_atom_site_fract_x
_atom_site_fract_y
_atom_site_fract_z
Si Si1 0.189466 0.365145 0.594620
Si Si2 0.367868 0.238583 0.995922
Si Si3 0.809550 0.829879 0.004817
Si Si4 0.176082 0.732325 0.481660
Si Si5 0.611394 0.859135 0.855184
Si Si6 0.110566 0.944776 0.093383
Si Si7 0.712416 0.552951 0.821188
Si Si8 0.039964 0.080180 0.730448
O O1 0.294410 0.344695 0.855066
O O2 0.176725 0.325534 0.479117
O O3 0.251981 0.414738 0.654425
O O4 0.046408 0.370611 0.417675
O O5 0.339678 0.273096 0.054044
O O6 0.254722 0.247411 0.716867
O O7 0.521802 0.250667 0.217632
O O8 0.355480 0.183318 0.006439
O O9 0.673505 0.842531 0.843983
O O10 0.935027 0.863000 0.252489
O O11 0.250000 0.750000 0.500000
O O12 0.670112 0.908683 0.995869
O O13 0.149455 0.000000 0.170965
O O14 0.055440 0.935038 0.880945
O O15 0.000000 0.929798 0.000000
O O16 0.770798 0.500000 0.896340
O O17 0.648208 0.552538 0.835092
O O18 0.607670 0.566023 0.552804
#
# Coordination Sequence:
#
# PCOD8088336 Si02
#       8
#     8   8   8   8   8   8   8   8
#     4   9  20  36  52  78 107 138 176 221 272 326
#     4  10  21  35  54  82 110 142 184 229 276 340
#     4   9  18  33  55  78 107 142 173 221 276 330
#     4  10  21  37  57  76 106 144 187 231 278 323
#     4  10  20  34  51  79 111 142 176 216 274 338
#     4  10  20  35  57  81 105 139 184 233 278 321
#     4  10  19  32  53  78 110 146 178 224 271 320
#     4   9  18  33  54  80 107 136 184 228 269 319
#
# _framework density 18.753373
#
# number of rings (size 3 to 8) (size 9 to 14) (size 15 to 20)
#    0.000    2.375    0.000    2.625    1.750    3.500 
#    0.000    1.250    0.000    4.500    0.000    2.625 
#    0.000    0.000    0.000    0.000    0.000    0.000 
#
# Total GULP energy -396544.103596 kJ/mol
# GULP energy per Si atom -12392.003237 kJ/mol
# Density = 1.871069 g / cm^3
# Si number density = 18.753373 Si / 1000 Ang^3
#
#
#
# Elastic Constant Matrix: (Units=GPa)
#
#
# Indices 1 2 3 4 5 6 
#
# 1 85.1883 43.6721 22.9170 0.0000 10.5690 0.0000
# 2 43.6721 122.3870 43.8989 0.0000 11.9807 0.0000
# 3 22.9170 43.8989 61.1206 0.0000 9.6841 0.0000
# 4 0.0000 0.0000 0.0000 26.0706 0.0000 5.4505
# 5 10.5690 11.9807 9.6841 0.0000 26.3653 0.0000
# 6 0.0000 0.0000 0.0000 5.4505 0.0000 24.3491
#
#
#
# Elastic Compliance Matrix: (Units=1/GPa)
#
#
# Indices 1 2 3 4 5 6 
#
# 1 0.014871 -0.004272 -0.001986 0.000000 -0.003291 0.000000
# 2 -0.004272 0.012358 -0.007067 0.000000 -0.001307 0.000000
# 3 -0.001986 -0.007067 0.022878 0.000000 -0.004396 0.000000
# 4 0.000000 0.000000 0.000000 0.040241 0.000000 -0.009008
# 5 -0.003291 -0.001307 -0.004396 0.000000 0.041456 0.000000
# 6 0.000000 0.000000 0.000000 -0.009008 0.000000 0.043086
#
#
# Mechanical properties :
#
#
# Convention : Reuss Voigt Hill
#
# Bulk Modulus (GPa) = 42.63161 54.40799 48.51980
# Shear Modulus (GPa) = 23.88234 25.90421 24.89328
#
# Velocity S-wave (km/s) = 3.57248 3.72063 3.64731
# Velocity P-wave (km/s) = 6.30864 6.89440 6.60801
#
# Compressibility (1/GPa) = 0.02345677
#
# Stress axis : x y z
#
# Youngs Moduli (GPa) = 67.24330 80.91859 43.70991
#
# Poissons Ratio (x) = 0.34569 0.08682
# Poissons Ratio (y) = 0.28727 0.30890
# Poissons Ratio (z) = 0.13356 0.57186
#
# Static dielectric constant tensor:
#      x y z
#    x 3.319310 0.000000 -0.006460 
#    y 0.000000 4.059080 0.000000 
#    z -0.006460 0.000000 3.436090 
# 
# 
# High freq. dielectric constant tensor:
#      x y z
#    x 1.712990 0.000000 0.004060 
#    y 0.000000 1.740860 0.000000 
#    z 0.004060 0.000000 1.716420 
# 
# From -- ./inp_files/170616.got.cif
#   From: 2010.06.25/outbox.cif.g09.slc.cpg/sg12_86_cif.got.tgz:170616.got - 2010.06.28 00:19:55.
