data_PCOD8088629
_publ_section_title
;
Structure prediction by ZEFSAII (Michael W. Deem and Ramdas Pophale) SiO2 
 PCOD8088629
Probable space group: C 2/M
;
_chemical_formula_sum "Si O2"
_cell_formula_units_Z 64
_cell_length_a 24.034894
_cell_length_b 8.995602
_cell_length_c 21.690339
_cell_angle_alpha 90.000000
_cell_angle_beta 133.934447
_cell_angle_gamma 90.000000
_cell_volume 3377.164059
_symmetry_space_group_name_H-M "C 2/M"
_symmetry_group_IT_number 12
_symmetry_cell_setting 'monoclinic'
loop_
_space_group_symop_operation_xyz
x,y,z
-x,y,-z
-x,-y,-z
x,-y,z
1/2+x,1/2+y,z
1/2-x,1/2+y,-z
1/2-x,1/2-y,-z
1/2+x,1/2-y,z
loop_
_atom_site_type_symbol
_atom_site_label
_atom_site_fract_x
_atom_site_fract_y
_atom_site_fract_z
Si Si1 0.446182 0.828275 0.905332
Si Si2 0.061607 0.329334 0.888770
Si Si3 0.135112 0.672632 0.410420
Si Si4 0.539635 0.173128 0.729911
Si Si5 0.316285 0.671248 0.208961
Si Si6 0.713441 0.324672 0.031101
Si Si7 0.220951 0.328561 0.254291
Si Si8 0.737186 0.325890 0.394160
O O1 0.482902 0.804973 0.866016
O O2 0.359301 0.761543 0.835639
O O3 0.438182 0.000000 0.917252
O O4 0.500000 0.752499 0.000000
O O5 0.089287 0.500000 0.914812
O O6 0.048938 0.282535 0.808559
O O7 0.125030 0.224960 0.969220
O O8 0.143600 0.500000 0.400261
O O9 0.185891 0.717075 0.508615
O O10 0.162229 0.761603 0.371000
O O11 0.046805 0.712815 0.357867
O O12 0.596401 0.270950 0.731622
O O13 0.558482 0.000000 0.734487
O O14 0.310818 0.500000 0.183306
O O15 0.259431 0.772450 0.125867
O O16 0.290851 0.689142 0.260049
O O17 0.719940 0.500000 0.029826
O O18 0.750000 0.250000 0.000000
O O19 0.207354 0.500000 0.261860
O O20 0.246801 0.240761 0.334209
O O21 0.726237 0.500000 0.379837
#
# Coordination Sequence:
#
# PCOD8088629 Si02
#       8
#     8   8   8   8   8   8   8   8
#     4   9  17  32  55  80 106 141 185 227 269 326
#     4  10  19  32  54  81 106 138 183 231 279 329
#     4   9  19  37  60  86 115 147 184 225 277 340
#     4  10  20  35  56  80 109 146 186 231 281 332
#     4  11  23  38  57  81 110 146 192 238 279 331
#     4  12  23  36  54  77 109 148 187 229 278 330
#     4  10  21  38  59  81 110 151 190 227 278 341
#     4  10  20  35  59  89 116 145 183 230 279 330
#
# _framework density 18.950811999999999
#
# number of rings (size 3 to 8) (size 9 to 14) (size 15 to 20)
#    0.000    1.875    1.250    3.375    0.000    6.000 
#    0.000    2.500    0.000    5.250    0.000    0.000 
#    0.000    0.000    0.000    0.000    0.000    0.000 
#
# Total GULP energy -396874.906927 kJ/mol
# GULP energy per Si atom -12402.340841 kJ/mol
# Density = 1.890768 g / cm^3
# Si number density = 18.950812 Si / 1000 Ang^3
#
#
#
# Elastic Constant Matrix: (Units=GPa)
#
#
# Indices 1 2 3 4 5 6 
#
# 1 123.9784 48.2519 57.6479 0.0000 5.3340 0.0000
# 2 48.2519 85.6884 42.1650 0.0000 0.2609 0.0000
# 3 57.6479 42.1650 99.8894 0.0000 3.7743 0.0000
# 4 0.0000 0.0000 0.0000 29.0223 0.0000 -0.2579
# 5 5.3340 0.2609 3.7743 0.0000 31.8967 0.0000
# 6 0.0000 0.0000 0.0000 -0.2579 0.0000 30.6619
#
#
#
# Elastic Compliance Matrix: (Units=1/GPa)
#
#
# Indices 1 2 3 4 5 6 
#
# 1 0.012215 -0.004331 -0.005169 0.000000 -0.001396 0.000000
# 2 -0.004331 0.016277 -0.004414 0.000000 0.001113 0.000000
# 3 -0.005169 -0.004414 0.014890 0.000000 -0.000861 0.000000
# 4 0.000000 0.000000 0.000000 0.034459 0.000000 0.000290
# 5 -0.001396 0.001113 -0.000861 0.000000 0.031677 0.000000
# 6 0.000000 0.000000 0.000000 0.000290 0.000000 0.032616
#
#
# Mechanical properties :
#
#
# Convention : Reuss Voigt Hill
#
# Bulk Modulus (GPa) = 64.28476 67.29845 65.79161
# Shear Modulus (GPa) = 28.54775 29.08227 28.81501
#
# Velocity S-wave (km/s) = 3.88546 3.92167 3.90361
# Velocity P-wave (km/s) = 7.35695 7.48968 7.42361
#
# Compressibility (1/GPa) = 0.01555579
#
# Stress axis : x y z
#
# Youngs Moduli (GPa) = 81.86832 61.43525 67.16106
#
# Poissons Ratio (x) = 0.26606 0.34713
# Poissons Ratio (y) = 0.35454 0.29643
# Poissons Ratio (z) = 0.42314 0.27116
#
# Static dielectric constant tensor:
#      x y z
#    x 3.452330 0.000000 0.207760 
#    y 0.000000 3.429460 0.000000 
#    z 0.207760 0.000000 3.451550 
# 
# 
# High freq. dielectric constant tensor:
#      x y z
#    x 1.741040 0.000000 0.005250 
#    y 0.000000 1.720330 0.000000 
#    z 0.005250 0.000000 1.733100 
# 
# From -- ./inp_files/324328.got.cif
#   From: 2010.06.25/outbox.cif.g09.slc.cpg/sg12_163_cif.got.tgz:324328.got - 2010.06.28 00:19:55.
