data_PCOD8088288
_publ_section_title
;
Structure prediction by ZEFSAII (Michael W. Deem and Ramdas Pophale) SiO2 
 PCOD8088288
Probable space group: C 2/M
;
_chemical_formula_sum "Si O2"
_cell_formula_units_Z 56
_cell_length_a 19.984936
_cell_length_b 9.061123
_cell_length_c 22.936314
_cell_angle_alpha 90.000000
_cell_angle_beta 49.143134
_cell_angle_gamma 90.000000
_cell_volume 3141.441824
_symmetry_space_group_name_H-M "C 2/M"
_symmetry_group_IT_number 12
_symmetry_cell_setting 'monoclinic'
loop_
_space_group_symop_operation_xyz
x,y,z
-x,y,-z
-x,-y,-z
x,-y,z
1/2+x,1/2+y,z
1/2-x,1/2+y,-z
1/2-x,1/2-y,-z
1/2+x,1/2-y,z
loop_
_atom_site_type_symbol
_atom_site_label
_atom_site_fract_x
_atom_site_fract_y
_atom_site_fract_z
Si Si1 0.618667 0.670676 0.268818
Si Si2 0.977969 0.830393 0.447629
Si Si3 0.018863 0.670831 0.728333
Si Si4 0.804445 0.175068 0.163602
Si Si5 0.952349 0.327394 0.154541
Si Si6 0.925024 0.837697 0.994422
Si Si7 0.342991 0.171728 0.448463
O O1 0.640041 0.500000 0.245087
O O2 0.563879 0.694587 0.359068
O O3 0.564578 0.732814 0.244524
O O4 0.708070 0.759779 0.226928
O O5 0.897318 0.730350 0.472630
O O6 0.000000 0.778936 0.500000
O O7 0.946978 0.000000 0.463375
O O8 0.992071 0.500000 0.737187
O O9 0.043118 0.712342 0.780222
O O10 0.104564 0.708481 0.640774
O O11 0.868955 0.242884 0.175441
O O12 0.803550 0.000000 0.173192
O O13 0.837181 0.215359 0.079098
O O14 0.939883 0.500000 0.150476
O O15 0.045266 0.276607 0.072342
O O16 0.910313 0.000000 0.974625
O O17 0.000000 0.849394 0.000000
O O18 0.250000 0.250000 0.500000
O O19 0.326938 0.000000 0.465790
#
# Coordination Sequence:
#
# PCOD8088288 Si02
#       7
#     8   8   8   8   8   8   8
#     4  10  20  34  54  77 100 131 171 209 246 296
#     4   9  19  36  55  75 102 133 164 205 256 301
#     4   9  20  37  53  72 103 138 165 201 256 303
#     4  10  20  34  52  74 104 137 166 203 252 300
#     4  10  19  32  53  78 101 129 169 211 249 294
#     4   8  16  31  49  71 100 133 165 202 252 298
#     4  10  20  35  54  75 102 134 169 207 247 296
#
# _framework density 17.826208999999999
#
# number of rings (size 3 to 8) (size 9 to 14) (size 15 to 20)
#    0.000    2.571    0.000    2.571    0.000    6.857 
#    0.000    6.429    0.000    0.000    0.000    0.000 
#    0.000    0.000    0.000    0.000    0.000    0.000 
#
# Total GULP energy -347204.425864 kJ/mol
# GULP energy per Si atom -12400.158067 kJ/mol
# Density = 1.778564 g / cm^3
# Si number density = 17.826209 Si / 1000 Ang^3
#
#
#
# Elastic Constant Matrix: (Units=GPa)
#
#
# Indices 1 2 3 4 5 6 
#
# 1 114.7868 73.9695 78.2267 0.0001 2.3369 0.0001
# 2 73.9695 104.7838 60.9674 0.0003 3.0226 0.0003
# 3 78.2267 60.9674 98.2132 0.0000 7.7161 -0.0001
# 4 0.0001 0.0003 0.0000 31.1670 0.0000 -3.8653
# 5 2.3369 3.0226 7.7161 0.0000 27.0418 0.0001
# 6 0.0001 0.0003 -0.0001 -3.8653 0.0001 34.2868
#
#
#
# Elastic Compliance Matrix: (Units=1/GPa)
#
#
# Indices 1 2 3 4 5 6 
#
# 1 0.023551 -0.008866 -0.013475 0.000000 0.002801 0.000000
# 2 -0.008866 0.018303 -0.004296 0.000000 -0.000054 0.000000
# 3 -0.013475 -0.004296 0.023990 0.000000 -0.005201 0.000000
# 4 0.000000 0.000000 0.000000 0.032540 0.000000 0.003668
# 5 0.002801 -0.000054 -0.005201 0.000000 0.038228 0.000000
# 6 0.000000 0.000000 0.000000 0.003668 0.000000 0.029579
#
#
# Mechanical properties :
#
#
# Convention : Reuss Voigt Hill
#
# Bulk Modulus (GPa) = 79.54957 82.67900 81.11429
# Shear Modulus (GPa) = 22.35579 25.47381 23.91480
#
# Velocity S-wave (km/s) = 3.54516 3.78432 3.66669
# Velocity P-wave (km/s) = 7.84089 8.09791 7.97043
#
# Compressibility (1/GPa) = 0.01257078
#
# Stress axis : x y z
#
# Youngs Moduli (GPa) = 42.46089 54.63473 41.68385
#
# Poissons Ratio (x) = 0.48439 0.56168
# Poissons Ratio (y) = 0.37646 0.17908
# Poissons Ratio (z) = 0.57215 0.23472
#
# Static dielectric constant tensor:
#      x y z
#    x 3.155720 0.000000 -0.041170 
#    y 0.000000 3.409500 0.000000 
#    z -0.041170 0.000000 3.579640 
# 
# 
# High freq. dielectric constant tensor:
#      x y z
#    x 1.674250 0.000000 -0.003310 
#    y 0.000000 1.699850 0.000000 
#    z -0.003310 0.000000 1.694420 
# 
# From -- ./inp_files/319681.got.cif
#   From: 2010.06.25/outbox.cif.g09.slc.cpg/sg12_160_cif.got.tgz:319681.got - 2010.06.28 00:19:55.
