data_PCOD8088069
_publ_section_title
;
Structure prediction by ZEFSAII (Michael W. Deem and Ramdas Pophale) SiO2 
 PCOD8088069
Probable space group: C 2/M
;
_chemical_formula_sum "Si O2"
_cell_formula_units_Z 48
_cell_length_a 31.528329
_cell_length_b 8.999515
_cell_length_c 9.549886
_cell_angle_alpha 90.000000
_cell_angle_beta 76.514090
_cell_angle_gamma 90.000000
_cell_volume 2634.968263
_symmetry_space_group_name_H-M "C 2/M"
_symmetry_group_IT_number 12
_symmetry_cell_setting 'monoclinic'
loop_
_space_group_symop_operation_xyz
x,y,z
-x,y,-z
-x,-y,-z
x,-y,z
1/2+x,1/2+y,z
1/2-x,1/2+y,-z
1/2-x,1/2-y,-z
1/2+x,1/2-y,z
loop_
_atom_site_type_symbol
_atom_site_label
_atom_site_fract_x
_atom_site_fract_y
_atom_site_fract_z
Si Si1 0.932689 0.824421 0.338580
Si Si2 0.861023 0.829258 0.171189
Si Si3 0.512382 0.174192 0.149044
Si Si4 0.610033 0.172381 0.114243
Si Si5 0.631375 0.825287 0.412073
Si Si6 0.296558 0.325231 0.462779
O O1 0.903461 0.781119 0.226889
O O2 0.912475 0.744140 0.489381
O O3 0.981183 0.764396 0.277754
O O4 0.932686 0.000000 0.365322
O O5 0.817974 0.794469 0.294931
O O6 0.863776 0.000000 0.129105
O O7 0.858850 0.741351 0.027845
O O8 0.560834 0.235112 0.142003
O O9 0.507465 0.000000 0.185563
O O10 0.500000 0.211877 0.000000
O O11 0.630961 0.207683 0.247533
O O12 0.607796 0.000000 0.084008
O O13 0.674311 0.747010 0.438524
O O14 0.632727 0.000000 0.443993
O O15 0.292896 0.500000 0.495494
O O16 0.250000 0.250000 0.500000
#
# Coordination Sequence:
#
# PCOD8088069 Si02
#       6
#     8   8   8   8   8   8
#     4  10  20  34  52  77 107 145 190 230 270 321
#     4   9  19  34  54  79 108 139 176 221 268 319
#     4  10  19  32  52  77 107 145 190 233 270 316
#     4  10  21  35  53  80 110 144 185 225 272 322
#     4  10  21  37  56  79 111 145 178 224 274 322
#     4  10  21  39  62  88 110 137 177 218 266 327
#
# _framework density 18.216539000000001
#
# number of rings (size 3 to 8) (size 9 to 14) (size 15 to 20)
#    0.000    2.167    1.667    2.500    0.000    6.333 
#    0.000    4.167    0.000    0.000    0.000    0.000 
#    0.000    0.000    0.000    0.000    0.000    0.000 
#
# Total GULP energy -297665.627973 kJ/mol
# GULP energy per Si atom -12402.734499 kJ/mol
# Density = 1.817508 g / cm^3
# Si number density = 18.216539 Si / 1000 Ang^3
#
#
#
# Elastic Constant Matrix: (Units=GPa)
#
#
# Indices 1 2 3 4 5 6 
#
# 1 102.2819 46.5545 50.2420 0.0000 -9.8046 0.0000
# 2 46.5545 87.8817 66.3785 0.0000 -2.5433 0.0000
# 3 50.2420 66.3785 116.0106 0.0000 -6.6383 0.0000
# 4 0.0000 0.0000 0.0000 32.2043 0.0000 -5.5848
# 5 -9.8046 -2.5433 -6.6383 0.0000 20.5476 0.0000
# 6 0.0000 0.0000 0.0000 -5.5848 0.0000 31.4555
#
#
#
# Elastic Compliance Matrix: (Units=1/GPa)
#
#
# Indices 1 2 3 4 5 6 
#
# 1 0.013993 -0.005122 -0.002836 0.000000 0.005127 0.000000
# 2 -0.005122 0.021946 -0.010517 0.000000 -0.003126 0.000000
# 3 -0.002836 -0.010517 0.016010 0.000000 0.002517 0.000000
# 4 0.000000 0.000000 0.000000 0.032038 0.000000 0.005688
# 5 0.005127 -0.003126 0.002517 0.000000 0.051540 0.000000
# 6 0.000000 0.000000 0.000000 0.005688 0.000000 0.032801
#
#
# Mechanical properties :
#
#
# Convention : Reuss Voigt Hill
#
# Bulk Modulus (GPa) = 66.67731 70.28050 68.47890
# Shear Modulus (GPa) = 23.77806 26.37478 25.07642
#
# Velocity S-wave (km/s) = 3.61681 3.80919 3.71425
# Velocity P-wave (km/s) = 7.35689 7.61649 7.48782
#
# Compressibility (1/GPa) = 0.01499761
#
# Stress axis : x y z
#
# Youngs Moduli (GPa) = 71.46558 45.56654 62.46116
#
# Poissons Ratio (x) = 0.23340 0.17713
# Poissons Ratio (y) = 0.36606 0.65693
# Poissons Ratio (z) = 0.20266 0.47924
#
# Static dielectric constant tensor:
#      x y z
#    x 3.270120 0.000000 -0.079090 
#    y 0.000000 3.351590 0.000000 
#    z -0.079090 0.000000 3.309460 
# 
# 
# High freq. dielectric constant tensor:
#      x y z
#    x 1.694310 0.000000 -0.008660 
#    y 0.000000 1.711480 0.000000 
#    z -0.008660 0.000000 1.704340 
# 
# From -- ./inp_files/108761.got.cif
#   From: 2010.06.25/outbox.cif.g09.slc.cpg/sg12_55_cif.got.tgz:108761.got - 2010.06.28 00:19:55.
