data_PCOD8088882
_publ_section_title
;
Structure prediction by ZEFSAII (Michael W. Deem and Ramdas Pophale) SiO2 
 PCOD8088882
Probable space group: C 2/M
;
_chemical_formula_sum "Si O2"
_cell_formula_units_Z 56
_cell_length_a 28.989684
_cell_length_b 8.924827
_cell_length_c 20.054295
_cell_angle_alpha 90.000000
_cell_angle_beta 32.406278
_cell_angle_gamma 90.000000
_cell_volume 2780.674086
_symmetry_space_group_name_H-M "C 2/M"
_symmetry_group_IT_number 12
_symmetry_cell_setting 'monoclinic'
loop_
_space_group_symop_operation_xyz
x,y,z
-x,y,-z
-x,-y,-z
x,-y,z
1/2+x,1/2+y,z
1/2-x,1/2+y,-z
1/2-x,1/2-y,-z
1/2+x,1/2-y,z
loop_
_atom_site_type_symbol
_atom_site_label
_atom_site_fract_x
_atom_site_fract_y
_atom_site_fract_z
Si Si1 0.878534 0.825485 0.432355
Si Si2 0.298915 0.827119 0.279813
Si Si3 0.454499 0.825100 0.722462
Si Si4 0.910657 0.176743 0.642839
Si Si5 0.111679 0.328551 0.051686
Si Si6 0.578048 0.172755 0.753076
Si Si7 0.757117 0.175596 0.198878
O O1 0.786183 0.787435 0.575156
O O2 0.949136 0.737767 0.389278
O O3 0.877403 0.774779 0.357079
O O4 0.900612 0.000000 0.409637
O O5 0.381239 0.789595 0.225120
O O6 0.306532 0.724820 0.205394
O O7 0.299311 0.000000 0.256929
O O8 0.403935 0.744082 0.724957
O O9 0.401854 0.792627 0.854052
O O10 0.460684 0.000000 0.699522
O O11 0.834669 0.242367 0.690430
O O12 0.000000 0.224607 0.500000
O O13 0.900452 0.000000 0.659294
O O14 0.140527 0.500000 0.006002
O O15 0.023660 0.295461 0.118998
O O16 0.185999 0.220786 0.934325
O O17 0.594856 0.000000 0.712303
O O18 0.741663 0.000000 0.216885
#
# Coordination Sequence:
#
# PCOD8088882 Si02
#       7
#     8   8   8   8   8   8   8
#     4  10  19  32  55  87 120 152 187 233 287 340
#     4  10  21  37  56  81 116 156 194 234 287 342
#     4  10  21  38  62  88 115 151 191 233 282 335
#     4  11  24  42  64  89 117 149 184 226 281 340
#     4   9  20  40  61  82 112 150 192 235 281 335
#     4   9  19  36  59  84 112 152 196 237 283 336
#     4  12  26  40  58  84 114 150 191 237 284 334
#
# _framework density 20.139001
#
# number of rings (size 3 to 8) (size 9 to 14) (size 15 to 20)
#    0.000    1.857    0.000    4.714    0.000   10.286 
#    0.000    2.857    0.000    0.000    0.000    0.000 
#    0.000    0.000    0.000    0.000    0.000    0.000 
#
# Total GULP energy -347370.530853 kJ/mol
# GULP energy per Si atom -12406.090388 kJ/mol
# Density = 2.009316 g / cm^3
# Si number density = 20.139001 Si / 1000 Ang^3
#
#
#
# Elastic Constant Matrix: (Units=GPa)
#
#
# Indices 1 2 3 4 5 6 
#
# 1 106.0424 34.2045 27.2605 -0.0019 4.4257 0.0034
# 2 34.2045 90.4217 42.8972 -0.0073 6.4893 0.0032
# 3 27.2605 42.8972 81.8253 0.0004 4.0813 0.0006
# 4 -0.0019 -0.0073 0.0004 29.1172 0.0008 2.4260
# 5 4.4257 6.4893 4.0813 0.0008 18.6531 -0.0029
# 6 0.0034 0.0032 0.0006 2.4260 -0.0029 38.4413
#
#
#
# Elastic Compliance Matrix: (Units=1/GPa)
#
#
# Indices 1 2 3 4 5 6 
#
# 1 0.010995 -0.003154 -0.001956 0.000000 -0.001084 -0.000001
# 2 -0.003154 0.015851 -0.007099 0.000004 -0.003213 -0.000001
# 3 -0.001956 -0.007099 0.016629 -0.000002 -0.000705 0.000001
# 4 0.000000 0.000004 -0.000002 0.034525 -0.000003 -0.002179
# 5 -0.001084 -0.003213 -0.000705 -0.000003 0.055140 0.000005
# 6 -0.000001 -0.000001 0.000001 -0.002179 0.000005 0.026151
#
#
# Mechanical properties :
#
#
# Convention : Reuss Voigt Hill
#
# Bulk Modulus (GPa) = 52.46888 54.11263 53.29076
# Shear Modulus (GPa) = 26.30730 28.83747 27.57239
#
# Velocity S-wave (km/s) = 3.61818 3.78818 3.70415
# Velocity P-wave (km/s) = 6.60037 6.78687 6.69427
#
# Compressibility (1/GPa) = 0.01905892
#
# Stress axis : x y z
#
# Youngs Moduli (GPa) = 90.94680 63.08904 60.13419
#
# Poissons Ratio (x) = 0.19896 0.11761
# Poissons Ratio (y) = 0.28682 0.42688
# Poissons Ratio (z) = 0.17787 0.44786
#
# Static dielectric constant tensor:
#      x y z
#    x 3.790650 -0.000010 -0.029280 
#    y -0.000010 3.617500 0.000020 
#    z -0.029280 0.000020 3.530660 
# 
# 
# High freq. dielectric constant tensor:
#      x y z
#    x 1.795110 0.000000 -0.000720 
#    y 0.000000 1.785440 0.000000 
#    z -0.000720 0.000000 1.781980 
# 
# From -- ./inp_files/329504.got.cif
#   From: 2010.06.25/outbox.cif.g09.slc.cpg/sg12_165_cif.got.tgz:329504.got - 2010.06.28 00:19:55.
