data_PCOD8088976
_publ_section_title
;
Structure prediction by ZEFSAII (Michael W. Deem and Ramdas Pophale) SiO2 
 PCOD8088976
Probable space group: C 2/M
;
_chemical_formula_sum "Si O2"
_cell_formula_units_Z 64
_cell_length_a 25.544647
_cell_length_b 14.018444
_cell_length_c 9.126150
_cell_angle_alpha 90.000000
_cell_angle_beta 72.368704
_cell_angle_gamma 90.000000
_cell_volume 3114.524699
_symmetry_space_group_name_H-M "C 2/M"
_symmetry_group_IT_number 12
_symmetry_cell_setting 'monoclinic'
loop_
_space_group_symop_operation_xyz
x,y,z
-x,y,-z
-x,-y,-z
x,-y,z
1/2+x,1/2+y,z
1/2-x,1/2+y,-z
1/2-x,1/2-y,-z
1/2+x,1/2-y,z
loop_
_atom_site_type_symbol
_atom_site_label
_atom_site_fract_x
_atom_site_fract_y
_atom_site_fract_z
Si Si1 0.706845 0.691853 0.730281
Si Si2 0.241707 0.394537 0.764788
Si Si3 0.644334 0.892626 0.054280
Si Si4 0.369663 0.606760 0.673328
Si Si5 0.617907 0.389532 0.005141
Si Si6 0.378593 0.259820 0.414317
Si Si7 0.561244 0.771112 0.924600
Si Si8 0.825104 0.389223 0.652887
O O1 0.719628 0.804498 0.692410
O O2 0.667705 0.672209 0.623480
O O3 0.760325 0.627691 0.689046
O O4 0.672785 0.667594 0.906930
O O5 0.234466 0.500000 0.694057
O O6 0.304886 0.373411 0.744475
O O7 0.206956 0.394729 0.943854
O O8 0.650332 0.849785 0.213485
O O9 0.620496 0.000000 0.079223
O O10 0.604087 0.832413 0.984456
O O11 0.381458 0.500000 0.609295
O O12 0.393535 0.623293 0.813856
O O13 0.399934 0.676722 0.532595
O O14 0.622472 0.500000 0.954866
O O15 0.565816 0.339285 0.971705
O O16 0.425125 0.227173 0.260077
O O17 0.355717 0.160889 0.494313
O O18 0.500000 0.810457 0.000000
O O19 0.836952 0.500000 0.630703
#
# Coordination Sequence:
#
# PCOD8088976 Si02
#       8
#     8   8   8   8   8   8   8   8
#     4  11  21  35  56  90 126 168 196 227 274 342
#     4  10  19  32  57  89 123 160 195 225 271 339
#     4  10  21  40  62  86 116 157 200 239 284 345
#     4  10  21  36  59  89 124 160 190 227 282 348
#     4  10  21  39  61  87 118 159 201 236 279 344
#     4  11  23  38  55  87 120 155 191 241 299 342
#     4  11  25  44  65  85 107 147 199 257 309 351
#     4  11  23  36  57  89 127 162 192 231 284 348
#
# _framework density 20.548883
#
# number of rings (size 3 to 8) (size 9 to 14) (size 15 to 20)
#    0.000    1.500    3.750    2.250    0.000    7.000 
#    0.000    2.500    0.000    3.000    0.000    0.000 
#    0.000    0.000    0.000    0.000    0.000    0.000 
#
# Total GULP energy -396561.240581 kJ/mol
# GULP energy per Si atom -12392.538768 kJ/mol
# Density = 2.050211 g / cm^3
# Si number density = 20.548883 Si / 1000 Ang^3
#
#
#
# Elastic Constant Matrix: (Units=GPa)
#
#
# Indices 1 2 3 4 5 6 
#
# 1 59.8369 10.6425 39.8079 0.0000 -16.7316 0.0000
# 2 10.6425 82.2038 35.2334 0.0000 1.0291 0.0000
# 3 39.8079 35.2334 125.9358 0.0000 -7.3905 0.0000
# 4 0.0000 0.0000 0.0000 29.6191 0.0000 7.9820
# 5 -16.7316 1.0291 -7.3905 0.0000 17.6956 0.0000
# 6 0.0000 0.0000 0.0000 7.9820 0.0000 17.1969
#
#
#
# Elastic Compliance Matrix: (Units=1/GPa)
#
#
# Indices 1 2 3 4 5 6 
#
# 1 0.028419 -0.000826 -0.007352 0.000000 0.023848 0.000000
# 2 -0.000826 0.013953 -0.003830 0.000000 -0.003192 0.000000
# 3 -0.007352 -0.003830 0.011216 0.000000 -0.002045 0.000000
# 4 0.000000 0.000000 0.000000 0.038589 0.000000 -0.017911
# 5 0.023848 -0.003192 -0.002045 0.000000 0.078392 0.000000
# 6 0.000000 0.000000 0.000000 -0.017911 0.000000 0.066463
#
#
# Mechanical properties :
#
#
# Convention : Reuss Voigt Hill
#
# Bulk Modulus (GPa) = 33.81702 48.81600 41.31651
# Shear Modulus (GPa) = 18.45652 25.05518 21.75585
#
# Velocity S-wave (km/s) = 3.00021 3.49563 3.25735
# Velocity P-wave (km/s) = 5.33800 6.33247 5.85638
#
# Compressibility (1/GPa) = 0.02957091
#
# Stress axis : x y z
#
# Youngs Moduli (GPa) = 35.18795 71.66723 89.15755
#
# Poissons Ratio (x) = 0.05923 0.65552
# Poissons Ratio (y) = 0.02908 0.34146
# Poissons Ratio (z) = 0.25871 0.27448
#
# Static dielectric constant tensor:
#      x y z
#    x 3.344150 0.000000 0.086410 
#    y 0.000000 3.969720 0.000000 
#    z 0.086410 0.000000 3.778660 
# 
# 
# High freq. dielectric constant tensor:
#      x y z
#    x 1.753110 0.000000 0.008440 
#    y 0.000000 1.817340 0.000000 
#    z 0.008440 0.000000 1.809230 
# 
# From -- ./inp_files/104574.got.cif
#   From: 2010.06.25/outbox.cif.g09.slc.cpg/sg12_53_cif.got.tgz:104574.got - 2010.06.28 00:19:55.
