data_PCOD8088686
_publ_section_title
;
Structure prediction by ZEFSAII (Michael W. Deem and Ramdas Pophale) SiO2 
 PCOD8088686
Probable space group: C 2/M
;
_chemical_formula_sum "Si O2"
_cell_formula_units_Z 56
_cell_length_a 18.427587
_cell_length_b 18.194427
_cell_length_c 13.295598
_cell_angle_alpha 90.000000
_cell_angle_beta 143.757958
_cell_angle_gamma 90.000000
_cell_volume 2635.405301
_symmetry_space_group_name_H-M "C 2/M"
_symmetry_group_IT_number 12
_symmetry_cell_setting 'monoclinic'
loop_
_space_group_symop_operation_xyz
x,y,z
-x,y,-z
-x,-y,-z
x,-y,z
1/2+x,1/2+y,z
1/2-x,1/2+y,-z
1/2-x,1/2-y,-z
1/2+x,1/2-y,z
loop_
_atom_site_type_symbol
_atom_site_label
_atom_site_fract_x
_atom_site_fract_y
_atom_site_fract_z
Si Si1 0.924869 0.584755 0.156314
Si Si2 0.660884 0.918010 0.155836
Si Si3 0.621093 0.334700 0.353492
Si Si4 0.560981 0.582774 0.469866
Si Si5 0.135447 0.085782 0.174688
Si Si6 0.631460 0.913713 0.685920
Si Si7 0.113308 0.680834 0.277598
O O1 0.964573 0.500000 0.202589
O O2 0.852065 0.604051 0.177110
O O3 0.049768 0.632191 0.293511
O O4 0.842062 0.604537 0.965655
O O5 0.795903 0.919464 0.349885
O O6 0.583500 0.860012 0.137868
O O7 0.604507 0.000000 0.105652
O O8 0.529562 0.369233 0.335270
O O9 0.659554 0.397826 0.318276
O O10 0.742021 0.310684 0.548014
O O11 0.560831 0.264472 0.228494
O O12 0.500000 0.619358 0.500000
O O13 0.508959 0.500000 0.395036
O O14 0.248249 0.120941 0.235448
O O15 0.132810 0.000000 0.150140
O O16 0.000000 0.119545 0.000000
O O17 0.500000 0.881044 0.500000
O O18 0.630471 0.000000 0.662277
#
# Coordination Sequence:
#
# PCOD8088686 Si02
#       7
#     8   8   8   8   8   8   8
#     4  10  19  32  54  82 111 140 175 229 286 328
#     4   9  18  32  53  81 107 134 174 224 277 329
#     4  10  21  36  53  75 106 144 182 222 269 324
#     4   9  18  34  57  81 104 135 178 225 269 319
#     4  10  21  36  55  79 107 143 185 225 269 325
#     4   9  18  33  54  81 110 142 184 229 273 326
#     4  10  20  34  52  77 106 140 181 219 270 335
#
# _framework density 21.249103999999999
#
# number of rings (size 3 to 8) (size 9 to 14) (size 15 to 20)
#    0.000    2.429    0.000    2.143    0.000    6.286 
#    0.000    9.286    0.000    2.571    0.000    0.000 
#    0.000    0.000    0.000    0.000    0.000    0.000 
#
# Total GULP energy -346918.368035 kJ/mol
# GULP energy per Si atom -12389.941716 kJ/mol
# Density = 2.120074 g / cm^3
# Si number density = 21.249104 Si / 1000 Ang^3
#
#
#
# Elastic Constant Matrix: (Units=GPa)
#
#
# Indices 1 2 3 4 5 6 
#
# 1 173.6106 48.3248 45.7671 0.0000 -28.5713 0.0000
# 2 48.3248 71.8228 31.2729 0.0000 -17.7638 0.0000
# 3 45.7671 31.2729 71.9218 0.0000 -20.4528 0.0000
# 4 0.0000 0.0000 0.0000 -132.9275 0.0000 84.8450
# 5 -28.5713 -17.7638 -20.4528 0.0000 41.0092 0.0000
# 6 0.0000 0.0000 0.0000 84.8450 0.0000 -35.3949
#
#
#
# Elastic Compliance Matrix: (Units=1/GPa)
#
#
# Indices 1 2 3 4 5 6 
#
# 1 0.007881 -0.003449 -0.002772 0.000000 0.002614 0.000000
# 2 -0.003449 0.019370 -0.005273 0.000000 0.003358 0.000000
# 3 -0.002772 -0.005273 0.019532 0.000000 0.005526 0.000000
# 4 0.000000 0.000000 0.000000 0.014194 0.000000 0.034023
# 5 0.002614 0.003358 0.005526 0.000000 0.030417 0.000000
# 6 0.000000 0.000000 0.000000 0.034023 0.000000 0.053305
#
#
# Mechanical properties :
#
#
# Convention : Reuss Voigt Hill
#
# Bulk Modulus (GPa) = 42.02447 63.12053 52.57250
# Shear Modulus (GPa) = 28.47087 -12.66329 7.90379
#
# Velocity S-wave (km/s) = 3.66438 -2.44385 1.93072
# Velocity P-wave (km/s) = 6.14195 4.66973 5.45573
#
# Compressibility (1/GPa) = 0.02379566
#
# Stress axis : x y z
#
# Youngs Moduli (GPa) = 126.88666 51.62571 51.19775
#
# Poissons Ratio (x) = 0.17806 0.14191
# Poissons Ratio (y) = 0.43765 0.26996
# Poissons Ratio (z) = 0.35172 0.27221
#
# Static dielectric constant tensor:
#      x y z
#    x 4.091620 0.000000 -0.103640 
#    y 0.000000 3.839280 0.000000 
#    z -0.103640 0.000000 3.759430 
# 
# 
# High freq. dielectric constant tensor:
#      x y z
#    x 1.836780 0.000000 -0.011640 
#    y 0.000000 1.799990 0.000000 
#    z -0.011640 0.000000 1.824370 
# 
# From -- ./inp_files/158340.got.cif
#   From: 2010.06.25/outbox.cif.g09.slc.cpg/sg12_80_cif.got.tgz:158340.got - 2010.06.28 00:19:55.
