data_PCOD8088666
_publ_section_title
;
Structure prediction by ZEFSAII (Michael W. Deem and Ramdas Pophale) SiO2 
 PCOD8088666
Probable space group: C 2/M
;
_chemical_formula_sum "Si O2"
_cell_formula_units_Z 64
_cell_length_a 20.603984
_cell_length_b 8.759544
_cell_length_c 31.391595
_cell_angle_alpha 90.000000
_cell_angle_beta 34.678628
_cell_angle_gamma 90.000000
_cell_volume 3223.573681
_symmetry_space_group_name_H-M "C 2/M"
_symmetry_group_IT_number 12
_symmetry_cell_setting 'monoclinic'
loop_
_space_group_symop_operation_xyz
x,y,z
-x,y,-z
-x,-y,-z
x,-y,z
1/2+x,1/2+y,z
1/2-x,1/2+y,-z
1/2-x,1/2-y,-z
1/2+x,1/2-y,z
loop_
_atom_site_type_symbol
_atom_site_label
_atom_site_fract_x
_atom_site_fract_y
_atom_site_fract_z
Si Si1 0.699792 0.181703 0.333398
Si Si2 0.351585 0.820393 0.918335
Si Si3 0.923642 0.819923 0.163831
Si Si4 0.898410 0.676816 0.086793
Si Si5 0.816281 0.676917 0.839779
Si Si6 0.731027 0.180765 0.411594
Si Si7 0.948526 0.677601 0.333881
Si Si8 0.965895 0.318100 0.420613
O O1 0.808552 0.240559 0.248311
O O2 0.705295 0.245180 0.378479
O O3 0.585520 0.247569 0.373406
O O4 0.697285 0.000000 0.334618
O O5 0.471486 0.759349 0.869760
O O6 0.336191 0.773721 0.877604
O O7 0.349281 0.000000 0.925819
O O8 0.250000 0.750000 0.000000
O O9 0.918719 0.779045 0.117087
O O10 0.937898 0.000000 0.161047
O O11 0.896926 0.500000 0.100817
O O12 0.781047 0.718530 0.127339
O O13 0.000000 0.714631 0.000000
O O14 0.780413 0.500000 0.855667
O O15 0.929329 0.710372 0.752162
O O16 0.856470 0.230684 0.356857
O O17 0.636704 0.247024 0.495046
O O18 0.725004 0.000000 0.414698
O O19 0.917244 0.500000 0.349030
O O20 0.947636 0.740296 0.382539
O O21 0.969042 0.500000 0.420089
#
# Coordination Sequence:
#
# PCOD8088666 Si02
#       8
#     8   8   8   8   8   8   8   8
#     4   9  18  33  54  80 108 140 181 226 268 314
#     4  11  23  39  59  84 114 147 186 231 279 331
#     4  11  22  37  59  84 113 150 188 227 275 331
#     4  11  24  40  59  84 113 144 181 230 282 331
#     4  10  22  39  59  82 110 148 188 227 276 333
#     4  10  19  32  54  82 108 138 180 226 268 313
#     4  10  20  35  54  77 109 145 178 217 269 326
#     4   9  17  31  53  79 107 141 181 223 265 314
#
# _framework density 19.853743999999999
#
# number of rings (size 3 to 8) (size 9 to 14) (size 15 to 20)
#    0.000    1.875    0.000    4.125    0.000    8.000 
#    0.000    0.625    0.000    3.750    0.000    0.000 
#    0.000    0.000    0.000    0.000    0.000    0.000 
#
# Total GULP energy -396935.146791 kJ/mol
# GULP energy per Si atom -12404.223337 kJ/mol
# Density = 1.980856 g / cm^3
# Si number density = 19.853744 Si / 1000 Ang^3
#
#
#
# Elastic Constant Matrix: (Units=GPa)
#
#
# Indices 1 2 3 4 5 6 
#
# 1 125.2692 23.2802 33.4242 -0.0078 1.6567 -0.0491
# 2 23.2802 31.4502 22.0734 -0.0150 2.9306 -0.0780
# 3 33.4242 22.0734 110.1434 0.0104 7.0990 -0.0119
# 4 -0.0078 -0.0150 0.0104 22.4615 0.0022 -6.2048
# 5 1.6567 2.9306 7.0990 0.0022 42.8298 -0.0038
# 6 -0.0491 -0.0780 -0.0119 -6.2048 -0.0038 30.8827
#
#
#
# Elastic Compliance Matrix: (Units=1/GPa)
#
#
# Indices 1 2 3 4 5 6 
#
# 1 0.009532 -0.005866 -0.001738 0.000000 0.000321 0.000000
# 2 -0.005866 0.040685 -0.006276 0.000056 -0.001517 0.000102
# 3 -0.001738 -0.006276 0.010949 -0.000015 -0.001318 -0.000017
# 4 0.000000 0.000056 -0.000015 0.047137 -0.000003 0.009471
# 5 0.000321 -0.001517 -0.001318 -0.000003 0.023658 -0.000002
# 6 0.000000 0.000102 -0.000017 0.009471 -0.000002 0.034284
#
#
# Mechanical properties :
#
#
# Convention : Reuss Voigt Hill
#
# Bulk Modulus (GPa) = 29.93381 47.15761 38.54571
# Shear Modulus (GPa) = 24.37362 31.77381 28.07371
#
# Velocity S-wave (km/s) = 3.50760 4.00483 3.76443
# Velocity P-wave (km/s) = 5.61375 6.72227 6.19287
#
# Compressibility (1/GPa) = 0.03340704
#
# Stress axis : x y z
#
# Youngs Moduli (GPa) = 104.90479 24.57915 91.33241
#
# Poissons Ratio (x) = 0.14419 0.15871
# Poissons Ratio (y) = 0.61541 0.57316
# Poissons Ratio (z) = 0.18230 0.15425
#
# Static dielectric constant tensor:
#      x y z
#    x 3.746590 -0.000010 0.089540 
#    y -0.000010 3.315410 0.000000 
#    z 0.089540 0.000000 3.860660 
# 
# 
# High freq. dielectric constant tensor:
#      x y z
#    x 1.793140 0.000000 0.001970 
#    y 0.000000 1.744620 0.000000 
#    z 0.001970 0.000000 1.795180 
# 
# From -- ./inp_files/378137.got.cif
#   From: 2010.06.25/outbox.cif.g09.slc.cpg/sg12_190_cif.got.tgz:378137.got - 2010.06.28 00:19:55.
