data_PCOD8088756
_publ_section_title
;
Structure prediction by ZEFSAII (Michael W. Deem and Ramdas Pophale) SiO2 
 PCOD8088756
Probable space group: C 2/M
;
_chemical_formula_sum "Si O2"
_cell_formula_units_Z 56
_cell_length_a 30.402556
_cell_length_b 18.183681
_cell_length_c 8.846968
_cell_angle_alpha 90.000000
_cell_angle_beta 38.727113
_cell_angle_gamma 90.000000
_cell_volume 3059.788124
_symmetry_space_group_name_H-M "C 2/M"
_symmetry_group_IT_number 12
_symmetry_cell_setting 'monoclinic'
loop_
_space_group_symop_operation_xyz
x,y,z
-x,y,-z
-x,-y,-z
x,-y,z
1/2+x,1/2+y,z
1/2-x,1/2+y,-z
1/2-x,1/2-y,-z
1/2+x,1/2-y,z
loop_
_atom_site_type_symbol
_atom_site_label
_atom_site_fract_x
_atom_site_fract_y
_atom_site_fract_z
Si Si1 0.734103 0.084316 0.937674
Si Si2 0.748944 0.364604 0.434099
Si Si3 0.182834 0.798356 0.134527
Si Si4 0.383888 0.165278 0.582253
Si Si5 0.151278 0.773277 0.877282
Si Si6 0.642645 0.917448 0.641674
Si Si7 0.969521 0.681406 0.921472
O O1 0.757800 0.089353 0.700689
O O2 0.798740 0.119669 0.859411
O O3 0.726252 0.000000 0.008387
O O4 0.658105 0.124913 0.167992
O O5 0.797036 0.294572 0.276751
O O6 0.673420 0.337134 0.699099
O O7 0.784411 0.417002 0.463719
O O8 0.121863 0.754412 0.388733
O O9 0.250000 0.750000 0.000000
O O10 0.159486 0.804001 0.023856
O O11 0.347238 0.136440 0.527696
O O12 0.467562 0.150381 0.353930
O O13 0.072023 0.747246 0.051188
O O14 0.625191 0.000000 0.634614
O O15 0.579951 0.888812 0.916605
O O16 0.000000 0.711007 0.000000
#
# Coordination Sequence:
#
# PCOD8088756 Si02
#       7
#     8   8   8   8   8   8   8
#     4  11  22  34  54  85 117 145 179 231 289 332
#     4  10  19  32  55  76 109 143 190 234 282 309
#     4  10  19  35  54  82 107 143 186 232 280 326
#     4  10  20  35  53  79 115 147 186 226 266 333
#     4  10  19  34  56  79 105 143 190 242 266 319
#     4  10  20  34  52  79 115 154 190 224 270 330
#     4   9  21  34  54  82 111 148 197 225 270 322
#
# _framework density 18.301921
#
# number of rings (size 3 to 8) (size 9 to 14) (size 15 to 20)
#    0.000    2.000    2.857    2.571    6.000    3.714 
#    0.000    0.714    0.000    2.571    0.000    5.000 
#    0.000    0.000    0.000    0.000    0.000    0.000 
#
# Total GULP energy -346977.474612 kJ/mol
# GULP energy per Si atom -12392.052665 kJ/mol
# Density = 1.826027 g / cm^3
# Si number density = 18.301921 Si / 1000 Ang^3
#
#
#
# Elastic Constant Matrix: (Units=GPa)
#
#
# Indices 1 2 3 4 5 6 
#
# 1 105.2694 32.6986 32.9521 0.0000 9.3048 0.0000
# 2 32.6986 81.7098 49.1085 0.0000 -4.8050 0.0000
# 3 32.9521 49.1085 81.3466 0.0000 13.1535 0.0000
# 4 0.0000 0.0000 0.0000 20.7856 0.0000 1.9904
# 5 9.3048 -4.8050 13.1535 0.0000 20.5632 0.0000
# 6 0.0000 0.0000 0.0000 1.9904 0.0000 17.4624
#
#
#
# Elastic Compliance Matrix: (Units=1/GPa)
#
#
# Indices 1 2 3 4 5 6 
#
# 1 0.011700 -0.004208 -0.001321 0.000000 -0.005433 0.000000
# 2 -0.004208 0.024634 -0.016067 0.000000 0.017938 0.000000
# 3 -0.001321 -0.016067 0.025696 0.000000 -0.019594 0.000000
# 4 0.000000 0.000000 0.000000 0.048641 0.000000 -0.005544
# 5 -0.005433 0.017938 -0.019594 0.000000 0.067814 0.000000
# 6 0.000000 0.000000 0.000000 -0.005544 0.000000 0.057898
#
#
# Mechanical properties :
#
#
# Convention : Reuss Voigt Hill
#
# Bulk Modulus (GPa) = 53.08378 55.31603 54.19990
# Shear Modulus (GPa) = 17.49147 22.00003 19.74575
#
# Velocity S-wave (km/s) = 3.09482 3.47084 3.28821
# Velocity P-wave (km/s) = 6.46823 6.80823 6.64041
#
# Compressibility (1/GPa) = 0.01883815
#
# Stress axis : x y z
#
# Youngs Moduli (GPa) = 85.46946 40.59478 38.91637
#
# Poissons Ratio (x) = 0.17081 0.05141
# Poissons Ratio (y) = 0.35963 0.62528
# Poissons Ratio (z) = 0.11290 0.65225
#
# Static dielectric constant tensor:
#      x y z
#    x 3.448000 0.000000 0.045980 
#    y 0.000000 3.421670 0.000000 
#    z 0.045980 0.000000 3.611040 
# 
# 
# High freq. dielectric constant tensor:
#      x y z
#    x 1.700680 0.000000 0.017990 
#    y 0.000000 1.682710 0.000000 
#    z 0.017990 0.000000 1.700270 
# 
# From -- ./inp_files/112584.got.cif
#   From: 2010.06.25/outbox.cif.g09.slc.cpg/sg12_57_cif.got.tgz:112584.got - 2010.06.28 00:19:55.
