data_PCOD8088309
_publ_section_title
;
Structure prediction by ZEFSAII (Michael W. Deem and Ramdas Pophale) SiO2 
 PCOD8088309
Probable space group: C 2/M
;
_chemical_formula_sum "Si O2"
_cell_formula_units_Z 56
_cell_length_a 14.434628
_cell_length_b 8.724820
_cell_length_c 27.864028
_cell_angle_alpha 90.000000
_cell_angle_beta 57.143886
_cell_angle_gamma 90.000000
_cell_volume 2947.838557
_symmetry_space_group_name_H-M "C 2/M"
_symmetry_group_IT_number 12
_symmetry_cell_setting 'monoclinic'
loop_
_space_group_symop_operation_xyz
x,y,z
-x,y,-z
-x,-y,-z
x,-y,z
1/2+x,1/2+y,z
1/2-x,1/2+y,-z
1/2-x,1/2-y,-z
1/2+x,1/2-y,z
loop_
_atom_site_type_symbol
_atom_site_label
_atom_site_fract_x
_atom_site_fract_y
_atom_site_fract_z
Si Si1 0.858061 0.821892 0.632123
Si Si2 0.588070 0.177089 0.555493
Si Si3 0.744277 0.823196 0.424974
Si Si4 0.063022 0.681611 0.935203
Si Si5 0.013901 0.818169 0.848976
Si Si6 0.307028 0.319469 0.847868
Si Si7 0.757818 0.320000 0.237577
O O1 0.764160 0.782296 0.619764
O O2 0.816121 0.774342 0.696377
O O3 0.960306 0.716611 0.588735
O O4 0.889679 0.000000 0.621040
O O5 0.642552 0.214344 0.488915
O O6 0.641355 0.281824 0.581586
O O7 0.606067 0.000000 0.563507
O O8 0.746685 0.000000 0.409017
O O9 0.054669 0.500000 0.931696
O O10 0.190608 0.734689 0.903423
O O11 0.005025 0.755531 0.905392
O O12 0.000000 0.740676 0.000000
O O13 0.910311 0.749035 0.847855
O O14 0.125509 0.765222 0.791585
O O15 0.010685 0.000000 0.851310
O O16 0.316563 0.500000 0.848555
O O17 0.308570 0.268166 0.791511
O O18 0.783709 0.500000 0.228802
#
# Coordination Sequence:
#
# PCOD8088309 Si02
#       7
#     8   8   8   8   8   8   8
#     4  11  22  35  55  81 107 139 178 222 272 322
#     4  10  21  37  56  79 107 139 177 220 267 325
#     4  10  21  37  56  78 107 142 177 218 269 322
#     4   9  18  34  54  75 104 142 176 206 250 312
#     4  10  19  32  53  78 103 134 171 216 264 301
#     4   8  16  33  53  72 100 136 170 206 253 304
#     4   9  20  38  54  72 102 138 175 212 253 310
#
# _framework density 18.996967999999999
#
# number of rings (size 3 to 8) (size 9 to 14) (size 15 to 20)
#    0.000    2.429    0.000    3.000    0.000    6.571 
#    0.000    7.143    0.000    0.000    0.000    0.000 
#    0.000    0.000    0.000    0.000    0.000    0.000 
#
# Total GULP energy -347227.928516 kJ/mol
# GULP energy per Si atom -12400.997447 kJ/mol
# Density = 1.895373 g / cm^3
# Si number density = 18.996968 Si / 1000 Ang^3
#
#
#
# Elastic Constant Matrix: (Units=GPa)
#
#
# Indices 1 2 3 4 5 6 
#
# 1 130.5306 27.2797 40.8848 0.0000 14.4422 0.0000
# 2 27.2797 44.0383 34.1114 0.0000 4.6711 0.0000
# 3 40.8848 34.1114 78.8554 0.0000 17.3806 0.0000
# 4 0.0000 0.0000 0.0000 26.6894 0.0000 1.8235
# 5 14.4422 4.6711 17.3806 0.0000 17.2836 0.0000
# 6 0.0000 0.0000 0.0000 1.8235 0.0000 31.4591
#
#
#
# Elastic Compliance Matrix: (Units=1/GPa)
#
#
# Indices 1 2 3 4 5 6 
#
# 1 0.009698 -0.003633 -0.002424 0.000000 -0.004684 0.000000
# 2 -0.003633 0.036229 -0.015802 0.000000 0.009135 0.000000
# 3 -0.002424 -0.015802 0.024907 0.000000 -0.018750 0.000000
# 4 0.000000 0.000000 0.000000 0.037617 0.000000 -0.002180
# 5 -0.004684 0.009135 -0.018750 0.000000 0.078159 0.000000
# 6 0.000000 0.000000 0.000000 -0.002180 0.000000 0.031914
#
#
# Mechanical properties :
#
#
# Convention : Reuss Voigt Hill
#
# Bulk Modulus (GPa) = 36.87911 50.88623 43.88267
# Shear Modulus (GPa) = 18.43123 25.16298 21.79710
#
# Velocity S-wave (km/s) = 3.11821 3.64342 3.39100
# Velocity P-wave (km/s) = 5.69383 6.67413 6.20337
#
# Compressibility (1/GPa) = 0.02711562
#
# Stress axis : x y z
#
# Youngs Moduli (GPa) = 103.11604 27.60239 40.14989
#
# Poissons Ratio (x) = 0.10027 0.09734
# Poissons Ratio (y) = 0.37459 0.63444
# Poissons Ratio (z) = 0.24998 0.43617
#
# Static dielectric constant tensor:
#      x y z
#    x 3.612750 0.000000 0.080820 
#    y 0.000000 3.278180 0.000000 
#    z 0.080820 0.000000 3.528710 
# 
# 
# High freq. dielectric constant tensor:
#      x y z
#    x 1.743860 0.000000 0.006500 
#    y 0.000000 1.726780 0.000000 
#    z 0.006500 0.000000 1.734880 
# 
# From -- ./inp_files/308993.got.cif
#   From: 2010.06.25/outbox.cif.g09.slc.cpg/sg12_155_cif.got.tgz:308993.got - 2010.06.28 00:19:55.
