data_PCOD8088024
_publ_section_title
;
Structure prediction by ZEFSAII (Michael W. Deem and Ramdas Pophale) SiO2 
 PCOD8088024
Probable space group: C 2/M
;
_chemical_formula_sum "Si O2"
_cell_formula_units_Z 64
_cell_length_a 17.840040
_cell_length_b 9.189912
_cell_length_c 33.219638
_cell_angle_alpha 90.000000
_cell_angle_beta 141.725325
_cell_angle_gamma 90.000000
_cell_volume 3373.617005
_symmetry_space_group_name_H-M "C 2/M"
_symmetry_group_IT_number 12
_symmetry_cell_setting 'monoclinic'
loop_
_space_group_symop_operation_xyz
x,y,z
-x,y,-z
-x,-y,-z
x,-y,z
1/2+x,1/2+y,z
1/2-x,1/2+y,-z
1/2-x,1/2-y,-z
1/2+x,1/2-y,z
loop_
_atom_site_type_symbol
_atom_site_label
_atom_site_fract_x
_atom_site_fract_y
_atom_site_fract_z
Si Si1 0.630425 0.667133 0.635683
Si Si2 0.927333 0.335692 0.510774
Si Si3 0.224188 0.332503 0.750343
Si Si4 0.092203 0.172884 0.005643
Si Si5 0.864763 0.673186 0.133582
Si Si6 0.997387 0.832374 0.118270
Si Si7 0.458053 0.172696 0.258241
Si Si8 0.773615 0.332904 0.613777
O O1 0.601278 0.500000 0.632800
O O2 0.502963 0.750221 0.576564
O O3 0.706623 0.735813 0.703688
O O4 0.712464 0.683907 0.631169
O O5 0.906381 0.500000 0.516889
O O6 0.797754 0.259215 0.449907
O O7 0.000000 0.331570 0.500000
O O8 0.195597 0.500000 0.727546
O O9 0.359019 0.313976 0.823349
O O10 0.135846 0.273234 0.747844
O O11 0.226915 0.228191 0.072079
O O12 0.085046 0.000000 0.003873
O O13 0.055294 0.228400 0.945860
O O14 0.000000 0.237988 0.000000
O O15 0.871801 0.500000 0.134056
O O16 0.944209 0.737030 0.131439
O O17 0.918271 0.733984 0.198060
O O18 0.960779 0.000000 0.109793
O O19 0.590997 0.230667 0.325984
O O20 0.459330 0.000000 0.256166
O O21 0.772743 0.500000 0.599263
#
# Coordination Sequence:
#
# PCOD8088024 Si02
#       8
#     8   8   8   8   8   8   8   8
#     4  10  19  32  52  77 103 130 164 206 253 303
#     4   9  17  30  50  76 103 130 164 204 247 298
#     4  10  20  34  51  71  99 134 170 209 253 301
#     4   9  17  31  53  79 105 136 175 214 251 297
#     4  10  19  33  55  78 101 134 175 214 252 300
#     4  10  20  33  51  77 106 134 168 213 259 299
#     4   9  18  33  52  73  97 130 172 212 251 298
#     4   9  17  31  51  73  98 128 164 208 253 297
#
# _framework density 18.970738000000001
#
# number of rings (size 3 to 8) (size 9 to 14) (size 15 to 20)
#    0.000    2.500    0.000    2.625    0.000    6.500 
#    0.000    2.500    0.000    3.000    0.000    0.000 
#    0.000    0.000    0.000    0.000    0.000    0.000 
#
# Total GULP energy -396855.118836 kJ/mol
# GULP energy per Si atom -12401.722464 kJ/mol
# Density = 1.892756 g / cm^3
# Si number density = 18.970738 Si / 1000 Ang^3
#
#
#
# Elastic Constant Matrix: (Units=GPa)
#
#
# Indices 1 2 3 4 5 6 
#
# 1 73.6926 25.0290 21.4860 0.0000 21.1087 0.0000
# 2 25.0290 64.5192 33.9690 0.0000 7.0118 0.0000
# 3 21.4860 33.9690 96.3533 0.0000 27.9307 0.0000
# 4 0.0000 0.0000 0.0000 26.4441 0.0000 -2.0071
# 5 21.1087 7.0118 27.9307 0.0000 29.3966 0.0000
# 6 0.0000 0.0000 0.0000 -2.0071 0.0000 20.1592
#
#
#
# Elastic Compliance Matrix: (Units=1/GPa)
#
#
# Indices 1 2 3 4 5 6 
#
# 1 0.019506 -0.007267 0.002443 0.000000 -0.014595 0.000000
# 2 -0.007267 0.021877 -0.008408 0.000000 0.007989 0.000000
# 3 0.002443 -0.008408 0.017562 0.000000 -0.016435 0.000000
# 4 0.000000 0.000000 0.000000 0.038104 0.000000 0.003794
# 5 -0.014595 0.007989 -0.016435 0.000000 0.058207 0.000000
# 6 0.000000 0.000000 0.000000 0.003794 0.000000 0.049983
#
#
# Mechanical properties :
#
#
# Convention : Reuss Voigt Hill
#
# Bulk Modulus (GPa) = 30.78721 43.94811 37.36766
# Shear Modulus (GPa) = 20.61599 25.47207 23.04403
#
# Velocity S-wave (km/s) = 3.30013 3.66827 3.48906
# Velocity P-wave (km/s) = 5.54844 6.41546 5.99764
#
# Compressibility (1/GPa) = 0.03248102
#
# Stress axis : x y z
#
# Youngs Moduli (GPa) = 51.26538 45.71025 56.94102
#
# Poissons Ratio (x) = 0.33218 -0.13910
# Poissons Ratio (y) = 0.37255 0.47875
# Poissons Ratio (z) = -0.12524 0.38433
#
# Static dielectric constant tensor:
#      x y z
#    x 3.390740 0.000000 0.112960 
#    y 0.000000 3.241190 0.000000 
#    z 0.112960 0.000000 3.716170 
# 
# 
# High freq. dielectric constant tensor:
#      x y z
#    x 1.728350 0.000000 0.007050 
#    y 0.000000 1.705820 0.000000 
#    z 0.007050 0.000000 1.755660 
# 
# From -- ./inp_files/378303.got.cif
#   From: 2010.06.25/outbox.cif.g09.slc.cpg/sg12_190_cif.got.tgz:378303.got - 2010.06.28 00:19:55.
