data_PCOD8088899
_publ_section_title
;
Structure prediction by ZEFSAII (Michael W. Deem and Ramdas Pophale) SiO2 
 PCOD8088899
Probable space group: C 2/M
;
_chemical_formula_sum "Si O2"
_cell_formula_units_Z 64
_cell_length_a 29.842949
_cell_length_b 20.252994
_cell_length_c 15.936704
_cell_angle_alpha 90.000000
_cell_angle_beta 158.876383
_cell_angle_gamma 90.000000
_cell_volume 3471.296959
_symmetry_space_group_name_H-M "C 2/M"
_symmetry_group_IT_number 12
_symmetry_cell_setting 'monoclinic'
loop_
_space_group_symop_operation_xyz
x,y,z
-x,y,-z
-x,-y,-z
x,-y,z
1/2+x,1/2+y,z
1/2-x,1/2+y,-z
1/2-x,1/2-y,-z
1/2+x,1/2-y,z
loop_
_atom_site_type_symbol
_atom_site_label
_atom_site_fract_x
_atom_site_fract_y
_atom_site_fract_z
Si Si1 0.143172 0.670360 0.755683
Si Si2 0.991151 0.827769 0.234822
Si Si3 0.771762 0.075480 0.865570
Si Si4 0.023939 0.427135 0.944013
Si Si5 0.720964 0.922995 0.586351
Si Si6 0.724141 0.178067 0.253099
Si Si7 0.174616 0.723841 0.986284
Si Si8 0.397616 0.696412 0.890162
O O1 0.180420 0.600771 0.779507
O O2 0.178104 0.673253 0.914895
O O3 0.000000 0.683900 0.500000
O O4 0.209460 0.726869 0.817695
O O5 0.951654 0.767645 0.227918
O O6 0.134100 0.845086 0.495882
O O7 0.906416 0.890924 0.107085
O O8 0.973023 0.808229 0.107269
O O9 0.705396 0.087309 0.659382
O O10 0.796777 0.000000 0.927110
O O11 0.058691 0.500000 0.971072
O O12 0.904639 0.402390 0.681762
O O13 0.141001 0.380396 0.141825
O O14 0.000000 0.430235 0.000000
O O15 0.828605 0.872140 0.744078
O O16 0.757373 0.000000 0.630189
O O17 0.702252 0.244307 0.270617
O O18 0.688336 0.183037 0.094010
O O19 0.500000 0.715449 0.000000
#
# Coordination Sequence:
#
# PCOD8088899 Si02
#       8
#     8   8   8   8   8   8   8   8
#     4  10  19  32  56  80 108 141 175 222 277 330
#     4   9  20  36  53  79 107 152 182 218 287 327
#     4   9  19  37  57  81 108 139 184 233 277 323
#     4  10  23  40  56  80 112 154 194 227 278 334
#     4   9  20  39  60  78 113 154 184 228 278 333
#     4  11  22  35  58  81 113 150 186 233 279 332
#     4   9  20  35  51  81 111 141 180 222 270 340
#     4  10  22  34  55  87 114 140 189 239 280 324
#
# _framework density 18.436913000000001
#
# number of rings (size 3 to 8) (size 9 to 14) (size 15 to 20)
#    0.000    2.375    0.000    1.875    7.000    1.500 
#    0.000    0.625    0.000    0.750    0.000    0.000 
#    0.000    0.000    0.000    0.000    0.000    0.000 
#
# Total GULP energy -396694.902555 kJ/mol
# GULP energy per Si atom -12396.715705 kJ/mol
# Density = 1.839495 g / cm^3
# Si number density = 18.436913 Si / 1000 Ang^3
#
#
#
# Elastic Constant Matrix: (Units=GPa)
#
#
# Indices 1 2 3 4 5 6 
#
# 1 85.1360 33.3108 24.5374 0.0000 5.1818 0.0000
# 2 33.3108 72.1658 40.1204 0.0000 -4.2541 0.0000
# 3 24.5374 40.1204 97.3197 0.0000 13.8449 0.0000
# 4 0.0000 0.0000 0.0000 16.7809 0.0000 -1.7626
# 5 5.1818 -4.2541 13.8449 0.0000 22.3745 0.0000
# 6 0.0000 0.0000 0.0000 -1.7626 0.0000 29.8748
#
#
#
# Elastic Compliance Matrix: (Units=1/GPa)
#
#
# Indices 1 2 3 4 5 6 
#
# 1 0.014827 -0.007016 -0.000184 0.000000 -0.004654 0.000000
# 2 -0.007016 0.023020 -0.009402 0.000000 0.011820 0.000000
# 3 -0.000184 -0.009402 0.015841 0.000000 -0.011547 0.000000
# 4 0.000000 0.000000 0.000000 0.059963 0.000000 0.003538
# 5 -0.004654 0.011820 -0.011547 0.000000 0.055164 0.000000
# 6 0.000000 0.000000 0.000000 0.003538 0.000000 0.033682
#
#
# Mechanical properties :
#
#
# Convention : Reuss Voigt Hill
#
# Bulk Modulus (GPa) = 48.82192 50.06206 49.44199
# Shear Modulus (GPa) = 20.61611 24.24958 22.43284
#
# Velocity S-wave (km/s) = 3.34757 3.63060 3.49196
# Velocity P-wave (km/s) = 6.44047 6.69232 6.56760
#
# Compressibility (1/GPa) = 0.02048260
#
# Stress axis : x y z
#
# Youngs Moduli (GPa) = 67.44274 43.44134 63.12895
#
# Poissons Ratio (x) = 0.30480 0.01161
# Poissons Ratio (y) = 0.47320 0.59356
# Poissons Ratio (z) = 0.01240 0.40845
#
# Static dielectric constant tensor:
#      x y z
#    x 3.629690 0.000000 -0.075750 
#    y 0.000000 3.463700 0.000000 
#    z -0.075750 0.000000 3.279460 
# 
# 
# High freq. dielectric constant tensor:
#      x y z
#    x 1.720900 0.000000 -0.001310 
#    y 0.000000 1.708970 0.000000 
#    z -0.001310 0.000000 1.710490 
# 
# From -- ./inp_files/251944.got.cif
#   From: 2010.06.25/outbox.cif.g09.slc.cpg/sg12_126_cif.got.tgz:251944.got - 2010.06.28 00:19:55.
