data_PCOD8088369
_publ_section_title
;
Structure prediction by ZEFSAII (Michael W. Deem and Ramdas Pophale) SiO2 
 PCOD8088369
Probable space group: C 2/M
;
_chemical_formula_sum "Si O2"
_cell_formula_units_Z 56
_cell_length_a 24.735178
_cell_length_b 8.978486
_cell_length_c 14.948860
_cell_angle_alpha 90.000000
_cell_angle_beta 74.636981
_cell_angle_gamma 90.000000
_cell_volume 3201.277707
_symmetry_space_group_name_H-M "C 2/M"
_symmetry_group_IT_number 12
_symmetry_cell_setting 'monoclinic'
loop_
_space_group_symop_operation_xyz
x,y,z
-x,y,-z
-x,-y,-z
x,-y,z
1/2+x,1/2+y,z
1/2-x,1/2+y,-z
1/2-x,1/2-y,-z
1/2+x,1/2-y,z
loop_
_atom_site_type_symbol
_atom_site_label
_atom_site_fract_x
_atom_site_fract_y
_atom_site_fract_z
Si Si1 0.173932 0.671730 0.085706
Si Si2 0.627043 0.324332 0.597593
Si Si3 0.682149 0.324429 0.390723
Si Si4 0.304096 0.176957 0.281282
Si Si5 0.484706 0.828708 0.405969
Si Si6 0.203369 0.173081 0.899860
Si Si7 0.104576 0.329453 0.283401
O O1 0.172814 0.500000 0.056116
O O2 0.231420 0.708479 0.112249
O O3 0.123311 0.712725 0.174708
O O4 0.167395 0.773266 0.000989
O O5 0.630565 0.500000 0.611286
O O6 0.665250 0.271978 0.497386
O O7 0.648093 0.240251 0.675837
O O8 0.563085 0.279285 0.608911
O O9 0.682084 0.500000 0.383807
O O10 0.743696 0.261507 0.340738
O O11 0.636362 0.268132 0.341643
O O12 0.316971 0.235306 0.176687
O O13 0.306481 0.000000 0.280849
O O14 0.500000 0.782920 0.500000
O O15 0.538321 0.802826 0.319162
O O16 0.464208 0.000000 0.411867
O O17 0.192068 0.000000 0.888303
O O18 0.120488 0.500000 0.297180
#
# Coordination Sequence:
#
# PCOD8088369 Si02
#       7
#     8   8   8   8   8   8   8
#     4   9  18  32  51  78 109 140 174 214 263 315
#     4  11  23  37  53  76 108 145 183 221 264 314
#     4  10  21  34  51  78 109 142 177 217 264 314
#     4  11  22  36  54  77 108 144 180 219 265 319
#     4  10  20  35  56  79 105 141 183 222 262 308
#     4  10  19  32  53  79 108 139 174 216 265 319
#     4  10  19  33  55  80 108 142 178 218 261 311
#
# _framework density 17.493016000000001
#
# number of rings (size 3 to 8) (size 9 to 14) (size 15 to 20)
#    0.000    1.857    2.857    1.714    0.000    3.143 
#    0.000    0.000    0.000    0.857    0.000    6.000 
#    0.000    0.000    0.000    0.000    0.000    0.000 
#
# Total GULP energy -347318.546255 kJ/mol
# GULP energy per Si atom -12404.233795 kJ/mol
# Density = 1.745320 g / cm^3
# Si number density = 17.493016 Si / 1000 Ang^3
#
#
#
# Elastic Constant Matrix: (Units=GPa)
#
#
# Indices 1 2 3 4 5 6 
#
# 1 65.0709 34.8027 56.5742 0.0000 4.1215 0.0000
# 2 34.8027 47.8078 41.7435 0.0000 2.4624 0.0000
# 3 56.5742 41.7435 130.8515 0.0000 -4.7455 0.0000
# 4 0.0000 0.0000 0.0000 30.9253 0.0000 2.8971
# 5 4.1215 2.4624 -4.7455 0.0000 27.6974 0.0000
# 6 0.0000 0.0000 0.0000 2.8971 0.0000 26.0474
#
#
#
# Elastic Compliance Matrix: (Units=1/GPa)
#
#
# Indices 1 2 3 4 5 6 
#
# 1 0.031439 -0.014704 -0.009081 0.000000 -0.004927 0.000000
# 2 -0.014704 0.036361 -0.005313 0.000000 -0.001955 0.000000
# 3 -0.009081 -0.005313 0.013413 0.000000 0.004122 0.000000
# 4 0.000000 0.000000 0.000000 0.032676 0.000000 -0.003634
# 5 -0.004927 -0.001955 0.004122 0.000000 0.037718 0.000000
# 6 0.000000 0.000000 0.000000 -0.003634 0.000000 0.038796
#
#
# Mechanical properties :
#
#
# Convention : Reuss Voigt Hill
#
# Bulk Modulus (GPa) = 43.44615 56.66343 50.05479
# Shear Modulus (GPa) = 19.51051 24.30801 21.90926
#
# Velocity S-wave (km/s) = 3.34328 3.73176 3.54285
# Velocity P-wave (km/s) = 6.30821 7.14355 6.73884
#
# Compressibility (1/GPa) = 0.02301700
#
# Stress axis : x y z
#
# Youngs Moduli (GPa) = 31.80726 27.50178 74.55562
#
# Poissons Ratio (x) = 0.40439 0.67702
# Poissons Ratio (y) = 0.46770 0.39613
# Poissons Ratio (z) = 0.28883 0.14612
#
# Static dielectric constant tensor:
#      x y z
#    x 3.112240 0.000000 -0.183880 
#    y 0.000000 3.222640 0.000000 
#    z -0.183880 0.000000 3.342350 
# 
# 
# High freq. dielectric constant tensor:
#      x y z
#    x 1.654300 0.000000 -0.008140 
#    y 0.000000 1.679200 0.000000 
#    z -0.008140 0.000000 1.680420 
# 
# From -- ./inp_files/230868.got.cif
#   From: 2010.06.25/outbox.cif.g09.slc.cpg/sg12_116_cif.got.tgz:230868.got - 2010.06.28 00:19:55.
