data_PCOD8088197
_publ_section_title
;
Structure prediction by ZEFSAII (Michael W. Deem and Ramdas Pophale) SiO2 
 PCOD8088197
Probable space group: C 2/M
;
_chemical_formula_sum "Si O2"
_cell_formula_units_Z 44
_cell_length_a 20.465154
_cell_length_b 16.847279
_cell_length_c 16.802100
_cell_angle_alpha 90.000000
_cell_angle_beta 158.772209
_cell_angle_gamma 90.000000
_cell_volume 2097.533877
_symmetry_space_group_name_H-M "C 2/M"
_symmetry_group_IT_number 12
_symmetry_cell_setting 'monoclinic'
loop_
_space_group_symop_operation_xyz
x,y,z
-x,y,-z
-x,-y,-z
x,-y,z
1/2+x,1/2+y,z
1/2-x,1/2+y,-z
1/2-x,1/2-y,-z
1/2+x,1/2-y,z
loop_
_atom_site_type_symbol
_atom_site_label
_atom_site_fract_x
_atom_site_fract_y
_atom_site_fract_z
Si Si1 0.500000 0.696376 0.500000
Si Si2 0.762725 0.091003 0.839838
Si Si3 0.623392 0.907909 0.372478
Si Si4 0.402022 0.839787 0.489063
Si Si5 0.490957 0.407577 0.241441
Si Si6 0.236003 0.906851 0.867006
O O1 0.454587 0.749774 0.525880
O O2 0.328447 0.640701 0.284288
O O3 0.766713 0.135827 0.759253
O O4 0.567434 0.100767 0.659153
O O5 0.805750 0.000000 0.871731
O O6 0.910154 0.129092 0.067723
O O7 0.647138 0.849386 0.474581
O O8 0.794742 0.891690 0.509853
O O9 0.619518 0.000000 0.396233
O O10 0.444312 0.886262 0.120422
O O11 0.443852 0.500000 0.184910
O O12 0.388398 0.374059 0.202015
O O13 0.209469 0.000000 0.821031
#
# Coordination Sequence:
#
# PCOD8088197 Si02
#       6
#     4   8   8   8   8   8
#     4  10  23  38  57  78 110 152 186 220 279 326
#     4   9  15  28  51  80 113 146 179 217 266 322
#     4  10  19  34  60  88 110 140 182 226 275 322
#     4  10  19  32  52  81 114 151 176 218 267 332
#     4   9  18  32  56  88 110 136 183 232 272 318
#     4  10  20  39  63  80 104 141 187 238 275 315
#
# _framework density 20.977014
#
# number of rings (size 3 to 8) (size 9 to 14) (size 15 to 20)
#    0.000    2.545    1.818    2.455    0.000    1.455 
#    0.000    4.545    8.000    4.364    0.000    0.000 
#    0.000    0.000    0.000    0.000    0.000    0.000 
#
# Total GULP energy -272697.618239 kJ/mol
# GULP energy per Si atom -12395.346284 kJ/mol
# Density = 2.092927 g / cm^3
# Si number density = 20.977014 Si / 1000 Ang^3
#
#
#
# Elastic Constant Matrix: (Units=GPa)
#
#
# Indices 1 2 3 4 5 6 
#
# 1 28.5634 13.7526 38.8903 0.0050 1.5063 0.0004
# 2 13.7526 60.8275 35.9148 0.0008 -10.0613 0.0086
# 3 38.8903 35.9148 142.8311 0.0078 0.1252 0.0102
# 4 0.0050 0.0008 0.0078 10.9956 0.0021 -8.9005
# 5 1.5063 -10.0613 0.1252 0.0021 27.6322 0.0095
# 6 0.0004 0.0086 0.0102 -8.9005 0.0095 15.8983
#
#
#
# Elastic Compliance Matrix: (Units=1/GPa)
#
#
# Indices 1 2 3 4 5 6 
#
# 1 0.057232 -0.005367 -0.014229 -0.000006 -0.005009 0.000010
# 2 -0.005367 0.021289 -0.003899 -0.000017 0.008062 -0.000023
# 3 -0.014229 -0.003899 0.011857 -0.000010 -0.000698 -0.000010
# 4 -0.000006 -0.000017 -0.000010 0.166315 -0.000050 0.093110
# 5 -0.005009 0.008062 -0.000698 -0.000050 0.039401 -0.000055
# 6 0.000010 -0.000023 -0.000010 0.093110 -0.000055 0.115026
#
#
# Mechanical properties :
#
#
# Convention : Reuss Voigt Hill
#
# Bulk Modulus (GPa) = 23.04817 45.48195 34.26506
# Shear Modulus (GPa) = 10.58041 20.48285 15.53163
#
# Velocity S-wave (km/s) = 2.24828 3.12820 2.72400
# Velocity P-wave (km/s) = 4.21318 5.89715 5.12480
#
# Compressibility (1/GPa) = 0.04338739
#
# Stress axis : x y z
#
# Youngs Moduli (GPa) = 17.47284 46.97302 84.34090
#
# Poissons Ratio (x) = 0.25209 1.20011
# Poissons Ratio (y) = 0.09377 0.32883
# Poissons Ratio (z) = 0.24863 0.18314
#
# Static dielectric constant tensor:
#      x y z
#    x 3.562770 0.000000 -0.195160 
#    y 0.000000 3.467180 -0.000010 
#    z -0.195160 -0.000010 3.861670 
# 
# 
# High freq. dielectric constant tensor:
#      x y z
#    x 1.792820 0.000000 -0.015550 
#    y 0.000000 1.795520 0.000000 
#    z -0.015550 0.000000 1.825510 
# 
# From -- ./inp_files/285284.got.cif
#   From: 2010.06.25/outbox.cif.g09.slc.cpg/sg12_143_cif.got.tgz:285284.got - 2010.06.28 00:19:55.
