data_PCOD8088503
_publ_section_title
;
Structure prediction by ZEFSAII (Michael W. Deem and Ramdas Pophale) SiO2 
 PCOD8088503
Probable space group: C 2/M
;
_chemical_formula_sum "Si O2"
_cell_formula_units_Z 56
_cell_length_a 19.758572
_cell_length_b 8.768771
_cell_length_c 19.409085
_cell_angle_alpha 90.000000
_cell_angle_beta 58.943676
_cell_angle_gamma 90.000000
_cell_volume 2880.766972
_symmetry_space_group_name_H-M "C 2/M"
_symmetry_group_IT_number 12
_symmetry_cell_setting 'monoclinic'
loop_
_space_group_symop_operation_xyz
x,y,z
-x,y,-z
-x,-y,-z
x,-y,z
1/2+x,1/2+y,z
1/2-x,1/2+y,-z
1/2-x,1/2-y,-z
1/2+x,1/2-y,z
loop_
_atom_site_type_symbol
_atom_site_label
_atom_site_fract_x
_atom_site_fract_y
_atom_site_fract_z
Si Si1 0.161501 0.178348 0.834913
Si Si2 0.707464 0.675637 0.323548
Si Si3 0.418922 0.827989 0.001343
Si Si4 0.447430 0.820740 0.322238
Si Si5 0.524815 0.675215 0.410773
Si Si6 0.779401 0.179623 0.414379
Si Si7 0.998450 0.821675 0.162492
O O1 0.237808 0.265531 0.766792
O O2 0.086814 0.214776 0.825700
O O3 0.179605 0.000000 0.827422
O O4 0.146321 0.237534 0.920256
O O5 0.727219 0.500000 0.329198
O O6 0.617282 0.696659 0.348485
O O7 0.719502 0.773948 0.385831
O O8 0.431647 0.742551 0.922295
O O9 0.389568 0.000000 0.003318
O O10 0.500000 0.827519 0.000000
O O11 0.478562 0.779435 0.381242
O O12 0.365210 0.739134 0.349834
O O13 0.506611 0.761895 0.231780
O O14 0.435873 0.000000 0.322988
O O15 0.500000 0.729614 0.500000
O O16 0.498715 0.500000 0.413734
O O17 0.750000 0.250000 0.500000
O O18 0.781623 0.000000 0.420554
O O19 0.011678 0.000000 0.165821
#
# Coordination Sequence:
#
# PCOD8088503 Si02
#       7
#     8   8   8   8   8   8   8
#     4  10  19  32  53  82 117 156 193 236 286 344
#     4  11  22  37  60  87 116 152 194 242 292 348
#     4   9  17  29  49  79 116 152 189 238 285 340
#     4  12  24  38  60  87 117 153 195 242 289 346
#     4  10  23  43  63  83 113 154 197 242 295 352
#     4  12  24  39  59  85 116 149 188 240 295 348
#     4  10  19  33  54  82 117 155 193 236 286 344
#
# _framework density 19.439267999999998
#
# number of rings (size 3 to 8) (size 9 to 14) (size 15 to 20)
#    0.000    1.429    1.429    5.143    0.000    5.429 
#    0.000    0.000    0.000    0.857    0.000    0.000 
#    0.000    0.000    0.000    0.000    0.000    0.000 
#
# Total GULP energy -347344.691118 kJ/mol
# GULP energy per Si atom -12405.167540 kJ/mol
# Density = 1.939502 g / cm^3
# Si number density = 19.439268 Si / 1000 Ang^3
#
#
#
# Elastic Constant Matrix: (Units=GPa)
#
#
# Indices 1 2 3 4 5 6 
#
# 1 31.3864 22.5478 7.9592 0.0000 -0.2587 0.0002
# 2 22.5478 136.9161 45.6216 0.0002 3.5105 0.0009
# 3 7.9592 45.6216 129.3213 0.0000 -4.5546 0.0001
# 4 0.0000 0.0002 0.0000 41.5334 0.0000 1.3300
# 5 -0.2587 3.5105 -4.5546 0.0000 24.2317 0.0000
# 6 0.0002 0.0009 0.0001 1.3300 0.0000 25.3310
#
#
#
# Elastic Compliance Matrix: (Units=1/GPa)
#
#
# Indices 1 2 3 4 5 6 
#
# 1 0.036175 -0.005963 -0.000079 0.000000 0.001235 0.000000
# 2 -0.005963 0.009335 -0.002996 0.000000 -0.001979 0.000000
# 3 -0.000079 -0.002996 0.008868 0.000000 0.002100 0.000000
# 4 0.000000 0.000000 0.000000 0.024118 0.000000 -0.001266
# 5 0.001235 -0.001979 0.002100 0.000000 0.041963 0.000000
# 6 0.000000 0.000000 0.000000 -0.001266 0.000000 0.039544
#
#
# Mechanical properties :
#
#
# Convention : Reuss Voigt Hill
#
# Bulk Modulus (GPa) = 27.54657 49.98677 38.76667
# Shear Modulus (GPa) = 26.29112 32.98557 29.63835
#
# Velocity S-wave (km/s) = 3.68159 4.12376 3.90893
# Velocity P-wave (km/s) = 5.68098 6.96017 6.35285
#
# Compressibility (1/GPa) = 0.03630216
#
# Stress axis : x y z
#
# Youngs Moduli (GPa) = 27.64359 107.12797 112.76028
#
# Poissons Ratio (x) = 0.63876 0.00896
# Poissons Ratio (y) = 0.16483 0.33780
# Poissons Ratio (z) = 0.00220 0.32093
#
# Static dielectric constant tensor:
#      x y z
#    x 3.186550 0.000000 -0.080470 
#    y 0.000000 3.645740 0.000000 
#    z -0.080470 0.000000 3.811690 
# 
# 
# High freq. dielectric constant tensor:
#      x y z
#    x 1.714390 0.000000 -0.005110 
#    y 0.000000 1.771110 0.000000 
#    z -0.005110 0.000000 1.778260 
# 
# From -- ./inp_files/275277.got.cif
#   From: 2010.06.25/outbox.cif.g09.slc.cpg/sg12_138_cif.got.tgz:275277.got - 2010.06.28 00:19:55.
