data_PCOD8088771
_publ_section_title
;
Structure prediction by ZEFSAII (Michael W. Deem and Ramdas Pophale) SiO2 
 PCOD8088771
Probable space group: C 2/M
;
_chemical_formula_sum "Si O2"
_cell_formula_units_Z 56
_cell_length_a 10.082441
_cell_length_b 24.731974
_cell_length_c 13.936258
_cell_angle_alpha 90.000000
_cell_angle_beta 69.086989
_cell_angle_gamma 90.000000
_cell_volume 3246.197347
_symmetry_space_group_name_H-M "C 2/M"
_symmetry_group_IT_number 12
_symmetry_cell_setting 'monoclinic'
loop_
_space_group_symop_operation_xyz
x,y,z
-x,y,-z
-x,-y,-z
x,-y,z
1/2+x,1/2+y,z
1/2-x,1/2+y,-z
1/2-x,1/2-y,-z
1/2+x,1/2-y,z
loop_
_atom_site_type_symbol
_atom_site_label
_atom_site_fract_x
_atom_site_fract_y
_atom_site_fract_z
Si Si1 0.333855 0.500000 0.921240
Si Si2 0.829467 0.107374 0.241989
Si Si3 0.341367 0.600864 0.794942
Si Si4 0.348523 0.307875 0.077328
Si Si5 0.834664 0.561989 0.547664
Si Si6 0.343967 0.184860 0.055179
Si Si7 0.831736 0.000000 0.134900
Si Si8 0.854942 0.062349 0.582474
O O1 0.283031 0.551823 0.874623
O O2 0.499965 0.500000 0.898988
O O3 0.266060 0.500000 0.044627
O O4 0.800565 0.160579 0.185633
O O5 0.736411 0.105720 0.362848
O O6 0.992937 0.107752 0.228797
O O7 0.777192 0.054681 0.197734
O O8 0.251495 0.653338 0.844353
O O9 0.314272 0.592750 0.689869
O O10 0.362070 0.244480 0.096155
O O11 0.500000 0.331149 0.000000
O O12 0.229264 0.316526 0.028973
O O13 0.802152 0.500000 0.589191
O O14 0.773590 0.571042 0.457433
O O15 0.000000 0.573944 0.500000
O O16 0.500000 0.159103 0.000000
O O17 0.000000 0.086078 0.500000
O O18 0.880568 0.000000 0.602942
#
# Coordination Sequence:
#
# PCOD8088771 Si02
#       8
#     4   8   8   8   8   8   4   8
#     4   9  18  28  45  81 113 141 173 220 273 325
#     4  11  19  32  58  84 108 145 187 224 276 331
#     4  11  19  33  57  83 108 147 186 230 270 326
#     4  10  20  37  58  82 107 148 189 228 268 331
#     4  10  21  36  53  82 118 147 182 228 276 332
#     4  10  22  37  55  80 114 145 188 230 273 321
#     4   9  18  26  46  82 117 134 173 223 270 329
#     4  10  19  32  55  81 110 144 188 227 264 327
#
# _framework density 17.250954
#
# number of rings (size 3 to 8) (size 9 to 14) (size 15 to 20)
#    0.000    1.857    4.286    0.857    2.000    1.143 
#    0.000    0.357    0.000    1.714    0.000    0.000 
#    0.000    0.000    0.000    0.000    0.000    0.000 
#
# Total GULP energy -347190.518887 kJ/mol
# GULP energy per Si atom -12399.661389 kJ/mol
# Density = 1.721169 g / cm^3
# Si number density = 17.250954 Si / 1000 Ang^3
#
#
#
# Elastic Constant Matrix: (Units=GPa)
#
#
# Indices 1 2 3 4 5 6 
#
# 1 97.7276 30.6353 46.9642 0.0000 -1.9555 0.0000
# 2 30.6353 74.6371 53.0086 0.0000 5.1965 0.0000
# 3 46.9642 53.0086 117.0374 0.0000 10.9424 0.0000
# 4 0.0000 0.0000 0.0000 24.1911 0.0000 0.5723
# 5 -1.9555 5.1965 10.9424 0.0000 27.8926 0.0000
# 6 0.0000 0.0000 0.0000 0.5723 0.0000 6.7999
#
#
#
# Elastic Compliance Matrix: (Units=1/GPa)
#
#
# Indices 1 2 3 4 5 6 
#
# 1 0.013222 -0.002461 -0.004485 0.000000 0.003145 0.000000
# 2 -0.002461 0.020210 -0.008095 0.000000 -0.000762 0.000000
# 3 -0.004485 -0.008095 0.014428 0.000000 -0.004467 0.000000
# 4 0.000000 0.000000 0.000000 0.041420 0.000000 -0.003486
# 5 0.003145 -0.000762 -0.004467 0.000000 0.037966 0.000000
# 6 0.000000 0.000000 0.000000 -0.003486 0.000000 0.147353
#
#
# Mechanical properties :
#
#
# Convention : Reuss Voigt Hill
#
# Bulk Modulus (GPa) = 56.24664 61.17982 58.71323
# Shear Modulus (GPa) = 16.09739 22.36299 19.23019
#
# Velocity S-wave (km/s) = 3.05803 3.60437 3.34238
# Velocity P-wave (km/s) = 6.71896 7.27073 7.00029
#
# Compressibility (1/GPa) = 0.01777884
#
# Stress axis : x y z
#
# Youngs Moduli (GPa) = 75.62991 49.47924 69.30865
#
# Poissons Ratio (x) = 0.12175 0.31088
# Poissons Ratio (y) = 0.18609 0.56106
# Poissons Ratio (z) = 0.33923 0.40054
#
# Static dielectric constant tensor:
#      x y z
#    x 3.157310 0.000000 0.104140 
#    y 0.000000 3.121730 0.000000 
#    z 0.104140 0.000000 3.192720 
# 
# 
# High freq. dielectric constant tensor:
#      x y z
#    x 1.664910 0.000000 0.010650 
#    y 0.000000 1.643080 0.000000 
#    z 0.010650 0.000000 1.661080 
# 
# From -- ./inp_files/199738.got.cif
#   From: 2010.06.25/outbox.cif.g09.slc.cpg/sg12_100_cif.got.tgz:199738.got - 2010.06.28 00:19:55.
