data_PCOD8088594
_publ_section_title
;
Structure prediction by ZEFSAII (Michael W. Deem and Ramdas Pophale) SiO2 
 PCOD8088594
Probable space group: C 2/M
;
_chemical_formula_sum "Si O2"
_cell_formula_units_Z 56
_cell_length_a 21.525435
_cell_length_b 9.603867
_cell_length_c 17.855041
_cell_angle_alpha 90.000000
_cell_angle_beta 120.486172
_cell_angle_gamma 90.000000
_cell_volume 3180.834238
_symmetry_space_group_name_H-M "C 2/M"
_symmetry_group_IT_number 12
_symmetry_cell_setting 'monoclinic'
loop_
_space_group_symop_operation_xyz
x,y,z
-x,y,-z
-x,-y,-z
x,-y,z
1/2+x,1/2+y,z
1/2-x,1/2+y,-z
1/2-x,1/2-y,-z
1/2+x,1/2-y,z
loop_
_atom_site_type_symbol
_atom_site_label
_atom_site_fract_x
_atom_site_fract_y
_atom_site_fract_z
Si Si1 0.467353 0.659777 0.061744
Si Si2 0.574734 0.341065 0.748987
Si Si3 0.316009 0.845097 0.619904
Si Si4 0.313980 0.161033 0.446958
Si Si5 0.971963 0.658772 0.774086
Si Si6 0.322131 0.340269 0.052194
Si Si7 0.580525 0.344226 0.578627
O O1 0.480593 0.500000 0.094621
O O2 0.512919 0.764019 0.139585
O O3 0.381644 0.692382 0.022773
O O4 0.500000 0.685775 0.000000
O O5 0.549213 0.500000 0.746538
O O6 0.509694 0.237808 0.728613
O O7 0.642574 0.308310 0.844810
O O8 0.592536 0.315343 0.673673
O O9 0.334272 0.809958 0.545236
O O10 0.260908 0.734398 0.620220
O O11 0.386942 0.835897 0.712259
O O12 0.282093 0.000000 0.603928
O O13 0.376318 0.225343 0.436057
O O14 0.306747 0.000000 0.422777
O O15 0.000082 0.500000 0.794348
O O16 0.297611 0.500000 0.031899
O O17 0.250000 0.250000 0.000000
O O18 0.500000 0.328944 0.500000
O O19 0.608596 0.500000 0.576815
#
# Coordination Sequence:
#
# PCOD8088594 Si02
#       7
#     8   8   8   8   8   8   8
#     4   9  19  37  57  77 106 139 174 219 266 320
#     4   9  19  35  53  75 105 139 174 209 256 316
#     4   9  19  35  51  71 103 138 170 210 262 310
#     4  10  20  33  51  74 101 136 176 217 256 301
#     4  10  19  32  54  80 103 131 170 216 261 305
#     4   9  18  34  55  77 102 138 175 214 265 315
#     4  10  20  34  53  76 104 139 174 211 260 314
#
# _framework density 17.605443999999999
#
# number of rings (size 3 to 8) (size 9 to 14) (size 15 to 20)
#    0.000    2.571    0.000    2.571    0.000    5.143 
#    2.571    0.000    0.000    0.000    0.000    0.000 
#    0.000    0.000    0.000    0.000    0.000    0.000 
#
# Total GULP energy -347092.175001 kJ/mol
# GULP energy per Si atom -12396.149107 kJ/mol
# Density = 1.756537 g / cm^3
# Si number density = 17.605444 Si / 1000 Ang^3
#
#
#
# Elastic Constant Matrix: (Units=GPa)
#
#
# Indices 1 2 3 4 5 6 
#
# 1 105.2036 67.1381 49.0953 0.0000 -1.6711 0.0000
# 2 67.1381 122.4157 46.2654 0.0000 3.3360 0.0000
# 3 49.0953 46.2654 74.3644 0.0000 4.2243 0.0000
# 4 0.0000 0.0000 0.0000********** 0.0000 1078.8863
# 5 -1.6711 3.3360 4.2243 0.0000 20.9399 0.0000
# 6 0.0000 0.0000 0.0000 1078.8863 0.0000 -67.3407
#
#
#
# Elastic Compliance Matrix: (Units=1/GPa)
#
#
# Indices 1 2 3 4 5 6 
#
# 1 0.017420 -0.006838 -0.007473 0.000000 0.003987 0.000000
# 2 -0.006838 0.013367 -0.003692 0.000000 -0.001931 0.000000
# 3 -0.007473 -0.003692 0.020918 0.000000 -0.004228 0.000000
# 4 0.000000 0.000000 0.000000 0.000158 0.000000 0.002532
# 5 0.003987 -0.001931 -0.004228 0.000000 0.049234 0.000000
# 6 0.000000 0.000000 0.000000 0.002532 0.000000 0.025714
#
#
# Mechanical properties :
#
#
# Convention : Reuss Voigt Hill
#
# Bulk Modulus (GPa) = 63.69830 69.66460 66.68145
# Shear Modulus (GPa) = 29.75290 -2191.43427 -1080.84068
#
# Velocity S-wave (km/s) = 4.11540 -35.31926 -24.80437
# Velocity P-wave (km/s) = 7.67083 40.29406 27.97114
#
# Compressibility (1/GPa) = 0.01569901
#
# Stress axis : x y z
#
# Youngs Moduli (GPa) = 57.40503 74.80938 47.80572
#
# Poissons Ratio (x) = 0.51157 0.35724
# Poissons Ratio (y) = 0.39256 0.17650
# Poissons Ratio (z) = 0.42897 0.27620
#
# Static dielectric constant tensor:
#      x y z
#    x 3.182850 0.000000 -0.055910 
#    y 0.000000 3.439330 0.000000 
#    z -0.055910 0.000000 3.258360 
# 
# 
# High freq. dielectric constant tensor:
#      x y z
#    x 1.674450 0.000000 -0.000690 
#    y 0.000000 1.691810 0.000000 
#    z -0.000690 0.000000 1.673170 
# 
# From -- ./inp_files/281614.got.cif
#   From: 2010.06.25/outbox.cif.g09.slc.cpg/sg12_141_cif.got.tgz:281614.got - 2010.06.28 00:19:55.
