data_PCOD8088835
_publ_section_title
;
Structure prediction by ZEFSAII (Michael W. Deem and Ramdas Pophale) SiO2 
 PCOD8088835
Probable space group: C 2/M
;
_chemical_formula_sum "Si O2"
_cell_formula_units_Z 56
_cell_length_a 27.795239
_cell_length_b 18.408193
_cell_length_c 8.643148
_cell_angle_alpha 90.000000
_cell_angle_beta 141.458688
_cell_angle_gamma 90.000000
_cell_volume 2755.474953
_symmetry_space_group_name_H-M "C 2/M"
_symmetry_group_IT_number 12
_symmetry_cell_setting 'monoclinic'
loop_
_space_group_symop_operation_xyz
x,y,z
-x,y,-z
-x,-y,-z
x,-y,z
1/2+x,1/2+y,z
1/2-x,1/2+y,-z
1/2-x,1/2-y,-z
1/2+x,1/2-y,z
loop_
_atom_site_type_symbol
_atom_site_label
_atom_site_fract_x
_atom_site_fract_y
_atom_site_fract_z
Si Si1 0.282149 0.662703 0.946913
Si Si2 0.365147 0.080110 0.373106
Si Si3 0.343305 0.083036 0.953036
Si Si4 0.508100 0.174279 0.703347
Si Si5 0.920730 0.919845 0.386325
Si Si6 0.222236 0.195146 0.702648
Si Si7 0.449524 0.687455 0.729708
O O1 0.208919 0.612271 0.726109
O O2 0.276709 0.733225 0.821638
O O3 0.362407 0.620923 0.121192
O O4 0.283335 0.683229 0.129133
O O5 0.354078 0.078378 0.162320
O O6 0.439636 0.126543 0.601193
O O7 0.378936 0.000000 0.473483
O O8 0.413447 0.130620 0.058337
O O9 0.340384 0.000000 0.878099
O O10 0.263214 0.126959 0.718732
O O11 0.500000 0.188451 0.500000
O O12 0.499539 0.251101 0.767515
O O13 0.933303 0.880749 0.580200
O O14 0.000000 0.926364 0.500000
O O15 0.886927 0.000000 0.337680
O O16 0.135745 0.212007 0.423578
O O17 0.500000 0.660401 0.000000
#
# Coordination Sequence:
#
# PCOD8088835 Si02
#       7
#     8   8   8   8   8   8   8
#     4   9  16  29  52  81 111 139 177 237 289 336
#     4   9  15  26  48  80 111 137 175 231 290 344
#     4   9  18  30  51  82 112 141 180 237 292 334
#     4  10  19  32  55  84 112 143 184 240 287 333
#     4  10  22  37  58  86 112 143 189 242 293 333
#     4   9  18  31  51  80 109 145 188 226 280 335
#     4  11  23  38  56  82 115 158 194 227 273 345
#
# _framework density 20.323174000000002
#
# number of rings (size 3 to 8) (size 9 to 14) (size 15 to 20)
#    0.000    2.429    1.429    1.286    8.000    5.429 
#    0.000    0.714    0.000    1.714    0.000    0.000 
#    0.000    0.000    0.000    0.000    0.000    0.000 
#
# Total GULP energy -346990.708323 kJ/mol
# GULP energy per Si atom -12392.525297 kJ/mol
# Density = 2.027692 g / cm^3
# Si number density = 20.323174 Si / 1000 Ang^3
#
#
#
# Elastic Constant Matrix: (Units=GPa)
#
#
# Indices 1 2 3 4 5 6 
#
# 1 51.1591 36.3906 34.3518 0.0000 28.3060 0.0000
# 2 36.3906 140.1043 45.4750 0.0000 19.5985 0.0000
# 3 34.3518 45.4750 84.6005 0.0000 25.1741 0.0000
# 4 0.0000 0.0000 0.0000 17.4693 0.0000 16.3746
# 5 28.3060 19.5985 25.1741 0.0000 28.0123 0.0000
# 6 0.0000 0.0000 0.0000 16.3746 0.0000 18.6570
#
#
#
# Elastic Compliance Matrix: (Units=1/GPa)
#
#
# Indices 1 2 3 4 5 6 
#
# 1 0.050290 -0.005556 -0.004735 0.000000 -0.042675 0.000000
# 2 -0.005556 0.009396 -0.003425 0.000000 0.002118 0.000000
# 3 -0.004735 -0.003425 0.018356 0.000000 -0.009315 0.000000
# 4 0.000000 0.000000 0.000000 0.322810 0.000000 -0.283320
# 5 -0.042675 0.002118 -0.009315 0.000000 0.085710 0.000000
# 6 0.000000 0.000000 0.000000 -0.283320 0.000000 0.302259
#
#
# Mechanical properties :
#
#
# Convention : Reuss Voigt Hill
#
# Bulk Modulus (GPa) = 19.75892 56.47763 38.11828
# Shear Modulus (GPa) = 6.00151 23.47082 14.73616
#
# Velocity S-wave (km/s) = 1.72030 3.40204 2.69567
# Velocity P-wave (km/s) = 3.69992 6.57890 5.33720
#
# Compressibility (1/GPa) = 0.05061005
#
# Stress axis : x y z
#
# Youngs Moduli (GPa) = 19.88453 106.42867 54.47889
#
# Poissons Ratio (x) = 0.59129 0.25797
# Poissons Ratio (y) = 0.11047 0.18659
# Poissons Ratio (z) = 0.09416 0.36452
#
# Static dielectric constant tensor:
#      x y z
#    x 3.473430 0.000000 0.592790 
#    y 0.000000 4.235780 0.000000 
#    z 0.592790 0.000000 3.586600 
# 
# 
# High freq. dielectric constant tensor:
#      x y z
#    x 1.763310 0.000000 0.047880 
#    y 0.000000 1.808050 0.000000 
#    z 0.047880 0.000000 1.762370 
# 
# From -- ./inp_files/112646.got.cif
#   From: 2010.06.25/outbox.cif.g09.slc.cpg/sg12_57_cif.got.tgz:112646.got - 2010.06.28 00:19:55.
