data_PCOD8088027
_publ_section_title
;
Structure prediction by ZEFSAII (Michael W. Deem and Ramdas Pophale) SiO2 
 PCOD8088027
Probable space group: C 2/M
;
_chemical_formula_sum "Si O2"
_cell_formula_units_Z 56
_cell_length_a 14.448490
_cell_length_b 9.016240
_cell_length_c 29.865295
_cell_angle_alpha 90.000000
_cell_angle_beta 126.948256
_cell_angle_gamma 90.000000
_cell_volume 3109.271360
_symmetry_space_group_name_H-M "C 2/M"
_symmetry_group_IT_number 12
_symmetry_cell_setting 'monoclinic'
loop_
_space_group_symop_operation_xyz
x,y,z
-x,y,-z
-x,-y,-z
x,-y,z
1/2+x,1/2+y,z
1/2-x,1/2+y,-z
1/2-x,1/2-y,-z
1/2+x,1/2-y,z
loop_
_atom_site_type_symbol
_atom_site_label
_atom_site_fract_x
_atom_site_fract_y
_atom_site_fract_z
Si Si1 0.902108 0.331012 0.937917
Si Si2 0.823404 0.677515 0.647884
Si Si3 0.585055 0.174885 0.564530
Si Si4 0.532398 0.826305 0.647768
Si Si5 0.059447 0.175435 0.141157
Si Si6 0.696474 0.332094 0.942819
Si Si7 0.792636 0.823865 0.732264
O O1 0.935567 0.500000 0.935570
O O2 0.889124 0.235659 0.889835
O O3 0.776986 0.318751 0.923393
O O4 0.000000 0.266076 0.000000
O O5 0.820260 0.500000 0.648963
O O6 0.704434 0.737458 0.591996
O O7 0.841369 0.742231 0.702682
O O8 0.928975 0.740932 0.647838
O O9 0.500000 0.220146 0.500000
O O10 0.523954 0.223848 0.593331
O O11 0.613157 0.000000 0.573214
O O12 0.659064 0.779001 0.702865
O O13 0.517860 0.000000 0.646674
O O14 0.133024 0.235796 0.204326
O O15 0.927815 0.234013 0.107252
O O16 0.067653 0.000000 0.142752
O O17 0.680986 0.500000 0.954175
O O18 0.750000 0.250000 0.000000
O O19 0.804356 0.000000 0.728179
#
# Coordination Sequence:
#
# PCOD8088027 Si02
#       7
#     8   8   8   8   8   8   8
#     4  10  20  34  51  72 101 134 161 197 256 311
#     4  10  19  32  52  77 103 134 171 214 258 295
#     4   9  18  34  54  76 106 145 179 206 248 304
#     4   8  16  32  52  72 101 137 169 207 255 303
#     4  10  21  35  54  77  99 128 170 215 252 299
#     4  10  20  34  51  73 100 130 164 203 250 303
#     4   9  19  37  54  71 100 135 170 210 257 308
#
# _framework density 18.010650999999999
#
# number of rings (size 3 to 8) (size 9 to 14) (size 15 to 20)
#    0.000    2.571    1.429    1.286    0.000    3.429 
#    0.000    5.714    0.000    0.000    0.000    0.000 
#    0.000    0.000    0.000    0.000    0.000    0.000 
#
# Total GULP energy -347142.246787 kJ/mol
# GULP energy per Si atom -12397.937385 kJ/mol
# Density = 1.796966 g / cm^3
# Si number density = 18.010651 Si / 1000 Ang^3
#
#
#
# Elastic Constant Matrix: (Units=GPa)
#
#
# Indices 1 2 3 4 5 6 
#
# 1 146.9503 32.8347 78.4633 0.0000 3.0234 0.0000
# 2 32.8347 31.6784 36.1031 0.0000 0.4673 0.0000
# 3 78.4633 36.1031 183.6473 0.0000 0.1018 0.0000
# 4 0.0000 0.0000 0.0000 26.7769 0.0000 -3.0770
# 5 3.0234 0.4673 0.1018 0.0000 19.3257 0.0000
# 6 0.0000 0.0000 0.0000 -3.0770 0.0000 26.2946
#
#
#
# Elastic Compliance Matrix: (Units=1/GPa)
#
#
# Indices 1 2 3 4 5 6 
#
# 1 0.009928 -0.007006 -0.002863 0.000000 -0.001369 0.000000
# 2 -0.007006 0.045644 -0.005980 0.000000 0.000024 0.000000
# 3 -0.002863 -0.005980 0.007844 0.000000 0.000551 0.000000
# 4 0.000000 0.000000 0.000000 0.037855 0.000000 0.004430
# 5 -0.001369 0.000024 0.000551 0.000000 0.051955 0.000000
# 6 0.000000 0.000000 0.000000 0.004430 0.000000 0.038549
#
#
# Mechanical properties :
#
#
# Convention : Reuss Voigt Hill
#
# Bulk Modulus (GPa) = 31.52938 73.00868 52.26903
# Shear Modulus (GPa) = 21.36338 28.80443 25.08391
#
# Velocity S-wave (km/s) = 3.44779 4.00346 3.73597
# Velocity P-wave (km/s) = 5.77873 7.87367 6.90610
#
# Compressibility (1/GPa) = 0.03171645
#
# Stress axis : x y z
#
# Youngs Moduli (GPa) = 100.72915 21.90871 127.48850
#
# Poissons Ratio (x) = 0.15350 0.36505
# Poissons Ratio (y) = 0.70575 0.76233
# Poissons Ratio (z) = 0.28843 0.13101
#
# Static dielectric constant tensor:
#      x y z
#    x 3.487630 0.000000 0.075560 
#    y 0.000000 3.153800 0.000000 
#    z 0.075560 0.000000 3.443590 
# 
# 
# High freq. dielectric constant tensor:
#      x y z
#    x 1.704870 0.000000 0.003050 
#    y 0.000000 1.676700 0.000000 
#    z 0.003050 0.000000 1.700630 
# 
# From -- ./inp_files/375128.got.cif
#   From: 2010.06.25/outbox.cif.g09.slc.cpg/sg12_188_cif.got.tgz:375128.got - 2010.06.28 00:19:55.
