data_PCOD8088849
_publ_section_title
;
Structure prediction by ZEFSAII (Michael W. Deem and Ramdas Pophale) SiO2 
 PCOD8088849
Probable space group: C 2/M
;
_chemical_formula_sum "Si O2"
_cell_formula_units_Z 56
_cell_length_a 25.453374
_cell_length_b 8.887718
_cell_length_c 12.621956
_cell_angle_alpha 90.000000
_cell_angle_beta 105.879585
_cell_angle_gamma 90.000000
_cell_volume 2746.405168
_symmetry_space_group_name_H-M "C 2/M"
_symmetry_group_IT_number 12
_symmetry_cell_setting 'monoclinic'
loop_
_space_group_symop_operation_xyz
x,y,z
-x,y,-z
-x,-y,-z
x,-y,z
1/2+x,1/2+y,z
1/2-x,1/2+y,-z
1/2-x,1/2-y,-z
1/2+x,1/2-y,z
loop_
_atom_site_type_symbol
_atom_site_label
_atom_site_fract_x
_atom_site_fract_y
_atom_site_fract_z
Si Si1 0.891026 0.822544 0.724480
Si Si2 0.051624 0.338237 0.596035
Si Si3 0.131352 0.827631 0.888682
Si Si4 0.986455 0.170426 0.226404
Si Si5 0.359036 0.675836 0.474256
Si Si6 0.696336 0.177900 0.741353
Si Si7 0.815291 0.179398 0.868508
O O1 0.869177 0.759970 0.598777
O O2 0.853642 0.753555 0.796670
O O3 0.954342 0.780890 0.786985
O O4 0.884075 0.000000 0.716546
O O5 0.084101 0.500000 0.624904
O O6 0.028423 0.288032 0.693842
O O7 0.086476 0.206289 0.562523
O O8 0.000000 0.374441 0.500000
O O9 0.066165 0.819520 0.881154
O O10 0.147253 0.735480 0.790797
O O11 0.148405 0.000000 0.876777
O O12 0.163695 0.759234 0.006719
O O13 0.991856 0.000000 0.273750
O O14 0.345684 0.500000 0.468163
O O15 0.310984 0.762092 0.383551
O O16 0.753961 0.239261 0.817320
O O17 0.697780 0.000000 0.740201
O O18 0.818948 0.000000 0.869756
#
# Coordination Sequence:
#
# PCOD8088849 Si02
#       7
#     8   8   8   8   8   8   8
#     4   9  19  35  55  81 114 149 182 225 277 331
#     4  11  21  32  51  81 116 150 180 222 278 332
#     4  10  20  35  59  86 110 141 186 235 277 330
#     4  10  19  32  55  85 112 143 181 224 274 330
#     4  11  21  34  56  83 112 145 186 231 276 330
#     4  11  22  36  57  82 111 147 186 235 286 326
#     4   9  20  38  56  79 112 148 189 233 277 326
#
# _framework density 20.39029
#
# number of rings (size 3 to 8) (size 9 to 14) (size 15 to 20)
#    0.000    1.857    2.857    1.714    0.000    1.714 
#    0.000    3.571    0.000    6.857    0.000    2.000 
#    0.000    0.000    0.000    0.000    0.000    0.000 
#
# Total GULP energy -346937.442652 kJ/mol
# GULP energy per Si atom -12390.622952 kJ/mol
# Density = 2.034388 g / cm^3
# Si number density = 20.390290 Si / 1000 Ang^3
#
#
#
# Elastic Constant Matrix: (Units=GPa)
#
#
# Indices 1 2 3 4 5 6 
#
# 1 105.9470 12.0525 43.6554 0.0000 12.6518 0.0000
# 2 12.0525 46.0468 20.2601 0.0000 2.7950 0.0000
# 3 43.6554 20.2601 95.5505 0.0000 15.2149 0.0000
# 4 0.0000 0.0000 0.0000 20.7077 0.0000 6.9145
# 5 12.6518 2.7950 15.2149 0.0000 37.3925 0.0000
# 6 0.0000 0.0000 0.0000 6.9145 0.0000 17.3537
#
#
#
# Elastic Compliance Matrix: (Units=1/GPa)
#
#
# Indices 1 2 3 4 5 6 
#
# 1 0.011782 -0.000809 -0.004904 0.000000 -0.001931 0.000000
# 2 -0.000809 0.024010 -0.004790 0.000000 0.000428 0.000000
# 3 -0.004904 -0.004790 0.014329 0.000000 -0.003813 0.000000
# 4 0.000000 0.000000 0.000000 0.055702 0.000000 -0.022194
# 5 -0.001931 0.000428 -0.003813 0.000000 0.028916 0.000000
# 6 0.000000 0.000000 0.000000 -0.022194 0.000000 0.066468
#
#
# Mechanical properties :
#
#
# Convention : Reuss Voigt Hill
#
# Bulk Modulus (GPa) = 34.34536 44.38671 39.36604
# Shear Modulus (GPa) = 21.55943 26.52922 24.04433
#
# Velocity S-wave (km/s) = 3.25520 3.61095 3.43768
# Velocity P-wave (km/s) = 5.56857 6.26108 5.92495
#
# Compressibility (1/GPa) = 0.02911601
#
# Stress axis : x y z
#
# Youngs Moduli (GPa) = 84.87553 41.64906 69.78868
#
# Poissons Ratio (x) = 0.03369 0.34225
# Poissons Ratio (y) = 0.06866 0.33425
# Poissons Ratio (z) = 0.41623 0.19948
#
# Static dielectric constant tensor:
#      x y z
#    x 3.824650 0.000000 0.236120 
#    y 0.000000 3.374140 0.000000 
#    z 0.236120 0.000000 3.965810 
# 
# 
# High freq. dielectric constant tensor:
#      x y z
#    x 1.795550 0.000000 0.023780 
#    y 0.000000 1.765510 0.000000 
#    z 0.023780 0.000000 1.800360 
# 
# From -- ./inp_files/181026.got.cif
#   From: 2010.06.25/outbox.cif.g09.slc.cpg/sg12_91_cif.got.tgz:181026.got - 2010.06.28 00:19:55.
