data_PCOD8088590
_publ_section_title
;
Structure prediction by ZEFSAII (Michael W. Deem and Ramdas Pophale) SiO2 
 PCOD8088590
Probable space group: C 2/M
;
_chemical_formula_sum "Si O2"
_cell_formula_units_Z 56
_cell_length_a 5.196796
_cell_length_b 18.684051
_cell_length_c 32.159858
_cell_angle_alpha 90.000000
_cell_angle_beta 112.375781
_cell_angle_gamma 90.000000
_cell_volume 2887.519959
_symmetry_space_group_name_H-M "C 2/M"
_symmetry_group_IT_number 12
_symmetry_cell_setting 'monoclinic'
loop_
_space_group_symop_operation_xyz
x,y,z
-x,y,-z
-x,-y,-z
x,-y,z
1/2+x,1/2+y,z
1/2-x,1/2+y,-z
1/2-x,1/2-y,-z
1/2+x,1/2-y,z
loop_
_atom_site_type_symbol
_atom_site_label
_atom_site_fract_x
_atom_site_fract_y
_atom_site_fract_z
Si Si1 0.850651 0.705384 0.719652
Si Si2 0.422296 0.919638 0.406430
Si Si3 0.904760 0.295207 0.175382
Si Si4 0.257296 0.084659 0.104711
Si Si5 0.382991 0.780467 0.550251
Si Si6 0.711328 0.418766 0.651009
Si Si7 0.623444 0.915694 0.049978
O O1 0.575576 0.753428 0.705687
O O2 0.775368 0.630598 0.694032
O O3 0.969885 0.686719 0.772087
O O4 0.569012 0.865789 0.448211
O O5 0.555024 0.906171 0.369522
O O6 0.095186 0.902891 0.385797
O O7 0.483108 0.000000 0.425839
O O8 0.619977 0.250841 0.161438
O O9 0.848319 0.371852 0.150980
O O10 0.449298 0.111707 0.078710
O O11 0.943598 0.105927 0.073909
O O12 0.289268 0.000000 0.115965
O O13 0.250000 0.750000 0.500000
O O14 0.679488 0.740931 0.575673
O O15 0.722885 0.500000 0.668149
O O16 0.587728 0.000000 0.045417
O O17 0.500000 0.881340 0.000000
#
# Coordination Sequence:
#
# PCOD8088590 Si02
#       7
#     8   8   8   8   8   8   8
#     4  10  21  36  55  80 107 141 180 214 258 315
#     4  10  21  37  56  80 111 144 175 214 270 323
#     4  10  21  37  54  74 107 144 174 211 263 318
#     4  10  19  32  54  79  99 132 180 218 258 314
#     4  10  21  37  55  80 108 138 181 225 260 303
#     4  10  21  36  56  83 112 141 175 219 269 315
#     4   9  17  30  50  77 105 130 167 223 273 312
#
# _framework density 19.393806000000001
#
# number of rings (size 3 to 8) (size 9 to 14) (size 15 to 20)
#    0.000    2.143    0.000    3.000    0.000    5.714 
#    0.000    2.857    0.000   18.857    0.000    0.000 
#    0.000    0.000    0.000    0.000    0.000    0.000 
#
# Total GULP energy -347155.119285 kJ/mol
# GULP energy per Si atom -12398.397117 kJ/mol
# Density = 1.934966 g / cm^3
# Si number density = 19.393806 Si / 1000 Ang^3
#
#
#
# Elastic Constant Matrix: (Units=GPa)
#
#
# Indices 1 2 3 4 5 6 
#
# 1 115.6021 29.0664 9.9464 0.0000 8.0635 0.0000
# 2 29.0664 111.4582 57.3918 0.0000 8.9920 0.0000
# 3 9.9464 57.3918 62.9725 0.0000 1.3504 0.0000
# 4 0.0000 0.0000 0.0000 36.7200 0.0000 -0.8138
# 5 8.0635 8.9920 1.3504 0.0000 7.6955 0.0000
# 6 0.0000 0.0000 0.0000 -0.8138 0.0000 21.3803
#
#
#
# Elastic Compliance Matrix: (Units=1/GPa)
#
#
# Indices 1 2 3 4 5 6 
#
# 1 0.009694 -0.002278 0.000708 0.000000 -0.007620 0.000000
# 2 -0.002278 0.020030 -0.017511 0.000000 -0.017945 0.000000
# 3 0.000708 -0.017511 0.031422 0.000000 0.014204 0.000000
# 4 0.000000 0.000000 0.000000 0.027256 0.000000 0.001037
# 5 -0.007620 -0.017945 0.014204 0.000000 0.156407 0.000000
# 6 0.000000 0.000000 0.000000 0.001037 0.000000 0.046811
#
#
# Mechanical properties :
#
#
# Convention : Reuss Voigt Hill
#
# Bulk Modulus (GPa) = 43.50495 53.64912 48.57704
# Shear Modulus (GPa) = 14.81734 26.06771 20.44253
#
# Velocity S-wave (km/s) = 2.76710 3.67021 3.25017
# Velocity P-wave (km/s) = 5.71753 6.75897 6.25995
#
# Compressibility (1/GPa) = 0.02298589
#
# Stress axis : x y z
#
# Youngs Moduli (GPa) = 103.16015 49.92449 31.82467
#
# Poissons Ratio (x) = 0.11373 -0.02254
# Poissons Ratio (y) = 0.23500 0.55727
# Poissons Ratio (z) = -0.07308 0.87420
#
# Static dielectric constant tensor:
#      x y z
#    x 3.887500 0.000000 0.132890 
#    y 0.000000 3.452520 0.000000 
#    z 0.132890 0.000000 3.287330 
# 
# 
# High freq. dielectric constant tensor:
#      x y z
#    x 1.786550 0.000000 0.001330 
#    y 0.000000 1.745090 0.000000 
#    z 0.001330 0.000000 1.734080 
# 
# From -- ./inp_files/354938.got.cif
#   From: 2010.06.25/outbox.cif.g09.slc.cpg/sg12_178_cif.got.tgz:354938.got - 2010.06.28 00:19:55.
