data_PCOD8088659
_publ_section_title
;
Structure prediction by ZEFSAII (Michael W. Deem and Ramdas Pophale) SiO2 
 PCOD8088659
Probable space group: C 2/M
;
_chemical_formula_sum "Si O2"
_cell_formula_units_Z 56
_cell_length_a 18.645198
_cell_length_b 8.954290
_cell_length_c 25.094105
_cell_angle_alpha 90.000000
_cell_angle_beta 45.051410
_cell_angle_gamma 90.000000
_cell_volume 2965.133148
_symmetry_space_group_name_H-M "C 2/M"
_symmetry_group_IT_number 12
_symmetry_cell_setting 'monoclinic'
loop_
_space_group_symop_operation_xyz
x,y,z
-x,y,-z
-x,-y,-z
x,-y,z
1/2+x,1/2+y,z
1/2-x,1/2+y,-z
1/2-x,1/2-y,-z
1/2+x,1/2-y,z
loop_
_atom_site_type_symbol
_atom_site_label
_atom_site_fract_x
_atom_site_fract_y
_atom_site_fract_z
Si Si1 0.184512 0.329163 0.491253
Si Si2 0.206387 0.175875 0.223844
Si Si3 0.504506 0.175879 0.651578
Si Si4 0.615161 0.323532 0.804736
Si Si5 0.639782 0.325430 0.670458
Si Si6 0.909636 0.326427 0.922372
Si Si7 0.778688 0.172661 0.906554
O O1 0.194827 0.500000 0.500330
O O2 0.250000 0.250000 0.500000
O O3 0.066574 0.286275 0.563621
O O4 0.239175 0.296098 0.405726
O O5 0.292377 0.253208 0.212694
O O6 0.223825 0.219599 0.153361
O O7 0.099143 0.235790 0.300058
O O8 0.211550 0.000000 0.229903
O O9 0.566706 0.231005 0.670547
O O10 0.482867 0.000000 0.669000
O O11 0.619556 0.500000 0.808737
O O12 0.621464 0.272780 0.740033
O O13 0.511060 0.262096 0.884049
O O14 0.612743 0.500000 0.677245
O O15 0.935139 0.500000 0.903808
O O16 0.864509 0.270144 0.890097
O O17 0.831166 0.293419 0.011090
O O18 0.808702 0.000000 0.898551
#
# Coordination Sequence:
#
# PCOD8088659 Si02
#       7
#     8   8   8   8   8   8   8
#     4   8  15  29  50  76 103 132 168 210 256 304
#     4  11  23  38  54  73 104 143 178 212 255 308
#     4  10  19  32  54  82 107 132 170 218 261 305
#     4  11  23  37  53  76 107 140 176 215 256 306
#     4   9  18  34  55  77 104 139 174 210 256 309
#     4  10  20  36  59  83 106 133 169 213 259 307
#     4   9  20  38  58  80 105 136 173 211 254 307
#
# _framework density 18.886165999999999
#
# number of rings (size 3 to 8) (size 9 to 14) (size 15 to 20)
#    0.000    2.286    0.000    2.571    0.000    7.429 
#    0.000    3.571    0.000    4.286    0.000    0.000 
#    0.000    0.000    0.000    0.000    0.000    0.000 
#
# Total GULP energy -347059.073111 kJ/mol
# GULP energy per Si atom -12394.966897 kJ/mol
# Density = 1.884318 g / cm^3
# Si number density = 18.886166 Si / 1000 Ang^3
#
#
#
# Elastic Constant Matrix: (Units=GPa)
#
#
# Indices 1 2 3 4 5 6 
#
# 1 94.6761 41.4258 46.9042 0.0000 -30.5922 0.0001
# 2 41.4258 69.3226 37.5359 0.0000 -15.0380 0.0002
# 3 46.9042 37.5359 96.1707 0.0000 -30.1424 0.0000
# 4 0.0000 0.0000 0.0000 26.7279 0.0000 -5.1908
# 5 -30.5922 -15.0380 -30.1424 0.0000 21.6591 0.0000
# 6 0.0001 0.0002 0.0000 -5.1908 0.0000 34.7697
#
#
#
# Elastic Compliance Matrix: (Units=1/GPa)
#
#
# Indices 1 2 3 4 5 6 
#
# 1 0.022467 -0.007877 0.000618 0.000000 0.027126 0.000000
# 2 -0.007877 0.021351 -0.005911 0.000000 -0.004527 0.000000
# 3 0.000618 -0.005911 0.020204 0.000000 0.024887 0.000000
# 4 0.000000 0.000000 0.000000 0.038531 0.000000 0.005752
# 5 0.027126 -0.004527 0.024887 0.000000 0.115975 0.000000
# 6 0.000000 0.000000 0.000000 0.005752 0.000000 0.029619
#
#
# Mechanical properties :
#
#
# Convention : Reuss Voigt Hill
#
# Bulk Modulus (GPa) = 26.53637 56.87791 41.70714
# Shear Modulus (GPa) = 17.41884 25.58492 21.50188
#
# Velocity S-wave (km/s) = 3.04025 3.68461 3.37783
# Velocity P-wave (km/s) = 5.13861 6.94862 6.11100
#
# Compressibility (1/GPa) = 0.03768413
#
# Stress axis : x y z
#
# Youngs Moduli (GPa) = 44.50892 46.83725 49.49616
#
# Poissons Ratio (x) = 0.36892 -0.03061
# Poissons Ratio (y) = 0.35058 0.29255
# Poissons Ratio (z) = -0.02753 0.27684
#
# Static dielectric constant tensor:
#      x y z
#    x 3.200430 0.000000 -0.152470 
#    y 0.000000 3.521120 0.000000 
#    z -0.152470 0.000000 4.218260 
# 
# 
# High freq. dielectric constant tensor:
#      x y z
#    x 1.705690 0.000000 -0.015100 
#    y 0.000000 1.741370 0.000000 
#    z -0.015100 0.000000 1.755920 
# 
# From -- ./inp_files/342235.got.cif
#   From: 2010.06.25/outbox.cif.g09.slc.cpg/sg12_172_cif.got.tgz:342235.got - 2010.06.28 00:19:55.
