data_PCOD8088051
_publ_section_title
;
Structure prediction by ZEFSAII (Michael W. Deem and Ramdas Pophale) SiO2 
 PCOD8088051
Probable space group: C 2/M
;
_chemical_formula_sum "Si O2"
_cell_formula_units_Z 48
_cell_length_a 18.188961
_cell_length_b 8.992917
_cell_length_c 31.822567
_cell_angle_alpha 90.000000
_cell_angle_beta 29.441075
_cell_angle_gamma 90.000000
_cell_volume 2558.539473
_symmetry_space_group_name_H-M "C 2/M"
_symmetry_group_IT_number 12
_symmetry_cell_setting 'monoclinic'
loop_
_space_group_symop_operation_xyz
x,y,z
-x,y,-z
-x,-y,-z
x,-y,z
1/2+x,1/2+y,z
1/2-x,1/2+y,-z
1/2-x,1/2-y,-z
1/2+x,1/2-y,z
loop_
_atom_site_type_symbol
_atom_site_label
_atom_site_fract_x
_atom_site_fract_y
_atom_site_fract_z
Si Si1 0.601683 0.173524 0.309957
Si Si2 0.926287 0.824921 0.321769
Si Si3 0.935172 0.676451 0.825928
Si Si4 0.333854 0.170105 0.494673
Si Si5 0.595970 0.323759 0.990643
Si Si6 0.058162 0.175850 0.847248
O O1 0.533849 0.266488 0.305236
O O2 0.510919 0.202991 0.399442
O O3 0.769770 0.224694 0.234457
O O4 0.595523 0.000000 0.300194
O O5 0.958109 0.742538 0.262695
O O6 0.749398 0.787776 0.420108
O O7 0.953491 0.000000 0.302451
O O8 0.947350 0.500000 0.819508
O O9 0.766106 0.730959 0.901532
O O10 0.984813 0.736402 0.845936
O O11 0.250000 0.250000 0.500000
O O12 0.300853 0.000000 0.502955
O O13 0.587774 0.500000 0.992915
O O14 0.500000 0.255306 0.000000
O O15 0.526859 0.268870 0.068835
O O16 0.042171 0.000000 0.847716
#
# Coordination Sequence:
#
# PCOD8088051 Si02
#       6
#     8   8   8   8   8   8
#     4   9  17  32  55  79 102 132 170 210 255 305
#     4  10  19  32  52  77 105 135 170 213 255 298
#     4  11  22  35  52  74 104 139 172 208 251 301
#     4   8  15  28  48  75 102 129 165 209 254 298
#     4   9  18  34  56  79 100 127 166 209 253 302
#     4  10  20  35  55  77 104 136 168 206 253 304
#
# _framework density 18.760705000000002
#
# number of rings (size 3 to 8) (size 9 to 14) (size 15 to 20)
#    0.000    2.500    0.000    2.500    0.000    4.000 
#    0.000    1.667    0.000    8.500    0.000    0.000 
#    0.000    0.000    0.000    0.000    0.000    0.000 
#
# Total GULP energy -297394.328388 kJ/mol
# GULP energy per Si atom -12391.430349 kJ/mol
# Density = 1.871800 g / cm^3
# Si number density = 18.760705 Si / 1000 Ang^3
#
#
#
# Elastic Constant Matrix: (Units=GPa)
#
#
# Indices 1 2 3 4 5 6 
#
# 1 94.5083 30.8226 47.4830 0.0026 25.3985 0.0552
# 2 30.8226 48.5096 36.6439 0.0023 8.6003 0.0175
# 3 47.4830 36.6439 144.3932 -0.0021 29.9884 -0.0004
# 4 0.0026 0.0023 -0.0021 22.5611 -0.0011 4.0144
# 5 25.3985 8.6003 29.9884 -0.0011 20.9734 0.0005
# 6 0.0552 0.0175 -0.0004 4.0144 0.0005 29.3238
#
#
#
# Elastic Compliance Matrix: (Units=1/GPa)
#
#
# Indices 1 2 3 4 5 6 
#
# 1 0.018351 -0.008312 -0.000025 0.000003 -0.018778 -0.000030
# 2 -0.008312 0.029312 -0.006116 -0.000002 0.006790 -0.000002
# 3 -0.000025 -0.006116 0.011320 0.000000 -0.013648 0.000004
# 4 0.000003 -0.000002 0.000000 0.045431 -0.000001 -0.006219
# 5 -0.018778 0.006790 -0.013648 -0.000001 0.087149 0.000030
# 6 -0.000030 -0.000002 0.000004 -0.006219 0.000030 0.034953
#
#
# Mechanical properties :
#
#
# Convention : Reuss Voigt Hill
#
# Bulk Modulus (GPa) = 33.24735 57.47891 45.36313
# Shear Modulus (GPa) = 18.83609 26.06910 22.45260
#
# Velocity S-wave (km/s) = 3.17206 3.73172 3.46322
# Velocity P-wave (km/s) = 5.58357 7.01941 6.34225
#
# Compressibility (1/GPa) = 0.03007759
#
# Stress axis : x y z
#
# Youngs Moduli (GPa) = 54.49240 34.11627 88.33690
#
# Poissons Ratio (x) = 0.28357 0.00224
# Poissons Ratio (y) = 0.45293 0.54023
# Poissons Ratio (z) = 0.00138 0.20864
#
# Static dielectric constant tensor:
#      x y z
#    x 3.216070 -0.000020 -0.029950 
#    y -0.000020 3.236620 0.000010 
#    z -0.029950 0.000010 4.325750 
# 
# 
# High freq. dielectric constant tensor:
#      x y z
#    x 1.702680 0.000000 0.004440 
#    y 0.000000 1.712880 0.000000 
#    z 0.004440 0.000000 1.759390 
# 
# From -- ./inp_files/274014.got.cif
#   From: 2010.06.25/outbox.cif.g09.slc.cpg/sg12_138_cif.got.tgz:274014.got - 2010.06.28 00:19:55.
