data_PCOD8088571
_publ_section_title
;
Structure prediction by ZEFSAII (Michael W. Deem and Ramdas Pophale) SiO2 
 PCOD8088571
Probable space group: C 2/M
;
_chemical_formula_sum "Si O2"
_cell_formula_units_Z 64
_cell_length_a 18.434384
_cell_length_b 22.130054
_cell_length_c 17.582913
_cell_angle_alpha 90.000000
_cell_angle_beta 148.913412
_cell_angle_gamma 90.000000
_cell_volume 3703.665105
_symmetry_space_group_name_H-M "C 2/M"
_symmetry_group_IT_number 12
_symmetry_cell_setting 'monoclinic'
loop_
_space_group_symop_operation_xyz
x,y,z
-x,y,-z
-x,-y,-z
x,-y,z
1/2+x,1/2+y,z
1/2-x,1/2+y,-z
1/2-x,1/2-y,-z
1/2+x,1/2-y,z
loop_
_atom_site_type_symbol
_atom_site_label
_atom_site_fract_x
_atom_site_fract_y
_atom_site_fract_z
Si Si1 0.192418 0.831907 0.884049
Si Si2 0.376886 0.707607 0.337381
Si Si3 0.692288 0.730641 0.284243
Si Si4 0.129688 0.930920 0.945246
Si Si5 0.032188 0.720474 0.808299
Si Si6 0.164605 0.569797 0.731887
Si Si7 0.521984 0.176998 0.400655
Si Si8 0.098852 0.107696 0.155978
O O1 0.157449 0.837450 0.762824
O O2 0.165169 0.895364 0.900125
O O3 0.090080 0.784172 0.831507
O O4 0.354128 0.812061 0.036247
O O5 0.500000 0.678800 0.500000
O O6 0.240778 0.719142 0.267106
O O7 0.419573 0.773458 0.345062
O O8 0.609861 0.767966 0.273479
O O9 0.818818 0.692451 0.435374
O O10 0.594875 0.680600 0.156873
O O11 0.967932 0.919171 0.826286
O O12 0.150388 0.000000 0.942220
O O13 0.235845 0.911170 0.107913
O O14 0.993918 0.676636 0.704460
O O15 0.117590 0.500000 0.693729
O O16 0.246450 0.581986 0.725585
O O17 0.025527 0.611595 0.609980
O O18 0.000000 0.084642 0.000000
#
# Coordination Sequence:
#
# PCOD8088571 Si02
#       8
#     8   8   8   8   8   8   8   8
#     4  10  19  32  54  78  99 134 174 218 257 311
#     4   9  20  33  50  74 108 136 168 210 264 315
#     4  11  20  31  50  73 105 141 162 212 265 309
#     4  10  19  34  53  77 104 136 176 219 262 300
#     4  10  20  31  51  76 101 130 173 217 264 308
#     4  10  19  33  52  73 106 147 179 210 245 300
#     4  10  19  34  48  72 105 138 176 210 255 312
#     4  10  20  30  48  76 107 136 175 208 248 306
#
# _framework density 17.280180000000001
#
# number of rings (size 3 to 8) (size 9 to 14) (size 15 to 20)
#    0.000    2.000    3.750    0.750    1.750    1.500 
#    0.000    1.875    0.000    0.375    0.000    2.625 
#    0.000    0.000    0.000    0.000    0.000    0.000 
#
# Total GULP energy -396776.486722 kJ/mol
# GULP energy per Si atom -12399.265210 kJ/mol
# Density = 1.724085 g / cm^3
# Si number density = 17.280180 Si / 1000 Ang^3
#
#
#
# Elastic Constant Matrix: (Units=GPa)
#
#
# Indices 1 2 3 4 5 6 
#
# 1 114.7879 42.1205 56.1975 0.0000 9.9002 0.0000
# 2 42.1205 62.9291 24.4203 0.0000 7.8269 0.0000
# 3 56.1975 24.4203 69.6520 -0.0002 -1.9598 -0.0001
# 4 0.0000 0.0000 -0.0002 17.4970 -0.0001 -2.0838
# 5 9.9002 7.8269 -1.9598 -0.0001 30.3873 -0.0001
# 6 0.0000 0.0000 -0.0001 -2.0838 -0.0001 22.0340
#
#
#
# Elastic Compliance Matrix: (Units=1/GPa)
#
#
# Indices 1 2 3 4 5 6 
#
# 1 0.017238 -0.006366 -0.011810 0.000000 -0.004738 0.000000
# 2 -0.006366 0.021590 -0.002536 0.000000 -0.003651 0.000000
# 3 -0.011810 -0.002536 0.024947 0.000000 0.006110 0.000000
# 4 0.000000 0.000000 0.000000 0.057804 0.000000 0.005466
# 5 -0.004738 -0.003651 0.006110 0.000000 0.035786 0.000000
# 6 0.000000 0.000000 0.000000 0.005466 0.000000 0.045901
#
#
# Mechanical properties :
#
#
# Convention : Reuss Voigt Hill
#
# Bulk Modulus (GPa) = 44.73985 54.76062 49.75023
# Shear Modulus (GPa) = 19.83032 22.29238 21.06135
#
# Velocity S-wave (km/s) = 3.39126 3.59563 3.49494
# Velocity P-wave (km/s) = 6.42505 6.99977 6.71856
#
# Compressibility (1/GPa) = 0.02235144
#
# Stress axis : x y z
#
# Youngs Moduli (GPa) = 58.01158 46.31788 40.08572
#
# Poissons Ratio (x) = 0.29485 0.47340
# Poissons Ratio (y) = 0.36929 0.10166
# Poissons Ratio (z) = 0.68509 0.11747
#
# Static dielectric constant tensor:
#      x y z
#    x 3.281850 0.000000 -0.041740 
#    y 0.000000 2.872380 0.000000 
#    z -0.041740 0.000000 3.269540 
# 
# 
# High freq. dielectric constant tensor:
#      x y z
#    x 1.665410 0.000000 0.004440 
#    y 0.000000 1.629180 0.000000 
#    z 0.004440 0.000000 1.665290 
# 
# From -- ./inp_files/89644.got.cif
#   From: 2010.06.25/outbox.cif.g09.slc.cpg/sg12_45_cif.got.tgz:89644.got - 2010.06.28 00:19:55.
