data_PCOD8088200
_publ_section_title
;
Structure prediction by ZEFSAII (Michael W. Deem and Ramdas Pophale) SiO2 
 PCOD8088200
Probable space group: C 2/M
;
_chemical_formula_sum "Si O2"
_cell_formula_units_Z 64
_cell_length_a 32.718556
_cell_length_b 8.910012
_cell_length_c 15.374032
_cell_angle_alpha 90.000000
_cell_angle_beta 44.415838
_cell_angle_gamma 90.000000
_cell_volume 3136.691985
_symmetry_space_group_name_H-M "C 2/M"
_symmetry_group_IT_number 12
_symmetry_cell_setting 'monoclinic'
loop_
_space_group_symop_operation_xyz
x,y,z
-x,y,-z
-x,-y,-z
x,-y,z
1/2+x,1/2+y,z
1/2-x,1/2+y,-z
1/2-x,1/2-y,-z
1/2+x,1/2-y,z
loop_
_atom_site_type_symbol
_atom_site_label
_atom_site_fract_x
_atom_site_fract_y
_atom_site_fract_z
Si Si1 0.687818 0.174784 0.760582
Si Si2 0.496182 0.676306 0.187061
Si Si3 0.389675 0.176378 0.282836
Si Si4 0.627830 0.322854 0.008224
Si Si5 0.117126 0.824781 0.374809
Si Si6 0.015332 0.672736 0.618039
Si Si7 0.620504 0.172384 0.198382
Si Si8 0.678259 0.672123 0.460765
O O1 0.646462 0.231358 0.745730
O O2 0.753629 0.207835 0.631865
O O3 0.678196 0.000000 0.796557
O O4 0.674135 0.270658 0.866804
O O5 0.490230 0.500000 0.187955
O O6 0.454514 0.751427 0.177903
O O7 0.563182 0.729366 0.074975
O O8 0.471094 0.728170 0.317936
O O9 0.356773 0.223661 0.420397
O O10 0.396674 0.000000 0.272398
O O11 0.630016 0.500000 0.018057
O O12 0.644795 0.246288 0.073463
O O13 0.056243 0.736729 0.480126
O O14 0.146817 0.759177 0.241931
O O15 0.160562 0.792300 0.388542
O O16 0.104278 0.000000 0.382201
O O17 0.030825 0.500000 0.614133
O O18 0.948934 0.690506 0.690598
O O19 0.640425 0.000000 0.170220
O O20 0.664179 0.500000 0.505711
#
# Coordination Sequence:
#
# PCOD8088200 Si02
#       8
#     8   8   8   8   8   8   8   8
#     4  10  23  42  61  83 113 153 196 239 289 341
#     4  10  20  35  56  84 119 153 185 232 291 344
#     4  11  22  36  60  90 117 148 190 238 288 346
#     4  10  22  40  61  85 114 151 196 240 284 340
#     4  11  21  33  54  84 116 151 190 233 283 342
#     4  10  19  32  52  81 116 151 188 229 283 343
#     4  10  21  36  56  82 115 153 189 233 285 340
#     4  10  22  40  60  84 118 154 190 237 290 339
#
# _framework density 20.403659999999999
#
# number of rings (size 3 to 8) (size 9 to 14) (size 15 to 20)
#    0.000    1.750    1.250    3.000    0.000    7.000 
#    0.000    3.125    0.000    0.000    0.000    0.000 
#    0.000    0.000    0.000    0.000    0.000    0.000 
#
# Total GULP energy -396928.168209 kJ/mol
# GULP energy per Si atom -12404.005257 kJ/mol
# Density = 2.035722 g / cm^3
# Si number density = 20.403660 Si / 1000 Ang^3
#
#
#
# Elastic Constant Matrix: (Units=GPa)
#
#
# Indices 1 2 3 4 5 6 
#
# 1 47.4976 17.9861 2.1469 0.0000 16.4461 -0.0001
# 2 17.9861 70.9068 14.2471 0.0001 4.9592 -0.0002
# 3 2.1469 14.2471 46.3244 0.0000 9.2327 0.0000
# 4 0.0000 0.0001 0.0000 23.1769 0.0000 4.6431
# 5 16.4461 4.9592 9.2327 0.0000 20.6056 0.0000
# 6 -0.0001 -0.0002 0.0000 4.6431 0.0000 29.5064
#
#
#
# Elastic Compliance Matrix: (Units=1/GPa)
#
#
# Indices 1 2 3 4 5 6 
#
# 1 0.033231 -0.007779 0.006331 0.000000 -0.027487 0.000000
# 2 -0.007779 0.016907 -0.005782 0.000000 0.004730 0.000000
# 3 0.006331 -0.005782 0.026135 0.000000 -0.015372 0.000000
# 4 0.000000 0.000000 0.000000 0.044551 0.000000 -0.007011
# 5 -0.027487 0.004730 -0.015372 0.000000 0.076218 0.000000
# 6 0.000000 0.000000 0.000000 -0.007011 0.000000 0.034994
#
#
# Mechanical properties :
#
#
# Convention : Reuss Voigt Hill
#
# Bulk Modulus (GPa) = 16.17790 25.94321 21.06056
# Shear Modulus (GPa) = 18.71954 23.34770 21.03362
#
# Velocity S-wave (km/s) = 3.03225 3.38641 3.21421
# Velocity P-wave (km/s) = 4.49505 5.29461 4.91113
#
# Compressibility (1/GPa) = 0.06181273
#
# Stress axis : x y z
#
# Youngs Moduli (GPa) = 30.09279 59.14679 38.26225
#
# Poissons Ratio (x) = 0.46009 -0.24222
# Poissons Ratio (y) = 0.23408 0.22123
# Poissons Ratio (z) = -0.19051 0.34199
#
# Static dielectric constant tensor:
#      x y z
#    x 3.875840 0.000000 0.043490 
#    y 0.000000 3.681140 0.000000 
#    z 0.043490 0.000000 3.473230 
# 
# 
# High freq. dielectric constant tensor:
#      x y z
#    x 1.799650 0.000000 0.008940 
#    y 0.000000 1.802260 0.000000 
#    z 0.008940 0.000000 1.782460 
# 
# From -- ./inp_files/249833.got.cif
#   From: 2010.06.25/outbox.cif.g09.slc.cpg/sg12_125_cif.got.tgz:249833.got - 2010.06.28 00:19:55.
