data_PCOD8088111
_publ_section_title
;
Structure prediction by ZEFSAII (Michael W. Deem and Ramdas Pophale) SiO2 
 PCOD8088111
Probable space group: C 2/M
;
_chemical_formula_sum "Si O2"
_cell_formula_units_Z 56
_cell_length_a 19.032783
_cell_length_b 8.965827
_cell_length_c 21.830439
_cell_angle_alpha 90.000000
_cell_angle_beta 54.699750
_cell_angle_gamma 90.000000
_cell_volume 3040.305041
_symmetry_space_group_name_H-M "C 2/M"
_symmetry_group_IT_number 12
_symmetry_cell_setting 'monoclinic'
loop_
_space_group_symop_operation_xyz
x,y,z
-x,y,-z
-x,-y,-z
x,-y,z
1/2+x,1/2+y,z
1/2-x,1/2+y,-z
1/2-x,1/2-y,-z
1/2+x,1/2-y,z
loop_
_atom_site_type_symbol
_atom_site_label
_atom_site_fract_x
_atom_site_fract_y
_atom_site_fract_z
Si Si1 0.252524 0.172388 0.198419
Si Si2 0.511108 0.327615 0.395280
Si Si3 0.138101 0.828136 0.442738
Si Si4 0.553138 0.172291 0.914003
Si Si5 0.780624 0.171691 0.310348
Si Si6 0.524485 0.327732 0.802807
Si Si7 0.586235 0.175961 0.241091
O O1 0.346257 0.198447 0.121742
O O2 0.250746 0.228956 0.268609
O O3 0.182908 0.260562 0.193636
O O4 0.226008 0.000000 0.212739
O O5 0.514629 0.500000 0.373621
O O6 0.580916 0.294059 0.411995
O O7 0.416488 0.287367 0.469130
O O8 0.529540 0.227868 0.327194
O O9 0.223981 0.726335 0.396905
O O10 0.165755 0.000000 0.430748
O O11 0.522801 0.274990 0.873706
O O12 0.536226 0.000000 0.905271
O O13 0.500000 0.221965 0.000000
O O14 0.881009 0.196565 0.274147
O O15 0.761435 0.000000 0.304815
O O16 0.497478 0.500000 0.814055
O O17 0.456681 0.231098 0.799699
O O18 0.590821 0.000000 0.238341
#
# Coordination Sequence:
#
# PCOD8088111 Si02
#       7
#     8   8   8   8   8   8   8
#     4  10  19  33  56  81 109 144 176 212 264 320
#     4   9  18  32  50  75 106 142 180 222 273 321
#     4   9  17  30  51  76 104 140 181 224 271 321
#     4   9  19  38  63  89 113 138 173 216 260 313
#     4  10  19  32  52  79 106 136 182 230 266 312
#     4  10  22  38  56  79 111 147 179 217 268 322
#     4  12  23  35  53  80 110 142 184 228 267 314
#
# _framework density 18.419204000000001
#
# number of rings (size 3 to 8) (size 9 to 14) (size 15 to 20)
#    0.000    2.143    1.429    3.429    0.000    3.143 
#    0.000    2.857    0.000    0.000    0.000    0.000 
#    0.000    0.000    0.000    0.000    0.000    0.000 
#
# Total GULP energy -347244.019038 kJ/mol
# GULP energy per Si atom -12401.572108 kJ/mol
# Density = 1.837728 g / cm^3
# Si number density = 18.419204 Si / 1000 Ang^3
#
#
#
# Elastic Constant Matrix: (Units=GPa)
#
#
# Indices 1 2 3 4 5 6 
#
# 1 94.8561 59.9347 43.8619 -0.0001 -4.1310 -0.0001
# 2 59.9347 121.2857 51.5411 -0.0003 -2.3800 -0.0001
# 3 43.8619 51.5411 109.4829 0.0000 -16.8837 0.0000
# 4 -0.0001 -0.0003 0.0000 24.2938 0.0000 0.5507
# 5 -4.1310 -2.3800 -16.8837 0.0000 21.4607 -0.0001
# 6 -0.0001 -0.0001 0.0000 0.5507 -0.0001 31.1069
#
#
#
# Elastic Compliance Matrix: (Units=1/GPa)
#
#
# Indices 1 2 3 4 5 6 
#
# 1 0.016295 -0.006579 -0.003482 0.000000 -0.000333 0.000000
# 2 -0.006579 0.013141 -0.004007 0.000000 -0.002962 0.000000
# 3 -0.003482 -0.004007 0.013934 0.000000 0.009848 0.000000
# 4 0.000000 0.000000 0.000000 0.041179 0.000000 -0.000729
# 5 -0.000333 -0.002962 0.009848 0.000000 0.053952 0.000000
# 6 0.000000 0.000000 0.000000 -0.000729 0.000000 0.032160
#
#
# Mechanical properties :
#
#
# Convention : Reuss Voigt Hill
#
# Bulk Modulus (GPa) = 65.64842 70.70000 68.17421
# Shear Modulus (GPa) = 24.52470 26.72475 25.62473
#
# Velocity S-wave (km/s) = 3.65290 3.81322 3.73392
# Velocity P-wave (km/s) = 7.31507 7.60623 7.46207
#
# Compressibility (1/GPa) = 0.01523266
#
# Stress axis : x y z
#
# Youngs Moduli (GPa) = 61.36847 76.09813 71.76636
#
# Poissons Ratio (x) = 0.50065 0.24991
# Poissons Ratio (y) = 0.40375 0.28759
# Poissons Ratio (z) = 0.21370 0.30495
#
# Static dielectric constant tensor:
#      x y z
#    x 3.289790 0.000000 -0.259540 
#    y 0.000000 3.384150 0.000000 
#    z -0.259540 0.000000 3.409540 
# 
# 
# High freq. dielectric constant tensor:
#      x y z
#    x 1.699140 0.000000 -0.018290 
#    y 0.000000 1.719350 0.000000 
#    z -0.018290 0.000000 1.706340 
# 
# From -- ./inp_files/313720.got.cif
#   From: 2010.06.25/outbox.cif.g09.slc.cpg/sg12_157_cif.got.tgz:313720.got - 2010.06.28 00:19:55.
