data_PCOD8088784
_publ_section_title
;
Structure prediction by ZEFSAII (Michael W. Deem and Ramdas Pophale) SiO2 
 PCOD8088784
Probable space group: C 2/M
;
_chemical_formula_sum "Si O2"
_cell_formula_units_Z 48
_cell_length_a 12.952934
_cell_length_b 12.911106
_cell_length_c 21.375842
_cell_angle_alpha 90.000000
_cell_angle_beta 37.570917
_cell_angle_gamma 90.000000
_cell_volume 2179.724466
_symmetry_space_group_name_H-M "C 2/M"
_symmetry_group_IT_number 12
_symmetry_cell_setting 'monoclinic'
loop_
_space_group_symop_operation_xyz
x,y,z
-x,y,-z
-x,-y,-z
x,-y,z
1/2+x,1/2+y,z
1/2-x,1/2+y,-z
1/2-x,1/2-y,-z
1/2+x,1/2-y,z
loop_
_atom_site_type_symbol
_atom_site_label
_atom_site_fract_x
_atom_site_fract_y
_atom_site_fract_z
Si Si1 0.849910 0.303910 0.154494
Si Si2 0.305186 0.118015 0.042659
Si Si3 0.906185 0.114394 0.626785
Si Si4 0.070749 0.881192 0.804928
Si Si5 0.298537 0.884175 0.467881
Si Si6 0.258935 0.732770 0.387895
O O1 0.804746 0.307468 0.103287
O O2 0.718457 0.374013 0.254960
O O3 0.839916 0.185065 0.183485
O O4 0.039282 0.348510 0.076494
O O5 0.130797 0.128907 0.088908
O O6 0.330095 0.000000 0.053764
O O7 0.870009 0.198737 0.590851
O O8 0.095551 0.124165 0.561109
O O9 0.877430 0.000000 0.611276
O O10 0.119690 0.836744 0.713219
O O11 0.131637 0.000000 0.780982
O O12 0.372835 0.811502 0.376541
O O13 0.348331 0.840828 0.512830
O O14 0.369588 0.000000 0.426520
#
# Coordination Sequence:
#
# PCOD8088784 Si02
#       6
#     8   8   8   8   8   8
#     4  10  19  32  55  82 107 132 172 218 255 297
#     4  10  19  34  56  81 106 135 172 213 257 303
#     4  10  19  33  55  80 104 133 171 214 260 307
#     4  10  21  36  54  75 105 143 175 206 254 312
#     4  10  20  35  55  77 102 135 173 213 260 310
#     4  10  20  32  53  77 102 133 173 214 251 302
#
# _framework density 22.021132000000001
#
# number of rings (size 3 to 8) (size 9 to 14) (size 15 to 20)
#    0.000    2.000    0.000    5.000    0.000    4.000 
#    0.000    1.667    0.000   72.000    0.000    0.000 
#    0.000    0.000    0.000    0.000    0.000    0.000 
#
# Total GULP energy -297517.917945 kJ/mol
# GULP energy per Si atom -12396.579914 kJ/mol
# Density = 2.197101 g / cm^3
# Si number density = 22.021132 Si / 1000 Ang^3
#
#
#
# Elastic Constant Matrix: (Units=GPa)
#
#
# Indices 1 2 3 4 5 6 
#
# 1 46.3421 24.5041 8.2130 -0.0001 8.3148 0.0000
# 2 24.5041 156.9495 19.4465 -0.0001 10.1266 0.0001
# 3 8.2130 19.4465 78.9779 -0.0008 7.8953 0.0003
# 4 -0.0001 -0.0001 -0.0008 25.8844 0.0003 1.9853
# 5 8.3148 10.1266 7.8953 0.0003 27.6034 -0.0001
# 6 0.0000 0.0001 0.0003 1.9853 -0.0001 26.0540
#
#
#
# Elastic Compliance Matrix: (Units=1/GPa)
#
#
# Indices 1 2 3 4 5 6 
#
# 1 0.024589 -0.003318 -0.001154 0.000000 -0.005859 0.000000
# 2 -0.003318 0.007129 -0.001286 0.000000 -0.001248 0.000000
# 3 -0.001154 -0.001286 0.013400 0.000000 -0.003013 0.000000
# 4 0.000000 0.000000 0.000000 0.038860 -0.000001 -0.002961
# 5 -0.005859 -0.001248 -0.003013 -0.000001 0.039312 0.000000
# 6 0.000000 0.000000 0.000000 -0.002961 0.000000 0.038607
#
#
# Mechanical properties :
#
#
# Convention : Reuss Voigt Hill
#
# Bulk Modulus (GPa) = 29.75998 42.95519 36.35759
# Shear Modulus (GPa) = 27.08347 31.24875 29.16611
#
# Velocity S-wave (km/s) = 3.51078 3.77109 3.64326
# Velocity P-wave (km/s) = 5.47519 6.20566 5.85183
#
# Compressibility (1/GPa) = 0.03360217
#
# Stress axis : x y z
#
# Youngs Moduli (GPa) = 40.66874 140.26570 74.62907
#
# Poissons Ratio (x) = 0.46539 0.08614
# Poissons Ratio (y) = 0.13494 0.09594
# Poissons Ratio (z) = 0.04694 0.18033
#
# Static dielectric constant tensor:
#      x y z
#    x 3.613640 0.000000 0.026890 
#    y 0.000000 4.283890 0.000000 
#    z 0.026890 0.000000 4.120320 
# 
# 
# High freq. dielectric constant tensor:
#      x y z
#    x 1.843860 0.000000 0.004060 
#    y 0.000000 1.877010 0.000000 
#    z 0.004060 0.000000 1.863950 
# 
# From -- ./inp_files/212628.got.cif
#   From: 2010.06.25/outbox.cif.g09.slc.cpg/sg12_107_cif.got.tgz:212628.got - 2010.06.28 00:19:55.
