data_PCOD8088442
_publ_section_title
;
Structure prediction by ZEFSAII (Michael W. Deem and Ramdas Pophale) SiO2 
 PCOD8088442
Probable space group: C 2/M
;
_chemical_formula_sum "Si O2"
_cell_formula_units_Z 56
_cell_length_a 20.469654
_cell_length_b 9.389700
_cell_length_c 29.865571
_cell_angle_alpha 90.000000
_cell_angle_beta 146.726116
_cell_angle_gamma 90.000000
_cell_volume 3149.357242
_symmetry_space_group_name_H-M "C 2/M"
_symmetry_group_IT_number 12
_symmetry_cell_setting 'monoclinic'
loop_
_space_group_symop_operation_xyz
x,y,z
-x,y,-z
-x,-y,-z
x,-y,z
1/2+x,1/2+y,z
1/2-x,1/2+y,-z
1/2-x,1/2-y,-z
1/2+x,1/2-y,z
loop_
_atom_site_type_symbol
_atom_site_label
_atom_site_fract_x
_atom_site_fract_y
_atom_site_fract_z
Si Si1 0.674562 0.164478 0.239776
Si Si2 0.917800 0.834808 0.333923
Si Si3 0.682777 0.336476 0.334743
Si Si4 0.942451 0.335530 0.513110
Si Si5 0.286142 0.834260 0.089082
Si Si6 0.057029 0.167310 0.754051
Si Si7 0.412738 0.836409 0.068904
O O1 0.780950 0.201078 0.266911
O O2 0.692874 0.249967 0.295319
O O3 0.551487 0.204395 0.144499
O O4 0.672507 0.000000 0.252519
O O5 0.941045 0.788642 0.296516
O O6 0.007607 0.749373 0.416418
O O7 0.945511 0.000000 0.357261
O O8 0.669569 0.500000 0.313054
O O9 0.800824 0.311943 0.431681
O O10 0.570928 0.286478 0.300021
O O11 0.977408 0.500000 0.539250
O O12 0.000000 0.277244 0.500000
O O13 0.339969 0.755508 0.162665
O O14 0.373851 0.808576 0.097685
O O15 0.268863 0.000000 0.089994
O O16 0.157670 0.766128 0.005037
O O17 0.082026 0.000000 0.775085
O O18 0.387798 0.000000 0.041107
#
# Coordination Sequence:
#
# PCOD8088442 Si02
#       7
#     8   8   8   8   8   8   8
#     4  10  19  34  55  80 106 135 178 222 260 308
#     4  10  22  37  55  79 108 142 177 217 266 317
#     4  10  20  34  55  78 105 140 178 218 262 313
#     4  10  20  35  54  79 108 139 177 220 266 313
#     4  10  19  32  53  81 108 137 175 218 263 311
#     4  10  21  37  54  77 110 144 176 214 266 319
#     4   9  18  32  52  79 107 135 173 220 264 308
#
# _framework density 17.781406
#
# number of rings (size 3 to 8) (size 9 to 14) (size 15 to 20)
#    0.000    2.143    2.857    0.429    0.000    3.143 
#    0.000    0.714    0.000    4.286    0.000    0.000 
#    0.000    0.000    0.000    0.000    0.000    0.000 
#
# Total GULP energy -347297.460575 kJ/mol
# GULP energy per Si atom -12403.480735 kJ/mol
# Density = 1.774093 g / cm^3
# Si number density = 17.781406 Si / 1000 Ang^3
#
#
#
# Elastic Constant Matrix: (Units=GPa)
#
#
# Indices 1 2 3 4 5 6 
#
# 1 72.2673 26.7631 34.4812 0.0000 -9.9036 0.0000
# 2 26.7631 59.9804 48.2617 0.0001 -12.3700 0.0001
# 3 34.4812 48.2617 109.5643 0.0000 -9.1070 0.0000
# 4 0.0000 0.0001 0.0000 31.7805 0.0000 -5.5862
# 5 -9.9036 -12.3700 -9.1070 0.0000 28.6699 0.0000
# 6 0.0000 0.0001 0.0000 -5.5862 0.0000 21.9700
#
#
#
# Elastic Compliance Matrix: (Units=1/GPa)
#
#
# Indices 1 2 3 4 5 6 
#
# 1 0.017493 -0.004572 -0.003238 0.000000 0.003041 0.000000
# 2 -0.004572 0.028805 -0.010628 0.000000 0.007473 0.000000
# 3 -0.003238 -0.010628 0.014743 0.000000 -0.001021 0.000000
# 4 0.000000 0.000000 0.000000 0.032938 0.000000 0.008375
# 5 0.003041 0.007473 -0.001021 0.000000 0.038830 0.000000
# 6 0.000000 0.000000 0.000000 0.008375 0.000000 0.047646
#
#
# Mechanical properties :
#
#
# Convention : Reuss Voigt Hill
#
# Bulk Modulus (GPa) = 41.38561 51.20268 46.29414
# Shear Modulus (GPa) = 22.18405 25.30447 23.74426
#
# Velocity S-wave (km/s) = 3.53597 3.77647 3.65820
# Velocity P-wave (km/s) = 6.32423 6.91909 6.62834
#
# Compressibility (1/GPa) = 0.02416299
#
# Stress axis : x y z
#
# Youngs Moduli (GPa) = 57.16665 34.71601 67.82931
#
# Poissons Ratio (x) = 0.15874 0.21965
# Poissons Ratio (y) = 0.26139 0.72090
# Poissons Ratio (z) = 0.18512 0.36897
#
# Static dielectric constant tensor:
#      x y z
#    x 3.252800 0.000000 0.171550 
#    y 0.000000 3.283700 0.000000 
#    z 0.171550 0.000000 3.347220 
# 
# 
# High freq. dielectric constant tensor:
#      x y z
#    x 1.673510 0.000000 0.010430 
#    y 0.000000 1.686420 0.000000 
#    z 0.010430 0.000000 1.697260 
# 
# From -- ./inp_files/380580.got.cif
#   From: 2010.06.25/outbox.cif.g09.slc.cpg/sg12_191_cif.got.tgz:380580.got - 2010.06.28 00:19:55.
