data_PCOD8088557
_publ_section_title
;
Structure prediction by ZEFSAII (Michael W. Deem and Ramdas Pophale) SiO2 
 PCOD8088557
Probable space group: C 2/M
;
_chemical_formula_sum "Si O2"
_cell_formula_units_Z 56
_cell_length_a 29.522609
_cell_length_b 9.405582
_cell_length_c 16.537345
_cell_angle_alpha 90.000000
_cell_angle_beta 133.828080
_cell_angle_gamma 90.000000
_cell_volume 3312.797834
_symmetry_space_group_name_H-M "C 2/M"
_symmetry_group_IT_number 12
_symmetry_cell_setting 'monoclinic'
loop_
_space_group_symop_operation_xyz
x,y,z
-x,y,-z
-x,-y,-z
x,-y,z
1/2+x,1/2+y,z
1/2-x,1/2+y,-z
1/2-x,1/2-y,-z
1/2+x,1/2-y,z
loop_
_atom_site_type_symbol
_atom_site_label
_atom_site_fract_x
_atom_site_fract_y
_atom_site_fract_z
Si Si1 0.402553 0.334042 0.413563
Si Si2 0.011949 0.662899 0.793575
Si Si3 0.691318 0.162645 0.605439
Si Si4 0.437210 0.163660 0.969295
Si Si5 0.972336 0.834116 0.340884
Si Si6 0.868539 0.667432 0.636989
Si Si7 0.834226 0.834574 0.750755
O O1 0.390154 0.500000 0.408748
O O2 0.339973 0.251542 0.361154
O O3 0.419006 0.297929 0.340968
O O4 0.460071 0.285433 0.541671
O O5 0.011387 0.500000 0.765515
O O6 0.043344 0.751907 0.760575
O O7 0.941154 0.713129 0.723526
O O8 0.053826 0.686717 0.924452
O O9 0.665692 0.214922 0.487241
O O10 0.765415 0.184858 0.702921
O O11 0.671858 0.000000 0.594082
O O12 0.381661 0.265562 0.872997
O O13 0.420447 0.000000 0.927998
O O14 0.500000 0.207995 0.000000
O O15 0.972970 0.000000 0.322480
O O16 0.860776 0.500000 0.645069
O O17 0.835982 0.755368 0.667571
O O18 0.850670 0.000000 0.758369
#
# Coordination Sequence:
#
# PCOD8088557 Si02
#       7
#     8   8   8   8   8   8   8
#     4   9  18  32  51  76 106 138 168 201 252 312
#     4  10  19  32  54  78 101 134 173 208 252 304
#     4  10  21  35  51  75 107 138 171 210 251 301
#     4  10  20  37  55  72  99 136 175 215 252 297
#     4   9  18  32  50  77 109 134 163 209 258 302
#     4  10  19  34  52  73 105 141 170 204 251 303
#     4  11  23  35  50  76 105 136 175 214 253 298
#
# _framework density 16.904140000000002
#
# number of rings (size 3 to 8) (size 9 to 14) (size 15 to 20)
#    0.000    2.143    2.857    1.714    0.000    3.714 
#    0.000    1.429    0.000    0.857    0.000    0.000 
#    0.000    0.000    0.000    0.000    0.000    0.000 
#
# Total GULP energy -347283.250589 kJ/mol
# GULP energy per Si atom -12402.973235 kJ/mol
# Density = 1.686567 g / cm^3
# Si number density = 16.904140 Si / 1000 Ang^3
#
#
#
# Elastic Constant Matrix: (Units=GPa)
#
#
# Indices 1 2 3 4 5 6 
#
# 1 113.1786 61.8085 39.7142 0.0000 -6.0592 0.0000
# 2 61.8085 71.6000 37.5794 0.0000 -0.0097 0.0000
# 3 39.7142 37.5794 71.0271 0.0000 4.3451 0.0000
# 4 0.0000 0.0000 0.0000 28.5321 0.0000 -2.3464
# 5 -6.0592 -0.0097 4.3451 0.0000 23.0916 0.0000
# 6 0.0000 0.0000 0.0000 -2.3464 0.0000 35.8569
#
#
#
# Elastic Compliance Matrix: (Units=1/GPa)
#
#
# Indices 1 2 3 4 5 6 
#
# 1 0.017595 -0.013649 -0.002932 0.000000 0.005163 0.000000
# 2 -0.013649 0.030012 -0.008122 0.000000 -0.002041 0.000000
# 3 -0.002932 -0.008122 0.020297 0.000000 -0.004592 0.000000
# 4 0.000000 0.000000 0.000000 0.035238 0.000000 0.002306
# 5 0.005163 -0.002041 -0.004592 0.000000 0.045524 0.000000
# 6 0.000000 0.000000 0.000000 0.002306 0.000000 0.028040
#
#
# Mechanical properties :
#
#
# Convention : Reuss Voigt Hill
#
# Bulk Modulus (GPa) = 54.06455 59.33444 56.69950
# Shear Modulus (GPa) = 21.52602 25.27636 23.40119
#
# Velocity S-wave (km/s) = 3.57237 3.87108 3.72472
# Velocity P-wave (km/s) = 7.00487 7.42678 7.21891
#
# Compressibility (1/GPa) = 0.01849641
#
# Stress axis : x y z
#
# Youngs Moduli (GPa) = 56.83471 33.32052 49.26836
#
# Poissons Ratio (x) = 0.45479 0.14448
# Poissons Ratio (y) = 0.77573 0.40016
# Poissons Ratio (z) = 0.16666 0.27063
#
# Static dielectric constant tensor:
#      x y z
#    x 3.090830 0.000000 -0.044250 
#    y 0.000000 3.111200 0.000000 
#    z -0.044250 0.000000 3.031380 
# 
# 
# High freq. dielectric constant tensor:
#      x y z
#    x 1.649130 0.000000 -0.006780 
#    y 0.000000 1.651790 0.000000 
#    z -0.006780 0.000000 1.636140 
# 
# From -- ./inp_files/243664.got.cif
#   From: 2010.06.25/outbox.cif.g09.slc.cpg/sg12_122_cif.got.tgz:243664.got - 2010.06.28 00:19:55.
