data_PCOD8088364
_publ_section_title
;
Structure prediction by ZEFSAII (Michael W. Deem and Ramdas Pophale) SiO2 
 PCOD8088364
Probable space group: C 2/M
;
_chemical_formula_sum "Si O2"
_cell_formula_units_Z 64
_cell_length_a 28.624388
_cell_length_b 8.982835
_cell_length_c 14.535944
_cell_angle_alpha 90.000000
_cell_angle_beta 76.251630
_cell_angle_gamma 90.000000
_cell_volume 3630.513832
_symmetry_space_group_name_H-M "C 2/M"
_symmetry_group_IT_number 12
_symmetry_cell_setting 'monoclinic'
loop_
_space_group_symop_operation_xyz
x,y,z
-x,y,-z
-x,-y,-z
x,-y,z
1/2+x,1/2+y,z
1/2-x,1/2+y,-z
1/2-x,1/2-y,-z
1/2+x,1/2-y,z
loop_
_atom_site_type_symbol
_atom_site_label
_atom_site_fract_x
_atom_site_fract_y
_atom_site_fract_z
Si Si1 0.284629 0.826891 0.315965
Si Si2 0.380430 0.168378 0.760509
Si Si3 0.038170 0.824017 0.189551
Si Si4 0.139383 0.674278 0.566791
Si Si5 0.928479 0.827098 0.266527
Si Si6 0.325652 0.675240 0.628364
Si Si7 0.851867 0.173157 0.148902
Si Si8 0.390082 0.168017 0.958042
O O1 0.314168 0.784727 0.393606
O O2 0.229864 0.781133 0.359619
O O3 0.304205 0.734417 0.220408
O O4 0.290365 0.000000 0.289379
O O5 0.432629 0.251406 0.737916
O O6 0.343029 0.257386 0.716207
O O7 0.360432 0.167648 0.875199
O O8 0.386910 0.000000 0.720476
O O9 0.059798 0.757820 0.083560
O O10 0.982835 0.777398 0.222766
O O11 0.045058 0.000000 0.187088
O O12 0.135036 0.500000 0.550872
O O13 0.091399 0.731086 0.639484
O O14 0.143205 0.756619 0.468194
O O15 0.898595 0.791921 0.188560
O O16 0.924390 0.000000 0.295066
O O17 0.333369 0.500000 0.626294
O O18 0.844817 0.000000 0.134302
O O19 0.857572 0.253180 0.048971
O O20 0.402282 0.000000 0.983569
#
# Coordination Sequence:
#
# PCOD8088364 Si02
#       8
#     8   8   8   8   8   8   8   8
#     4   9  20  36  53  78 108 137 169 209 257 308
#     4   9  20  36  53  75 103 135 174 218 258 301
#     4   9  17  33  55  75 103 138 173 213 256 301
#     4  10  20  34  54  79 109 138 167 209 257 307
#     4   9  19  34  52  78 109 138 171 212 256 305
#     4  11  21  35  57  78 101 136 175 213 257 309
#     4  10  19  32  53  79 107 139 173 211 255 305
#     4   9  19  34  52  74 106 140 172 215 256 301
#
# _framework density 17.628357999999999
#
# number of rings (size 3 to 8) (size 9 to 14) (size 15 to 20)
#    0.750    1.750    0.000    2.250    0.000    3.500 
#    0.000    3.750    0.000    3.750    0.000    0.000 
#    0.000    0.000    0.000    0.000    0.000    0.000 
#
# Total GULP energy -396728.603340 kJ/mol
# GULP energy per Si atom -12397.768854 kJ/mol
# Density = 1.758823 g / cm^3
# Si number density = 17.628358 Si / 1000 Ang^3
#
#
#
# Elastic Constant Matrix: (Units=GPa)
#
#
# Indices 1 2 3 4 5 6 
#
# 1 26.7061 25.8870 26.1237 0.0000 -1.3736 0.0000
# 2 25.8870 97.0217 52.9883 0.0000 -7.9830 0.0000
# 3 26.1237 52.9883 97.7290 0.0000 -8.1193 0.0000
# 4 0.0000 0.0000 0.0000 35.1357 0.0000 -1.9318
# 5 -1.3736 -7.9830 -8.1193 0.0000 19.2181 0.0000
# 6 0.0000 0.0000 0.0000 -1.9318 0.0000 26.8049
#
#
#
# Elastic Compliance Matrix: (Units=1/GPa)
#
#
# Indices 1 2 3 4 5 6 
#
# 1 0.056811 -0.009981 -0.010137 0.000000 -0.004368 0.000000
# 2 -0.009981 0.016546 -0.006002 0.000000 0.003624 0.000000
# 3 -0.010137 -0.006002 0.016509 0.000000 0.003757 0.000000
# 4 0.000000 0.000000 0.000000 0.028574 0.000000 0.002059
# 5 -0.004368 0.003624 0.003757 0.000000 0.054815 0.000000
# 6 0.000000 0.000000 0.000000 0.002059 0.000000 0.037455
#
#
# Mechanical properties :
#
#
# Convention : Reuss Voigt Hill
#
# Bulk Modulus (GPa) = 26.57819 47.93943 37.25881
# Shear Modulus (GPa) = 18.14929 23.99560 21.07244
#
# Velocity S-wave (km/s) = 3.21214 3.69344 3.46117
# Velocity P-wave (km/s) = 5.37279 6.74108 6.09545
#
# Compressibility (1/GPa) = 0.03762484
#
# Stress axis : x y z
#
# Youngs Moduli (GPa) = 17.60222 60.43601 60.57413
#
# Poissons Ratio (x) = 0.60322 0.61406
# Poissons Ratio (y) = 0.17569 0.36358
# Poissons Ratio (z) = 0.17844 0.36276
#
# Static dielectric constant tensor:
#      x y z
#    x 3.112770 0.000000 -0.024090 
#    y 0.000000 3.332050 0.000000 
#    z -0.024090 0.000000 3.124310 
# 
# 
# High freq. dielectric constant tensor:
#      x y z
#    x 1.661900 0.000000 -0.004450 
#    y 0.000000 1.697250 0.000000 
#    z -0.004450 0.000000 1.673600 
# 
# From -- ./inp_files/248236.got.cif
#   From: 2010.06.25/outbox.cif.g09.slc.cpg/sg12_125_cif.got.tgz:248236.got - 2010.06.28 00:19:55.
