data_PCOD8088446
_publ_section_title
;
Structure prediction by ZEFSAII (Michael W. Deem and Ramdas Pophale) SiO2 
 PCOD8088446
Probable space group: C 2/M
;
_chemical_formula_sum "Si O2"
_cell_formula_units_Z 64
_cell_length_a 23.582337
_cell_length_b 10.245892
_cell_length_c 13.872506
_cell_angle_alpha 90.000000
_cell_angle_beta 81.588523
_cell_angle_gamma 90.000000
_cell_volume 3315.847470
_symmetry_space_group_name_H-M "C 2/M"
_symmetry_group_IT_number 12
_symmetry_cell_setting 'monoclinic'
loop_
_space_group_symop_operation_xyz
x,y,z
-x,y,-z
-x,-y,-z
x,-y,z
1/2+x,1/2+y,z
1/2-x,1/2+y,-z
1/2-x,1/2-y,-z
1/2+x,1/2-y,z
loop_
_atom_site_type_symbol
_atom_site_label
_atom_site_fract_x
_atom_site_fract_y
_atom_site_fract_z
Si Si1 0.809598 0.147431 0.087595
Si Si2 0.144260 0.149289 0.117741
Si Si3 0.325943 0.856559 0.354682
Si Si4 0.724501 0.730340 0.257890
Si Si5 0.347065 0.146304 0.564733
Si Si6 0.600202 0.650176 0.775813
Si Si7 0.944947 0.850226 0.579174
Si Si8 0.473112 0.654400 0.784584
O O1 0.759561 0.212352 0.160171
O O2 0.869835 0.158972 0.128470
O O3 0.789417 0.000000 0.079369
O O4 0.819920 0.215270 0.979635
O O5 0.173722 0.153383 0.216119
O O6 0.080399 0.213090 0.140770
O O7 0.137197 0.000000 0.088385
O O8 0.265498 0.858569 0.313002
O O9 0.313923 0.837425 0.471295
O O10 0.367665 0.741809 0.308787
O O11 0.353869 0.000000 0.329569
O O12 0.697405 0.837671 0.335876
O O13 0.395719 0.255699 0.553111
O O14 0.373118 0.000000 0.566772
O O15 0.601441 0.500000 0.736245
O O16 0.535137 0.701415 0.806734
O O17 0.965107 0.799352 0.677550
O O18 0.000000 0.837151 0.500000
O O19 0.922164 0.000000 0.586130
O O20 0.469585 0.500000 0.791069
#
# Coordination Sequence:
#
# PCOD8088446 Si02
#       8
#     8   8   8   8   8   8   8   8
#     4   9  19  33  52  80 108 139 180 230 280 323
#     4  10  19  32  53  81 109 137 181 234 277 321
#     4  10  22  37  55  81 111 146 187 226 272 327
#     4  11  20  36  55  75 108 150 186 223 271 331
#     4  11  23  37  54  80 114 146 183 230 277 327
#     4   9  18  35  58  82 111 145 180 223 276 327
#     4  10  20  35  56  81 110 146 187 227 269 325
#     4   9  17  31  52  80 109 139 179 225 269 323
#
# _framework density 19.301248000000001
#
# number of rings (size 3 to 8) (size 9 to 14) (size 15 to 20)
#    0.000    2.125    1.250    2.250    0.000    3.250 
#    0.000    3.125    0.000    0.750    0.000    3.500 
#    0.000    0.000    0.000    0.000    0.000    0.000 
#
# Total GULP energy -396529.902610 kJ/mol
# GULP energy per Si atom -12391.559457 kJ/mol
# Density = 1.925732 g / cm^3
# Si number density = 19.301248 Si / 1000 Ang^3
#
#
#
# Elastic Constant Matrix: (Units=GPa)
#
#
# Indices 1 2 3 4 5 6 
#
# 1 97.7882 29.1023 30.6155 0.0000 -6.4896 0.0000
# 2 29.1023 76.1719 32.4031 0.0000 -2.9562 0.0000
# 3 30.6155 32.4031 116.6021 0.0000 -4.8629 0.0000
# 4 0.0000 0.0000 0.0000 35.8003 0.0000 2.7929
# 5 -6.4896 -2.9562 -4.8629 0.0000 28.3685 0.0000
# 6 0.0000 0.0000 0.0000 2.7929 0.0000 20.6561
#
#
#
# Elastic Compliance Matrix: (Units=1/GPa)
#
#
# Indices 1 2 3 4 5 6 
#
# 1 0.012100 -0.003662 -0.002075 0.000000 0.002031 0.000000
# 2 -0.003662 0.016017 -0.003480 0.000000 0.000235 0.000000
# 3 -0.002075 -0.003480 0.010125 0.000000 0.000898 0.000000
# 4 0.000000 0.000000 0.000000 0.028231 0.000000 -0.003817
# 5 0.002031 0.000235 0.000898 0.000000 0.035893 0.000000
# 6 0.000000 0.000000 0.000000 -0.003817 0.000000 0.048928
#
#
# Mechanical properties :
#
#
# Convention : Reuss Voigt Hill
#
# Bulk Modulus (GPa) = 50.47983 52.75600 51.61791
# Shear Modulus (GPa) = 28.35598 30.19441 29.27519
#
# Velocity S-wave (km/s) = 3.83708 3.95951 3.89877
# Velocity P-wave (km/s) = 6.77062 6.94953 6.86066
#
# Compressibility (1/GPa) = 0.01980989
#
# Stress axis : x y z
#
# Youngs Moduli (GPa) = 82.64284 62.43559 98.76140
#
# Poissons Ratio (x) = 0.22861 0.20492
# Poissons Ratio (y) = 0.30260 0.34366
# Poissons Ratio (z) = 0.17147 0.21726
#
# Static dielectric constant tensor:
#      x y z
#    x 3.690400 0.000000 -0.031990 
#    y 0.000000 3.270630 0.000000 
#    z -0.031990 0.000000 3.760700 
# 
# 
# High freq. dielectric constant tensor:
#      x y z
#    x 1.754630 0.000000 0.001270 
#    y 0.000000 1.716470 0.000000 
#    z 0.001270 0.000000 1.764090 
# 
# From -- ./inp_files/239619.got.cif
#   From: 2010.06.25/outbox.cif.g09.slc.cpg/sg12_120_cif.got.tgz:239619.got - 2010.06.28 00:19:55.
