data_PCOD8088597
_publ_section_title
;
Structure prediction by ZEFSAII (Michael W. Deem and Ramdas Pophale) SiO2 
 PCOD8088597
Probable space group: C 2/M
;
_chemical_formula_sum "Si O2"
_cell_formula_units_Z 56
_cell_length_a 18.170528
_cell_length_b 13.848726
_cell_length_c 14.661076
_cell_angle_alpha 90.000000
_cell_angle_beta 127.532495
_cell_angle_gamma 90.000000
_cell_volume 2925.639157
_symmetry_space_group_name_H-M "C 2/M"
_symmetry_group_IT_number 12
_symmetry_cell_setting 'monoclinic'
loop_
_space_group_symop_operation_xyz
x,y,z
-x,y,-z
-x,-y,-z
x,-y,z
1/2+x,1/2+y,z
1/2-x,1/2+y,-z
1/2-x,1/2-y,-z
1/2+x,1/2-y,z
loop_
_atom_site_type_symbol
_atom_site_label
_atom_site_fract_x
_atom_site_fract_y
_atom_site_fract_z
Si Si1 0.400379 0.108744 0.394166
Si Si2 0.720529 0.387801 0.796187
Si Si3 0.716226 0.272558 0.615209
Si Si4 0.105426 0.229454 0.352275
Si Si5 0.435067 0.610764 0.169009
Si Si6 0.459011 0.108352 0.242002
Si Si7 0.340935 0.776833 0.015391
O O1 0.500000 0.150976 0.500000
O O2 0.318331 0.170026 0.374621
O O3 0.391161 0.112650 0.277926
O O4 0.389890 0.000000 0.423855
O O5 0.748577 0.500000 0.818309
O O6 0.697903 0.355352 0.676438
O O7 0.630944 0.370408 0.793005
O O8 0.809184 0.323066 0.895399
O O9 0.824578 0.257064 0.676205
O O10 0.661228 0.305006 0.483453
O O11 0.039193 0.140851 0.274018
O O12 0.047563 0.325713 0.329226
O O13 0.432633 0.500000 0.135535
O O14 0.401415 0.677588 0.057992
O O15 0.400674 0.141838 0.111266
O O16 0.495158 0.000000 0.252207
O O17 0.250000 0.750000 0.000000
#
# Coordination Sequence:
#
# PCOD8088597 Si02
#       7
#     8   8   8   8   8   8   8
#     4  10  19  32  54  80 104 134 178 229 271 313
#     4  10  21  36  57  85 111 141 184 229 273 325
#     4  11  22  36  54  77 113 149 182 223 272 325
#     4  10  22  36  53  78 109 151 184 219 274 327
#     4   9  19  36  58  82 109 142 182 227 273 328
#     4  10  19  34  57  81 107 140 182 228 275 323
#     4   9  17  33  57  83 111 141 176 226 278 327
#
# _framework density 19.141117999999999
#
# number of rings (size 3 to 8) (size 9 to 14) (size 15 to 20)
#    0.000    2.143    1.429    3.000    0.000    2.286 
#    0.000    7.857    0.000    5.143    0.000    0.000 
#    0.000    0.000    0.000    0.000    0.000    0.000 
#
# Total GULP energy -347135.770970 kJ/mol
# GULP energy per Si atom -12397.706106 kJ/mol
# Density = 1.909755 g / cm^3
# Si number density = 19.141118 Si / 1000 Ang^3
#
#
#
# Elastic Constant Matrix: (Units=GPa)
#
#
# Indices 1 2 3 4 5 6 
#
# 1 64.4416 27.6309 16.1048 0.0000 10.9760 0.0000
# 2 27.6309 118.6269 35.2153 0.0000 8.5968 0.0000
# 3 16.1048 35.2153 81.8175 0.0000 13.4475 0.0000
# 4 0.0000 0.0000 0.0000 23.7266 0.0000 2.7287
# 5 10.9760 8.5968 13.4475 0.0000 20.0603 0.0000
# 6 0.0000 0.0000 0.0000 2.7287 0.0000 16.4802
#
#
#
# Elastic Compliance Matrix: (Units=1/GPa)
#
#
# Indices 1 2 3 4 5 6 
#
# 1 0.018609 -0.003502 -0.000819 0.000000 -0.008132 0.000000
# 2 -0.003502 0.010365 -0.003772 0.000000 0.000003 0.000000
# 3 -0.000819 -0.003772 0.015360 0.000000 -0.008232 0.000000
# 4 0.000000 0.000000 0.000000 0.042965 0.000000 -0.007114
# 5 -0.008132 0.000003 -0.008232 0.000000 0.059816 0.000000
# 6 0.000000 0.000000 0.000000 -0.007114 0.000000 0.061857
#
#
# Mechanical properties :
#
#
# Convention : Reuss Voigt Hill
#
# Bulk Modulus (GPa) = 35.52708 46.97645 41.25177
# Shear Modulus (GPa) = 21.31809 24.44908 22.88359
#
# Velocity S-wave (km/s) = 3.34088 3.57782 3.46138
# Velocity P-wave (km/s) = 5.78644 6.45470 6.12969
#
# Compressibility (1/GPa) = 0.02814754
#
# Stress axis : x y z
#
# Youngs Moduli (GPa) = 53.73653 96.47708 65.10295
#
# Poissons Ratio (x) = 0.33787 0.05333
# Poissons Ratio (y) = 0.18819 0.24560
# Poissons Ratio (z) = 0.04402 0.36396
#
# Static dielectric constant tensor:
#      x y z
#    x 3.286580 0.000000 0.091560 
#    y 0.000000 3.605890 0.000000 
#    z 0.091560 0.000000 3.720910 
# 
# 
# High freq. dielectric constant tensor:
#      x y z
#    x 1.716950 0.000000 0.009160 
#    y 0.000000 1.749190 0.000000 
#    z 0.009160 0.000000 1.746870 
# 
# From -- ./inp_files/225379.got.cif
#   From: 2010.06.25/outbox.cif.g09.slc.cpg/sg12_113_cif.got.tgz:225379.got - 2010.06.28 00:19:55.
