data_PCOD8088607
_publ_section_title
;
Structure prediction by ZEFSAII (Michael W. Deem and Ramdas Pophale) SiO2 
 PCOD8088607
Probable space group: C 2/M
;
_chemical_formula_sum "Si O2"
_cell_formula_units_Z 56
_cell_length_a 14.423665
_cell_length_b 9.304905
_cell_length_c 24.998180
_cell_angle_alpha 90.000000
_cell_angle_beta 57.844131
_cell_angle_gamma 90.000000
_cell_volume 2840.376727
_symmetry_space_group_name_H-M "C 2/M"
_symmetry_group_IT_number 12
_symmetry_cell_setting 'monoclinic'
loop_
_space_group_symop_operation_xyz
x,y,z
-x,y,-z
-x,-y,-z
x,-y,z
1/2+x,1/2+y,z
1/2-x,1/2+y,-z
1/2-x,1/2-y,-z
1/2+x,1/2-y,z
loop_
_atom_site_type_symbol
_atom_site_label
_atom_site_fract_x
_atom_site_fract_y
_atom_site_fract_z
Si Si1 0.155311 0.667243 0.095420
Si Si2 0.919121 0.335155 0.683629
Si Si3 0.586742 0.159246 0.544975
Si Si4 0.204288 0.839469 0.691578
Si Si5 0.781291 0.840155 0.569216
Si Si6 0.539984 0.333506 0.223222
Si Si7 0.097161 0.833919 0.010032
O O1 0.124597 0.500000 0.105604
O O2 0.116637 0.741194 0.161443
O O3 0.092370 0.738783 0.064889
O O4 0.285797 0.690590 0.053763
O O5 0.953450 0.500000 0.687624
O O6 0.789817 0.323403 0.713537
O O7 0.949245 0.224734 0.720293
O O8 0.981271 0.284816 0.610369
O O9 0.690078 0.158736 0.552036
O O10 0.611345 0.256705 0.485496
O O11 0.563553 0.000000 0.530163
O O12 0.228439 0.729203 0.637423
O O13 0.086337 0.812227 0.754683
O O14 0.209244 0.000000 0.665209
O O15 0.819079 0.000000 0.572613
O O16 0.575791 0.500000 0.209979
O O17 0.081306 0.000000 0.031449
O O18 0.000000 0.784779 0.000000
#
# Coordination Sequence:
#
# PCOD8088607 Si02
#       7
#     8   8   8   8   8   8   8
#     4  10  21  37  60  88 118 154 189 226 272 323
#     4  10  21  39  59  79 105 144 191 233 278 336
#     4   9  18  33  54  77 103 139 180 227 284 342
#     4  10  22  38  57  79 107 145 187 231 282 336
#     4  10  19  32  54  80 106 138 179 230 284 339
#     4  11  23  39  58  82 115 151 187 232 278 325
#     4   9  19  38  63  90 120 152 188 229 270 316
#
# _framework density 19.715696000000001
#
# number of rings (size 3 to 8) (size 9 to 14) (size 15 to 20)
#    0.000    2.143    1.429    1.286    0.000    4.857 
#    0.000    8.571    0.000    0.000    0.000    0.000 
#    0.000    0.000    0.000    0.000    0.000    0.000 
#
# Total GULP energy -347241.051525 kJ/mol
# GULP energy per Si atom -12401.466126 kJ/mol
# Density = 1.967082 g / cm^3
# Si number density = 19.715696 Si / 1000 Ang^3
#
#
#
# Elastic Constant Matrix: (Units=GPa)
#
#
# Indices 1 2 3 4 5 6 
#
# 1 73.4677 29.9935 23.0262 0.0000 -7.8440 0.0000
# 2 29.9935 114.3867 50.5854 0.0000 -4.3207 0.0000
# 3 23.0262 50.5854 79.9673 0.0000 -10.2988 0.0000
# 4 0.0000 0.0000 0.0000 39.3924 0.0000 2.6234
# 5 -7.8440 -4.3207 -10.2988 0.0000 18.4805 0.0000
# 6 0.0000 0.0000 0.0000 2.6234 0.0000 17.3436
#
#
#
# Elastic Compliance Matrix: (Units=1/GPa)
#
#
# Indices 1 2 3 4 5 6 
#
# 1 0.016048 -0.003137 -0.001997 0.000000 0.004965 0.000000
# 2 -0.003137 0.012793 -0.007515 0.000000 -0.002528 0.000000
# 3 -0.001997 -0.007515 0.018851 0.000000 0.007901 0.000000
# 4 0.000000 0.000000 0.000000 0.025644 0.000000 -0.003879
# 5 0.004965 -0.002528 0.007901 0.000000 0.060031 0.000000
# 6 0.000000 0.000000 0.000000 -0.003879 0.000000 0.058245
#
#
# Mechanical properties :
#
#
# Convention : Reuss Voigt Hill
#
# Bulk Modulus (GPa) = 44.65410 52.78132 48.71771
# Shear Modulus (GPa) = 22.28424 25.99108 24.13766
#
# Velocity S-wave (km/s) = 3.36561 3.63477 3.50278
# Velocity P-wave (km/s) = 6.14828 6.66669 6.41272
#
# Compressibility (1/GPa) = 0.02239436
#
# Stress axis : x y z
#
# Youngs Moduli (GPa) = 62.31197 78.17025 53.04708
#
# Poissons Ratio (x) = 0.24525 0.10593
# Poissons Ratio (y) = 0.19550 0.39862
# Poissons Ratio (z) = 0.12443 0.58741
#
# Static dielectric constant tensor:
#      x y z
#    x 3.616970 0.000000 -0.202960 
#    y 0.000000 3.765280 0.000000 
#    z -0.202960 0.000000 3.466180 
# 
# 
# High freq. dielectric constant tensor:
#      x y z
#    x 1.768590 0.000000 -0.010250 
#    y 0.000000 1.772640 0.000000 
#    z -0.010250 0.000000 1.760200 
# 
# From -- ./inp_files/338497.got.cif
#   From: 2010.06.25/outbox.cif.g09.slc.cpg/sg12_170_cif.got.tgz:338497.got - 2010.06.28 00:19:55.
