data_PCOD8088508
_publ_section_title
;
Structure prediction by ZEFSAII (Michael W. Deem and Ramdas Pophale) SiO2 
 PCOD8088508
Probable space group: C 2/M
;
_chemical_formula_sum "Si O2"
_cell_formula_units_Z 64
_cell_length_a 12.765868
_cell_length_b 23.430075
_cell_length_c 12.442402
_cell_angle_alpha 90.000000
_cell_angle_beta 116.981575
_cell_angle_gamma 90.000000
_cell_volume 3316.502070
_symmetry_space_group_name_H-M "C 2/M"
_symmetry_group_IT_number 12
_symmetry_cell_setting 'monoclinic'
loop_
_space_group_symop_operation_xyz
x,y,z
-x,y,-z
-x,-y,-z
x,-y,z
1/2+x,1/2+y,z
1/2-x,1/2+y,-z
1/2-x,1/2-y,-z
1/2+x,1/2-y,z
loop_
_atom_site_type_symbol
_atom_site_label
_atom_site_fract_x
_atom_site_fract_y
_atom_site_fract_z
Si Si1 0.163309 0.433832 0.765077
Si Si2 0.902123 0.394899 0.699918
Si Si3 0.020590 0.168337 0.887305
Si Si4 0.011696 0.064306 0.271261
Si Si5 0.501123 0.205741 0.128465
Si Si6 0.267791 0.934752 0.443447
Si Si7 0.752917 0.563353 0.818026
Si Si8 0.224769 0.641174 0.978267
O O1 0.191250 0.500000 0.791192
O O2 0.194471 0.414631 0.658444
O O3 0.247657 0.400158 0.886881
O O4 0.029183 0.421296 0.736013
O O5 0.832610 0.391635 0.554999
O O6 0.825543 0.434865 0.741948
O O7 0.908168 0.333425 0.762247
O O8 0.965424 0.113488 0.804958
O O9 0.967029 0.229154 0.824149
O O10 0.159296 0.174448 0.933338
O O11 0.000000 0.157265 0.000000
O O12 0.886347 0.076617 0.270669
O O13 0.126991 0.068906 0.400392
O O14 0.010916 0.000000 0.219912
O O15 0.370456 0.187640 0.102460
O O16 0.500000 0.196913 0.000000
O O17 0.311278 0.000000 0.482734
O O18 0.763024 0.500000 0.870248
O O19 0.812457 0.604057 0.934755
#
# Coordination Sequence:
#
# PCOD8088508 Si02
#       8
#     8   8   8   8   8   8   8   8
#     4  10  20  32  52  82 115 146 179 223 278 330
#     4  11  21  34  54  79 113 148 187 224 268 324
#     4  10  20  34  56  79 107 142 182 221 274 323
#     4   9  20  36  55  81 110 141 182 228 272 326
#     4  10  20  36  52  78 108 142 183 224 270 324
#     4  10  20  36  55  78 111 147 186 227 272 324
#     4  10  19  32  53  83 115 146 181 223 275 325
#     4  10  19  33  53  80 109 144 178 224 269 327
#
# _framework density 19.297440999999999
#
# number of rings (size 3 to 8) (size 9 to 14) (size 15 to 20)
#    0.000    2.000    1.250    3.000    0.000    2.250 
#    0.000    4.375    0.000    0.000   13.000    0.000 
#    0.000    0.000    0.000    0.000    0.000    0.000 
#
# Total GULP energy -396531.356935 kJ/mol
# GULP energy per Si atom -12391.604904 kJ/mol
# Density = 1.925352 g / cm^3
# Si number density = 19.297441 Si / 1000 Ang^3
#
#
#
# Elastic Constant Matrix: (Units=GPa)
#
#
# Indices 1 2 3 4 5 6 
#
# 1 68.3690 18.9172 21.3613 0.0000 -0.8517 0.0000
# 2 18.9172 99.3982 43.6787 0.0000 3.3011 0.0000
# 3 21.3613 43.6787 91.2674 0.0000 -4.5023 0.0000
# 4 0.0000 0.0000 0.0000 28.5503 0.0000 -1.6642
# 5 -0.8517 3.3011 -4.5023 0.0000 26.9959 0.0000
# 6 0.0000 0.0000 0.0000 -1.6642 0.0000 19.8650
#
#
#
# Elastic Compliance Matrix: (Units=1/GPa)
#
#
# Indices 1 2 3 4 5 6 
#
# 1 0.016026 -0.001792 -0.002881 0.000000 0.000244 0.000000
# 2 -0.001792 0.013123 -0.005992 0.000000 -0.002661 0.000000
# 3 -0.002881 -0.005992 0.014651 0.000000 0.003085 0.000000
# 4 0.000000 0.000000 0.000000 0.035198 0.000000 0.002949
# 5 0.000244 -0.002661 0.003085 0.000000 0.037890 0.000000
# 6 0.000000 0.000000 0.000000 0.002949 0.000000 0.050587
#
#
# Mechanical properties :
#
#
# Convention : Reuss Voigt Hill
#
# Bulk Modulus (GPa) = 44.50579 47.43877 45.97228
# Shear Modulus (GPa) = 25.47182 26.75406 26.11294
#
# Velocity S-wave (km/s) = 3.63706 3.72749 3.68255
# Velocity P-wave (km/s) = 6.38363 6.56977 6.47737
#
# Compressibility (1/GPa) = 0.02246899
#
# Stress axis : x y z
#
# Youngs Moduli (GPa) = 62.40027 76.20115 68.25406
#
# Poissons Ratio (x) = 0.13655 0.19665
# Poissons Ratio (y) = 0.11182 0.40900
# Poissons Ratio (z) = 0.17978 0.45662
#
# Static dielectric constant tensor:
#      x y z
#    x 2.912380 0.000000 0.040210 
#    y 0.000000 3.515720 0.000000 
#    z 0.040210 0.000000 3.375660 
# 
# 
# High freq. dielectric constant tensor:
#      x y z
#    x 1.761070 0.000000 0.001710 
#    y 0.000000 1.741970 0.000000 
#    z 0.001710 0.000000 1.727590 
# 
# From -- ./inp_files/135980.got.cif
#   From: 2010.06.25/outbox.cif.g09.slc.cpg/sg12_68_cif.got.tgz:135980.got - 2010.06.28 00:19:55.
