data_PCOD8088157
_publ_section_title
;
Structure prediction by ZEFSAII (Michael W. Deem and Ramdas Pophale) SiO2 
 PCOD8088157
Probable space group: C 2/M
;
_chemical_formula_sum "Si O2"
_cell_formula_units_Z 64
_cell_length_a 20.568936
_cell_length_b 9.040149
_cell_length_c 20.097834
_cell_angle_alpha 90.000000
_cell_angle_beta 66.932106
_cell_angle_gamma 90.000000
_cell_volume 3438.301420
_symmetry_space_group_name_H-M "C 2/M"
_symmetry_group_IT_number 12
_symmetry_cell_setting 'monoclinic'
loop_
_space_group_symop_operation_xyz
x,y,z
-x,y,-z
-x,-y,-z
x,-y,z
1/2+x,1/2+y,z
1/2-x,1/2+y,-z
1/2-x,1/2-y,-z
1/2+x,1/2-y,z
loop_
_atom_site_type_symbol
_atom_site_label
_atom_site_fract_x
_atom_site_fract_y
_atom_site_fract_z
Si Si1 0.208524 0.324497 0.290463
Si Si2 0.582034 0.671195 0.970742
Si Si3 0.650495 0.827900 0.574616
Si Si4 0.324820 0.175690 0.958211
Si Si5 0.133106 0.171834 0.803521
Si Si6 0.043984 0.324914 0.729622
Si Si7 0.114972 0.675423 0.206314
Si Si8 0.696482 0.672376 0.430505
O O1 0.203472 0.500000 0.299153
O O2 0.288596 0.272449 0.245731
O O3 0.161665 0.263766 0.248360
O O4 0.177674 0.251886 0.369313
O O5 0.591659 0.500000 0.987232
O O6 0.619450 0.704739 0.886014
O O7 0.500000 0.714014 0.000000
O O8 0.618361 0.774231 0.010439
O O9 0.586968 0.774070 0.647165
O O10 0.645752 0.736222 0.508322
O O11 0.722606 0.791761 0.584318
O O12 0.645245 0.000000 0.558679
O O13 0.352012 0.231549 0.875805
O O14 0.316236 0.000000 0.964319
O O15 0.250000 0.250000 0.000000
O O16 0.076404 0.259589 0.783482
O O17 0.124041 0.000000 0.790831
O O18 0.046940 0.500000 0.735774
O O19 0.964613 0.264251 0.754050
O O20 0.114647 0.500000 0.207690
O O21 0.681806 0.500000 0.428946
#
# Coordination Sequence:
#
# PCOD8088157 Si02
#       8
#     8   8   8   8   8   8   8   8
#     4  10  19  34  54  76 104 140 179 216 262 317
#     4  10  21  37  56  81 114 147 182 228 281 336
#     4   9  18  32  52  79 108 138 172 215 265 317
#     4  11  22  38  59  82 110 147 191 233 278 332
#     4  10  20  33  53  79 108 141 176 219 270 324
#     4  10  19  35  57  81 108 138 179 226 267 315
#     4   9  20  37  57  79 107 143 180 222 270 322
#     4  10  19  32  52  80 109 136 174 221 263 307
#
# _framework density 18.613842000000002
#
# number of rings (size 3 to 8) (size 9 to 14) (size 15 to 20)
#    0.000    2.125    1.250    2.250    0.000    3.750 
#    0.000    4.375    0.000    3.750    0.000    0.000 
#    0.000    0.000    0.000    0.000    0.000    0.000 
#
# Total GULP energy -396915.904737 kJ/mol
# GULP energy per Si atom -12403.622023 kJ/mol
# Density = 1.857148 g / cm^3
# Si number density = 18.613842 Si / 1000 Ang^3
#
#
#
# Elastic Constant Matrix: (Units=GPa)
#
#
# Indices 1 2 3 4 5 6 
#
# 1 115.5458 35.4632 62.9225 0.0000 7.1355 -0.0001
# 2 35.4632 48.3422 42.7575 -0.0002 6.1428 -0.0004
# 3 62.9225 42.7575 140.7381 0.0000 7.5509 0.0000
# 4 0.0000 -0.0002 0.0000 23.1806 0.0000 2.8065
# 5 7.1355 6.1428 7.5509 0.0000 30.6772 0.0000
# 6 -0.0001 -0.0004 0.0000 2.8065 0.0000 27.3635
#
#
#
# Elastic Compliance Matrix: (Units=1/GPa)
#
#
# Indices 1 2 3 4 5 6 
#
# 1 0.012543 -0.005709 -0.003829 0.000000 -0.000832 0.000000
# 2 -0.005709 0.031283 -0.006776 0.000000 -0.003268 0.000000
# 3 -0.003829 -0.006776 0.010899 0.000000 -0.000435 0.000000
# 4 0.000000 0.000000 0.000000 0.043682 0.000000 -0.004480
# 5 -0.000832 -0.003268 -0.000435 0.000000 0.033553 0.000000
# 6 0.000000 0.000000 0.000000 -0.004480 0.000000 0.037004
#
#
# Mechanical properties :
#
#
# Convention : Reuss Voigt Hill
#
# Bulk Modulus (GPa) = 45.25549 65.21250 55.23400
# Shear Modulus (GPa) = 23.92824 27.14313 25.53568
#
# Velocity S-wave (km/s) = 3.58929 3.82281 3.70789
# Velocity P-wave (km/s) = 6.44538 7.38889 6.93320
#
# Compressibility (1/GPa) = 0.02209677
#
# Stress axis : x y z
#
# Youngs Moduli (GPa) = 79.72380 31.96656 91.75021
#
# Poissons Ratio (x) = 0.18251 0.35129
# Poissons Ratio (y) = 0.45518 0.62170
# Poissons Ratio (z) = 0.30524 0.21661
#
# Static dielectric constant tensor:
#      x y z
#    x 3.342710 0.000000 -0.044040 
#    y 0.000000 3.230330 0.000000 
#    z -0.044040 0.000000 3.614180 
# 
# 
# High freq. dielectric constant tensor:
#      x y z
#    x 1.716550 0.000000 0.000830 
#    y 0.000000 1.705840 0.000000 
#    z 0.000830 0.000000 1.739440 
# 
# From -- ./inp_files/319944.got.cif
#   From: 2010.06.25/outbox.cif.g09.slc.cpg/sg12_160_cif.got.tgz:319944.got - 2010.06.28 00:19:55.
