data_PCOD8088022
_publ_section_title
;
Structure prediction by ZEFSAII (Michael W. Deem and Ramdas Pophale) SiO2 
 PCOD8088022
Probable space group: C 2/M
;
_chemical_formula_sum "Si O2"
_cell_formula_units_Z 64
_cell_length_a 28.132800
_cell_length_b 9.481010
_cell_length_c 14.174558
_cell_angle_alpha 90.000000
_cell_angle_beta 93.143692
_cell_angle_gamma 90.000000
_cell_volume 3775.052924
_symmetry_space_group_name_H-M "C 2/M"
_symmetry_group_IT_number 12
_symmetry_cell_setting 'monoclinic'
loop_
_space_group_symop_operation_xyz
x,y,z
-x,y,-z
-x,-y,-z
x,-y,z
1/2+x,1/2+y,z
1/2-x,1/2+y,-z
1/2-x,1/2-y,-z
1/2+x,1/2-y,z
loop_
_atom_site_type_symbol
_atom_site_label
_atom_site_fract_x
_atom_site_fract_y
_atom_site_fract_z
Si Si1 0.517521 0.338243 0.396454
Si Si2 0.204147 0.162970 0.024895
Si Si3 0.160767 0.161344 0.829534
Si Si4 0.173371 0.836051 0.228344
Si Si5 0.582946 0.661869 0.679803
Si Si6 0.275958 0.162226 0.297054
Si Si7 0.854117 0.338757 0.446983
Si Si8 0.891319 0.335458 0.649532
O O1 0.500000 0.305506 0.500000
O O2 0.535630 0.500000 0.390798
O O3 0.473445 0.310130 0.319951
O O4 0.558111 0.230826 0.370644
O O5 0.162506 0.186053 0.942270
O O6 0.219635 0.000000 0.033292
O O7 0.250000 0.250000 0.000000
O O8 0.183440 0.213418 0.122540
O O9 0.108829 0.203125 0.781536
O O10 0.202245 0.251203 0.786566
O O11 0.172291 0.000000 0.806138
O O12 0.219902 0.805695 0.297849
O O13 0.130178 0.742270 0.261971
O O14 0.158583 0.000000 0.230938
O O15 0.592300 0.500000 0.654698
O O16 0.604653 0.748000 0.595762
O O17 0.302185 0.201422 0.398530
O O18 0.283984 0.000000 0.271240
O O19 0.866538 0.500000 0.425354
O O20 0.854639 0.311861 0.558844
O O21 0.898456 0.500000 0.673138
#
# Coordination Sequence:
#
# PCOD8088022 Si02
#       8
#     8   8   8   8   8   8   8   8
#     4  10  19  33  54  76  99 129 166 205 249 301
#     4  10  19  32  52  77 102 131 166 206 248 292
#     4   9  17  29  49  77 104 126 158 205 248 289
#     4  10  21  35  50  70 100 137 172 204 244 295
#     4   9  17  30  50  76 101 127 160 200 247 297
#     4   9  17  31  49  70  99 134 168 198 239 295
#     4   9  18  31  47  70 101 133 164 201 243 290
#     4  11  23  35  49  72 102 134 170 210 251 291
#
# _framework density 16.953403999999999
#
# number of rings (size 3 to 8) (size 9 to 14) (size 15 to 20)
#    0.000    2.375    2.500    0.375    0.000    2.750 
#    0.000    0.000    0.000    0.750    0.000    5.250 
#    0.000    0.000    0.000    0.000    0.000    0.000 
#
# Total GULP energy -396696.021888 kJ/mol
# GULP energy per Si atom -12396.750684 kJ/mol
# Density = 1.691482 g / cm^3
# Si number density = 16.953404 Si / 1000 Ang^3
#
#
#
# Elastic Constant Matrix: (Units=GPa)
#
#
# Indices 1 2 3 4 5 6 
#
# 1 85.7021 47.0291 51.2451 0.0000 -3.7718 0.0000
# 2 47.0291 70.5210 47.2248 0.0000 -9.9609 0.0000
# 3 51.2451 47.2248 97.1821 0.0000 -4.8765 0.0000
# 4 0.0000 0.0000 0.0000 21.7639 0.0000 -4.6539
# 5 -3.7718 -9.9609 -4.8765 0.0000 22.8309 0.0000
# 6 0.0000 0.0000 0.0000 -4.6539 0.0000 27.0223
#
#
#
# Elastic Compliance Matrix: (Units=1/GPa)
#
#
# Indices 1 2 3 4 5 6 
#
# 1 0.020775 -0.010024 -0.006197 0.000000 -0.002265 0.000000
# 2 -0.010024 0.027049 -0.007429 0.000000 0.008558 0.000000
# 3 -0.006197 -0.007429 0.017137 0.000000 -0.000604 0.000000
# 4 0.000000 0.000000 0.000000 0.047705 0.000000 0.008216
# 5 -0.002265 0.008558 -0.000604 0.000000 0.047031 0.000000
# 6 0.000000 0.000000 0.000000 0.008216 0.000000 0.038421
#
#
# Mechanical properties :
#
#
# Convention : Reuss Voigt Hill
#
# Bulk Modulus (GPa) = 56.62349 60.48924 58.55636
# Shear Modulus (GPa) = 19.89604 21.51716 20.70660
#
# Velocity S-wave (km/s) = 3.42946 3.56644 3.49862
# Velocity P-wave (km/s) = 7.01096 7.26061 7.13688
#
# Compressibility (1/GPa) = 0.01766052
#
# Stress axis : x y z
#
# Youngs Moduli (GPa) = 48.13425 36.97023 58.35177
#
# Poissons Ratio (x) = 0.37061 0.36163
# Poissons Ratio (y) = 0.48252 0.43348
# Poissons Ratio (z) = 0.29831 0.27464
#
# Static dielectric constant tensor:
#      x y z
#    x 3.212680 0.000000 0.390180 
#    y 0.000000 3.211900 0.000000 
#    z 0.390180 0.000000 3.209860 
# 
# 
# High freq. dielectric constant tensor:
#      x y z
#    x 1.642630 0.000000 0.024390 
#    y 0.000000 1.657120 0.000000 
#    z 0.024390 0.000000 1.638520 
# 
# From -- ./inp_files/243970.got.cif
#   From: 2010.06.25/outbox.cif.g09.slc.cpg/sg12_122_cif.got.tgz:243970.got - 2010.06.28 00:19:55.
