data_PCOD8088622
_publ_section_title
;
Structure prediction by ZEFSAII (Michael W. Deem and Ramdas Pophale) SiO2 
 PCOD8088622
Probable space group: C 2/M
;
_chemical_formula_sum "Si O2"
_cell_formula_units_Z 64
_cell_length_a 20.198879
_cell_length_b 9.283957
_cell_length_c 23.128216
_cell_angle_alpha 90.000000
_cell_angle_beta 122.773992
_cell_angle_gamma 90.000000
_cell_volume 3646.713431
_symmetry_space_group_name_H-M "C 2/M"
_symmetry_group_IT_number 12
_symmetry_cell_setting 'monoclinic'
loop_
_space_group_symop_operation_xyz
x,y,z
-x,y,-z
-x,-y,-z
x,-y,z
1/2+x,1/2+y,z
1/2-x,1/2+y,-z
1/2-x,1/2-y,-z
1/2+x,1/2-y,z
loop_
_atom_site_type_symbol
_atom_site_label
_atom_site_fract_x
_atom_site_fract_y
_atom_site_fract_z
Si Si1 0.520961 0.829480 0.918509
Si Si2 0.977905 0.163942 0.665341
Si Si3 0.378379 0.170691 0.927707
Si Si4 0.090635 0.663758 0.538344
Si Si5 0.671424 0.333482 0.476452
Si Si6 0.293837 0.669532 0.183907
Si Si7 0.116625 0.335061 0.680639
Si Si8 0.444224 0.335349 0.180812
O O1 0.435890 0.779290 0.902863
O O2 0.536020 0.763327 0.863561
O O3 0.523986 0.000000 0.913418
O O4 0.588049 0.774428 0.994902
O O5 0.887274 0.188137 0.605604
O O6 0.030583 0.270537 0.652372
O O7 0.989804 0.194322 0.739048
O O8 0.005014 0.000000 0.664585
O O9 0.290470 0.230992 0.876682
O O10 0.377053 0.000000 0.928628
O O11 0.097234 0.500000 0.517855
O O12 0.133429 0.773536 0.516592
O O13 0.133191 0.676610 0.620397
O O14 0.000000 0.709759 0.500000
O O15 0.691322 0.500000 0.495626
O O16 0.750000 0.250000 0.500000
O O17 0.290931 0.500000 0.195275
O O18 0.315762 0.748317 0.253828
O O19 0.358372 0.705388 0.165487
O O20 0.117171 0.500000 0.701762
O O21 0.445578 0.500000 0.160833
#
# Coordination Sequence:
#
# PCOD8088622 Si02
#       8
#     8   8   8   8   8   8   8   8
#     4   9  17  32  54  76  98 131 173 210 249 300
#     4   9  19  36  55  74 103 143 175 207 259 318
#     4   8  16  33  54  73  99 135 170 208 252 299
#     4  10  20  36  57  80 107 139 174 219 270 315
#     4  11  23  38  57  79 107 142 180 221 265 315
#     4   9  18  34  53  72 103 139 171 208 254 307
#     4  10  19  32  54  81 106 133 171 220 265 304
#     4   9  18  32  50  74 102 133 165 203 255 306
#
# _framework density 17.550049000000001
#
# number of rings (size 3 to 8) (size 9 to 14) (size 15 to 20)
#    0.000    2.625    1.250    2.250    0.000    4.250 
#    2.250    2.500    0.000    0.000    0.000    0.000 
#    0.000    0.000    0.000    0.000    0.000    0.000 
#
# Total GULP energy -396767.426000 kJ/mol
# GULP energy per Si atom -12398.982063 kJ/mol
# Density = 1.751010 g / cm^3
# Si number density = 17.550049 Si / 1000 Ang^3
#
#
#
# Elastic Constant Matrix: (Units=GPa)
#
#
# Indices 1 2 3 4 5 6 
#
# 1 112.6108 57.0500 79.2513 0.0000 6.5119 0.0000
# 2 57.0500 78.9803 54.1848 0.0000 -1.0709 0.0000
# 3 79.2513 54.1848 124.2624 0.0000 3.2157 0.0000
# 4 0.0000 0.0000 0.0000 27.1003 0.0000 -5.7563
# 5 6.5119 -1.0709 3.2157 0.0000 29.0525 0.0000
# 6 0.0000 0.0000 0.0000 -5.7563 0.0000 28.7561
#
#
#
# Elastic Compliance Matrix: (Units=1/GPa)
#
#
# Indices 1 2 3 4 5 6 
#
# 1 0.019271 -0.007994 -0.008710 0.000000 -0.003650 0.000000
# 2 -0.007994 0.021451 -0.004335 0.000000 0.003062 0.000000
# 3 -0.008710 -0.004335 0.015491 0.000000 0.000078 0.000000
# 4 0.000000 0.000000 0.000000 0.038539 0.000000 0.007715
# 5 -0.003650 0.003062 0.000078 0.000000 0.035343 0.000000
# 6 0.000000 0.000000 0.000000 0.007715 0.000000 0.036319
#
#
# Mechanical properties :
#
#
# Convention : Reuss Voigt Hill
#
# Bulk Modulus (GPa) = 70.74618 77.42509 74.08563
# Shear Modulus (GPa) = 23.45181 25.33960 24.39571
#
# Velocity S-wave (km/s) = 3.65948 3.80392 3.73240
# Velocity P-wave (km/s) = 7.63246 7.96904 7.80256
#
# Compressibility (1/GPa) = 0.01413504
#
# Stress axis : x y z
#
# Youngs Moduli (GPa) = 51.89151 46.61803 64.55397
#
# Poissons Ratio (x) = 0.37265 0.56229
# Poissons Ratio (y) = 0.41481 0.27983
# Poissons Ratio (z) = 0.45200 0.20208
#
# Static dielectric constant tensor:
#      x y z
#    x 4.683800 0.000000 0.321720 
#    y 0.000000 3.159980 0.000000 
#    z 0.321720 0.000000 3.504470 
# 
# 
# High freq. dielectric constant tensor:
#      x y z
#    x 1.664250 0.000000 0.003970 
#    y 0.000000 1.669280 0.000000 
#    z 0.003970 0.000000 1.686970 
# 
# From -- ./inp_files/345621.got.cif
#   From: 2010.06.25/outbox.cif.g09.slc.cpg/sg12_173_cif.got.tgz:345621.got - 2010.06.28 00:19:55.
