data_PCOD8088818
_publ_section_title
;
Structure prediction by ZEFSAII (Michael W. Deem and Ramdas Pophale) SiO2 
 PCOD8088818
Probable space group: C 2/M
;
_chemical_formula_sum "Si O2"
_cell_formula_units_Z 64
_cell_length_a 15.498360
_cell_length_b 9.245087
_cell_length_c 23.548909
_cell_angle_alpha 90.000000
_cell_angle_beta 90.617549
_cell_angle_gamma 90.000000
_cell_volume 3373.978507
_symmetry_space_group_name_H-M "C 2/M"
_symmetry_group_IT_number 12
_symmetry_cell_setting 'monoclinic'
loop_
_space_group_symop_operation_xyz
x,y,z
-x,y,-z
-x,-y,-z
x,-y,z
1/2+x,1/2+y,z
1/2-x,1/2+y,-z
1/2-x,1/2-y,-z
1/2+x,1/2-y,z
loop_
_atom_site_type_symbol
_atom_site_label
_atom_site_fract_x
_atom_site_fract_y
_atom_site_fract_z
Si Si1 0.158841 0.332668 0.865880
Si Si2 0.745748 0.169341 0.558919
Si Si3 0.425475 0.165365 0.375808
Si Si4 0.502476 0.172218 0.064262
Si Si5 0.337287 0.831800 0.735515
Si Si6 0.666482 0.168601 0.134314
Si Si7 0.909707 0.829595 0.635069
Si Si8 0.667369 0.836648 0.737034
O O1 0.174878 0.500000 0.879911
O O2 0.246302 0.250108 0.881980
O O3 0.131559 0.310324 0.800040
O O4 0.081386 0.268223 0.903248
O O5 0.750000 0.250000 0.500000
O O6 0.659186 0.215932 0.590921
O O7 0.827375 0.215250 0.597298
O O8 0.747296 0.000000 0.546924
O O9 0.504760 0.267132 0.394798
O O10 0.409726 0.183735 0.308137
O O11 0.448698 0.000000 0.390814
O O12 0.589615 0.229440 0.094529
O O13 0.501862 0.000000 0.066799
O O14 0.500000 0.230349 0.000000
O O15 0.361041 0.801490 0.801042
O O16 0.403429 0.743939 0.696845
O O17 0.240985 0.777394 0.722434
O O18 0.343441 0.000000 0.720136
O O19 0.683454 0.000000 0.124153
O O20 0.918420 0.000000 0.642439
O O21 0.705785 0.000000 0.731466
#
# Coordination Sequence:
#
# PCOD8088818 Si02
#       8
#     8   8   8   8   8   8   8   8
#     4   9  18  32  54  79 105 143 184 224 274 328
#     4  10  23  43  63  82 113 151 188 228 275 325
#     4  10  21  38  59  85 115 150 187 228 277 329
#     4   9  18  33  53  77 106 145 190 226 266 330
#     4  10  19  32  55  83 113 146 185 228 279 336
#     4   9  19  34  53  78 109 142 181 230 277 324
#     4  11  23  39  58  86 118 149 185 229 279 329
#     4   9  17  33  56  79 113 147 181 228 279 331
#
# _framework density 18.968703999999999
#
# number of rings (size 3 to 8) (size 9 to 14) (size 15 to 20)
#    0.000    2.375    1.250    0.750    1.750    3.500 
#    0.000    3.125    0.000    0.750    0.000    0.000 
#    0.000    0.000    0.000    0.000    0.000    0.000 
#
# Total GULP energy -396843.165954 kJ/mol
# GULP energy per Si atom -12401.348936 kJ/mol
# Density = 1.892553 g / cm^3
# Si number density = 18.968704 Si / 1000 Ang^3
#
#
#
# Elastic Constant Matrix: (Units=GPa)
#
#
# Indices 1 2 3 4 5 6 
#
# 1 156.7398 57.9976 75.8482 0.0000 -10.7848 0.0000
# 2 57.9976 63.0462 45.1130 0.0000 -1.6778 0.0000
# 3 75.8482 45.1130 115.9162 0.0000 -9.2221 0.0000
# 4 0.0000 0.0000 0.0000 22.4549 0.0000 -1.5007
# 5 -10.7848 -1.6778 -9.2221 0.0000 22.2319 0.0000
# 6 0.0000 0.0000 0.0000 -1.5007 0.0000 34.1859
#
#
#
# Elastic Compliance Matrix: (Units=1/GPa)
#
#
# Indices 1 2 3 4 5 6 
#
# 1 0.011412 -0.007277 -0.004383 0.000000 0.003169 0.000000
# 2 -0.007277 0.026707 -0.005949 0.000000 -0.003982 0.000000
# 3 -0.004383 -0.005949 0.014069 0.000000 0.003261 0.000000
# 4 0.000000 0.000000 0.000000 0.044665 0.000000 0.001961
# 5 0.003169 -0.003982 0.003261 0.000000 0.047570 0.000000
# 6 0.000000 0.000000 0.000000 0.001961 0.000000 0.029338
#
#
# Mechanical properties :
#
#
# Convention : Reuss Voigt Hill
#
# Bulk Modulus (GPa) = 58.92819 77.06885 67.99852
# Shear Modulus (GPa) = 23.29537 26.22411 24.75974
#
# Velocity S-wave (km/s) = 3.50822 3.72222 3.61680
# Velocity P-wave (km/s) = 6.89519 7.69356 7.30529
#
# Compressibility (1/GPa) = 0.01696981
#
# Stress axis : x y z
#
# Youngs Moduli (GPa) = 87.62928 37.44364 71.07653
#
# Poissons Ratio (x) = 0.27250 0.31151
# Poissons Ratio (y) = 0.63772 0.42282
# Poissons Ratio (z) = 0.38405 0.22275
#
# Static dielectric constant tensor:
#      x y z
#    x 3.475850 0.000000 -0.024770 
#    y 0.000000 3.314810 0.000000 
#    z -0.024770 0.000000 3.525870 
# 
# 
# High freq. dielectric constant tensor:
#      x y z
#    x 1.739790 0.000000 -0.003000 
#    y 0.000000 1.718800 0.000000 
#    z -0.003000 0.000000 1.735990 
# 
# From -- ./inp_files/338755.got.cif
#   From: 2010.06.25/outbox.cif.g09.slc.cpg/sg12_170_cif.got.tgz:338755.got - 2010.06.28 00:19:55.
