data_PCOD8088100
_publ_section_title
;
Structure prediction by ZEFSAII (Michael W. Deem and Ramdas Pophale) SiO2 
 PCOD8088100
Probable space group: C 2/M
;
_chemical_formula_sum "Si O2"
_cell_formula_units_Z 56
_cell_length_a 27.503069
_cell_length_b 10.474433
_cell_length_c 12.893625
_cell_angle_alpha 90.000000
_cell_angle_beta 52.632339
_cell_angle_gamma 90.000000
_cell_volume 2952.033270
_symmetry_space_group_name_H-M "C 2/M"
_symmetry_group_IT_number 12
_symmetry_cell_setting 'monoclinic'
loop_
_space_group_symop_operation_xyz
x,y,z
-x,y,-z
-x,-y,-z
x,-y,z
1/2+x,1/2+y,z
1/2-x,1/2+y,-z
1/2-x,1/2-y,-z
1/2+x,1/2-y,z
loop_
_atom_site_type_symbol
_atom_site_label
_atom_site_fract_x
_atom_site_fract_y
_atom_site_fract_z
Si Si1 0.021202 0.145883 0.226477
Si Si2 0.322913 0.233626 0.151502
Si Si3 0.804983 0.145587 0.738679
Si Si4 0.547452 0.861260 0.030329
Si Si5 0.890090 0.148339 0.454262
Si Si6 0.200887 0.147622 0.604297
Si Si7 0.154605 0.855905 0.099630
O O1 0.029838 0.240625 0.120601
O O2 0.081704 0.152901 0.218945
O O3 0.960934 0.192103 0.366672
O O4 0.011851 0.000000 0.197101
O O5 0.262547 0.147363 0.222380
O O6 0.313163 0.336995 0.255325
O O7 0.382891 0.151735 0.101366
O O8 0.329787 0.292289 0.028917
O O9 0.851191 0.214956 0.597312
O O10 0.811549 0.210333 0.844949
O O11 0.824912 0.000000 0.729665
O O12 0.543327 0.000000 0.093262
O O13 0.500000 0.861921 0.000000
O O14 0.861028 0.178082 0.379421
O O15 0.885429 0.000000 0.482724
O O16 0.250000 0.250000 0.500000
O O17 0.222476 0.000000 0.557689
O O18 0.176972 0.000000 0.057744
#
# Coordination Sequence:
#
# PCOD8088100 Si02
#       7
#     8   8   8   8   8   8   8
#     4   9  18  34  55  78 106 140 181 225 273 320
#     4  11  20  34  55  77 109 146 181 222 273 326
#     4  10  19  32  52  78 109 140 181 229 271 319
#     4  10  21  35  53  79 110 144 185 225 268 324
#     4   9  18  33  53  79 108 140 179 222 271 324
#     4  11  22  36  55  80 112 145 179 222 270 329
#     4   9  19  33  51  79 107 138 181 229 272 316
#
# _framework density 18.969975000000002
#
# number of rings (size 3 to 8) (size 9 to 14) (size 15 to 20)
#    0.000    2.143    1.429    2.143    0.000    2.000 
#    0.000    3.571    0.000    0.857    0.000    4.000 
#    0.000    0.000    0.000    0.000    0.000    0.000 
#
# Total GULP energy -346876.145262 kJ/mol
# GULP energy per Si atom -12388.433759 kJ/mol
# Density = 1.892680 g / cm^3
# Si number density = 18.969975 Si / 1000 Ang^3
#
#
#
# Elastic Constant Matrix: (Units=GPa)
#
#
# Indices 1 2 3 4 5 6 
#
# 1 86.0188 23.4824 45.3640 0.0000 1.5138 0.0000
# 2 23.4824 73.0735 24.9653 0.0000 -1.9518 0.0000
# 3 45.3640 24.9653 112.6918 0.0000 -1.3459 0.0000
# 4 0.0000 0.0000 0.0000 19.3800 0.0000 -2.0159
# 5 1.5138 -1.9518 -1.3459 0.0000 36.1749 0.0000
# 6 0.0000 0.0000 0.0000 -2.0159 0.0000 22.6265
#
#
#
# Elastic Compliance Matrix: (Units=1/GPa)
#
#
# Indices 1 2 3 4 5 6 
#
# 1 0.015402 -0.003088 -0.005528 0.000000 -0.001017 0.000000
# 2 -0.003088 0.015441 -0.002167 0.000000 0.000882 0.000000
# 3 -0.005528 -0.002167 0.011586 0.000000 0.000545 0.000000
# 4 0.000000 0.000000 0.000000 0.052082 0.000000 0.004640
# 5 -0.001017 0.000882 0.000545 0.000000 0.027754 0.000000
# 6 0.000000 0.000000 0.000000 0.004640 0.000000 0.044609
#
#
# Mechanical properties :
#
#
# Convention : Reuss Voigt Hill
#
# Bulk Modulus (GPa) = 47.93349 51.04527 49.48938
# Shear Modulus (GPa) = 25.58935 27.50112 26.54523
#
# Velocity S-wave (km/s) = 3.67678 3.81165 3.74482
# Velocity P-wave (km/s) = 6.58391 6.80723 6.69650
#
# Compressibility (1/GPa) = 0.02086224
#
# Stress axis : x y z
#
# Youngs Moduli (GPa) = 64.92873 64.76211 86.31362
#
# Poissons Ratio (x) = 0.19998 0.47714
# Poissons Ratio (y) = 0.20049 0.18706
# Poissons Ratio (z) = 0.35892 0.14035
#
# Static dielectric constant tensor:
#      x y z
#    x 3.814470 0.000000 -0.169360 
#    y 0.000000 3.375560 0.000000 
#    z -0.169360 0.000000 3.754920 
# 
# 
# High freq. dielectric constant tensor:
#      x y z
#    x 1.751330 0.000000 -0.008300 
#    y 0.000000 1.705600 0.000000 
#    z -0.008300 0.000000 1.735920 
# 
# From -- ./inp_files/182472.got.cif
#   From: 2010.06.25/outbox.cif.g09.slc.cpg/sg12_92_cif.got.tgz:182472.got - 2010.06.28 00:19:55.
