data_PCOD8088872
_publ_section_title
;
Structure prediction by ZEFSAII (Michael W. Deem and Ramdas Pophale) SiO2 
 PCOD8088872
Probable space group: C 2/M
;
_chemical_formula_sum "Si O2"
_cell_formula_units_Z 64
_cell_length_a 20.503910
_cell_length_b 8.769953
_cell_length_c 32.339450
_cell_angle_alpha 90.000000
_cell_angle_beta 36.268661
_cell_angle_gamma 90.000000
_cell_volume 3440.126340
_symmetry_space_group_name_H-M "C 2/M"
_symmetry_group_IT_number 12
_symmetry_cell_setting 'monoclinic'
loop_
_space_group_symop_operation_xyz
x,y,z
-x,y,-z
-x,-y,-z
x,-y,z
1/2+x,1/2+y,z
1/2-x,1/2+y,-z
1/2-x,1/2-y,-z
1/2+x,1/2-y,z
loop_
_atom_site_type_symbol
_atom_site_label
_atom_site_fract_x
_atom_site_fract_y
_atom_site_fract_z
Si Si1 0.865361 0.178883 0.715675
Si Si2 0.887745 0.320874 0.793495
Si Si3 0.238455 0.677830 0.570511
Si Si4 0.731752 0.324401 0.075292
Si Si5 0.590616 0.174367 0.079124
Si Si6 0.919922 0.677761 0.424390
Si Si7 0.885806 0.820854 0.292694
Si Si8 0.349300 0.175319 0.225386
O O1 0.867793 0.258732 0.758394
O O2 0.750844 0.222097 0.752758
O O3 0.962379 0.240792 0.636942
O O4 0.880135 0.000000 0.714525
O O5 0.901680 0.500000 0.783583
O O6 0.784161 0.275820 0.875347
O O7 0.997165 0.254754 0.758187
O O8 0.257138 0.500000 0.568330
O O9 0.140952 0.709009 0.587810
O O10 0.351888 0.750496 0.496781
O O11 0.207223 0.757521 0.629145
O O12 0.718572 0.500000 0.094580
O O13 0.638156 0.285400 0.089631
O O14 0.852291 0.289749 0.994269
O O15 0.460233 0.201370 0.141926
O O16 0.617685 0.000000 0.078334
O O17 0.935488 0.500000 0.424835
O O18 0.847605 0.782573 0.266084
O O19 0.896890 0.000000 0.293091
O O20 0.339866 0.000000 0.244828
#
# Coordination Sequence:
#
# PCOD8088872 Si02
#       8
#     8   8   8   8   8   8   8   8
#     4  11  23  39  60  85 116 154 195 236 284 346
#     4  12  23  37  57  83 116 153 193 241 290 337
#     4  10  20  35  58  86 117 151 187 236 286 336
#     4  10  19  32  55  87 114 145 190 241 289 339
#     4   9  18  34  56  82 116 151 187 233 290 346
#     4  10  20  35  57  85 118 153 188 234 287 338
#     4  12  23  36  59  89 117 148 192 242 285 338
#     4  10  22  40  60  84 117 156 191 232 289 349
#
# _framework density 18.603968999999999
#
# number of rings (size 3 to 8) (size 9 to 14) (size 15 to 20)
#    0.000    1.500    2.500    3.750    0.000    2.500 
#    0.000    1.250    0.000    7.500    0.000    0.000 
#    0.000    0.000    0.000    0.000    0.000    0.000 
#
# Total GULP energy -396931.645227 kJ/mol
# GULP energy per Si atom -12404.113913 kJ/mol
# Density = 1.856163 g / cm^3
# Si number density = 18.603969 Si / 1000 Ang^3
#
#
#
# Elastic Constant Matrix: (Units=GPa)
#
#
# Indices 1 2 3 4 5 6 
#
# 1 73.0678 47.5080 55.1283 0.0291 -4.5885 0.1456
# 2 47.5080 121.8527 63.6990 0.0696 0.9393 -0.1742
# 3 55.1283 63.6990 156.6056 0.0153 -0.7458 -0.0130
# 4 0.0291 0.0696 0.0153 34.1474 0.0123 5.0841
# 5 -4.5885 0.9393 -0.7458 0.0123 29.2200 -0.0028
# 6 0.1456 -0.1742 -0.0130 5.0841 -0.0028 26.6927
#
#
#
# Elastic Compliance Matrix: (Units=1/GPa)
#
#
# Indices 1 2 3 4 5 6 
#
# 1 0.021570 -0.005684 -0.005265 0.000018 0.003435 -0.000160
# 2 -0.005684 0.011927 -0.002857 -0.000035 -0.001349 0.000114
# 3 -0.005265 -0.002857 0.009398 0.000004 -0.000495 0.000014
# 4 0.000018 -0.000035 0.000004 0.030140 -0.000009 -0.005741
# 5 0.003435 -0.001349 -0.000495 -0.000009 0.034793 -0.000022
# 6 -0.000160 0.000114 0.000014 -0.005741 -0.000022 0.038559
#
#
# Mechanical properties :
#
#
# Convention : Reuss Voigt Hill
#
# Bulk Modulus (GPa) = 65.42847 76.02185 70.72516
# Shear Modulus (GPa) = 27.91862 30.35808 29.13835
#
# Velocity S-wave (km/s) = 3.87806 4.04395 3.96187
# Velocity P-wave (km/s) = 7.43626 7.92191 7.68292
#
# Compressibility (1/GPa) = 0.01528387
#
# Stress axis : x y z
#
# Youngs Moduli (GPa) = 46.36091 83.84550 106.40257
#
# Poissons Ratio (x) = 0.47660 0.56017
# Poissons Ratio (y) = 0.26353 0.30395
# Poissons Ratio (z) = 0.24407 0.23951
#
# Static dielectric constant tensor:
#      x y z
#    x 3.155100 0.000130 0.030510 
#    y 0.000130 3.544860 -0.000230 
#    z 0.030510 -0.000230 3.767240 
# 
# 
# High freq. dielectric constant tensor:
#      x y z
#    x 1.686250 0.000000 0.007080 
#    y 0.000000 1.734930 0.000000 
#    z 0.007080 0.000000 1.742400 
# 
# From -- ./inp_files/378120.got.cif
#   From: 2010.06.25/outbox.cif.g09.slc.cpg/sg12_190_cif.got.tgz:378120.got - 2010.06.28 00:19:55.
