data_PCOD8088181
_publ_section_title
;
Structure prediction by ZEFSAII (Michael W. Deem and Ramdas Pophale) SiO2 
 PCOD8088181
Probable space group: C 2/M
;
_chemical_formula_sum "Si O2"
_cell_formula_units_Z 56
_cell_length_a 28.542865
_cell_length_b 8.754136
_cell_length_c 14.271202
_cell_angle_alpha 90.000000
_cell_angle_beta 60.028819
_cell_angle_gamma 90.000000
_cell_volume 3089.072373
_symmetry_space_group_name_H-M "C 2/M"
_symmetry_group_IT_number 12
_symmetry_cell_setting 'monoclinic'
loop_
_space_group_symop_operation_xyz
x,y,z
-x,y,-z
-x,-y,-z
x,-y,z
1/2+x,1/2+y,z
1/2-x,1/2+y,-z
1/2-x,1/2-y,-z
1/2+x,1/2-y,z
loop_
_atom_site_type_symbol
_atom_site_label
_atom_site_fract_x
_atom_site_fract_y
_atom_site_fract_z
Si Si1 0.303833 0.318637 0.401140
Si Si2 0.401451 0.676059 0.431894
Si Si3 0.785376 0.325293 0.228654
Si Si4 0.201994 0.180373 0.985530
Si Si5 0.493852 0.819450 0.612023
Si Si6 0.379907 0.177460 0.804046
Si Si7 0.664253 0.670185 0.321263
O O1 0.298601 0.500000 0.410645
O O2 0.250000 0.250000 0.500000
O O3 0.356685 0.260888 0.404669
O O4 0.314051 0.262404 0.285104
O O5 0.413393 0.500000 0.398902
O O6 0.457436 0.768006 0.368726
O O7 0.381198 0.702868 0.557279
O O8 0.805763 0.500000 0.203594
O O9 0.797760 0.242649 0.119442
O O10 0.721749 0.317331 0.314472
O O11 0.208967 0.000000 0.978400
O O12 0.250000 0.250000 0.000000
O O13 0.143549 0.227762 0.085321
O O14 0.500000 0.752178 0.500000
O O15 0.438884 0.759432 0.715728
O O16 0.492013 0.000000 0.608210
O O17 0.339913 0.204603 0.756043
O O18 0.380492 0.000000 0.829780
O O19 0.657620 0.500000 0.284259
#
# Coordination Sequence:
#
# PCOD8088181 Si02
#       7
#     8   8   8   8   8   8   8
#     4  11  22  37  56  83 116 152 192 234 283 336
#     4  10  21  36  54  80 114 151 190 228 274 333
#     4  11  22  38  57  83 116 150 190 231 281 340
#     4  12  24  38  57  83 114 150 189 231 282 335
#     4  10  21  36  54  82 114 147 187 231 281 335
#     4  11  22  36  55  81 115 151 188 230 279 335
#     4  10  19  32  52  80 115 150 185 227 271 331
#
# _framework density 18.128419999999998
#
# number of rings (size 3 to 8) (size 9 to 14) (size 15 to 20)
#    0.000    1.286    4.286    2.571    0.000    3.143 
#    0.000    0.000    0.000    0.857    0.000    6.000 
#    0.000    0.000    0.000    0.000    0.000    0.000 
#
# Total GULP energy -347228.710779 kJ/mol
# GULP energy per Si atom -12401.025385 kJ/mol
# Density = 1.808716 g / cm^3
# Si number density = 18.128420 Si / 1000 Ang^3
#
#
#
# Elastic Constant Matrix: (Units=GPa)
#
#
# Indices 1 2 3 4 5 6 
#
# 1 104.8292 33.9385 52.5715 0.0000 3.2136 0.0000
# 2 33.9385 77.1017 36.7637 0.0000 -0.8071 0.0000
# 3 52.5715 36.7637 97.7213 0.0000 -1.4707 0.0000
# 4 0.0000 0.0000 0.0000 30.9990 0.0000 2.1722
# 5 3.2136 -0.8071 -1.4707 0.0000 30.0692 0.0000
# 6 0.0000 0.0000 0.0000 2.1722 0.0000 29.4205
#
#
#
# Elastic Compliance Matrix: (Units=1/GPa)
#
#
# Indices 1 2 3 4 5 6 
#
# 1 0.013731 -0.003081 -0.006256 0.000000 -0.001856 0.000000
# 2 -0.003081 0.016497 -0.004541 0.000000 0.000550 0.000000
# 3 -0.006256 -0.004541 0.015326 0.000000 0.001296 0.000000
# 4 0.000000 0.000000 0.000000 0.032427 0.000000 -0.002394
# 5 -0.001856 0.000550 0.001296 0.000000 0.033533 0.000000
# 6 0.000000 0.000000 0.000000 -0.002394 0.000000 0.034167
#
#
# Mechanical properties :
#
#
# Convention : Reuss Voigt Hill
#
# Bulk Modulus (GPa) = 56.18030 58.46663 57.32347
# Shear Modulus (GPa) = 27.87563 28.52297 28.19930
#
# Velocity S-wave (km/s) = 3.92558 3.97089 3.94830
# Velocity P-wave (km/s) = 7.18361 7.30379 7.24395
#
# Compressibility (1/GPa) = 0.01779983
#
# Stress axis : x y z
#
# Youngs Moduli (GPa) = 72.82883 60.61804 65.24674
#
# Poissons Ratio (x) = 0.18674 0.40817
# Poissons Ratio (y) = 0.22435 0.29627
# Poissons Ratio (z) = 0.45560 0.27525
#
# Static dielectric constant tensor:
#      x y z
#    x 3.344130 0.000000 -0.069220 
#    y 0.000000 3.378750 0.000000 
#    z -0.069220 0.000000 3.397330 
# 
# 
# High freq. dielectric constant tensor:
#      x y z
#    x 1.689070 0.000000 -0.002970 
#    y 0.000000 1.705940 0.000000 
#    z -0.002970 0.000000 1.695680 
# 
# From -- ./inp_files/243068.got.cif
#   From: 2010.06.25/outbox.cif.g09.slc.cpg/sg12_122_cif.got.tgz:243068.got - 2010.06.28 00:19:55.
