data_PCOD8088478
_publ_section_title
;
Structure prediction by ZEFSAII (Michael W. Deem and Ramdas Pophale) SiO2 
 PCOD8088478
Probable space group: C 2/M
;
_chemical_formula_sum "Si O2"
_cell_formula_units_Z 56
_cell_length_a 24.704641
_cell_length_b 9.191994
_cell_length_c 13.445694
_cell_angle_alpha 90.000000
_cell_angle_beta 69.560847
_cell_angle_gamma 90.000000
_cell_volume 2861.088486
_symmetry_space_group_name_H-M "C 2/M"
_symmetry_group_IT_number 12
_symmetry_cell_setting 'monoclinic'
loop_
_space_group_symop_operation_xyz
x,y,z
-x,y,-z
-x,-y,-z
x,-y,z
1/2+x,1/2+y,z
1/2-x,1/2+y,-z
1/2-x,1/2-y,-z
1/2+x,1/2-y,z
loop_
_atom_site_type_symbol
_atom_site_label
_atom_site_fract_x
_atom_site_fract_y
_atom_site_fract_z
Si Si1 0.798635 0.165955 0.912049
Si Si2 0.562698 0.340867 0.916495
Si Si3 0.601694 0.837287 0.065394
Si Si4 0.691403 0.329076 0.504763
Si Si5 0.643701 0.670237 0.322213
Si Si6 0.535067 0.165125 0.301855
Si Si7 0.073386 0.169171 0.681421
O O1 0.858171 0.209509 0.922724
O O2 0.805138 0.201196 0.790607
O O3 0.785303 0.000000 0.939819
O O4 0.750000 0.250000 0.000000
O O5 0.594342 0.500000 0.906237
O O6 0.563456 0.291220 0.802285
O O7 0.500000 0.364409 0.000000
O O8 0.589306 0.206767 0.960226
O O9 0.547562 0.833695 0.175087
O O10 0.629149 0.000000 0.047348
O O11 0.704218 0.500000 0.498765
O O12 0.750000 0.250000 0.500000
O O13 0.670981 0.278472 0.408511
O O14 0.638838 0.286117 0.611703
O O15 0.626893 0.500000 0.333846
O O16 0.585526 0.758298 0.333516
O O17 0.473473 0.244833 0.355863
O O18 0.530062 0.000000 0.344047
O O19 0.062954 0.000000 0.665663
#
# Coordination Sequence:
#
# PCOD8088478 Si02
#       7
#     8   8   8   8   8   8   8
#     4  10  20  35  56  81 110 144 186 231 279 333
#     4  10  19  32  53  81 114 150 185 222 274 334
#     4  10  20  33  51  78 114 150 184 226 277 331
#     4  10  23  43  63  83 110 148 194 238 282 334
#     4   9  20  39  61  82 111 151 188 229 284 340
#     4  10  20  34  56  87 117 145 184 232 284 336
#     4  10  21  37  58  84 115 153 193 233 283 342
#
# _framework density 19.572969000000001
#
# number of rings (size 3 to 8) (size 9 to 14) (size 15 to 20)
#    0.000    2.143    1.429    1.286    0.000    5.429 
#    0.000    5.714    0.000    0.000    0.000    0.000 
#    0.000    0.000    0.000    0.000    0.000    0.000 
#
# Total GULP energy -346995.401836 kJ/mol
# GULP energy per Si atom -12392.692923 kJ/mol
# Density = 1.952842 g / cm^3
# Si number density = 19.572969 Si / 1000 Ang^3
#
#
#
# Elastic Constant Matrix: (Units=GPa)
#
#
# Indices 1 2 3 4 5 6 
#
# 1 120.9161 66.2471 67.8498 0.0000 -0.8588 0.0000
# 2 66.2471 82.5798 51.9068 0.0000 1.4630 0.0000
# 3 67.8498 51.9068 112.7275 0.0000 1.7930 0.0000
# 4 0.0000 0.0000 0.0000 24.2796 0.0000 -0.9816
# 5 -0.8588 1.4630 1.7930 0.0000 32.4445 0.0000
# 6 0.0000 0.0000 0.0000 -0.9816 0.0000 41.0203
#
#
#
# Elastic Compliance Matrix: (Units=1/GPa)
#
#
# Indices 1 2 3 4 5 6 
#
# 1 0.016941 -0.010119 -0.005556 0.000000 0.001212 0.000000
# 2 -0.010119 0.023090 -0.004525 0.000000 -0.001059 0.000000
# 3 -0.005556 -0.004525 0.014310 0.000000 -0.000734 0.000000
# 4 0.000000 0.000000 0.000000 0.041227 0.000000 0.000987
# 5 0.001212 -0.001059 -0.000734 0.000000 0.030942 0.000000
# 6 0.000000 0.000000 0.000000 0.000987 0.000000 0.024402
#
#
# Mechanical properties :
#
#
# Convention : Reuss Voigt Hill
#
# Bulk Modulus (GPa) = 71.73091 76.47011 74.10051
# Shear Modulus (GPa) = 25.51560 28.23019 26.87290
#
# Velocity S-wave (km/s) = 3.61448 3.80189 3.70937
# Velocity P-wave (km/s) = 7.35845 7.64373 7.50244
#
# Compressibility (1/GPa) = 0.01394099
#
# Stress axis : x y z
#
# Youngs Moduli (GPa) = 59.02984 43.30877 69.87972
#
# Poissons Ratio (x) = 0.43824 0.38827
# Poissons Ratio (y) = 0.59733 0.31618
# Poissons Ratio (z) = 0.32798 0.19596
#
# Static dielectric constant tensor:
#      x y z
#    x 3.045050 0.000000 0.017160 
#    y 0.000000 3.557390 0.000000 
#    z 0.017160 0.000000 3.301110 
# 
# 
# High freq. dielectric constant tensor:
#      x y z
#    x 1.745720 0.000000 0.001240 
#    y 0.000000 1.765500 0.000000 
#    z 0.001240 0.000000 1.765240 
# 
# From -- ./inp_files/237441.got.cif
#   From: 2010.06.25/outbox.cif.g09.slc.cpg/sg12_119_cif.got.tgz:237441.got - 2010.06.28 00:19:55.
