data_PCOD8088379
_publ_section_title
;
Structure prediction by ZEFSAII (Michael W. Deem and Ramdas Pophale) SiO2 
 PCOD8088379
Probable space group: C 2/M
;
_chemical_formula_sum "Si O2"
_cell_formula_units_Z 56
_cell_length_a 9.344055
_cell_length_b 26.781508
_cell_length_c 17.360122
_cell_angle_alpha 90.000000
_cell_angle_beta 139.940658
_cell_angle_gamma 90.000000
_cell_volume 2795.929240
_symmetry_space_group_name_H-M "C 2/M"
_symmetry_group_IT_number 12
_symmetry_cell_setting 'monoclinic'
loop_
_space_group_symop_operation_xyz
x,y,z
-x,y,-z
-x,-y,-z
x,-y,z
1/2+x,1/2+y,z
1/2-x,1/2+y,-z
1/2-x,1/2-y,-z
1/2+x,1/2-y,z
loop_
_atom_site_type_symbol
_atom_site_label
_atom_site_fract_x
_atom_site_fract_y
_atom_site_fract_z
Si Si1 0.391742 0.788274 0.872031
Si Si2 0.736014 0.198969 0.880988
Si Si3 0.725947 0.395011 0.786808
Si Si4 0.578499 0.559785 0.876390
Si Si5 0.613029 0.559572 0.466292
Si Si6 0.347556 0.088631 0.128668
Si Si7 0.598559 0.054941 0.688588
O O1 0.593946 0.780480 0.895112
O O2 0.222405 0.740147 0.806065
O O3 0.239310 0.835279 0.786847
O O4 0.500000 0.798360 0.000000
O O5 0.653359 0.143069 0.829670
O O6 0.000000 0.196771 0.000000
O O7 0.734316 0.413945 0.878196
O O8 0.504793 0.413728 0.653313
O O9 0.938059 0.420123 0.835310
O O10 0.600371 0.500000 0.882820
O O11 0.327724 0.578923 0.751816
O O12 0.635507 0.579820 0.985768
O O13 0.500000 0.575217 0.500000
O O14 0.605009 0.500000 0.452315
O O15 0.866359 0.581608 0.571269
O O16 0.367527 0.049161 0.205184
O O17 0.580270 0.000000 0.645792
#
# Coordination Sequence:
#
# PCOD8088379 Si02
#       7
#     8   8   8   8   8   8   8
#     4  10  20  34  54  81 112 143 182 226 276 333
#     4  10  19  32  53  79 111 145 180 224 271 330
#     4  11  22  36  55  82 111 146 186 231 278 325
#     4  11  23  35  52  83 121 148 176 228 284 331
#     4  10  20  37  60  80 105 147 196 233 262 319
#     4  11  21  35  56  83 114 152 184 220 275 335
#     4  10  21  36  55  81 111 149 192 228 267 323
#
# _framework density 20.029119000000001
#
# number of rings (size 3 to 8) (size 9 to 14) (size 15 to 20)
#    0.000    1.571    1.429    6.000    0.000    5.143 
#    0.000    2.143    0.000    0.857    0.000    0.000 
#    0.000    0.000    0.000    0.000    0.000    0.000 
#
# Total GULP energy -346885.830744 kJ/mol
# GULP energy per Si atom -12388.779669 kJ/mol
# Density = 1.998353 g / cm^3
# Si number density = 20.029119 Si / 1000 Ang^3
#
#
#
# Elastic Constant Matrix: (Units=GPa)
#
#
# Indices 1 2 3 4 5 6 
#
# 1 96.9062 25.3407 7.8192 -0.0003 14.0596 0.0003
# 2 25.3407 66.1558 16.9684 -0.0006 7.2583 -0.0001
# 3 7.8192 16.9684 86.0592 -0.0002 13.9508 0.0019
# 4 -0.0003 -0.0006 -0.0002 16.6980 0.0001 1.9253
# 5 14.0596 7.2583 13.9508 0.0001 31.1813 0.0006
# 6 0.0003 -0.0001 0.0019 1.9253 0.0006 29.8334
#
#
#
# Elastic Compliance Matrix: (Units=1/GPa)
#
#
# Indices 1 2 3 4 5 6 
#
# 1 0.012065 -0.004236 0.000497 0.000000 -0.004677 0.000000
# 2 -0.004236 0.017588 -0.002942 0.000001 -0.000868 0.000000
# 3 0.000497 -0.002942 0.013025 0.000000 -0.005367 -0.000001
# 4 0.000000 0.000001 0.000000 0.060336 0.000000 -0.003894
# 5 -0.004677 -0.000868 -0.005367 0.000000 0.036782 0.000000
# 6 0.000000 0.000000 -0.000001 -0.003894 0.000000 0.033771
#
#
# Mechanical properties :
#
#
# Convention : Reuss Voigt Hill
#
# Bulk Modulus (GPa) = 34.11110 38.81975 36.46543
# Shear Modulus (GPa) = 25.41908 28.80872 27.11390
#
# Velocity S-wave (km/s) = 3.56632 3.79666 3.68329
# Velocity P-wave (km/s) = 5.83317 6.21637 6.02782
#
# Compressibility (1/GPa) = 0.02931597
#
# Stress axis : x y z
#
# Youngs Moduli (GPa) = 82.88201 56.85594 76.77621
#
# Poissons Ratio (x) = 0.24084 -0.03816
# Poissons Ratio (y) = 0.35109 0.22591
# Poissons Ratio (z) = -0.04120 0.16729
#
# Static dielectric constant tensor:
#      x y z
#    x 3.906210 0.000000 0.202010 
#    y 0.000000 3.984580 0.000000 
#    z 0.202010 0.000000 3.473020 
# 
# 
# High freq. dielectric constant tensor:
#      x y z
#    x 1.802240 0.000000 0.018380 
#    y 0.000000 1.766630 0.000000 
#    z 0.018380 0.000000 1.749910 
# 
# From -- ./inp_files/125191.got.cif
#   From: 2010.06.25/outbox.cif.g09.slc.cpg/sg12_63_cif.got.tgz:125191.got - 2010.06.28 00:19:55.
