data_PCOD8088374
_publ_section_title
;
Structure prediction by ZEFSAII (Michael W. Deem and Ramdas Pophale) SiO2 
 PCOD8088374
Probable space group: C 2/M
;
_chemical_formula_sum "Si O2"
_cell_formula_units_Z 56
_cell_length_a 30.106675
_cell_length_b 9.027506
_cell_length_c 16.728213
_cell_angle_alpha 90.000000
_cell_angle_beta 45.859356
_cell_angle_gamma 90.000000
_cell_volume 3262.738008
_symmetry_space_group_name_H-M "C 2/M"
_symmetry_group_IT_number 12
_symmetry_cell_setting 'monoclinic'
loop_
_space_group_symop_operation_xyz
x,y,z
-x,y,-z
-x,-y,-z
x,-y,z
1/2+x,1/2+y,z
1/2-x,1/2+y,-z
1/2-x,1/2-y,-z
1/2+x,1/2-y,z
loop_
_atom_site_type_symbol
_atom_site_label
_atom_site_fract_x
_atom_site_fract_y
_atom_site_fract_z
Si Si1 0.701878 0.173340 0.888700
Si Si2 0.876051 0.326013 0.859512
Si Si3 0.507092 0.324565 0.711593
Si Si4 0.968336 0.324898 0.162308
Si Si5 0.591868 0.174787 0.921274
Si Si6 0.050623 0.328777 0.501591
Si Si7 0.671728 0.171238 0.250873
O O1 0.655540 0.237806 0.878592
O O2 0.767736 0.247567 0.793750
O O3 0.711189 0.000000 0.866119
O O4 0.674693 0.210669 0.009945
O O5 0.892154 0.500000 0.835933
O O6 0.938388 0.240281 0.801173
O O7 0.849542 0.267342 0.808668
O O8 0.504274 0.500000 0.717251
O O9 0.545666 0.263860 0.739149
O O10 0.543296 0.273093 0.587736
O O11 0.968919 0.500000 0.179123
O O12 0.915478 0.283424 0.163064
O O13 0.033835 0.267354 0.045509
O O14 0.590969 0.000000 0.932384
O O15 0.040426 0.500000 0.538091
O O16 0.118445 0.299879 0.381959
O O17 0.000000 0.280636 0.500000
O O18 0.687819 0.000000 0.221933
#
# Coordination Sequence:
#
# PCOD8088374 Si02
#       7
#     8   8   8   8   8   8   8
#     4  10  19  32  53  79 109 140 170 209 259 306
#     4  10  19  35  54  73 104 146 181 206 242 311
#     4  12  23  32  50  81 112 135 166 219 273 306
#     4   9  16  32  55  76 102 136 177 213 249 310
#     4   8  15  29  54  80 100 134 178 213 247 303
#     4  10  20  38  59  73  95 138 183 219 254 305
#     4  10  21  35  53  76 102 138 180 213 254 307
#
# _framework density 17.163499000000002
#
# number of rings (size 3 to 8) (size 9 to 14) (size 15 to 20)
#    0.000    2.143    2.857    2.571    0.000    2.000 
#    0.000    2.143    0.000    0.857    0.000    0.000 
#    0.000    0.000    0.000    0.000    0.000    0.000 
#
# Total GULP energy -347192.708762 kJ/mol
# GULP energy per Si atom -12399.739599 kJ/mol
# Density = 1.712443 g / cm^3
# Si number density = 17.163499 Si / 1000 Ang^3
#
#
#
# Elastic Constant Matrix: (Units=GPa)
#
#
# Indices 1 2 3 4 5 6 
#
# 1 112.8401 39.5704 48.5484 0.0003 14.8562 -0.0002
# 2 39.5704 58.5916 39.5250 0.0022 6.8348 -0.0002
# 3 48.5484 39.5250 81.0423 0.0005 9.9207 -0.0003
# 4 0.0003 0.0022 0.0005 16.9539 -0.0002 -7.6471
# 5 14.8562 6.8348 9.9207 -0.0002 27.6489 0.0001
# 6 -0.0002 -0.0002 -0.0003 -7.6471 0.0001 20.0149
#
#
#
# Elastic Compliance Matrix: (Units=1/GPa)
#
#
# Indices 1 2 3 4 5 6 
#
# 1 0.013362 -0.005193 -0.004969 0.000001 -0.004113 0.000000
# 2 -0.005193 0.027552 -0.010286 -0.000004 -0.000330 -0.000001
# 3 -0.004969 -0.010286 0.020599 0.000001 -0.002179 0.000000
# 4 0.000001 -0.000004 0.000001 0.071265 0.000001 0.027228
# 5 -0.004113 -0.000330 -0.002179 0.000001 0.039241 0.000000
# 6 0.000000 -0.000001 0.000000 0.027228 0.000000 0.060366
#
#
# Mechanical properties :
#
#
# Convention : Reuss Voigt Hill
#
# Bulk Modulus (GPa) = 48.50123 56.41794 52.45959
# Shear Modulus (GPa) = 17.84744 21.24557 19.54651
#
# Velocity S-wave (km/s) = 3.22817 3.52210 3.37833
# Velocity P-wave (km/s) = 6.49727 7.03438 6.77115
#
# Compressibility (1/GPa) = 0.02061803
#
# Stress axis : x y z
#
# Youngs Moduli (GPa) = 74.83725 36.29564 48.54618
#
# Poissons Ratio (x) = 0.18848 0.24121
# Poissons Ratio (y) = 0.38862 0.49934
# Poissons Ratio (z) = 0.37184 0.37334
#
# Static dielectric constant tensor:
#      x y z
#    x 3.521110 0.000000 0.170710 
#    y 0.000000 2.945130 0.000000 
#    z 0.170710 0.000000 3.104780 
# 
# 
# High freq. dielectric constant tensor:
#      x y z
#    x 1.666310 0.000000 0.012560 
#    y 0.000000 1.639010 0.000000 
#    z 0.012560 0.000000 1.649400 
# 
# From -- ./inp_files/244320.got.cif
#   From: 2010.06.25/outbox.cif.g09.slc.cpg/sg12_123_cif.got.tgz:244320.got - 2010.06.28 00:19:55.
