data_PCOD8088383
_publ_section_title
;
Structure prediction by ZEFSAII (Michael W. Deem and Ramdas Pophale) SiO2 
 PCOD8088383
Probable space group: C 2/M
;
_chemical_formula_sum "Si O2"
_cell_formula_units_Z 56
_cell_length_a 30.250904
_cell_length_b 18.048555
_cell_length_c 9.591476
_cell_angle_alpha 90.000000
_cell_angle_beta 31.029182
_cell_angle_gamma 90.000000
_cell_volume 2699.438853
_symmetry_space_group_name_H-M "C 2/M"
_symmetry_group_IT_number 12
_symmetry_cell_setting 'monoclinic'
loop_
_space_group_symop_operation_xyz
x,y,z
-x,y,-z
-x,-y,-z
x,-y,z
1/2+x,1/2+y,z
1/2-x,1/2+y,-z
1/2-x,1/2-y,-z
1/2+x,1/2-y,z
loop_
_atom_site_type_symbol
_atom_site_label
_atom_site_fract_x
_atom_site_fract_y
_atom_site_fract_z
Si Si1 0.326832 0.414387 0.808569
Si Si2 0.134037 0.274444 0.445855
Si Si3 0.576442 0.084602 0.185909
Si Si4 0.542340 0.918505 0.738535
Si Si5 0.795220 0.688348 0.018849
Si Si6 0.079425 0.917535 0.181816
Si Si7 0.520425 0.357212 0.787436
O O1 0.304335 0.500000 0.875097
O O2 0.243718 0.371454 0.982911
O O3 0.346540 0.386449 0.914747
O O4 0.403461 0.404190 0.488888
O O5 0.119845 0.359742 0.526553
O O6 0.219744 0.239842 0.288301
O O7 0.049733 0.228467 0.718058
O O8 0.143930 0.264048 0.250159
O O9 0.500000 0.095476 0.500000
O O10 0.536122 0.105704 0.147517
O O11 0.612220 0.000000 0.093514
O O12 0.652300 0.144049 0.005815
O O13 0.578313 0.000000 0.596407
O O14 0.500000 0.923744 0.000000
O O15 0.000000 0.922863 0.500000
O O16 0.062519 0.865856 0.091277
O O17 0.101311 0.000000 0.066410
O O18 0.500000 0.385542 0.000000
#
# Coordination Sequence:
#
# PCOD8088383 Si02
#       7
#     8   8   8   8   8   8   8
#     4   9  18  33  55  81 112 148 184 229 278 329
#     4  10  21  37  54  82 118 145 188 230 290 345
#     4  10  19  35  62  91 112 144 197 245 283 333
#     4  10  21  39  63  88 116 151 192 241 293 345
#     4  10  20  36  56  85 116 145 189 239 287 337
#     4   8  15  30  50  78 107 139 188 225 261 323
#     4  10  19  32  53  79 116 149 186 225 272 337
#
# _framework density 20.745052999999999
#
# number of rings (size 3 to 8) (size 9 to 14) (size 15 to 20)
#    0.000    2.429    1.429    2.143    0.000    1.714 
#   15.429    0.714    6.286    0.000    0.000    0.000 
#    0.000    0.571    0.000    0.000    0.000    0.143 
#
# Total GULP energy -346914.726253 kJ/mol
# GULP energy per Si atom -12389.811652 kJ/mol
# Density = 2.069784 g / cm^3
# Si number density = 20.745053 Si / 1000 Ang^3
#
#
#
# Elastic Constant Matrix: (Units=GPa)
#
#
# Indices 1 2 3 4 5 6 
#
# 1 133.3883 45.8693 41.7568 0.0000 6.3363 0.0000
# 2 45.8693 103.9144 31.5527 0.0000 -16.2134 0.0000
# 3 41.7568 31.5527 50.6249 0.0000 3.6568 0.0000
# 4 0.0000 0.0000 0.0000 32.7156 0.0000 -10.4788
# 5 6.3363 -16.2134 3.6568 0.0000 30.4169 0.0000
# 6 0.0000 0.0000 0.0000 -10.4788 0.0000 27.5236
#
#
#
# Elastic Compliance Matrix: (Units=1/GPa)
#
#
# Indices 1 2 3 4 5 6 
#
# 1 0.010868 -0.003262 -0.006700 0.000000 -0.003197 0.000000
# 2 -0.003262 0.014695 -0.007146 0.000000 0.009371 0.000000
# 3 -0.006700 -0.007146 0.030170 0.000000 -0.006040 0.000000
# 4 0.000000 0.000000 0.000000 0.034811 0.000000 0.013253
# 5 -0.003197 0.009371 -0.006040 0.000000 0.039264 0.000000
# 6 0.000000 0.000000 0.000000 0.013253 0.000000 0.041378
#
#
# Mechanical properties :
#
#
# Convention : Reuss Voigt Hill
#
# Bulk Modulus (GPa) = 46.47384 58.47614 52.47499
# Shear Modulus (GPa) = 23.52129 29.38115 26.45122
#
# Velocity S-wave (km/s) = 3.37089 3.76745 3.57467
# Velocity P-wave (km/s) = 6.13201 6.86834 6.51059
#
# Compressibility (1/GPa) = 0.02151748
#
# Stress axis : x y z
#
# Youngs Moduli (GPa) = 92.01432 68.05103 33.14591
#
# Poissons Ratio (x) = 0.22195 0.22209
# Poissons Ratio (y) = 0.30011 0.23684
# Poissons Ratio (z) = 0.61653 0.48626
#
# Static dielectric constant tensor:
#      x y z
#    x 3.851750 0.000000 -0.115660 
#    y 0.000000 4.054590 0.000000 
#    z -0.115660 0.000000 3.391810 
# 
# 
# High freq. dielectric constant tensor:
#      x y z
#    x 1.801120 0.000000 -0.004950 
#    y 0.000000 1.821450 0.000000 
#    z -0.004950 0.000000 1.773060 
# 
# From -- ./inp_files/113359.got.cif
#   From: 2010.06.25/outbox.cif.g09.slc.cpg/sg12_57_cif.got.tgz:113359.got - 2010.06.28 00:19:55.
