data_PCOD8088548
_publ_section_title
;
Structure prediction by ZEFSAII (Michael W. Deem and Ramdas Pophale) SiO2 
 PCOD8088548
Probable space group: C 2/M
;
_chemical_formula_sum "Si O2"
_cell_formula_units_Z 56
_cell_length_a 20.077171
_cell_length_b 9.036159
_cell_length_c 19.898421
_cell_angle_alpha 90.000000
_cell_angle_beta 112.811421
_cell_angle_gamma 90.000000
_cell_volume 3327.630164
_symmetry_space_group_name_H-M "C 2/M"
_symmetry_group_IT_number 12
_symmetry_cell_setting 'monoclinic'
loop_
_space_group_symop_operation_xyz
x,y,z
-x,y,-z
-x,-y,-z
x,-y,z
1/2+x,1/2+y,z
1/2-x,1/2+y,-z
1/2-x,1/2-y,-z
1/2+x,1/2-y,z
loop_
_atom_site_type_symbol
_atom_site_label
_atom_site_fract_x
_atom_site_fract_y
_atom_site_fract_z
Si Si1 0.001754 0.832504 0.291600
Si Si2 0.723203 0.173004 0.189022
Si Si3 0.192250 0.326406 0.023901
Si Si4 0.421164 0.826328 0.789175
Si Si5 0.468427 0.824115 0.056485
Si Si6 0.962920 0.831899 0.418998
Si Si7 0.869615 0.675421 0.285593
O O1 0.067154 0.755510 0.277237
O O2 0.020147 0.829989 0.378955
O O3 0.925504 0.743717 0.252141
O O4 0.991207 0.000000 0.261783
O O5 0.702391 0.218114 0.105362
O O6 0.656543 0.213845 0.211156
O O7 0.789595 0.270901 0.238925
O O8 0.742772 0.000000 0.201623
O O9 0.200288 0.500000 0.017931
O O10 0.250000 0.250000 0.000000
O O11 0.114005 0.271607 0.967985
O O12 0.483937 0.765750 0.862990
O O13 0.428310 0.000000 0.780202
O O14 0.473819 0.000000 0.054986
O O15 0.500000 0.756764 0.000000
O O16 0.893451 0.733609 0.369459
O O17 0.000000 0.763680 0.500000
O O18 0.936882 0.000000 0.423353
O O19 0.873054 0.500000 0.283774
#
# Coordination Sequence:
#
# PCOD8088548 Si02
#       7
#     8   8   8   8   8   8   8
#     4   9  19  34  52  78 107 135 168 210 259 309
#     4  10  20  35  51  71 104 142 175 212 263 318
#     4  10  21  34  50  72  99 130 171 219 266 316
#     4  10  19  32  54  77 101 136 178 219 262 313
#     4   9  16  32  53  72  94 128 174 217 258 308
#     4   8  16  33  56  81 109 139 167 201 254 312
#     4  10  20  33  52  78 105 134 174 215 251 298
#
# _framework density 16.828793000000001
#
# number of rings (size 3 to 8) (size 9 to 14) (size 15 to 20)
#    0.857    1.714    1.429    1.286    2.000    1.429 
#    0.000    0.000    0.000    1.714    0.000    0.000 
#    0.000    0.000    0.000    0.000    0.000    0.000 
#
# Total GULP energy -347003.499782 kJ/mol
# GULP energy per Si atom -12392.982135 kJ/mol
# Density = 1.679049 g / cm^3
# Si number density = 16.828793 Si / 1000 Ang^3
#
#
#
# Elastic Constant Matrix: (Units=GPa)
#
#
# Indices 1 2 3 4 5 6 
#
# 1 115.1046 50.9598 35.4903 0.0000 -9.3257 0.0000
# 2 50.9598 77.4642 39.3560 0.0000 1.3428 0.0000
# 3 35.4903 39.3560 60.7700 0.0000 -9.7289 0.0000
# 4 0.0000 0.0000 0.0000 12.5258 0.0000 0.3947
# 5 -9.3257 1.3428 -9.7289 0.0000 19.9344 0.0000
# 6 0.0000 0.0000 0.0000 0.3947 0.0000 29.1643
#
#
#
# Elastic Compliance Matrix: (Units=1/GPa)
#
#
# Indices 1 2 3 4 5 6 
#
# 1 0.013187 -0.007970 -0.001591 0.000000 0.005930 0.000000
# 2 -0.007970 0.025310 -0.013675 0.000000 -0.012107 0.000000
# 3 -0.001591 -0.013675 0.028495 0.000000 0.014084 0.000000
# 4 0.000000 0.000000 0.000000 0.079870 0.000000 -0.001081
# 5 0.005930 -0.012107 0.014084 0.000000 0.060628 0.000000
# 6 0.000000 0.000000 0.000000 -0.001081 0.000000 0.034303
#
#
# Mechanical properties :
#
#
# Convention : Reuss Voigt Hill
#
# Bulk Modulus (GPa) = 48.72980 56.10569 52.41775
# Shear Modulus (GPa) = 16.94323 20.82708 18.88515
#
# Velocity S-wave (km/s) = 3.17645 3.52175 3.35355
# Velocity P-wave (km/s) = 6.51707 7.06742 6.79782
#
# Compressibility (1/GPa) = 0.02052132
#
# Stress axis : x y z
#
# Youngs Moduli (GPa) = 75.83215 39.51085 35.09339
#
# Poissons Ratio (x) = 0.31489 0.05582
# Poissons Ratio (y) = 0.60436 0.47990
# Poissons Ratio (z) = 0.12063 0.54031
#
# Static dielectric constant tensor:
#      x y z
#    x 3.068890 0.000000 -0.031520 
#    y 0.000000 2.943690 0.000000 
#    z -0.031520 0.000000 3.113830 
# 
# 
# High freq. dielectric constant tensor:
#      x y z
#    x 1.641420 0.000000 -0.004500 
#    y 0.000000 1.634980 0.000000 
#    z -0.004500 0.000000 1.635080 
# 
# From -- ./inp_files/319336.got.cif
#   From: 2010.06.25/outbox.cif.g09.slc.cpg/sg12_160_cif.got.tgz:319336.got - 2010.06.28 00:19:55.
