data_PCOD8088077
_publ_section_title
;
Structure prediction by ZEFSAII (Michael W. Deem and Ramdas Pophale) SiO2 
 PCOD8088077
Probable space group: C 2/M
;
_chemical_formula_sum "Si O2"
_cell_formula_units_Z 64
_cell_length_a 22.765594
_cell_length_b 10.456419
_cell_length_c 16.118179
_cell_angle_alpha 90.000000
_cell_angle_beta 114.726642
_cell_angle_gamma 90.000000
_cell_volume 3485.088725
_symmetry_space_group_name_H-M "C 2/M"
_symmetry_group_IT_number 12
_symmetry_cell_setting 'monoclinic'
loop_
_space_group_symop_operation_xyz
x,y,z
-x,y,-z
-x,-y,-z
x,-y,z
1/2+x,1/2+y,z
1/2-x,1/2+y,-z
1/2-x,1/2-y,-z
1/2+x,1/2-y,z
loop_
_atom_site_type_symbol
_atom_site_label
_atom_site_fract_x
_atom_site_fract_y
_atom_site_fract_z
Si Si1 0.268289 0.359953 0.294708
Si Si2 0.929061 0.645454 0.292687
Si Si3 0.813946 0.208877 0.149005
Si Si4 0.619683 0.146036 0.226406
Si Si5 0.571550 0.852176 0.377521
Si Si6 0.185574 0.139826 0.032823
Si Si7 0.429566 0.648100 0.921585
Si Si8 0.356570 0.852135 0.418332
O O1 0.278540 0.500000 0.343716
O O2 0.300883 0.374002 0.223237
O O3 0.192732 0.330997 0.240694
O O4 0.297150 0.242928 0.364456
O O5 0.932292 0.500000 0.265005
O O6 0.878124 0.708453 0.200477
O O7 0.908614 0.657895 0.376129
O O8 0.000079 0.710745 0.325761
O O9 0.750054 0.289941 0.096325
O O10 0.826201 0.129286 0.072977
O O11 0.614409 0.169707 0.321560
O O12 0.575112 0.252834 0.157260
O O13 0.597347 0.000000 0.191655
O O14 0.610734 0.796756 0.479020
O O15 0.559854 0.000000 0.391104
O O16 0.121863 0.196072 0.039600
O O17 0.195995 0.000000 0.075023
O O18 0.418224 0.500000 0.886797
O O19 0.500000 0.663706 0.000000
O O20 0.331854 0.000000 0.412467
#
# Coordination Sequence:
#
# PCOD8088077 Si02
#       8
#     8   8   8   8   8   8   8   8
#     4  10  20  35  53  77 109 140 170 214 263 309
#     4   9  17  30  52  80 106 132 173 220 261 306
#     4  10  19  32  52  78 101 141 171 218 259 316
#     4  10  21  37  56  78 106 140 177 216 262 309
#     4   9  18  33  53  78 107 136 172 219 262 307
#     4  10  20  34  52  75 104 137 178 221 258 308
#     4  10  22  39  57  77 107 143 177 216 263 310
#     4   9  18  33  56  81 104 137 174 212 261 313
#
# _framework density 18.363952000000001
#
# number of rings (size 3 to 8) (size 9 to 14) (size 15 to 20)
#    0.000    2.375    1.250    1.125    1.750    3.250 
#    0.000    1.250    0.000    6.750    0.000    0.000 
#    0.000    0.000    0.000    0.000    0.000    0.000 
#
# Total GULP energy -396592.292565 kJ/mol
# GULP energy per Si atom -12393.509143 kJ/mol
# Density = 1.832215 g / cm^3
# Si number density = 18.363952 Si / 1000 Ang^3
#
#
#
# Elastic Constant Matrix: (Units=GPa)
#
#
# Indices 1 2 3 4 5 6 
#
# 1 57.7018 27.1889 33.5836 0.0000 8.8775 0.0000
# 2 27.1889 83.9324 46.9996 0.0000 15.0555 0.0000
# 3 33.5836 46.9996 91.9240 0.0000 11.8109 0.0000
# 4 0.0000 0.0000 0.0000 23.6879 0.0000 2.6596
# 5 8.8775 15.0555 11.8109 0.0000 24.5954 0.0000
# 6 0.0000 0.0000 0.0000 2.6596 0.0000 23.8603
#
#
#
# Elastic Compliance Matrix: (Units=1/GPa)
#
#
# Indices 1 2 3 4 5 6 
#
# 1 0.023080 -0.003371 -0.006291 0.000000 -0.003246 0.000000
# 2 -0.003371 0.018230 -0.007259 0.000000 -0.006456 0.000000
# 3 -0.006291 -0.007259 0.017080 0.000000 -0.001487 0.000000
# 4 0.000000 0.000000 0.000000 0.042751 0.000000 -0.004765
# 5 -0.003246 -0.006456 -0.001487 0.000000 0.046496 0.000000
# 6 0.000000 0.000000 0.000000 -0.004765 0.000000 0.042442
#
#
# Mechanical properties :
#
#
# Convention : Reuss Voigt Hill
#
# Bulk Modulus (GPa) = 40.74103 49.90026 45.32064
# Shear Modulus (GPa) = 21.54213 22.81445 22.17829
#
# Velocity S-wave (km/s) = 3.42872 3.52852 3.47898
# Velocity P-wave (km/s) = 6.15697 6.62062 6.39300
#
# Compressibility (1/GPa) = 0.02454528
#
# Stress axis : x y z
#
# Youngs Moduli (GPa) = 43.32737 54.85607 58.54885
#
# Poissons Ratio (x) = 0.18494 0.36835
# Poissons Ratio (y) = 0.14607 0.42503
# Poissons Ratio (z) = 0.27259 0.39822
#
# Static dielectric constant tensor:
#      x y z
#    x 3.422400 0.000000 -0.013110 
#    y 0.000000 3.272680 0.000000 
#    z -0.013110 0.000000 3.368440 
# 
# 
# High freq. dielectric constant tensor:
#      x y z
#    x 1.718710 0.000000 -0.000570 
#    y 0.000000 1.694210 0.000000 
#    z -0.000570 0.000000 1.706920 
# 
# From -- ./inp_files/232531.got.cif
#   From: 2010.06.25/outbox.cif.g09.slc.cpg/sg12_117_cif.got.tgz:232531.got - 2010.06.28 00:19:55.
