data_PCOD8088926
_publ_section_title
;
Structure prediction by ZEFSAII (Michael W. Deem and Ramdas Pophale) SiO2 
 PCOD8088926
Probable space group: C 2/M
;
_chemical_formula_sum "Si O2"
_cell_formula_units_Z 64
_cell_length_a 23.542165
_cell_length_b 13.520144
_cell_length_c 13.477884
_cell_angle_alpha 90.000000
_cell_angle_beta 130.071786
_cell_angle_gamma 90.000000
_cell_volume 3282.813706
_symmetry_space_group_name_H-M "C 2/M"
_symmetry_group_IT_number 12
_symmetry_cell_setting 'monoclinic'
loop_
_space_group_symop_operation_xyz
x,y,z
-x,y,-z
-x,-y,-z
x,-y,z
1/2+x,1/2+y,z
1/2-x,1/2+y,-z
1/2-x,1/2-y,-z
1/2+x,1/2-y,z
loop_
_atom_site_type_symbol
_atom_site_label
_atom_site_fract_x
_atom_site_fract_y
_atom_site_fract_z
Si Si1 0.322289 0.262672 0.328491
Si Si2 0.600235 0.813575 0.226240
Si Si3 0.194676 0.386501 0.514077
Si Si4 0.044188 0.614259 0.849590
Si Si5 0.938078 0.110951 0.572272
Si Si6 0.180786 0.611664 0.132516
Si Si7 0.544780 0.217628 0.645003
Si Si8 0.137024 0.107714 0.304983
O O1 0.308002 0.169549 0.383945
O O2 0.367827 0.348013 0.434146
O O3 0.245627 0.308209 0.204108
O O4 0.368438 0.226565 0.284451
O O5 0.639700 0.833179 0.376161
O O6 0.512715 0.829006 0.141991
O O7 0.633598 0.885106 0.181044
O O8 0.614972 0.699347 0.209422
O O9 0.169677 0.500000 0.502235
O O10 0.277753 0.380854 0.563215
O O11 0.024447 0.500000 0.836525
O O12 0.035155 0.644228 0.725456
O O13 0.127053 0.637636 0.980181
O O14 0.918444 0.112727 0.665412
O O15 0.011625 0.174969 0.635265
O O16 0.954866 0.000000 0.555015
O O17 0.212017 0.500000 0.157561
O O18 0.500000 0.173796 0.500000
O O19 0.127966 0.000000 0.241131
#
# Coordination Sequence:
#
# PCOD8088926 Si02
#       8
#     8   8   8   8   8   8   8   8
#     4  11  21  36  57  84 116 153 190 227 282 333
#     4  12  19  37  60  85 118 150 185 231 288 339
#     4  11  21  33  55  89 120 146 182 231 286 341
#     4  11  24  41  58  82 115 150 192 237 279 330
#     4  10  19  34  57  87 117 143 181 236 289 337
#     4  11  24  38  58  85 113 151 193 232 279 340
#     4  10  22  38  60  86 111 146 190 232 288 338
#     4  10  19  32  56  85 117 149 179 225 288 339
#
# _framework density 19.495471999999999
#
# number of rings (size 3 to 8) (size 9 to 14) (size 15 to 20)
#    0.000    1.250    3.750    3.750    0.000    6.000 
#    0.000    0.000    0.000    3.750    0.000    0.000 
#    0.000    0.000    0.000    0.000    0.000    0.000 
#
# Total GULP energy -396826.262109 kJ/mol
# GULP energy per Si atom -12400.820691 kJ/mol
# Density = 1.945110 g / cm^3
# Si number density = 19.495472 Si / 1000 Ang^3
#
#
#
# Elastic Constant Matrix: (Units=GPa)
#
#
# Indices 1 2 3 4 5 6 
#
# 1 98.0122 17.7350 27.1523 0.0000 10.7912 0.0000
# 2 17.7350 116.3449 41.0685 0.0000 7.6789 0.0000
# 3 27.1523 41.0685 65.6709 0.0000 6.7056 0.0000
# 4 0.0000 0.0000 0.0000 24.8673 0.0000 -0.3442
# 5 10.7912 7.6789 6.7056 0.0000 18.3863 0.0000
# 6 0.0000 0.0000 0.0000 -0.3442 0.0000 22.7163
#
#
#
# Elastic Compliance Matrix: (Units=1/GPa)
#
#
# Indices 1 2 3 4 5 6 
#
# 1 0.012027 0.000110 -0.004483 0.000000 -0.005470 0.000000
# 2 0.000110 0.011115 -0.006768 0.000000 -0.002238 0.000000
# 3 -0.004483 -0.006768 0.021559 0.000000 -0.002405 0.000000
# 4 0.000000 0.000000 0.000000 0.040222 0.000000 0.000609
# 5 -0.005470 -0.002238 -0.002405 0.000000 0.059411 0.000000
# 6 0.000000 0.000000 0.000000 0.000609 0.000000 0.044030
#
#
# Mechanical properties :
#
#
# Convention : Reuss Voigt Hill
#
# Bulk Modulus (GPa) = 44.60428 50.21553 47.40991
# Shear Modulus (GPa) = 22.92325 26.13213 24.52769
#
# Velocity S-wave (km/s) = 3.43275 3.66515 3.55085
# Velocity P-wave (km/s) = 6.21616 6.61245 6.41737
#
# Compressibility (1/GPa) = 0.02241937
#
# Stress axis : x y z
#
# Youngs Moduli (GPa) = 83.14584 89.96742 46.38413
#
# Poissons Ratio (x) = -0.00991 0.20794
# Poissons Ratio (y) = -0.00916 0.31393
# Poissons Ratio (z) = 0.37275 0.60890
#
# Static dielectric constant tensor:
#      x y z
#    x 3.627090 0.000000 0.133870 
#    y 0.000000 3.794370 0.000000 
#    z 0.133870 0.000000 3.357200 
# 
# 
# High freq. dielectric constant tensor:
#      x y z
#    x 1.762490 0.000000 0.013200 
#    y 0.000000 1.769250 0.000000 
#    z 0.013200 0.000000 1.728040 
# 
# From -- ./inp_files/246371.got.cif
#   From: 2010.06.25/outbox.cif.g09.slc.cpg/sg12_124_cif.got.tgz:246371.got - 2010.06.28 00:19:55.
