data_PCOD8088232
_publ_section_title
;
Structure prediction by ZEFSAII (Michael W. Deem and Ramdas Pophale) SiO2 
 PCOD8088232
Probable space group: C 2/M
;
_chemical_formula_sum "Si O2"
_cell_formula_units_Z 64
_cell_length_a 23.082003
_cell_length_b 17.945060
_cell_length_c 12.187546
_cell_angle_alpha 90.000000
_cell_angle_beta 46.691739
_cell_angle_gamma 90.000000
_cell_volume 3673.427345
_symmetry_space_group_name_H-M "C 2/M"
_symmetry_group_IT_number 12
_symmetry_cell_setting 'monoclinic'
loop_
_space_group_symop_operation_xyz
x,y,z
-x,y,-z
-x,-y,-z
x,-y,z
1/2+x,1/2+y,z
1/2-x,1/2+y,-z
1/2-x,1/2-y,-z
1/2+x,1/2-y,z
loop_
_atom_site_type_symbol
_atom_site_label
_atom_site_fract_x
_atom_site_fract_y
_atom_site_fract_z
Si Si1 0.302923 0.412145 0.803484
Si Si2 0.495096 0.081804 0.875894
Si Si3 0.157201 0.335470 0.902002
Si Si4 0.666701 0.912816 0.660604
Si Si5 0.829999 0.912502 0.349411
Si Si6 0.908747 0.913463 0.467406
Si Si7 0.576052 0.414563 0.170197
Si Si8 0.415639 0.318902 0.055180
O O1 0.280758 0.500000 0.816732
O O2 0.226640 0.357546 0.897083
O O3 0.365469 0.382029 0.631325
O O4 0.342061 0.399498 0.871885
O O5 0.581032 0.112028 0.721209
O O6 0.477702 0.000000 0.849366
O O7 0.500000 0.078067 0.000000
O O8 0.423849 0.135729 0.935041
O O9 0.182741 0.372912 0.754799
O O10 0.142917 0.248697 0.899028
O O11 0.735561 0.895080 0.483376
O O12 0.663986 0.000000 0.692925
O O13 0.871965 0.879648 0.403575
O O14 0.865079 0.871316 0.199714
O O15 0.846091 0.000000 0.312576
O O16 0.003121 0.897670 0.348506
O O17 0.889368 0.000000 0.490196
O O18 0.571247 0.500000 0.136527
O O19 0.565483 0.363393 0.078978
O O20 0.500000 0.293216 0.000000
#
# Coordination Sequence:
#
# PCOD8088232 Si02
#       8
#     8   8   8   8   8   8   8   8
#     4  10  19  34  57  82 102 126 171 221 261 300
#     4   8  14  26  46  69  96 126 159 205 258 302
#     4  11  20  31  48  74 105 136 165 207 257 305
#     4   9  16  30  50  73  99 128 169 217 261 299
#     4  10  19  32  53  75 100 135 171 211 255 302
#     4   9  16  31  55  80 101 123 162 218 265 297
#     4  10  21  36  55  76 101 137 176 213 252 299
#     4  12  24  35  48  72 109 148 175 197 242 311
#
# _framework density 17.422421
#
# number of rings (size 3 to 8) (size 9 to 14) (size 15 to 20)
#    0.000    2.125    2.500    3.750    0.000    3.000 
#    0.000    0.000    0.000    0.000    0.000    0.875 
#    0.000    5.000    0.000    0.000    0.000    0.250 
#
# Total GULP energy -396606.947400 kJ/mol
# GULP energy per Si atom -12393.967106 kJ/mol
# Density = 1.738277 g / cm^3
# Si number density = 17.422421 Si / 1000 Ang^3
#
#
#
# Elastic Constant Matrix: (Units=GPa)
#
#
# Indices 1 2 3 4 5 6 
#
# 1 92.7825 36.6214 31.7847 0.0000 -16.5939 0.0000
# 2 36.6214 57.0724 22.3553 0.0000 -7.1749 0.0000
# 3 31.7847 22.3553 60.6399 0.0000 -16.5227 0.0000
# 4 0.0000 0.0000 0.0000 18.7507 0.0000 -5.9663
# 5 -16.5939 -7.1749 -16.5227 0.0000 27.5248 0.0000
# 6 0.0000 0.0000 0.0000 -5.9663 0.0000 21.4328
#
#
#
# Elastic Compliance Matrix: (Units=1/GPa)
#
#
# Indices 1 2 3 4 5 6 
#
# 1 0.016379 -0.008237 -0.004116 0.000000 0.005256 0.000000
# 2 -0.008237 0.024642 -0.005225 0.000000 -0.001678 0.000000
# 3 -0.004116 -0.005225 0.023346 0.000000 0.010170 0.000000
# 4 0.000000 0.000000 0.000000 0.058514 0.000000 0.016289
# 5 0.005256 -0.001678 0.010170 0.000000 0.045167 0.000000
# 6 0.000000 0.000000 0.000000 0.016289 0.000000 0.051192
#
#
# Mechanical properties :
#
#
# Convention : Reuss Voigt Hill
#
# Bulk Modulus (GPa) = 34.23288 43.55750 38.89519
# Shear Modulus (GPa) = 18.92982 21.52391 20.22686
#
# Velocity S-wave (km/s) = 3.29982 3.51866 3.41099
# Velocity P-wave (km/s) = 5.84891 6.44694 6.15520
#
# Compressibility (1/GPa) = 0.02921168
#
# Stress axis : x y z
#
# Youngs Moduli (GPa) = 61.05291 40.58069 42.83445
#
# Poissons Ratio (x) = 0.33425 0.17633
# Poissons Ratio (y) = 0.50288 0.22379
# Poissons Ratio (z) = 0.25132 0.21201
#
# Static dielectric constant tensor:
#      x y z
#    x 3.260140 0.000000 -0.388810 
#    y 0.000000 3.022250 0.000000 
#    z -0.388810 0.000000 3.343570 
# 
# 
# High freq. dielectric constant tensor:
#      x y z
#    x 1.658150 0.000000 -0.029610 
#    y 0.000000 1.646070 0.000000 
#    z -0.029610 0.000000 1.666310 
# 
# From -- ./inp_files/168496.got.cif
#   From: 2010.06.25/outbox.cif.g09.slc.cpg/sg12_85_cif.got.tgz:168496.got - 2010.06.28 00:19:55.
