data_PCOD8088806
_publ_section_title
;
Structure prediction by ZEFSAII (Michael W. Deem and Ramdas Pophale) SiO2 
 PCOD8088806
Probable space group: C 2/M
;
_chemical_formula_sum "Si O2"
_cell_formula_units_Z 56
_cell_length_a 20.605079
_cell_length_b 8.816365
_cell_length_c 17.243036
_cell_angle_alpha 90.000000
_cell_angle_beta 74.361353
_cell_angle_gamma 90.000000
_cell_volume 3016.444086
_symmetry_space_group_name_H-M "C 2/M"
_symmetry_group_IT_number 12
_symmetry_cell_setting 'monoclinic'
loop_
_space_group_symop_operation_xyz
x,y,z
-x,y,-z
-x,-y,-z
x,-y,z
1/2+x,1/2+y,z
1/2-x,1/2+y,-z
1/2-x,1/2-y,-z
1/2+x,1/2-y,z
loop_
_atom_site_type_symbol
_atom_site_label
_atom_site_fract_x
_atom_site_fract_y
_atom_site_fract_z
Si Si1 0.927830 0.320754 0.823216
Si Si2 0.785679 0.673490 0.592937
Si Si3 0.838449 0.320887 0.166460
Si Si4 0.652450 0.825098 0.584825
Si Si5 0.802095 0.324601 0.762092
Si Si6 0.431575 0.678428 0.266451
Si Si7 0.571919 0.179545 0.002734
O O1 0.939577 0.500000 0.815574
O O2 0.866626 0.267770 0.788837
O O3 0.994832 0.241617 0.772281
O O4 0.910905 0.265925 0.915956
O O5 0.759976 0.500000 0.592326
O O6 0.722525 0.784049 0.604077
O O7 0.841675 0.708755 0.509159
O O8 0.818713 0.700950 0.666079
O O9 0.845586 0.500000 0.174187
O O10 0.760887 0.274156 0.190399
O O11 0.877045 0.243347 0.224526
O O12 0.870762 0.264019 0.074983
O O13 0.591588 0.726511 0.639628
O O14 0.636837 0.000000 0.606556
O O15 0.786116 0.500000 0.784931
O O16 0.432734 0.500000 0.258300
O O17 0.567327 0.000000 0.001828
O O18 0.500000 0.248996 0.000000
#
# Coordination Sequence:
#
# PCOD8088806 Si02
#       7
#     8   8   8   8   8   8   8
#     4  10  21  39  60  80 110 153 188 221 278 339
#     4   9  18  33  53  82 116 144 179 229 275 322
#     4  11  21  35  59  84 110 148 189 227 275 334
#     4  10  19  32  55  83 109 145 187 226 275 331
#     4  10  21  37  57  84 117 148 180 226 279 330
#     4  12  23  36  55  83 114 143 186 240 282 323
#     4   9  17  33  57  83 110 141 187 233 269 323
#
# _framework density 18.564906000000001
#
# number of rings (size 3 to 8) (size 9 to 14) (size 15 to 20)
#    0.000    1.857    2.857    2.143    0.000    1.714 
#    0.000    2.857    0.000    4.286    0.000    0.000 
#    0.000    0.000    0.000    0.000    0.000    0.000 
#
# Total GULP energy -347236.633474 kJ/mol
# GULP energy per Si atom -12401.308338 kJ/mol
# Density = 1.852265 g / cm^3
# Si number density = 18.564906 Si / 1000 Ang^3
#
#
#
# Elastic Constant Matrix: (Units=GPa)
#
#
# Indices 1 2 3 4 5 6 
#
# 1 105.9588 44.3767 67.5272 0.0000 1.2792 0.0000
# 2 44.3767 59.6601 41.6415 0.0000 -7.3217 0.0000
# 3 67.5272 41.6415 159.7500 0.0000 -5.6276 0.0000
# 4 0.0000 0.0000 0.0000 20.8640 0.0000 -6.4097
# 5 1.2792 -7.3217 -5.6276 0.0000 33.3841 0.0000
# 6 0.0000 0.0000 0.0000 -6.4097 0.0000 26.6851
#
#
#
# Elastic Compliance Matrix: (Units=1/GPa)
#
#
# Indices 1 2 3 4 5 6 
#
# 1 0.016320 -0.009367 -0.004579 0.000000 -0.003452 0.000000
# 2 -0.009367 0.026309 -0.002698 0.000000 0.005674 0.000000
# 3 -0.004579 -0.002698 0.008937 0.000000 0.001090 0.000000
# 4 0.000000 0.000000 0.000000 0.051748 0.000000 0.012430
# 5 -0.003452 0.005674 0.001090 0.000000 0.031515 0.000000
# 6 0.000000 0.000000 0.000000 0.012430 0.000000 0.040460
#
#
# Mechanical properties :
#
#
# Convention : Reuss Voigt Hill
#
# Bulk Modulus (GPa) = 54.71116 70.27331 62.49223
# Shear Modulus (GPa) = 23.29157 27.64154 25.46655
#
# Velocity S-wave (km/s) = 3.54588 3.86283 3.70774
# Velocity P-wave (km/s) = 6.80430 7.60462 7.21556
#
# Compressibility (1/GPa) = 0.01827781
#
# Stress axis : x y z
#
# Youngs Moduli (GPa) = 61.27335 38.00976 111.89528
#
# Poissons Ratio (x) = 0.35605 0.51232
# Poissons Ratio (y) = 0.57397 0.30194
# Poissons Ratio (z) = 0.28054 0.10256
#
# Static dielectric constant tensor:
#      x y z
#    x 3.309270 0.000000 -0.002930 
#    y 0.000000 3.292360 0.000000 
#    z -0.002930 0.000000 3.857330 
# 
# 
# High freq. dielectric constant tensor:
#      x y z
#    x 1.697580 0.000000 -0.005050 
#    y 0.000000 1.708000 0.000000 
#    z -0.005050 0.000000 1.741580 
# 
# From -- ./inp_files/275237.got.cif
#   From: 2010.06.25/outbox.cif.g09.slc.cpg/sg12_138_cif.got.tgz:275237.got - 2010.06.28 00:19:55.
