data_PCOD8088454
_publ_section_title
;
Structure prediction by ZEFSAII (Michael W. Deem and Ramdas Pophale) SiO2 
 PCOD8088454
Probable space group: C 2/M
;
_chemical_formula_sum "Si O2"
_cell_formula_units_Z 56
_cell_length_a 23.238375
_cell_length_b 9.633317
_cell_length_c 14.220137
_cell_angle_alpha 90.000000
_cell_angle_beta 109.969621
_cell_angle_gamma 90.000000
_cell_volume 2991.954235
_symmetry_space_group_name_H-M "C 2/M"
_symmetry_group_IT_number 12
_symmetry_cell_setting 'monoclinic'
loop_
_space_group_symop_operation_xyz
x,y,z
-x,y,-z
-x,-y,-z
x,-y,z
1/2+x,1/2+y,z
1/2-x,1/2+y,-z
1/2-x,1/2-y,-z
1/2+x,1/2-y,z
loop_
_atom_site_type_symbol
_atom_site_label
_atom_site_fract_x
_atom_site_fract_y
_atom_site_fract_z
Si Si1 0.088457 0.161352 0.786612
Si Si2 0.724683 0.656452 0.903551
Si Si3 0.704470 0.159664 0.358419
Si Si4 0.155973 0.345363 0.139639
Si Si5 0.680021 0.838844 0.554640
Si Si6 0.939447 0.161251 0.017874
Si Si7 0.941975 0.337453 0.404777
O O1 0.159046 0.211141 0.831429
O O2 0.055660 0.189742 0.868305
O O3 0.053872 0.252665 0.689842
O O4 0.083818 0.000000 0.755922
O O5 0.716442 0.500000 0.938230
O O6 0.772099 0.661773 0.844588
O O7 0.750000 0.750000 0.000000
O O8 0.653617 0.189854 0.249534
O O9 0.672506 0.194579 0.439665
O O10 0.763709 0.253206 0.372336
O O11 0.726081 0.000000 0.366438
O O12 0.130129 0.500000 0.105180
O O13 0.118999 0.237587 0.057084
O O14 0.618206 0.792400 0.571552
O O15 0.693917 0.000000 0.579731
O O16 0.929670 0.000000 0.991020
O O17 0.000000 0.217904 0.000000
O O18 0.941853 0.500000 0.380117
O O19 0.000000 0.297133 0.500000
#
# Coordination Sequence:
#
# PCOD8088454 Si02
#       7
#     8   8   8   8   8   8   8
#     4  10  21  38  58  81 109 142 180 225 273 320
#     4  10  19  32  53  81 110 140 177 219 266 319
#     4   9  18  33  54  79 109 140 173 219 269 319
#     4  10  20  33  53  82 110 139 178 219 265 321
#     4   9  18  34  54  78 107 140 177 219 270 320
#     4  10  22  39  56  76 107 144 180 219 264 320
#     4  10  22  38  56  80 109 142 183 227 270 320
#
# _framework density 18.716863
#
# number of rings (size 3 to 8) (size 9 to 14) (size 15 to 20)
#    0.000    2.286    1.429    0.857    0.000    5.143 
#    0.000    1.429    0.000    0.000    0.000    0.000 
#    0.000    0.000    0.000    0.000    0.000    0.000 
#
# Total GULP energy -347240.060335 kJ/mol
# GULP energy per Si atom -12401.430726 kJ/mol
# Density = 1.867426 g / cm^3
# Si number density = 18.716863 Si / 1000 Ang^3
#
#
#
# Elastic Constant Matrix: (Units=GPa)
#
#
# Indices 1 2 3 4 5 6 
#
# 1 95.7096 32.2971 40.6887 0.0000 -4.4866 0.0000
# 2 32.2971 61.9215 58.5223 0.0000 -0.2297 0.0000
# 3 40.6887 58.5223 127.6918 0.0000 -2.6534 0.0000
# 4 0.0000 0.0000 0.0000 35.2622 0.0000 -0.3103
# 5 -4.4866 -0.2297 -2.6534 0.0000 22.2422 0.0000
# 6 0.0000 0.0000 0.0000 -0.3103 0.0000 23.1782
#
#
#
# Elastic Compliance Matrix: (Units=1/GPa)
#
#
# Indices 1 2 3 4 5 6 
#
# 1 0.013037 -0.005136 -0.001751 0.000000 0.002368 0.000000
# 2 -0.005136 0.030549 -0.012410 0.000000 -0.002201 0.000000
# 3 -0.001751 -0.012410 0.014102 0.000000 0.001201 0.000000
# 4 0.000000 0.000000 0.000000 0.028362 0.000000 0.000380
# 5 0.002368 -0.002201 0.001201 0.000000 0.045558 0.000000
# 6 0.000000 0.000000 0.000000 0.000380 0.000000 0.043149
#
#
# Mechanical properties :
#
#
# Convention : Reuss Voigt Hill
#
# Bulk Modulus (GPa) = 52.37397 60.92655 56.65026
# Shear Modulus (GPa) = 22.75671 26.39085 24.57378
#
# Velocity S-wave (km/s) = 3.49067 3.75908 3.62736
# Velocity P-wave (km/s) = 6.65503 7.17379 6.91927
#
# Compressibility (1/GPa) = 0.01909345
#
# Stress axis : x y z
#
# Youngs Moduli (GPa) = 76.70562 32.73437 70.91249
#
# Poissons Ratio (x) = 0.16813 0.12417
# Poissons Ratio (y) = 0.39397 0.88002
# Poissons Ratio (z) = 0.13432 0.40623
#
# Static dielectric constant tensor:
#      x y z
#    x 3.559090 0.000000 -0.163130 
#    y 0.000000 3.383450 0.000000 
#    z -0.163130 0.000000 3.387350 
# 
# 
# High freq. dielectric constant tensor:
#      x y z
#    x 1.722940 0.000000 -0.013450 
#    y 0.000000 1.722360 0.000000 
#    z -0.013450 0.000000 1.727770 
# 
# From -- ./inp_files/237416.got.cif
#   From: 2010.06.25/outbox.cif.g09.slc.cpg/sg12_119_cif.got.tgz:237416.got - 2010.06.28 00:19:55.
