data_PCOD8088750
_publ_section_title
;
Structure prediction by ZEFSAII (Michael W. Deem and Ramdas Pophale) SiO2 
 PCOD8088750
Probable space group: C 2/M
;
_chemical_formula_sum "Si O2"
_cell_formula_units_Z 64
_cell_length_a 24.848451
_cell_length_b 8.620896
_cell_length_c 14.821720
_cell_angle_alpha 90.000000
_cell_angle_beta 104.409425
_cell_angle_gamma 90.000000
_cell_volume 3075.168356
_symmetry_space_group_name_H-M "C 2/M"
_symmetry_group_IT_number 12
_symmetry_cell_setting 'monoclinic'
loop_
_space_group_symop_operation_xyz
x,y,z
-x,y,-z
-x,-y,-z
x,-y,z
1/2+x,1/2+y,z
1/2-x,1/2+y,-z
1/2-x,1/2-y,-z
1/2+x,1/2-y,z
loop_
_atom_site_type_symbol
_atom_site_label
_atom_site_fract_x
_atom_site_fract_y
_atom_site_fract_z
Si Si1 0.089412 0.321897 0.202882
Si Si2 0.966715 0.675327 0.176560
Si Si3 0.906163 0.178986 0.600388
Si Si4 0.347265 0.822332 0.075315
Si Si5 0.181042 0.819751 0.121311
Si Si6 0.132703 0.319596 0.589287
Si Si7 0.032256 0.825045 0.637070
Si Si8 0.207377 0.181864 0.773819
O O1 0.107341 0.500000 0.197515
O O2 0.099645 0.275206 0.310526
O O3 0.124871 0.216584 0.151150
O O4 0.024723 0.296126 0.148597
O O5 0.967023 0.500000 0.217028
O O6 0.913890 0.696802 0.088586
O O7 0.961219 0.798742 0.253811
O O8 0.863241 0.249128 0.509828
O O9 0.967880 0.196604 0.583402
O O10 0.892155 0.000000 0.614546
O O11 0.328830 0.725735 0.154344
O O12 0.330636 0.000000 0.085992
O O13 0.316180 0.765874 0.973403
O O14 0.233339 0.766279 0.201827
O O15 0.184263 0.000000 0.102773
O O16 0.147303 0.500000 0.593311
O O17 0.070341 0.296005 0.600071
O O18 0.176344 0.231693 0.670218
O O19 0.052346 0.000000 0.623364
O O20 0.217489 0.000000 0.776771
#
# Coordination Sequence:
#
# PCOD8088750 Si02
#       8
#     8   8   8   8   8   8   8   8
#     4  10  21  41  64  90 123 163 207 253 301 358
#     4   9  19  35  60  90 125 162 199 246 303 360
#     4  10  21  37  58  88 123 162 204 249 299 356
#     4  11  22  40  65  95 126 159 199 250 306 367
#     4  12  26  44  64  88 119 163 208 254 304 362
#     4  12  23  36  57  88 123 161 202 247 302 365
#     4  10  19  32  54  85 124 162 200 246 299 356
#     4  12  25  43  65  91 122 158 201 257 310 363
#
# _framework density 20.811869999999999
#
# number of rings (size 3 to 8) (size 9 to 14) (size 15 to 20)
#    0.000    1.250    1.250    5.625    0.000    4.500 
#    0.000    3.125    0.000    0.000    0.000    0.000 
#    0.000    0.000    0.000    0.000    0.000    0.000 
#
# Total GULP energy -396922.386296 kJ/mol
# GULP energy per Si atom -12403.824572 kJ/mol
# Density = 2.076450 g / cm^3
# Si number density = 20.811870 Si / 1000 Ang^3
#
#
#
# Elastic Constant Matrix: (Units=GPa)
#
#
# Indices 1 2 3 4 5 6 
#
# 1 64.5294 31.1502 9.2450 0.0000 4.7520 0.0000
# 2 31.1502 46.7378 17.6555 0.0000 5.6096 0.0000
# 3 9.2450 17.6555 62.0783 0.0000 19.1293 0.0000
# 4 0.0000 0.0000 0.0000 27.7896 0.0000 -2.2378
# 5 4.7520 5.6096 19.1293 0.0000 18.2849 0.0000
# 6 0.0000 0.0000 0.0000 -2.2378 0.0000 31.7375
#
#
#
# Elastic Compliance Matrix: (Units=1/GPa)
#
#
# Indices 1 2 3 4 5 6 
#
# 1 0.023044 -0.015741 0.002070 0.000000 -0.003325 0.000000
# 2 -0.015741 0.034725 -0.008131 0.000000 0.001944 0.000000
# 3 0.002070 -0.008131 0.025840 0.000000 -0.025077 0.000000
# 4 0.000000 0.000000 0.000000 0.036190 0.000000 0.002552
# 5 -0.003325 0.001944 -0.025077 0.000000 0.081192 0.000000
# 6 0.000000 0.000000 0.000000 0.002552 0.000000 0.031688
#
#
# Mechanical properties :
#
#
# Convention : Reuss Voigt Hill
#
# Bulk Modulus (GPa) = 24.99707 32.16076 28.57892
# Shear Modulus (GPa) = 17.26396 23.24873 20.25634
#
# Velocity S-wave (km/s) = 2.88327 3.34592 3.12317
# Velocity P-wave (km/s) = 4.80847 5.51484 5.17373
#
# Compressibility (1/GPa) = 0.04000469
#
# Stress axis : x y z
#
# Youngs Moduli (GPa) = 43.39549 28.79732 38.69911
#
# Poissons Ratio (x) = 0.45330 -0.08009
# Poissons Ratio (y) = 0.68310 0.31466
# Poissons Ratio (z) = -0.08981 0.23415
#
# Static dielectric constant tensor:
#      x y z
#    x 3.712620 0.000000 0.194130 
#    y 0.000000 3.814410 0.000000 
#    z 0.194130 0.000000 3.708710 
# 
# 
# High freq. dielectric constant tensor:
#      x y z
#    x 1.800420 0.000000 0.013400 
#    y 0.000000 1.825680 0.000000 
#    z 0.013400 0.000000 1.813830 
# 
# From -- ./inp_files/244237.got.cif
#   From: 2010.06.25/outbox.cif.g09.slc.cpg/sg12_123_cif.got.tgz:244237.got - 2010.06.28 00:19:55.
