data_PCOD8088943
_publ_section_title
;
Structure prediction by ZEFSAII (Michael W. Deem and Ramdas Pophale) SiO2 
 PCOD8088943
Probable space group: C 2/M
;
_chemical_formula_sum "Si O2"
_cell_formula_units_Z 56
_cell_length_a 8.503205
_cell_length_b 25.852138
_cell_length_c 16.633302
_cell_angle_alpha 90.000000
_cell_angle_beta 44.500812
_cell_angle_gamma 90.000000
_cell_volume 2562.864534
_symmetry_space_group_name_H-M "C 2/M"
_symmetry_group_IT_number 12
_symmetry_cell_setting 'monoclinic'
loop_
_space_group_symop_operation_xyz
x,y,z
-x,y,-z
-x,-y,-z
x,-y,z
1/2+x,1/2+y,z
1/2-x,1/2+y,-z
1/2-x,1/2-y,-z
1/2+x,1/2-y,z
loop_
_atom_site_type_symbol
_atom_site_label
_atom_site_fract_x
_atom_site_fract_y
_atom_site_fract_z
Si Si1 0.157732 0.309105 0.697689
Si Si2 0.737971 0.625767 0.889648
Si Si3 0.120784 0.214781 0.610049
Si Si4 0.489176 0.061255 0.913976
Si Si5 0.297031 0.877340 0.477190
Si Si6 0.957790 0.941303 0.682564
Si Si7 0.722024 0.060196 0.285449
O O1 0.103271 0.248835 0.696644
O O2 0.374237 0.306023 0.675555
O O3 0.214517 0.344997 0.600691
O O4 0.932920 0.330951 0.821333
O O5 0.724006 0.595077 0.811074
O O6 0.775971 0.583939 0.946121
O O7 0.500000 0.652079 0.000000
O O8 0.250000 0.250000 0.500000
O O9 0.277912 0.163414 0.559822
O O10 0.706365 0.080305 0.784486
O O11 0.469122 0.000000 0.924001
O O12 0.500000 0.083557 0.000000
O O13 0.074408 0.912207 0.566271
O O14 0.506231 0.915661 0.408851
O O15 0.075386 0.935787 0.726322
O O16 0.947947 0.000000 0.658743
O O17 0.676720 0.000000 0.278333
#
# Coordination Sequence:
#
# PCOD8088943 Si02
#       7
#     8   8   8   8   8   8   8
#     4  10  23  40  60  89 117 148 200 251 300 362
#     4  11  23  41  62  84 115 157 202 250 301 351
#     4  10  20  37  60  84 114 148 187 239 298 361
#     4  10  21  37  58  85 116 154 202 248 292 350
#     4  10  19  32  56  87 120 155 189 233 289 355
#     4  10  20  34  54  84 122 160 195 235 288 351
#     4  10  21  35  55  88 125 160 200 242 285 347
#
# _framework density 21.850549999999998
#
# number of rings (size 3 to 8) (size 9 to 14) (size 15 to 20)
#    0.000    1.857    0.000    4.714    0.000   10.286 
#    0.000    2.143    0.000    9.429    0.000    0.000 
#    0.000    0.000    0.000    0.000    0.000    0.000 
#
# Total GULP energy -346999.378091 kJ/mol
# GULP energy per Si atom -12392.834932 kJ/mol
# Density = 2.180082 g / cm^3
# Si number density = 21.850550 Si / 1000 Ang^3
#
#
#
# Elastic Constant Matrix: (Units=GPa)
#
#
# Indices 1 2 3 4 5 6 
#
# 1 56.2195 5.5373 20.1421 0.0000 -11.0187 0.0000
# 2 5.5373 69.8989 45.3541 0.0000 -14.4663 0.0000
# 3 20.1421 45.3541 118.8161 0.0000 -20.0325 0.0000
# 4 0.0000 0.0000 0.0000 26.3781 0.0000 -8.1652
# 5 -11.0187 -14.4663 -20.0325 0.0000 31.3582 0.0000
# 6 0.0000 0.0000 0.0000 -8.1652 0.0000 32.2904
#
#
#
# Elastic Compliance Matrix: (Units=1/GPa)
#
#
# Indices 1 2 3 4 5 6 
#
# 1 0.019836 0.001562 -0.002984 0.000000 0.005785 0.000000
# 2 0.001562 0.019760 -0.006924 0.000000 0.005241 0.000000
# 3 -0.002984 -0.006924 0.012159 0.000000 0.003525 0.000000
# 4 0.000000 0.000000 0.000000 0.041130 0.000000 0.010400
# 5 0.005785 0.005241 0.003525 0.000000 0.038592 0.000000
# 6 0.000000 0.000000 0.000000 0.010400 0.000000 0.033599
#
#
# Mechanical properties :
#
#
# Convention : Reuss Voigt Hill
#
# Bulk Modulus (GPa) = 28.51896 43.00016 35.75956
# Shear Modulus (GPa) = 25.84572 29.59874 27.72223
#
# Velocity S-wave (km/s) = 3.44298 3.68448 3.56577
# Velocity P-wave (km/s) = 5.37453 6.15000 5.77530
#
# Compressibility (1/GPa) = 0.03506439
#
# Stress axis : x y z
#
# Youngs Moduli (GPa) = 50.41269 50.60758 82.24074
#
# Poissons Ratio (x) = -0.07903 0.24537
# Poissons Ratio (y) = -0.07873 0.56941
# Poissons Ratio (z) = 0.15041 0.35039
#
# Static dielectric constant tensor:
#      x y z
#    x 3.776180 0.000000 -0.150670 
#    y 0.000000 4.490650 0.000000 
#    z -0.150670 0.000000 4.047300 
# 
# 
# High freq. dielectric constant tensor:
#      x y z
#    x 1.850450 0.000000 -0.017330 
#    y 0.000000 1.863640 0.000000 
#    z -0.017330 0.000000 1.851850 
# 
# From -- ./inp_files/259811.got.cif
#   From: 2010.06.25/outbox.cif.g09.slc.cpg/sg12_130_cif.got.tgz:259811.got - 2010.06.28 00:19:55.
