data_PCOD8088039
_publ_section_title
;
Structure prediction by ZEFSAII (Michael W. Deem and Ramdas Pophale) SiO2 
 PCOD8088039
Probable space group: C 2/M
;
_chemical_formula_sum "Si O2"
_cell_formula_units_Z 64
_cell_length_a 23.935200
_cell_length_b 9.095315
_cell_length_c 16.196726
_cell_angle_alpha 90.000000
_cell_angle_beta 89.543942
_cell_angle_gamma 90.000000
_cell_volume 3525.886132
_symmetry_space_group_name_H-M "C 2/M"
_symmetry_group_IT_number 12
_symmetry_cell_setting 'monoclinic'
loop_
_space_group_symop_operation_xyz
x,y,z
-x,y,-z
-x,-y,-z
x,-y,z
1/2+x,1/2+y,z
1/2-x,1/2+y,-z
1/2-x,1/2-y,-z
1/2+x,1/2-y,z
loop_
_atom_site_type_symbol
_atom_site_label
_atom_site_fract_x
_atom_site_fract_y
_atom_site_fract_z
Si Si1 0.597422 0.669053 0.199972
Si Si2 0.184899 0.170637 0.341620
Si Si3 0.599228 0.170659 0.449859
Si Si4 0.175440 0.171358 0.059799
Si Si5 0.203135 0.170082 0.703811
Si Si6 0.587484 0.327506 0.619181
Si Si7 0.215505 0.170437 0.887440
Si Si8 0.487426 0.169648 0.695238
O O1 0.578064 0.500000 0.206272
O O2 0.649930 0.698723 0.259160
O O3 0.617566 0.712179 0.107012
O O4 0.545352 0.771376 0.223996
O O5 0.156283 0.254769 0.418257
O O6 0.247028 0.230633 0.330142
O O7 0.187908 0.000000 0.364932
O O8 0.578104 0.247617 0.532748
O O9 0.550448 0.194362 0.384499
O O10 0.610728 0.000000 0.466815
O O11 0.226095 0.248505 0.105365
O O12 0.186583 0.000000 0.071290
O O13 0.173310 0.216384 0.962727
O O14 0.149218 0.206906 0.650734
O O15 0.188499 0.208887 0.799419
O O16 0.220759 0.000000 0.695528
O O17 0.576615 0.500000 0.609108
O O18 0.543887 0.262169 0.685355
O O19 0.229543 0.000000 0.894516
O O20 0.502299 0.000000 0.708828
#
# Coordination Sequence:
#
# PCOD8088039 Si02
#       8
#     8   8   8   8   8   8   8   8
#     4   9  17  30  50  77 106 131 162 206 252 297
#     4  10  19  32  52  77 104 135 168 205 252 300
#     4  10  21  37  56  77 101 127 163 213 261 304
#     4   9  16  28  48  77 106 132 165 204 247 295
#     4  10  21  35  50  72 105 141 172 204 245 300
#     4  11  23  37  53  73  99 134 174 210 250 300
#     4   9  17  29  48  73 105 138 166 201 245 294
#     4  10  21  36  55  77  99 126 166 213 258 301
#
# _framework density 18.151465000000002
#
# number of rings (size 3 to 8) (size 9 to 14) (size 15 to 20)
#    0.000    2.250    1.250    1.875    0.000    5.500 
#    0.000    0.000    0.000    0.750    0.000    5.250 
#    0.000    0.000    0.000    0.000    0.000    0.000 
#
# Total GULP energy -396805.240439 kJ/mol
# GULP energy per Si atom -12400.163764 kJ/mol
# Density = 1.811015 g / cm^3
# Si number density = 18.151465 Si / 1000 Ang^3
#
#
#
# Elastic Constant Matrix: (Units=GPa)
#
#
# Indices 1 2 3 4 5 6 
#
# 1 78.2589 47.2280 18.4841 0.0000 -26.8317 0.0000
# 2 47.2280 87.4817 24.6302 0.0000 -15.3145 0.0000
# 3 18.4841 24.6302 53.4342 0.0000 -25.3323 0.0000
# 4 0.0000 0.0000 0.0000 22.7517 0.0000 -7.2784
# 5 -26.8317 -15.3145 -25.3323 0.0000 27.6639 0.0000
# 6 0.0000 0.0000 0.0000 -7.2784 0.0000 31.6246
#
#
#
# Elastic Compliance Matrix: (Units=1/GPa)
#
#
# Indices 1 2 3 4 5 6 
#
# 1 0.028417 -0.013026 0.010289 0.000000 0.029772 0.000000
# 2 -0.013026 0.019254 -0.009376 0.000000 -0.010561 0.000000
# 3 0.010289 -0.009376 0.038432 0.000000 0.039982 0.000000
# 4 0.000000 0.000000 0.000000 0.047446 0.000000 0.010920
# 5 0.029772 -0.010561 0.039982 0.000000 0.095791 0.000000
# 6 0.000000 0.000000 0.000000 0.010920 0.000000 0.034134
#
#
# Mechanical properties :
#
#
# Convention : Reuss Voigt Hill
#
# Bulk Modulus (GPa) = 16.16109 44.42882 30.29495
# Shear Modulus (GPa) = 16.21669 24.99687 20.60678
#
# Velocity S-wave (km/s) = 2.99224 3.71499 3.37303
# Velocity P-wave (km/s) = 4.56736 6.55221 5.64766
#
# Compressibility (1/GPa) = 0.06187703
#
# Stress axis : x y z
#
# Youngs Moduli (GPa) = 35.19075 51.93703 26.02011
#
# Poissons Ratio (x) = 0.67652 -0.26772
# Poissons Ratio (y) = 0.45839 0.24396
# Poissons Ratio (z) = -0.36207 0.48695
#
# Static dielectric constant tensor:
#      x y z
#    x 3.177070 0.000000 -0.279620 
#    y 0.000000 3.407220 0.000000 
#    z -0.279620 0.000000 3.544910 
# 
# 
# High freq. dielectric constant tensor:
#      x y z
#    x 1.682130 0.000000 -0.028290 
#    y 0.000000 1.709960 0.000000 
#    z -0.028290 0.000000 1.699500 
# 
# From -- ./inp_files/281303.got.cif
#   From: 2010.06.25/outbox.cif.g09.slc.cpg/sg12_141_cif.got.tgz:281303.got - 2010.06.28 00:19:55.
