data_PCOD8088382
_publ_section_title
;
Structure prediction by ZEFSAII (Michael W. Deem and Ramdas Pophale) SiO2 
 PCOD8088382
Probable space group: C 2/M
;
_chemical_formula_sum "Si O2"
_cell_formula_units_Z 56
_cell_length_a 19.853322
_cell_length_b 8.933868
_cell_length_c 28.414359
_cell_angle_alpha 90.000000
_cell_angle_beta 147.023615
_cell_angle_gamma 90.000000
_cell_volume 2743.112300
_symmetry_space_group_name_H-M "C 2/M"
_symmetry_group_IT_number 12
_symmetry_cell_setting 'monoclinic'
loop_
_space_group_symop_operation_xyz
x,y,z
-x,y,-z
-x,-y,-z
x,-y,z
1/2+x,1/2+y,z
1/2-x,1/2+y,-z
1/2-x,1/2-y,-z
1/2+x,1/2-y,z
loop_
_atom_site_type_symbol
_atom_site_label
_atom_site_fract_x
_atom_site_fract_y
_atom_site_fract_z
Si Si1 0.086088 0.833147 0.363486
Si Si2 0.684379 0.322131 0.823048
Si Si3 0.103962 0.675679 0.225087
Si Si4 0.323339 0.176250 0.085156
Si Si5 0.511689 0.330639 0.592074
Si Si6 0.750901 0.823286 0.766789
Si Si7 0.232015 0.175514 0.593162
O O1 0.074391 0.826200 0.412497
O O2 0.198577 0.732476 0.412553
O O3 0.958375 0.775816 0.265906
O O4 0.113518 0.000000 0.361984
O O5 0.704628 0.500000 0.835084
O O6 0.730503 0.249170 0.898609
O O7 0.758306 0.254057 0.822141
O O8 0.118900 0.500000 0.223752
O O9 0.129976 0.766632 0.192426
O O10 0.203431 0.736066 0.321709
O O11 0.967791 0.714298 0.163743
O O12 0.298872 0.000000 0.071987
O O13 0.250000 0.250000 0.000000
O O14 0.562402 0.500000 0.613392
O O15 0.628097 0.221884 0.665225
O O16 0.414858 0.281244 0.494137
O O17 0.754193 0.000000 0.775292
O O18 0.246433 0.000000 0.600190
#
# Coordination Sequence:
#
# PCOD8088382 Si02
#       7
#     8   8   8   8   8   8   8
#     4   9  17  29  49  79 114 150 191 240 293 344
#     4  10  20  38  63  89 120 157 195 240 296 354
#     4  10  22  40  60  85 119 158 196 241 296 353
#     4  11  23  41  67  97 125 152 190 238 292 355
#     4   9  19  34  51  77 114 158 201 244 294 345
#     4  11  23  38  59  85 118 160 204 247 290 346
#     4  10  19  32  53  79 112 154 201 246 292 347
#
# _framework density 20.414766
#
# number of rings (size 3 to 8) (size 9 to 14) (size 15 to 20)
#    0.000    2.000    1.429    3.429    0.000    5.143 
#    0.000    3.571    0.000    4.286    0.000    0.000 
#    0.000    0.000    0.000    0.000    0.000    0.000 
#
# Total GULP energy -347164.591879 kJ/mol
# GULP energy per Si atom -12398.735424 kJ/mol
# Density = 2.036830 g / cm^3
# Si number density = 20.414766 Si / 1000 Ang^3
#
#
#
# Elastic Constant Matrix: (Units=GPa)
#
#
# Indices 1 2 3 4 5 6 
#
# 1 85.3406 41.2873 22.5845 0.0000 -0.0501 0.0000
# 2 41.2873 87.1345 30.1908 0.0000 -5.0760 0.0000
# 3 22.5845 30.1908 75.0743 0.0001 -26.7509 0.0000
# 4 0.0000 0.0000 0.0001 28.9311 0.0000 -0.3360
# 5 -0.0501 -5.0760 -26.7509 0.0000 16.0020 0.0000
# 6 0.0000 0.0000 0.0000 -0.3360 0.0000 33.1438
#
#
#
# Elastic Compliance Matrix: (Units=1/GPa)
#
#
# Indices 1 2 3 4 5 6 
#
# 1 0.016778 -0.006035 -0.008121 0.000000 -0.015438 0.000000
# 2 -0.006035 0.016456 -0.007293 0.000000 -0.006991 0.000000
# 3 -0.008121 -0.007293 0.044179 0.000000 0.071516 0.000000
# 4 0.000000 0.000000 0.000000 0.034569 0.000000 0.000350
# 5 -0.015438 -0.006991 0.071516 0.000000 0.179780 0.000000
# 6 0.000000 0.000000 0.000000 0.000350 0.000000 0.030175
#
#
# Mechanical properties :
#
#
# Convention : Reuss Voigt Hill
#
# Bulk Modulus (GPa) = 28.97417 48.40828 38.69123
# Shear Modulus (GPa) = 13.28583 25.84785 19.56684
#
# Velocity S-wave (km/s) = 2.55384 3.56214 3.09927
# Velocity P-wave (km/s) = 4.78745 6.37827 5.63924
#
# Compressibility (1/GPa) = 0.03451350
#
# Stress axis : x y z
#
# Youngs Moduli (GPa) = 59.60284 60.76826 22.63520
#
# Poissons Ratio (x) = 0.36676 0.18382
# Poissons Ratio (y) = 0.35972 0.16508
# Poissons Ratio (z) = 0.48404 0.44319
#
# Static dielectric constant tensor:
#      x y z
#    x 3.725620 0.000000 -0.145150 
#    y 0.000000 3.556390 0.000000 
#    z -0.145150 0.000000 3.726880 
# 
# 
# High freq. dielectric constant tensor:
#      x y z
#    x 1.801510 0.000000 -0.009800 
#    y 0.000000 1.787770 0.000000 
#    z -0.009800 0.000000 1.783850 
# 
# From -- ./inp_files/380768.got.cif
#   From: 2010.06.25/outbox.cif.g09.slc.cpg/sg12_191_cif.got.tgz:380768.got - 2010.06.28 00:19:55.
