data_PCOD8088652
_publ_section_title
;
Structure prediction by ZEFSAII (Michael W. Deem and Ramdas Pophale) SiO2 
 PCOD8088652
Probable space group: C 2/M
;
_chemical_formula_sum "Si O2"
_cell_formula_units_Z 56
_cell_length_a 25.102707
_cell_length_b 13.587719
_cell_length_c 8.653706
_cell_angle_alpha 90.000000
_cell_angle_beta 108.206811
_cell_angle_gamma 90.000000
_cell_volume 2803.903750
_symmetry_space_group_name_H-M "C 2/M"
_symmetry_group_IT_number 12
_symmetry_cell_setting 'monoclinic'
loop_
_space_group_symop_operation_xyz
x,y,z
-x,y,-z
-x,-y,-z
x,-y,z
1/2+x,1/2+y,z
1/2-x,1/2+y,-z
1/2-x,1/2-y,-z
1/2+x,1/2-y,z
loop_
_atom_site_type_symbol
_atom_site_label
_atom_site_fract_x
_atom_site_fract_y
_atom_site_fract_z
Si Si1 0.315561 0.113827 0.288446
Si Si2 0.715178 0.711280 0.327437
Si Si3 0.887567 0.260959 0.590327
Si Si4 0.034426 0.111010 0.261562
Si Si5 0.083465 0.112013 0.968921
Si Si6 0.343446 0.204365 0.993740
Si Si7 0.060588 0.385660 0.099911
O O1 0.251312 0.120160 0.292571
O O2 0.358124 0.183398 0.422343
O O3 0.314927 0.157667 0.116802
O O4 0.334647 0.000000 0.311047
O O5 0.750000 0.750000 0.500000
O O6 0.654349 0.690035 0.346698
O O7 0.704765 0.792798 0.182864
O O8 0.936888 0.184439 0.586110
O O9 0.915974 0.344163 0.719556
O O10 0.967529 0.125401 0.198317
O O11 0.049202 0.000000 0.321915
O O12 0.060179 0.138582 0.117293
O O13 0.134423 0.183209 0.965561
O O14 0.105874 0.000000 0.984607
O O15 0.395982 0.135738 0.998340
O O16 0.053620 0.500000 0.119960
O O17 0.000000 0.339377 0.000000
#
# Coordination Sequence:
#
# PCOD8088652 Si02
#       7
#     8   8   8   8   8   8   8
#     4  11  24  39  55  80 116 155 190 233 284 341
#     4   9  20  37  59  80 101 138 190 242 284 328
#     4  10  19  36  58  82 111 146 189 237 286 335
#     4   9  16  30  56  88 113 137 180 232 283 336
#     4   9  17  30  55  88 113 139 178 228 287 342
#     4  11  20  36  58  81 115 148 185 230 291 344
#     4  10  19  32  54  81 110 151 199 237 272 328
#
# _framework density 19.972155999999998
#
# number of rings (size 3 to 8) (size 9 to 14) (size 15 to 20)
#    0.000    2.143    2.857    3.000    0.000    1.143 
#    0.000    4.286    0.000   14.571    0.000    0.000 
#    0.000    0.000    0.000    0.000    0.000    0.000 
#
# Total GULP energy -346886.781467 kJ/mol
# GULP energy per Si atom -12388.813624 kJ/mol
# Density = 1.992670 g / cm^3
# Si number density = 19.972156 Si / 1000 Ang^3
#
#
#
# Elastic Constant Matrix: (Units=GPa)
#
#
# Indices 1 2 3 4 5 6 
#
# 1 60.5370 32.2440 40.7062 0.0000 13.9960 0.0000
# 2 32.2440 101.9892 39.7964 0.0000 7.9469 0.0000
# 3 40.7062 39.7964 109.6552 0.0000 15.6480 0.0000
# 4 0.0000 0.0000 0.0000 24.4395 0.0000 2.2749
# 5 13.9960 7.9469 15.6480 0.0000 29.6181 0.0000
# 6 0.0000 0.0000 0.0000 2.2749 0.0000 27.6862
#
#
#
# Elastic Compliance Matrix: (Units=1/GPa)
#
#
# Indices 1 2 3 4 5 6 
#
# 1 0.025157 -0.004836 -0.006568 0.000000 -0.007121 0.000000
# 2 -0.004836 0.012377 -0.002757 0.000000 0.000421 0.000000
# 3 -0.006568 -0.002757 0.012989 0.000000 -0.003019 0.000000
# 4 0.000000 0.000000 0.000000 0.041233 0.000000 -0.003388
# 5 -0.007121 0.000421 -0.003019 0.000000 0.038610 0.000000
# 6 0.000000 0.000000 0.000000 -0.003388 0.000000 0.036397
#
#
# Mechanical properties :
#
#
# Convention : Reuss Voigt Hill
#
# Bulk Modulus (GPa) = 45.04056 55.29718 50.16887
# Shear Modulus (GPa) = 24.69331 26.97774 25.83552
#
# Velocity S-wave (km/s) = 3.52004 3.67927 3.60054
# Velocity P-wave (km/s) = 6.25472 6.76732 6.51606
#
# Compressibility (1/GPa) = 0.02220221
#
# Stress axis : x y z
#
# Youngs Moduli (GPa) = 39.75032 80.79701 76.98929
#
# Poissons Ratio (x) = 0.39073 0.50564
# Poissons Ratio (y) = 0.19223 0.21223
# Poissons Ratio (z) = 0.26107 0.22273
#
# Static dielectric constant tensor:
#      x y z
#    x 4.241560 0.000000 0.535830 
#    y 0.000000 3.559410 0.000000 
#    z 0.535830 0.000000 3.692320 
# 
# 
# High freq. dielectric constant tensor:
#      x y z
#    x 1.770630 0.000000 0.028310 
#    y 0.000000 1.771680 0.000000 
#    z 0.028310 0.000000 1.769990 
# 
# From -- ./inp_files/96478.got.cif
#   From: 2010.06.25/outbox.cif.g09.slc.cpg/sg12_49_cif.got.tgz:96478.got - 2010.06.28 00:19:55.
