data_PCOD8088712
_publ_section_title
;
Structure prediction by ZEFSAII (Michael W. Deem and Ramdas Pophale) SiO2 
 PCOD8088712
Probable space group: C 2/M
;
_chemical_formula_sum "Si O2"
_cell_formula_units_Z 64
_cell_length_a 24.294110
_cell_length_b 9.001843
_cell_length_c 19.897395
_cell_angle_alpha 90.000000
_cell_angle_beta 125.288598
_cell_angle_gamma 90.000000
_cell_volume 3551.838500
_symmetry_space_group_name_H-M "C 2/M"
_symmetry_group_IT_number 12
_symmetry_cell_setting 'monoclinic'
loop_
_space_group_symop_operation_xyz
x,y,z
-x,y,-z
-x,-y,-z
x,-y,z
1/2+x,1/2+y,z
1/2-x,1/2+y,-z
1/2-x,1/2-y,-z
1/2+x,1/2-y,z
loop_
_atom_site_type_symbol
_atom_site_label
_atom_site_fract_x
_atom_site_fract_y
_atom_site_fract_z
Si Si1 0.163979 0.324424 0.748412
Si Si2 0.818535 0.825512 0.024834
Si Si3 0.302225 0.824038 0.880954
Si Si4 0.934590 0.326676 0.713591
Si Si5 0.180480 0.327498 0.468369
Si Si6 0.926522 0.173464 0.214579
Si Si7 0.835656 0.329149 0.758101
Si Si8 0.703218 0.170638 0.631139
O O1 0.171080 0.500000 0.765550
O O2 0.226678 0.239895 0.826096
O O3 0.096465 0.263301 0.735425
O O4 0.160012 0.282874 0.666295
O O5 0.877242 0.788985 0.118460
O O6 0.806530 0.000000 0.008062
O O7 0.750000 0.750000 0.000000
O O8 0.841287 0.753799 0.969891
O O9 0.341860 0.780079 0.840493
O O10 0.298474 0.000000 0.890118
O O11 0.952331 0.500000 0.715479
O O12 0.881075 0.269430 0.620333
O O13 0.904729 0.297606 0.767147
O O14 0.999795 0.226221 0.753770
O O15 0.191363 0.500000 0.461222
O O16 0.250000 0.250000 0.500000
O O17 0.161807 0.296506 0.533605
O O18 0.927386 0.000000 0.232101
O O19 0.816103 0.500000 0.741451
O O20 0.774689 0.250797 0.677189
O O21 0.722420 0.000000 0.650693
#
# Coordination Sequence:
#
# PCOD8088712 Si02
#       8
#     8   8   8   8   8   8   8   8
#     4  10  19  33  54  79 109 144 179 219 271 324
#     4  11  22  36  56  81 108 139 181 229 277 324
#     4  10  19  32  54  83 112 139 175 224 269 318
#     4  10  21  37  56  79 110 149 185 219 269 328
#     4  10  19  33  55  83 112 142 182 226 267 316
#     4  11  24  39  55  78 108 143 183 227 274 325
#     4   9  18  33  53  80 111 143 179 219 266 319
#     4   9  18  31  52  83 111 138 178 225 269 315
#
# _framework density 18.018837000000001
#
# number of rings (size 3 to 8) (size 9 to 14) (size 15 to 20)
#    0.000    2.000    2.500    1.500    0.000    3.500 
#    0.000    1.250    0.000    7.500    0.000    0.000 
#    0.000    0.000    0.000    0.000    0.000    0.000 
#
# Total GULP energy -396782.823457 kJ/mol
# GULP energy per Si atom -12399.463233 kJ/mol
# Density = 1.797783 g / cm^3
# Si number density = 18.018837 Si / 1000 Ang^3
#
#
#
# Elastic Constant Matrix: (Units=GPa)
#
#
# Indices 1 2 3 4 5 6 
#
# 1 110.2462 41.4973 61.4129 0.0000 -6.0666 0.0000
# 2 41.4973 67.2928 46.0273 0.0000 -0.5785 0.0000
# 3 61.4129 46.0273 106.3927 0.0000 -6.8431 0.0000
# 4 0.0000 0.0000 0.0000 25.8307 0.0000 1.8039
# 5 -6.0666 -0.5785 -6.8431 0.0000 28.4973 0.0000
# 6 0.0000 0.0000 0.0000 1.8039 0.0000 29.7793
#
#
#
# Elastic Compliance Matrix: (Units=1/GPa)
#
#
# Indices 1 2 3 4 5 6 
#
# 1 0.014327 -0.004588 -0.006190 0.000000 0.001470 0.000000
# 2 -0.004588 0.022665 -0.007303 0.000000 -0.002270 0.000000
# 3 -0.006190 -0.007303 0.016289 0.000000 0.002445 0.000000
# 4 0.000000 0.000000 0.000000 0.038878 0.000000 -0.002355
# 5 0.001470 -0.002270 0.002445 0.000000 0.035945 0.000000
# 6 0.000000 0.000000 0.000000 -0.002355 0.000000 0.033723
#
#
# Mechanical properties :
#
#
# Convention : Reuss Voigt Hill
#
# Bulk Modulus (GPa) = 58.41726 64.64521 61.53124
# Shear Modulus (GPa) = 24.54622 25.82106 25.18364
#
# Velocity S-wave (km/s) = 3.69488 3.78961 3.74254
# Velocity P-wave (km/s) = 7.11992 7.42311 7.27310
#
# Compressibility (1/GPa) = 0.01711823
#
# Stress axis : x y z
#
# Youngs Moduli (GPa) = 69.79868 44.11998 61.39046
#
# Poissons Ratio (x) = 0.20243 0.38003
# Poissons Ratio (y) = 0.32025 0.44834
# Poissons Ratio (z) = 0.43208 0.32221
#
# Static dielectric constant tensor:
#      x y z
#    x 3.474670 0.000000 -0.478490 
#    y 0.000000 3.375320 0.000000 
#    z -0.478490 0.000000 3.615820 
# 
# 
# High freq. dielectric constant tensor:
#      x y z
#    x 1.693150 0.000000 -0.029090 
#    y 0.000000 1.703640 0.000000 
#    z -0.029090 0.000000 1.688490 
# 
# From -- ./inp_files/324253.got.cif
#   From: 2010.06.25/outbox.cif.g09.slc.cpg/sg12_163_cif.got.tgz:324253.got - 2010.06.28 00:19:55.
