data_PCOD8088486
_publ_section_title
;
Structure prediction by ZEFSAII (Michael W. Deem and Ramdas Pophale) SiO2 
 PCOD8088486
Probable space group: C 2/M
;
_chemical_formula_sum "Si O2"
_cell_formula_units_Z 40
_cell_length_a 21.844754
_cell_length_b 16.625345
_cell_length_c 14.485907
_cell_angle_alpha 90.000000
_cell_angle_beta 156.401376
_cell_angle_gamma 90.000000
_cell_volume 2106.097278
_symmetry_space_group_name_H-M "C 2/M"
_symmetry_group_IT_number 12
_symmetry_cell_setting 'monoclinic'
loop_
_space_group_symop_operation_xyz
x,y,z
-x,y,-z
-x,-y,-z
x,-y,z
1/2+x,1/2+y,z
1/2-x,1/2+y,-z
1/2-x,1/2-y,-z
1/2+x,1/2-y,z
loop_
_atom_site_type_symbol
_atom_site_label
_atom_site_fract_x
_atom_site_fract_y
_atom_site_fract_z
Si Si1 0.913312 0.356023 0.970736
Si Si2 0.143317 0.828365 0.137619
Si Si3 0.821098 0.404219 0.536360
Si Si4 0.973123 0.905152 0.750704
Si Si5 0.916614 0.091257 0.471952
O O1 0.850440 0.267003 0.864173
O O2 0.766300 0.409155 0.790860
O O3 0.000000 0.390240 0.000000
O O4 0.026282 0.362230 0.213872
O O5 0.291994 0.864216 0.395255
O O6 0.120868 0.867437 0.005622
O O7 0.000000 0.857255 0.000000
O O8 0.841545 0.500000 0.555084
O O9 0.684677 0.380596 0.417319
O O10 0.967135 0.868690 0.638873
O O11 0.991681 0.000000 0.776281
O O12 0.000000 0.135004 0.500000
O O13 0.974226 0.000000 0.553914
#
# Coordination Sequence:
#
# PCOD8088486 Si02
#       5
#     8   8   8   8   8
#     4  11  21  32  56  83 111 134 174 227 272 309
#     4   9  20  31  51  80 113 140 171 217 274 320
#     4  10  19  32  53  82 111 139 177 222 266 316
#     4   9  17  32  54  75 105 144 180 213 259 323
#     4  10  21  36  54  77 107 143 179 216 263 319
#
# _framework density 18.992476
#
# number of rings (size 3 to 8) (size 9 to 14) (size 15 to 20)
#    0.000    2.200    2.000    1.200    2.800    5.600 
#    0.000    1.000    0.000    0.000    0.000    5.600 
#    0.000    0.000    0.000    0.000    0.000    0.000 
#
# Total GULP energy -247937.570370 kJ/mol
# GULP energy per Si atom -12396.878519 kJ/mol
# Density = 1.894925 g / cm^3
# Si number density = 18.992476 Si / 1000 Ang^3
#
#
#
# Elastic Constant Matrix: (Units=GPa)
#
#
# Indices 1 2 3 4 5 6 
#
# 1 102.3433 22.6036 61.0064 0.0000 -17.3256 0.0000
# 2 22.6036 49.8433 26.4411 0.0000 -13.0676 0.0000
# 3 61.0064 26.4411 131.0894 0.0000 -38.3445 0.0000
# 4 0.0000 0.0000 0.0000 24.2584 0.0000 -6.5234
# 5 -17.3256 -13.0676 -38.3445 0.0000 34.3923 0.0000
# 6 0.0000 0.0000 0.0000 -6.5234 0.0000 14.4140
#
#
#
# Elastic Compliance Matrix: (Units=1/GPa)
#
#
# Indices 1 2 3 4 5 6 
#
# 1 0.013999 -0.003370 -0.006154 0.000000 -0.001089 0.000000
# 2 -0.003370 0.023915 -0.001624 0.000000 0.005579 0.000000
# 3 -0.006154 -0.001624 0.014442 0.000000 0.012385 0.000000
# 4 0.000000 0.000000 0.000000 0.046935 0.000000 0.021242
# 5 -0.001089 0.005579 0.012385 0.000000 0.044456 0.000000
# 6 0.000000 0.000000 0.000000 0.021242 0.000000 0.078991
#
#
# Mechanical properties :
#
#
# Convention : Reuss Voigt Hill
#
# Bulk Modulus (GPa) = 33.26411 55.93090 44.59751
# Shear Modulus (GPa) = 19.60378 26.16126 22.88252
#
# Velocity S-wave (km/s) = 3.21625 3.71543 3.47482
# Velocity P-wave (km/s) = 5.59864 6.92234 6.29538
#
# Compressibility (1/GPa) = 0.03006243
#
# Stress axis : x y z
#
# Youngs Moduli (GPa) = 71.43293 41.81481 69.24025
#
# Poissons Ratio (x) = 0.14090 0.42609
# Poissons Ratio (y) = 0.24070 0.11243
# Poissons Ratio (z) = 0.43958 0.06790
#
# Static dielectric constant tensor:
#      x y z
#    x 3.530440 0.000000 -0.407700 
#    y 0.000000 3.232240 0.000000 
#    z -0.407700 0.000000 3.551150 
# 
# 
# High freq. dielectric constant tensor:
#      x y z
#    x 1.702210 0.000000 -0.036320 
#    y 0.000000 1.725720 0.000000 
#    z -0.036320 0.000000 1.739470 
# 
# From -- ./inp_files/46897.got.cif
#   From: 2010.06.25/outbox.cif.g09.slc.cpg/sg12_24_cif.got.tgz:46897.got - 2010.06.28 00:19:55.
