data_PCOD8088813
_publ_section_title
;
Structure prediction by ZEFSAII (Michael W. Deem and Ramdas Pophale) SiO2 
 PCOD8088813
Probable space group: C 2/M
;
_chemical_formula_sum "Si O2"
_cell_formula_units_Z 64
_cell_length_a 8.689335
_cell_length_b 18.436658
_cell_length_c 22.485976
_cell_angle_alpha 90.000000
_cell_angle_beta 113.478250
_cell_angle_gamma 90.000000
_cell_volume 3304.075148
_symmetry_space_group_name_H-M "C 2/M"
_symmetry_group_IT_number 12
_symmetry_cell_setting 'monoclinic'
loop_
_space_group_symop_operation_xyz
x,y,z
-x,y,-z
-x,-y,-z
x,-y,z
1/2+x,1/2+y,z
1/2-x,1/2+y,-z
1/2-x,1/2-y,-z
1/2+x,1/2-y,z
loop_
_atom_site_type_symbol
_atom_site_label
_atom_site_fract_x
_atom_site_fract_y
_atom_site_fract_z
Si Si1 0.429822 0.828721 0.314643
Si Si2 0.215620 0.779202 0.385980
Si Si3 0.498763 0.415442 0.929838
Si Si4 0.290169 0.082989 0.691674
Si Si5 0.648840 0.915944 0.061675
Si Si6 0.767159 0.309362 0.168868
Si Si7 0.468039 0.651005 0.431179
Si Si8 0.877488 0.340434 0.824857
O O1 0.317862 0.831805 0.357013
O O2 0.551918 0.757988 0.330306
O O3 0.549014 0.899090 0.325380
O O4 0.293452 0.827569 0.241852
O O5 0.346952 0.718734 0.427495
O O6 0.147697 0.825393 0.431244
O O7 0.466239 0.500000 0.908957
O O8 0.673136 0.384506 0.931440
O O9 0.358531 0.367359 0.877437
O O10 0.500000 0.403153 0.000000
O O11 0.120405 0.096408 0.628502
O O12 0.288262 0.133770 0.750050
O O13 0.299506 0.000000 0.713168
O O14 0.621221 0.905458 0.127666
O O15 0.650488 0.000000 0.046828
O O16 0.500000 0.878756 0.000000
O O17 0.712488 0.226137 0.156376
O O18 0.935926 0.315397 0.158236
O O19 0.500000 0.612658 0.500000
#
# Coordination Sequence:
#
# PCOD8088813 Si02
#       8
#     8   8   8   8   8   8   8   8
#     4   9  18  33  55  79 107 140 178 226 275 333
#     4   9  17  33  55  82 112 141 178 228 285 332
#     4  10  22  39  57  81 114 148 183 224 271 328
#     4  10  22  38  55  77 111 151 186 227 280 336
#     4  10  21  38  59  81 109 147 188 227 270 325
#     4  11  21  34  57  83 109 141 180 229 279 327
#     4  10  19  32  55  83 112 146 186 232 279 332
#     4  11  22  37  58  83 111 142 182 229 281 332
#
# _framework density 19.370018999999999
#
# number of rings (size 3 to 8) (size 9 to 14) (size 15 to 20)
#    0.000    2.000    0.000    5.250    0.000    5.250 
#    0.000    3.125    0.000    0.750    0.000    0.000 
#    0.000    0.000    0.000    0.000    0.000    0.000 
#
# Total GULP energy -396737.883250 kJ/mol
# GULP energy per Si atom -12398.058852 kJ/mol
# Density = 1.932593 g / cm^3
# Si number density = 19.370019 Si / 1000 Ang^3
#
#
#
# Elastic Constant Matrix: (Units=GPa)
#
#
# Indices 1 2 3 4 5 6 
#
# 1 112.5948 25.9349 46.1241 0.0000 -13.9869 0.0000
# 2 25.9349 66.0342 23.5488 0.0000 -2.9580 0.0000
# 3 46.1241 23.5488 114.0820 0.0000 -5.8573 0.0000
# 4 0.0000 0.0000 0.0000 34.7972 0.0000 15.1484
# 5 -13.9869 -2.9580 -5.8573 0.0000 28.9004 0.0000
# 6 0.0000 0.0000 0.0000 15.1484 0.0000 52.3510
#
#
#
# Elastic Compliance Matrix: (Units=1/GPa)
#
#
# Indices 1 2 3 4 5 6 
#
# 1 0.011739 -0.003019 -0.003888 0.000000 0.004584 0.000000
# 2 -0.003019 0.017152 -0.002329 0.000000 -0.000177 0.000000
# 3 -0.003888 -0.002329 0.010822 0.000000 0.000073 0.000000
# 4 0.000000 0.000000 0.000000 0.032880 0.000000 -0.009514
# 5 0.004584 -0.000177 0.000073 0.000000 0.036817 0.000000
# 6 0.000000 0.000000 0.000000 -0.009514 0.000000 0.021855
#
#
# Mechanical properties :
#
#
# Convention : Reuss Voigt Hill
#
# Bulk Modulus (GPa) = 47.07690 53.76963 50.42326
# Shear Modulus (GPa) = 31.88460 36.34994 34.11727
#
# Velocity S-wave (km/s) = 4.06159 4.33668 4.20139
# Velocity P-wave (km/s) = 6.80824 7.27291 7.04441
#
# Compressibility (1/GPa) = 0.02124184
#
# Stress axis : x y z
#
# Youngs Moduli (GPa) = 85.18822 58.30255 92.40486
#
# Poissons Ratio (x) = 0.17600 0.35923
# Poissons Ratio (y) = 0.25715 0.21522
# Poissons Ratio (z) = 0.33117 0.13580
#
# Static dielectric constant tensor:
#      x y z
#    x 3.834770 0.000000 0.022790 
#    y 0.000000 3.263950 0.000000 
#    z 0.022790 0.000000 3.537370 
# 
# 
# High freq. dielectric constant tensor:
#      x y z
#    x 1.767620 0.000000 0.000800 
#    y 0.000000 1.723290 0.000000 
#    z 0.000800 0.000000 1.757570 
# 
# From -- ./inp_files/301683.got.cif
#   From: 2010.06.25/outbox.cif.g09.slc.cpg/sg12_151_cif.got.tgz:301683.got - 2010.06.28 00:19:55.
