data_PCOD8088352
_publ_section_title
;
Structure prediction by ZEFSAII (Michael W. Deem and Ramdas Pophale) SiO2 
 PCOD8088352
Probable space group: C 2/M
;
_chemical_formula_sum "Si O2"
_cell_formula_units_Z 52
_cell_length_a 30.798800
_cell_length_b 13.143084
_cell_length_c 21.701212
_cell_angle_alpha 90.000000
_cell_angle_beta 18.751175
_cell_angle_gamma 90.000000
_cell_volume 2823.842707
_symmetry_space_group_name_H-M "C 2/M"
_symmetry_group_IT_number 12
_symmetry_cell_setting 'monoclinic'
loop_
_space_group_symop_operation_xyz
x,y,z
-x,y,-z
-x,-y,-z
x,-y,z
1/2+x,1/2+y,z
1/2-x,1/2+y,-z
1/2-x,1/2-y,-z
1/2+x,1/2-y,z
loop_
_atom_site_type_symbol
_atom_site_label
_atom_site_fract_x
_atom_site_fract_y
_atom_site_fract_z
Si Si1 0.000000 0.676951 0.000000
Si Si2 0.736306 0.776422 0.760390
Si Si3 0.898847 0.879520 0.437872
Si Si4 0.332064 0.888709 0.333164
Si Si5 0.326604 0.279110 0.958483
Si Si6 0.341131 0.117460 0.710005
Si Si7 0.923479 0.379349 0.920613
O O1 0.892522 0.749491 0.109541
O O2 0.924289 0.601995 0.148281
O O3 0.855416 0.827239 0.560342
O O4 0.787293 0.671060 0.720604
O O5 0.691557 0.854206 0.874435
O O6 0.808135 0.836343 0.501339
O O7 0.054314 0.857506 0.216537
O O8 0.875134 0.000000 0.475707
O O9 0.427546 0.836846 0.257061
O O10 0.296415 0.000000 0.406165
O O11 0.388796 0.176114 0.903531
O O12 0.250000 0.250000 0.000000
O O13 0.223686 0.333760 0.142433
O O14 0.500000 0.133456 0.500000
O O15 0.300257 0.000000 0.760697
O O16 0.926352 0.500000 0.905717
#
# Coordination Sequence:
#
# PCOD8088352 Si02
#       7
#     4   8   8   8   8   8   8
#     4   8  13  24  47  76 106 130 152 196 244 290
#     4   9  17  32  54  80 103 128 165 203 246 298
#     4  10  19  32  53  79 106 131 160 206 256 298
#     4   8  14  26  47  75 102 130 162 195 243 301
#     4  11  23  36  51  74 102 133 172 212 253 302
#     4  10  21  38  56  70  93 133 175 211 247 294
#     4   9  18  33  53  76 103 134 167 204 245 295
#
# _framework density 18.414622999999999
#
# number of rings (size 3 to 8) (size 9 to 14) (size 15 to 20)
#    0.000    2.615    0.000    2.077    0.000    5.538 
#    0.000    1.154    0.000    5.077    0.000    0.000 
#    0.000    0.000    0.000    0.000    0.000    0.000 
#
# Total GULP energy -322133.624011 kJ/mol
# GULP energy per Si atom -12389.754770 kJ/mol
# Density = 1.837271 g / cm^3
# Si number density = 18.414623 Si / 1000 Ang^3
#
#
#
# Elastic Constant Matrix: (Units=GPa)
#
#
# Indices 1 2 3 4 5 6 
#
# 1 133.7376 59.8356 44.2697 -0.0002 -14.8351 0.0001
# 2 59.8356 98.9759 35.4210 -0.0001 -7.4441 0.0001
# 3 44.2697 35.4210 90.0186 -0.0003 -8.0931 0.0002
# 4 -0.0002 -0.0001 -0.0003 20.3323 0.0002 -1.0083
# 5 -14.8351 -7.4441 -8.0931 0.0002 26.0003 -0.0001
# 6 0.0001 0.0001 0.0002 -1.0083 -0.0001 23.2783
#
#
#
# Elastic Compliance Matrix: (Units=1/GPa)
#
#
# Indices 1 2 3 4 5 6 
#
# 1 0.011394 -0.005484 -0.003088 0.000000 0.003969 0.000000
# 2 -0.005484 0.014499 -0.003000 0.000000 0.000088 0.000000
# 3 -0.003088 -0.003000 0.013963 0.000000 0.001725 0.000000
# 4 0.000000 0.000000 0.000000 0.049289 0.000000 0.002135
# 5 0.003969 0.000088 0.001725 0.000000 0.041288 0.000000
# 6 0.000000 0.000000 0.000000 0.002135 0.000000 0.043051
#
#
# Mechanical properties :
#
#
# Convention : Reuss Voigt Hill
#
# Bulk Modulus (GPa) = 59.84264 66.86498 63.35381
# Shear Modulus (GPa) = 24.72798 26.13588 25.43193
#
# Velocity S-wave (km/s) = 3.66846 3.77145 3.72031
# Velocity P-wave (km/s) = 7.10713 7.44008 7.27551
#
# Compressibility (1/GPa) = 0.01671049
#
# Stress axis : x y z
#
# Youngs Moduli (GPa) = 87.76813 68.96886 71.61620
#
# Poissons Ratio (x) = 0.37824 0.22118
# Poissons Ratio (y) = 0.48134 0.21487
# Poissons Ratio (z) = 0.27106 0.20693
#
# Static dielectric constant tensor:
#      x y z
#    x 3.542740 0.000000 -0.212770 
#    y 0.000000 3.103060 0.000000 
#    z -0.212770 0.000000 3.442340 
# 
# 
# High freq. dielectric constant tensor:
#      x y z
#    x 1.718220 0.000000 -0.013280 
#    y 0.000000 1.688300 0.000000 
#    z -0.013280 0.000000 1.716840 
# 
# From -- ./inp_files/330199.got.cif
#   From: 2010.06.25/outbox.cif.g09.slc.cpg/sg12_166_cif.got.tgz:330199.got - 2010.06.28 00:19:55.
