data_PCOD8088082
_publ_section_title
;
Structure prediction by ZEFSAII (Michael W. Deem and Ramdas Pophale) SiO2 
 PCOD8088082
Probable space group: C 2/M
;
_chemical_formula_sum "Si O2"
_cell_formula_units_Z 64
_cell_length_a 14.464433
_cell_length_b 9.110026
_cell_length_c 30.190459
_cell_angle_alpha 90.000000
_cell_angle_beta 59.657641
_cell_angle_gamma 90.000000
_cell_volume 3433.308051
_symmetry_space_group_name_H-M "C 2/M"
_symmetry_group_IT_number 12
_symmetry_cell_setting 'monoclinic'
loop_
_space_group_symop_operation_xyz
x,y,z
-x,y,-z
-x,-y,-z
x,-y,z
1/2+x,1/2+y,z
1/2-x,1/2+y,-z
1/2-x,1/2-y,-z
1/2+x,1/2-y,z
loop_
_atom_site_type_symbol
_atom_site_label
_atom_site_fract_x
_atom_site_fract_y
_atom_site_fract_z
Si Si1 0.488676 0.828444 0.365221
Si Si2 0.933965 0.327173 0.559204
Si Si3 0.308290 0.326167 0.173804
Si Si4 0.385678 0.165972 0.005515
Si Si5 0.780304 0.676033 0.364477
Si Si6 0.458866 0.333746 0.905545
Si Si7 0.779663 0.166787 0.883361
Si Si8 0.273976 0.173872 0.711576
O O1 0.494441 0.781197 0.415517
O O2 0.385452 0.761666 0.364985
O O3 0.600732 0.780881 0.315346
O O4 0.474093 0.000000 0.365116
O O5 0.906455 0.500000 0.567589
O O6 0.823469 0.237445 0.584894
O O7 0.000000 0.283368 0.500000
O O8 0.303386 0.500000 0.172431
O O9 0.424109 0.264091 0.130600
O O10 0.221435 0.259951 0.161286
O O11 0.282521 0.274505 0.229633
O O12 0.300679 0.235153 0.060354
O O13 0.351492 0.000000 0.002843
O O14 0.500000 0.176500 0.000000
O O15 0.387085 0.251647 0.959087
O O16 0.775517 0.500000 0.363969
O O17 0.784289 0.739917 0.313860
O O18 0.470498 0.500000 0.919316
O O19 0.399847 0.325700 0.872653
O O20 0.744632 0.000000 0.881283
O O21 0.262766 0.000000 0.705589
#
# Coordination Sequence:
#
# PCOD8088082 Si02
#       8
#     8   8   8   8   8   8   8   8
#     4   8  16  32  52  73 101 136 171 209 252 298
#     4   9  18  34  54  76 107 147 180 205 246 304
#     4  10  21  36  54  76 100 129 167 209 253 303
#     4  10  19  33  53  74  98 132 169 202 245 305
#     4  10  19  32  52  78 104 132 171 217 259 292
#     4  10  21  35  52  76 103 130 163 207 256 300
#     4  10  21  36  52  73 103 133 162 204 255 305
#     4   9  19  37  55  71  99 136 171 208 252 308
#
# _framework density 18.640915
#
# number of rings (size 3 to 8) (size 9 to 14) (size 15 to 20)
#    0.000    2.500    1.250    1.500    0.000    3.500 
#    0.000    5.000    0.000    0.000    0.000    0.000 
#    0.000    0.000    0.000    0.000    0.000    0.000 
#
# Total GULP energy -396741.904179 kJ/mol
# GULP energy per Si atom -12398.184506 kJ/mol
# Density = 1.859849 g / cm^3
# Si number density = 18.640915 Si / 1000 Ang^3
#
#
#
# Elastic Constant Matrix: (Units=GPa)
#
#
# Indices 1 2 3 4 5 6 
#
# 1 117.7488 30.2777 42.1839 0.0000 11.7052 0.0000
# 2 30.2777 41.3703 35.1514 0.0000 5.9352 0.0000
# 3 42.1839 35.1514 125.5089 0.0000 15.0129 0.0000
# 4 0.0000 0.0000 0.0000 27.1550 0.0000 4.1651
# 5 11.7052 5.9352 15.0129 0.0000 18.7889 0.0000
# 6 0.0000 0.0000 0.0000 4.1651 0.0000 25.8035
#
#
#
# Elastic Compliance Matrix: (Units=1/GPa)
#
#
# Indices 1 2 3 4 5 6 
#
# 1 0.011005 -0.006243 -0.001510 0.000000 -0.003677 0.000000
# 2 -0.006243 0.035441 -0.007689 0.000000 -0.001163 0.000000
# 3 -0.001510 -0.007689 0.011306 0.000000 -0.005664 0.000000
# 4 0.000000 0.000000 0.000000 0.037761 0.000000 -0.006095
# 5 -0.003677 -0.001163 -0.005664 0.000000 0.060407 0.000000
# 6 0.000000 0.000000 0.000000 -0.006095 0.000000 0.039738
#
#
# Mechanical properties :
#
#
# Convention : Reuss Voigt Hill
#
# Bulk Modulus (GPa) = 37.22000 55.53935 46.37967
# Shear Modulus (GPa) = 21.23174 26.15048 23.69111
#
# Velocity S-wave (km/s) = 3.37855 3.74953 3.56886
# Velocity P-wave (km/s) = 5.93546 6.97168 6.47433
#
# Compressibility (1/GPa) = 0.02686727
#
# Stress axis : x y z
#
# Youngs Moduli (GPa) = 90.87113 28.21621 88.44806
#
# Poissons Ratio (x) = 0.17616 0.13359
# Poissons Ratio (y) = 0.56732 0.68003
# Poissons Ratio (z) = 0.13725 0.21694
#
# Static dielectric constant tensor:
#      x y z
#    x 3.546620 0.000000 -0.013130 
#    y 0.000000 3.225170 0.000000 
#    z -0.013130 0.000000 3.460520 
# 
# 
# High freq. dielectric constant tensor:
#      x y z
#    x 1.730080 0.000000 0.002130 
#    y 0.000000 1.701080 0.000000 
#    z 0.002130 0.000000 1.721570 
# 
# From -- ./inp_files/375038.got.cif
#   From: 2010.06.25/outbox.cif.g09.slc.cpg/sg12_188_cif.got.tgz:375038.got - 2010.06.28 00:19:55.
