data_PCOD8088691
_publ_section_title
;
Structure prediction by ZEFSAII (Michael W. Deem and Ramdas Pophale) SiO2 
 PCOD8088691
Probable space group: C 2/M
;
_chemical_formula_sum "Si O2"
_cell_formula_units_Z 56
_cell_length_a 23.141633
_cell_length_b 9.187345
_cell_length_c 31.176295
_cell_angle_alpha 90.000000
_cell_angle_beta 154.338821
_cell_angle_gamma 90.000000
_cell_volume 2870.417204
_symmetry_space_group_name_H-M "C 2/M"
_symmetry_group_IT_number 12
_symmetry_cell_setting 'monoclinic'
loop_
_space_group_symop_operation_xyz
x,y,z
-x,y,-z
-x,-y,-z
x,-y,z
1/2+x,1/2+y,z
1/2-x,1/2+y,-z
1/2-x,1/2-y,-z
1/2+x,1/2-y,z
loop_
_atom_site_type_symbol
_atom_site_label
_atom_site_fract_x
_atom_site_fract_y
_atom_site_fract_z
Si Si1 0.451138 0.169887 0.141289
Si Si2 0.829959 0.167550 0.664713
Si Si3 0.973310 0.329418 0.530269
Si Si4 0.877665 0.166656 0.600999
Si Si5 0.147324 0.669767 0.084122
Si Si6 0.889536 0.830763 0.304097
Si Si7 0.798920 0.170674 0.967340
O O1 0.595033 0.231829 0.250916
O O2 0.345609 0.200965 0.108577
O O3 0.463980 0.000000 0.139676
O O4 0.410484 0.250923 0.070609
O O5 0.676520 0.217730 0.557351
O O6 0.902628 0.189855 0.667999
O O7 0.837063 0.000000 0.684898
O O8 0.994302 0.500000 0.549732
O O9 0.000000 0.277465 0.500000
O O10 0.082710 0.253608 0.633461
O O11 0.750000 0.250000 0.500000
O O12 0.007953 0.224227 0.663765
O O13 0.849761 0.000000 0.571611
O O14 0.155091 0.500000 0.076415
O O15 0.241664 0.703436 0.187958
O O16 0.197209 0.763735 0.077482
O O17 0.000000 0.716231 0.000000
O O18 0.908294 0.000000 0.326253
O O19 0.830648 0.000000 0.986809
#
# Coordination Sequence:
#
# PCOD8088691 Si02
#       7
#     8   8   8   8   8   8   8
#     4  10  21  36  58  86 115 149 188 236 290 344
#     4  10  20  35  55  82 114 148 186 233 285 339
#     4  10  22  39  57  79 111 151 191 230 277 335
#     4  10  19  32  54  82 111 143 182 228 280 334
#     4  10  22  40  61  85 116 153 194 239 286 340
#     4  10  21  37  58  84 113 147 187 235 287 336
#     4  10  21  38  59  85 115 149 190 237 289 343
#
# _framework density 19.509359
#
# number of rings (size 3 to 8) (size 9 to 14) (size 15 to 20)
#    0.000    2.000    1.429    1.714    0.000    6.286 
#    0.000    2.857    0.000    0.000    0.000    0.000 
#    0.000    0.000    0.000    0.000    0.000    0.000 
#
# Total GULP energy -347298.700672 kJ/mol
# GULP energy per Si atom -12403.525024 kJ/mol
# Density = 1.946495 g / cm^3
# Si number density = 19.509359 Si / 1000 Ang^3
#
#
#
# Elastic Constant Matrix: (Units=GPa)
#
#
# Indices 1 2 3 4 5 6 
#
# 1 98.9838 38.9481 45.2330 0.0003 -12.7875 0.0003
# 2 38.9481 74.9452 52.9289 0.0012 -14.6637 0.0004
# 3 45.2330 52.9289 138.0542 0.0032 -12.6592 -0.0004
# 4 0.0003 0.0012 0.0032 34.9400 0.0003 -7.4758
# 5 -12.7875 -14.6637 -12.6592 0.0003 28.5111 0.0001
# 6 0.0003 0.0004 -0.0004 -7.4758 0.0001 28.9787
#
#
#
# Elastic Compliance Matrix: (Units=1/GPa)
#
#
# Indices 1 2 3 4 5 6 
#
# 1 0.013380 -0.004843 -0.002299 0.000000 0.002490 0.000000
# 2 -0.004843 0.021309 -0.006022 0.000000 0.006114 0.000000
# 3 -0.002299 -0.006022 0.010349 -0.000001 0.000466 0.000000
# 4 0.000000 0.000000 -0.000001 0.030293 -0.000001 0.007815
# 5 0.002490 0.006114 0.000466 -0.000001 0.039542 0.000000
# 6 0.000000 0.000000 0.000000 0.007815 0.000000 0.036524
#
#
# Mechanical properties :
#
#
# Convention : Reuss Voigt Hill
#
# Bulk Modulus (GPa) = 53.44866 65.13369 59.29118
# Shear Modulus (GPa) = 27.17945 30.14415 28.66180
#
# Velocity S-wave (km/s) = 3.73654 3.93506 3.83708
# Velocity P-wave (km/s) = 6.78760 7.35558 7.07729
#
# Compressibility (1/GPa) = 0.01870954
#
# Stress axis : x y z
#
# Youngs Moduli (GPa) = 74.73571 46.92781 96.63209
#
# Poissons Ratio (x) = 0.22727 0.22216
# Poissons Ratio (y) = 0.36194 0.58196
# Poissons Ratio (z) = 0.17182 0.28262
#
# Static dielectric constant tensor:
#      x y z
#    x 3.797160 -0.000010 0.293500 
#    y -0.000010 3.466980 -0.000010 
#    z 0.293500 -0.000010 3.900410 
# 
# 
# High freq. dielectric constant tensor:
#      x y z
#    x 1.755600 0.000000 -0.004360 
#    y 0.000000 1.753920 0.000000 
#    z -0.004360 0.000000 1.766130 
# 
# From -- ./inp_files/380821.got.cif
#   From: 2010.06.25/outbox.cif.g09.slc.cpg/sg12_191_cif.got.tgz:380821.got - 2010.06.28 00:19:55.
