data_PCOD8088245
_publ_section_title
;
Structure prediction by ZEFSAII (Michael W. Deem and Ramdas Pophale) SiO2 
 PCOD8088245
Probable space group: C 2/M
;
_chemical_formula_sum "Si O2"
_cell_formula_units_Z 40
_cell_length_a 17.993269
_cell_length_b 9.070263
_cell_length_c 25.960622
_cell_angle_alpha 90.000000
_cell_angle_beta 30.036941
_cell_angle_gamma 90.000000
_cell_volume 2120.799820
_symmetry_space_group_name_H-M "C 2/M"
_symmetry_group_IT_number 12
_symmetry_cell_setting 'monoclinic'
loop_
_space_group_symop_operation_xyz
x,y,z
-x,y,-z
-x,-y,-z
x,-y,z
1/2+x,1/2+y,z
1/2-x,1/2+y,-z
1/2-x,1/2-y,-z
1/2+x,1/2-y,z
loop_
_atom_site_type_symbol
_atom_site_label
_atom_site_fract_x
_atom_site_fract_y
_atom_site_fract_z
Si Si1 0.415500 0.824856 0.000891
Si Si2 0.583905 0.324665 0.399399
Si Si3 0.420383 0.175387 0.199694
Si Si4 0.577547 0.326662 0.200295
Si Si5 0.092542 0.173388 0.593899
O O1 0.495734 0.766427 0.901401
O O2 0.421911 0.000000 0.999058
O O3 0.500000 0.759263 0.000000
O O4 0.246294 0.769952 0.102778
O O5 0.500000 0.262233 0.500000
O O6 0.584375 0.500000 0.399347
O O7 0.751988 0.265798 0.298374
O O8 0.500367 0.265848 0.398901
O O9 0.498084 0.241415 0.202590
O O10 0.426269 0.000000 0.200074
O O11 0.570528 0.500000 0.193323
O O12 0.497436 0.284422 0.301229
O O13 0.250000 0.250000 0.500000
O O14 0.118031 0.000000 0.574010
#
# Coordination Sequence:
#
# PCOD8088245 Si02
#       5
#     8   8   8   8   8
#     4   9  17  31  52  76 100 129 168 208 244 288
#     4   9  17  30  49  72  96 124 163 207 242 280
#     4  10  19  32  53  76  98 131 171 205 240 290
#     4  10  20  33  50  74 104 132 159 202 254 295
#     4  10  20  34  52  74 100 130 164 203 249 296
#
# _framework density 18.860807999999999
#
# number of rings (size 3 to 8) (size 9 to 14) (size 15 to 20)
#    0.000    2.400    0.000    3.000    0.000    7.200 
#    0.000    1.000    0.000    8.400    0.000    0.000 
#    0.000    0.000    0.000    0.000    0.000    0.000 
#
# Total GULP energy -248033.796368 kJ/mol
# GULP energy per Si atom -12401.689818 kJ/mol
# Density = 1.881788 g / cm^3
# Si number density = 18.860808 Si / 1000 Ang^3
#
#
#
# Elastic Constant Matrix: (Units=GPa)
#
#
# Indices 1 2 3 4 5 6 
#
# 1 212.2938 33.9739 114.8421 -0.0001 -2.9447 0.0000
# 2 33.9739 16.1689 32.0975 -0.0005 0.9314 0.0001
# 3 114.8421 32.0975 211.4059 -0.0013 -4.7681 0.0002
# 4 -0.0001 -0.0005 -0.0013 19.3642 0.0000 -1.9079
# 5 -2.9447 0.9314 -4.7681 0.0000 44.4486 0.0000
# 6 0.0000 0.0001 0.0002 -1.9079 0.0000 30.6952
#
#
#
# Elastic Compliance Matrix: (Units=1/GPa)
#
#
# Indices 1 2 3 4 5 6 
#
# 1 0.007967 -0.011738 -0.002534 0.000000 0.000502 0.000000
# 2 -0.011738 0.106311 -0.009856 0.000002 -0.004063 0.000000
# 3 -0.002534 -0.009856 0.007623 0.000000 0.000856 0.000000
# 4 0.000000 0.000002 0.000000 0.051960 0.000000 0.003230
# 5 0.000502 -0.004063 0.000856 0.000000 0.022708 0.000000
# 6 0.000000 0.000000 0.000000 0.003230 0.000000 0.032779
#
#
# Mechanical properties :
#
#
# Convention : Reuss Voigt Hill
#
# Bulk Modulus (GPa) = 13.57893 89.07730 51.32811
# Shear Modulus (GPa) = 16.54794 36.16525 26.35659
#
# Velocity S-wave (km/s) = 2.96526 4.38366 3.74227
# Velocity P-wave (km/s) = 4.35188 8.54127 6.77835
#
# Compressibility (1/GPa) = 0.07364353
#
# Stress axis : x y z
#
# Youngs Moduli (GPa) = 125.52062 9.40638 131.18535
#
# Poissons Ratio (x) = 0.11041 0.33247
# Poissons Ratio (y) = 1.47331 1.29302
# Poissons Ratio (z) = 0.31812 0.09271
#
# Static dielectric constant tensor:
#      x y z
#    x 3.681860 0.000000 0.008370 
#    y 0.000000 2.949410 0.000000 
#    z 0.008370 0.000000 3.788950 
# 
# 
# High freq. dielectric constant tensor:
#      x y z
#    x 1.753590 0.000000 0.000600 
#    y 0.000000 1.677450 0.000000 
#    z 0.000600 0.000000 1.755750 
# 
# From -- ./inp_files/140473.got.cif
#   From: 2010.06.25/outbox.cif.g09.slc.cpg/sg12_71_cif.got.tgz:140473.got - 2010.06.28 00:19:55.
