data_PCOD8088308
_publ_section_title
;
Structure prediction by ZEFSAII (Michael W. Deem and Ramdas Pophale) SiO2 
 PCOD8088308
Probable space group: C 2/M
;
_chemical_formula_sum "Si O2"
_cell_formula_units_Z 56
_cell_length_a 18.023777
_cell_length_b 9.202315
_cell_length_c 29.042942
_cell_angle_alpha 90.000000
_cell_angle_beta 141.738025
_cell_angle_gamma 90.000000
_cell_volume 2983.013253
_symmetry_space_group_name_H-M "C 2/M"
_symmetry_group_IT_number 12
_symmetry_cell_setting 'monoclinic'
loop_
_space_group_symop_operation_xyz
x,y,z
-x,y,-z
-x,-y,-z
x,-y,z
1/2+x,1/2+y,z
1/2-x,1/2+y,-z
1/2-x,1/2-y,-z
1/2+x,1/2-y,z
loop_
_atom_site_type_symbol
_atom_site_label
_atom_site_fract_x
_atom_site_fract_y
_atom_site_fract_z
Si Si1 0.299181 0.332027 0.708167
Si Si2 0.590521 0.164046 0.001850
Si Si3 0.984765 0.831956 0.718149
Si Si4 0.947268 0.828382 0.425971
Si Si5 0.907209 0.168750 0.857579
Si Si6 0.374173 0.670247 0.566726
Si Si7 0.228682 0.329818 0.852585
O O1 0.262481 0.500000 0.693387
O O2 0.384355 0.300290 0.706882
O O3 0.180977 0.239570 0.644856
O O4 0.366124 0.282591 0.787111
O O5 0.526668 0.240733 0.927487
O O6 0.626047 0.000000 0.005598
O O7 0.500000 0.166748 0.000000
O O8 0.709542 0.251706 0.073725
O O9 0.931470 0.786546 0.643172
O O10 0.096203 0.730386 0.782874
O O11 0.025663 0.000000 0.738591
O O12 0.000000 0.772766 0.500000
O O13 0.036292 0.776217 0.429351
O O14 0.930853 0.000000 0.417726
O O15 0.800273 0.204877 0.840721
O O16 0.941927 0.000000 0.876794
O O17 0.349242 0.500000 0.551176
O O18 0.250000 0.750000 0.500000
O O19 0.224343 0.500000 0.860854
#
# Coordination Sequence:
#
# PCOD8088308 Si02
#       7
#     8   8   8   8   8   8   8
#     4  10  21  36  54  76 103 137 174 213 257 304
#     4   9  17  30  51  78 105 134 169 210 257 307
#     4  10  21  36  52  74 105 137 172 214 257 304
#     4  10  21  36  54  78 107 137 171 213 258 304
#     4   9  18  33  52  76 104 132 169 215 258 304
#     4  10  21  36  55  79 106 137 172 212 257 304
#     4  10  19  32  53  78 103 134 171 212 258 306
#
# _framework density 18.772963000000001
#
# number of rings (size 3 to 8) (size 9 to 14) (size 15 to 20)
#    0.000    2.286    0.000    2.571    0.000    4.857 
#    0.000    0.714    0.000    0.000    0.000    0.000 
#    0.000    0.000    0.000    0.000    0.000    0.000 
#
# Total GULP energy -347309.347756 kJ/mol
# GULP energy per Si atom -12403.905277 kJ/mol
# Density = 1.873024 g / cm^3
# Si number density = 18.772963 Si / 1000 Ang^3
#
#
#
# Elastic Constant Matrix: (Units=GPa)
#
#
# Indices 1 2 3 4 5 6 
#
# 1 97.3008 42.7826 76.8281 0.0000 -7.7530 0.0000
# 2 42.7826 78.7176 70.3689 0.0000 7.5276 0.0000
# 3 76.8281 70.3689 172.0198 0.0000 -3.2500 0.0000
# 4 0.0000 0.0000 0.0000 41.4755 0.0000 11.4324
# 5 -7.7530 7.5276 -3.2500 0.0000 31.9734 0.0000
# 6 0.0000 0.0000 0.0000 11.4324 0.0000 18.5879
#
#
#
# Elastic Compliance Matrix: (Units=1/GPa)
#
#
# Indices 1 2 3 4 5 6 
#
# 1 0.017204 -0.004748 -0.005652 0.000000 0.004715 0.000000
# 2 -0.004748 0.022375 -0.007167 0.000000 -0.007148 0.000000
# 3 -0.005652 -0.007167 0.011297 0.000000 0.001465 0.000000
# 4 0.000000 0.000000 0.000000 0.029033 0.000000 -0.017856
# 5 0.004715 -0.007148 0.001465 0.000000 0.034251 0.000000
# 6 0.000000 0.000000 0.000000 -0.017856 0.000000 0.064781
#
#
# Mechanical properties :
#
#
# Convention : Reuss Voigt Hill
#
# Bulk Modulus (GPa) = 63.53051 80.88860 72.20956
# Shear Modulus (GPa) = 22.79738 28.94459 25.87099
#
# Velocity S-wave (km/s) = 3.48857 3.93087 3.71630
# Velocity P-wave (km/s) = 7.08108 7.98647 7.54736
#
# Compressibility (1/GPa) = 0.01574047
#
# Stress axis : x y z
#
# Youngs Moduli (GPa) = 58.12666 44.69247 88.51662
#
# Poissons Ratio (x) = 0.21222 0.50030
# Poissons Ratio (y) = 0.27601 0.63443
# Poissons Ratio (z) = 0.32854 0.32033
#
# Static dielectric constant tensor:
#      x y z
#    x 4.090340 0.000000 -0.931670 
#    y 0.000000 3.444200 0.000000 
#    z -0.931670 0.000000 4.399020 
# 
# 
# High freq. dielectric constant tensor:
#      x y z
#    x 1.718550 0.000000 -0.003160 
#    y 0.000000 1.727500 0.000000 
#    z -0.003160 0.000000 1.745030 
# 
# From -- ./inp_files/275075.got.cif
#   From: 2010.06.25/outbox.cif.g09.slc.cpg/sg12_138_cif.got.tgz:275075.got - 2010.06.28 00:19:55.
