data_PCOD8088986
_publ_section_title
;
Structure prediction by ZEFSAII (Michael W. Deem and Ramdas Pophale) SiO2 
 PCOD8088986
Probable space group: C 2/M
;
_chemical_formula_sum "Si O2"
_cell_formula_units_Z 44
_cell_length_a 24.590468
_cell_length_b 18.175799
_cell_length_c 15.525501
_cell_angle_alpha 90.000000
_cell_angle_beta 159.818513
_cell_angle_gamma 90.000000
_cell_volume 2393.969741
_symmetry_space_group_name_H-M "C 2/M"
_symmetry_group_IT_number 12
_symmetry_cell_setting 'monoclinic'
loop_
_space_group_symop_operation_xyz
x,y,z
-x,y,-z
-x,-y,-z
x,-y,z
1/2+x,1/2+y,z
1/2-x,1/2+y,-z
1/2-x,1/2-y,-z
1/2+x,1/2-y,z
loop_
_atom_site_type_symbol
_atom_site_label
_atom_site_fract_x
_atom_site_fract_y
_atom_site_fract_z
Si Si1 0.000000 0.650724 0.500000
Si Si2 0.455370 0.692944 0.751679
Si Si3 0.908551 0.280885 0.198486
Si Si4 0.601634 0.840458 0.234287
Si Si5 0.767540 0.083313 0.803355
Si Si6 0.022671 0.582854 0.287678
O O1 0.013378 0.703612 0.437798
O O2 0.843615 0.600346 0.278126
O O3 0.507444 0.720901 0.735398
O O4 0.447444 0.759194 0.807915
O O5 0.286232 0.655743 0.486411
O O6 0.579532 0.634580 0.972622
O O7 0.887977 0.358668 0.116649
O O8 0.750000 0.250000 0.000000
O O9 0.572011 0.901212 0.263425
O O10 0.500000 0.862127 0.000000
O O11 0.673607 0.093843 0.574105
O O12 0.826944 0.000000 0.901152
O O13 0.955847 0.500000 0.196009
#
# Coordination Sequence:
#
# PCOD8088986 Si02
#       6
#     4   8   8   8   8   8
#     4  10  19  32  58  82 117 146 184 224 285 342
#     4  10  22  36  55  86 115 145 193 237 281 331
#     4  10  19  34  54  85 112 148 183 229 277 337
#     4  10  23  37  59  80 111 152 193 239 278 333
#     4  10  20  35  57  86 118 145 183 234 288 342
#     4   9  21  38  57  84 115 151 186 233 288 337
#
# _framework density 18.379512999999999
#
# number of rings (size 3 to 8) (size 9 to 14) (size 15 to 20)
#    0.000    2.182    1.818    0.273   10.182    1.818 
#    0.000    1.818    0.000    0.000    0.000    2.545 
#    0.000    0.000    0.000    0.000    0.000    0.000 
#
# Total GULP energy -272694.443003 kJ/mol
# GULP energy per Si atom -12395.201955 kJ/mol
# Density = 1.833768 g / cm^3
# Si number density = 18.379513 Si / 1000 Ang^3
#
#
#
# Elastic Constant Matrix: (Units=GPa)
#
#
# Indices 1 2 3 4 5 6 
#
# 1 126.2115 45.7720 47.6321 0.0000 1.0979 0.0000
# 2 45.7720 114.2318 50.1183 0.0000 8.2354 0.0000
# 3 47.6321 50.1183 85.5830 0.0000 11.6346 0.0000
# 4 0.0000 0.0000 0.0000 28.9525 0.0000 -0.8288
# 5 1.0979 8.2354 11.6346 0.0000 37.1654 0.0000
# 6 0.0000 0.0000 0.0000 -0.8288 0.0000 19.8767
#
#
#
# Elastic Compliance Matrix: (Units=1/GPa)
#
#
# Indices 1 2 3 4 5 6 
#
# 1 0.010523 -0.002245 -0.004771 0.000000 0.001680 0.000000
# 2 -0.002245 0.012268 -0.005822 0.000000 -0.000829 0.000000
# 3 -0.004771 -0.005822 0.018335 0.000000 -0.004309 0.000000
# 4 0.000000 0.000000 0.000000 0.034581 0.000000 0.001442
# 5 0.001680 -0.000829 -0.004309 0.000000 0.028390 0.000000
# 6 0.000000 0.000000 0.000000 0.001442 0.000000 0.050370
#
#
# Mechanical properties :
#
#
# Convention : Reuss Voigt Hill
#
# Bulk Modulus (GPa) = 64.72041 68.11902 66.41972
# Shear Modulus (GPa) = 26.98453 29.36584 28.17518
#
# Velocity S-wave (km/s) = 3.83585 4.00152 3.91956
# Velocity P-wave (km/s) = 7.41000 7.64804 7.52996
#
# Compressibility (1/GPa) = 0.01545108
#
# Stress axis : x y z
#
# Youngs Moduli (GPa) = 95.02954 81.51471 54.54060
#
# Poissons Ratio (x) = 0.18296 0.26019
# Poissons Ratio (y) = 0.21330 0.31754
# Poissons Ratio (z) = 0.45335 0.47459
#
# Static dielectric constant tensor:
#      x y z
#    x 3.608770 0.000000 0.073090 
#    y 0.000000 4.199540 0.000000 
#    z 0.073090 0.000000 3.152880 
# 
# 
# High freq. dielectric constant tensor:
#      x y z
#    x 1.728750 0.000000 0.002150 
#    y 0.000000 1.710180 0.000000 
#    z 0.002150 0.000000 1.687390 
# 
# From -- ./inp_files/241559.got.cif
#   From: 2010.06.25/outbox.cif.g09.slc.cpg/sg12_121_cif.got.tgz:241559.got - 2010.06.28 00:19:55.
