data_PCOD8088357
_publ_section_title
;
Structure prediction by ZEFSAII (Michael W. Deem and Ramdas Pophale) SiO2 
 PCOD8088357
Probable space group: C 2/M
;
_chemical_formula_sum "Si O2"
_cell_formula_units_Z 40
_cell_length_a 18.853105
_cell_length_b 8.891678
_cell_length_c 20.167075
_cell_angle_alpha 90.000000
_cell_angle_beta 44.245597
_cell_angle_gamma 90.000000
_cell_volume 2358.849821
_symmetry_space_group_name_H-M "C 2/M"
_symmetry_group_IT_number 12
_symmetry_cell_setting 'monoclinic'
loop_
_space_group_symop_operation_xyz
x,y,z
-x,y,-z
-x,-y,-z
x,-y,z
1/2+x,1/2+y,z
1/2-x,1/2+y,-z
1/2-x,1/2-y,-z
1/2+x,1/2-y,z
loop_
_atom_site_type_symbol
_atom_site_label
_atom_site_fract_x
_atom_site_fract_y
_atom_site_fract_z
Si Si1 0.273301 0.676570 0.414335
Si Si2 0.114489 0.324243 0.408187
Si Si3 0.808853 0.329497 0.902084
Si Si4 0.475661 0.170586 0.280276
Si Si5 0.127046 0.821949 0.264450
O O1 0.284769 0.500000 0.415352
O O2 0.250000 0.750000 0.500000
O O3 0.183892 0.718842 0.423953
O O4 0.378889 0.743379 0.315238
O O5 0.119814 0.500000 0.387580
O O6 0.157880 0.232326 0.316703
O O7 0.000000 0.272481 0.500000
O O8 0.769341 0.500000 0.921459
O O9 0.790831 0.242082 0.844259
O O10 0.931033 0.326808 0.835315
O O11 0.750000 0.250000 0.000000
O O12 0.515401 0.253619 0.320867
O O13 0.445369 0.000000 0.319589
O O14 0.124666 0.000000 0.262199
#
# Coordination Sequence:
#
# PCOD8088357 Si02
#       5
#     8   8   8   8   8
#     4  11  22  34  53  77 106 143 181 221 266 320
#     4  10  21  36  52  73 106 144 179 220 270 317
#     4   9  18  32  55  82 109 140 175 222 270 315
#     4   9  19  34  52  75 107 139 173 219 266 313
#     4  10  19  32  53  79 106 136 177 220 263 317
#
# _framework density 16.957418000000001
#
# number of rings (size 3 to 8) (size 9 to 14) (size 15 to 20)
#    1.200    1.000    0.000    4.200    0.000    3.600 
#    0.000    0.000    0.000    1.200    0.000    8.400 
#    0.000    0.000    0.000    0.000    0.000    0.000 
#
# Total GULP energy -247872.360701 kJ/mol
# GULP energy per Si atom -12393.618035 kJ/mol
# Density = 1.691882 g / cm^3
# Si number density = 16.957418 Si / 1000 Ang^3
#
#
#
# Elastic Constant Matrix: (Units=GPa)
#
#
# Indices 1 2 3 4 5 6 
#
# 1 102.6414 65.1672 52.9402 0.0000 6.5722 0.0000
# 2 65.1672 136.4349 62.1864 0.0000 12.8311 0.0000
# 3 52.9402 62.1864 112.8328 0.0000 14.6109 0.0000
# 4 0.0000 0.0000 0.0000 33.0015 0.0000 1.7707
# 5 6.5722 12.8311 14.6109 0.0000 23.9829 0.0000
# 6 0.0000 0.0000 0.0000 1.7707 0.0000 28.0499
#
#
#
# Elastic Compliance Matrix: (Units=1/GPa)
#
#
# Indices 1 2 3 4 5 6 
#
# 1 0.015397 -0.005489 -0.004378 0.000000 0.001385 0.000000
# 2 -0.005489 0.011845 -0.003612 0.000000 -0.002633 0.000000
# 3 -0.004378 -0.003612 0.013573 0.000000 -0.005137 0.000000
# 4 0.000000 0.000000 0.000000 0.030405 0.000000 -0.001919
# 5 0.001385 -0.002633 -0.005137 0.000000 0.045855 0.000000
# 6 0.000000 0.000000 0.000000 -0.001919 0.000000 0.035772
#
#
# Mechanical properties :
#
#
# Convention : Reuss Voigt Hill
#
# Bulk Modulus (GPa) = 72.16840 79.16629 75.66734
# Shear Modulus (GPa) = 27.11141 28.44788 27.77965
#
# Velocity S-wave (km/s) = 4.00283 4.10030 4.05186
# Velocity P-wave (km/s) = 8.00091 8.31886 8.16143
#
# Compressibility (1/GPa) = 0.01385648
#
# Stress axis : x y z
#
# Youngs Moduli (GPa) = 64.94684 84.42229 73.67642
#
# Poissons Ratio (x) = 0.46339 0.32258
# Poissons Ratio (y) = 0.35649 0.26612
# Poissons Ratio (z) = 0.28436 0.30494
#
# Static dielectric constant tensor:
#      x y z
#    x 3.067910 0.000000 -0.078320 
#    y 0.000000 3.243080 0.000000 
#    z -0.078320 0.000000 3.034690 
# 
# 
# High freq. dielectric constant tensor:
#      x y z
#    x 1.627450 0.000000 -0.000230 
#    y 0.000000 1.670680 0.000000 
#    z -0.000230 0.000000 1.642120 
# 
# From -- ./inp_files/151864.got.cif
#   From: 2010.06.25/outbox.cif.g09.slc.cpg/sg12_76_cif.got.tgz:151864.got - 2010.06.28 00:19:55.
