data_PCOD8088651
_publ_section_title
;
Structure prediction by ZEFSAII (Michael W. Deem and Ramdas Pophale) SiO2 
 PCOD8088651
Probable space group: C 2/M
;
_chemical_formula_sum "Si O2"
_cell_formula_units_Z 64
_cell_length_a 20.042985
_cell_length_b 9.124799
_cell_length_c 18.955144
_cell_angle_alpha 90.000000
_cell_angle_beta 87.938573
_cell_angle_gamma 90.000000
_cell_volume 3464.428844
_symmetry_space_group_name_H-M "C 2/M"
_symmetry_group_IT_number 12
_symmetry_cell_setting 'monoclinic'
loop_
_space_group_symop_operation_xyz
x,y,z
-x,y,-z
-x,-y,-z
x,-y,z
1/2+x,1/2+y,z
1/2-x,1/2+y,-z
1/2-x,1/2-y,-z
1/2+x,1/2-y,z
loop_
_atom_site_type_symbol
_atom_site_label
_atom_site_fract_x
_atom_site_fract_y
_atom_site_fract_z
Si Si1 0.234658 0.828578 0.709065
Si Si2 0.128631 0.672533 0.806036
Si Si3 0.047968 0.171708 0.561236
Si Si4 0.990062 0.327246 0.293624
Si Si5 0.128451 0.328292 0.229688
Si Si6 0.300211 0.329195 0.446569
Si Si7 0.165288 0.169766 0.938981
Si Si8 0.178532 0.670464 0.078707
O O1 0.194118 0.734423 0.766325
O O2 0.312542 0.793233 0.717527
O O3 0.214510 0.776758 0.632115
O O4 0.218879 0.000000 0.722549
O O5 0.136409 0.500000 0.815902
O O6 0.120584 0.747631 0.882549
O O7 0.064461 0.714495 0.762473
O O8 0.123761 0.211726 0.536853
O O9 0.000000 0.223617 0.500000
O O10 0.027692 0.254459 0.632176
O O11 0.040877 0.000000 0.576512
O O12 0.993792 0.500000 0.306310
O O13 0.060320 0.261298 0.263418
O O14 0.119236 0.500000 0.220858
O O15 0.145033 0.266203 0.151272
O O16 0.286443 0.500000 0.454594
O O17 0.250000 0.250000 0.500000
O O18 0.242533 0.195255 0.917417
O O19 0.145918 0.000000 0.940219
O O20 0.147973 0.237605 0.015599
O O21 0.162548 0.500000 0.066665
#
# Coordination Sequence:
#
# PCOD8088651 Si02
#       8
#     8   8   8   8   8   8   8   8
#     4  10  19  36  59  80 105 144 186 228 276 322
#     4  11  21  34  54  83 111 141 183 228 272 322
#     4  10  22  40  58  79 112 150 183 220 274 335
#     4  10  22  38  58  82 109 144 185 228 269 323
#     4   9  18  35  57  81 108 139 183 229 274 322
#     4  10  22  37  57  83 113 145 182 227 274 324
#     4  10  19  32  54  81 110 146 183 223 274 326
#     4   9  17  32  54  80 109 141 179 229 275 319
#
# _framework density 18.473464
#
# number of rings (size 3 to 8) (size 9 to 14) (size 15 to 20)
#    0.000    2.125    2.500    0.750    1.750    2.250 
#    0.000    1.875    0.000    3.750    0.000    0.000 
#    0.000    0.000    0.000    0.000    0.000    0.000 
#
# Total GULP energy -396864.571307 kJ/mol
# GULP energy per Si atom -12402.017853 kJ/mol
# Density = 1.843142 g / cm^3
# Si number density = 18.473464 Si / 1000 Ang^3
#
#
#
# Elastic Constant Matrix: (Units=GPa)
#
#
# Indices 1 2 3 4 5 6 
#
# 1 102.1986 31.9019 55.5036 0.0000 9.6258 0.0000
# 2 31.9019 52.7851 49.7932 0.0000 11.0135 0.0000
# 3 55.5036 49.7932 129.6166 0.0000 22.4192 0.0000
# 4 0.0000 0.0000 0.0000 34.5091 0.0000 -2.5688
# 5 9.6258 11.0135 22.4192 0.0000 31.4742 0.0000
# 6 0.0000 0.0000 0.0000 -2.5688 0.0000 19.0021
#
#
#
# Elastic Compliance Matrix: (Units=1/GPa)
#
#
# Indices 1 2 3 4 5 6 
#
# 1 0.013318 -0.004212 -0.004146 0.000000 0.000354 0.000000
# 2 -0.004212 0.031229 -0.009724 0.000000 -0.002713 0.000000
# 3 -0.004146 -0.009724 0.014163 0.000000 -0.005418 0.000000
# 4 0.000000 0.000000 0.000000 0.029272 0.000000 0.003957
# 5 0.000354 -0.002713 -0.005418 0.000000 0.036472 0.000000
# 6 0.000000 0.000000 0.000000 0.003957 0.000000 0.053161
#
#
# Mechanical properties :
#
#
# Convention : Reuss Voigt Hill
#
# Bulk Modulus (GPa) = 44.35318 62.11085 53.23201
# Shear Modulus (GPa) = 22.59423 26.82387 24.70905
#
# Velocity S-wave (km/s) = 3.50103 3.81467 3.66121
# Velocity P-wave (km/s) = 6.35643 7.28677 6.83744
#
# Compressibility (1/GPa) = 0.02254630
#
# Stress axis : x y z
#
# Youngs Moduli (GPa) = 75.08614 32.02128 70.60533
#
# Poissons Ratio (x) = 0.13486 0.29275
# Poissons Ratio (y) = 0.31624 0.68658
# Poissons Ratio (z) = 0.31133 0.31138
#
# Static dielectric constant tensor:
#      x y z
#    x 3.509470 0.000000 0.096780 
#    y 0.000000 3.261290 0.000000 
#    z 0.096780 0.000000 3.589510 
# 
# 
# High freq. dielectric constant tensor:
#      x y z
#    x 1.710040 0.000000 0.007960 
#    y 0.000000 1.700920 0.000000 
#    z 0.007960 0.000000 1.729600 
# 
# From -- ./inp_files/281370.got.cif
#   From: 2010.06.25/outbox.cif.g09.slc.cpg/sg12_141_cif.got.tgz:281370.got - 2010.06.28 00:19:55.
