data_PCOD8088534
_publ_section_title
;
Structure prediction by ZEFSAII (Michael W. Deem and Ramdas Pophale) SiO2 
 PCOD8088534
Probable space group: C 2/M
;
_chemical_formula_sum "Si O2"
_cell_formula_units_Z 48
_cell_length_a 18.924592
_cell_length_b 26.074452
_cell_length_c 7.269422
_cell_angle_alpha 90.000000
_cell_angle_beta 147.582576
_cell_angle_gamma 90.000000
_cell_volume 1922.976890
_symmetry_space_group_name_H-M "C 2/M"
_symmetry_group_IT_number 12
_symmetry_cell_setting 'monoclinic'
loop_
_space_group_symop_operation_xyz
x,y,z
-x,y,-z
-x,-y,-z
x,-y,z
1/2+x,1/2+y,z
1/2-x,1/2+y,-z
1/2-x,1/2-y,-z
1/2+x,1/2-y,z
loop_
_atom_site_type_symbol
_atom_site_label
_atom_site_fract_x
_atom_site_fract_y
_atom_site_fract_z
Si Si1 0.676436 0.151021 0.993020
Si Si2 0.209845 0.870243 0.288007
Si Si3 0.963824 0.191573 0.635964
Si Si4 0.570534 0.192900 0.401211
Si Si5 0.267951 0.441514 0.006765
Si Si6 0.133604 0.056362 0.400412
O O1 0.641774 0.191209 0.754930
O O2 0.569211 0.162536 0.914972
O O3 0.828115 0.161748 0.381179
O O4 0.656908 0.093209 0.866508
O O5 0.191280 0.914168 0.091324
O O6 0.077384 0.836896 0.999923
O O7 0.334828 0.833581 0.540000
O O8 0.233493 0.900459 0.535522
O O9 0.952390 0.247998 0.697274
O O10 0.000000 0.192202 0.500000
O O11 0.220676 0.500000 0.865760
O O12 0.386095 0.440516 0.420793
O O13 0.189440 0.000000 0.474055
O O14 0.000000 0.066709 0.000000
#
# Coordination Sequence:
#
# PCOD8088534 Si02
#       6
#     8   8   8   8   8   8
#     4  10  19  32  53  85 121 155 197 246 297 356
#     4  11  23  38  64  93 119 162 207 247 298 371
#     4  12  18  32  59  93 120 158 205 250 303 359
#     4  10  20  33  56  88 122 158 203 246 298 363
#     4  10  21  38  60  88 121 158 199 249 305 360
#     4  10  22  39  61  91 126 157 198 260 312 356
#
# _framework density 24.961297999999999
#
# number of rings (size 3 to 8) (size 9 to 14) (size 15 to 20)
#    0.000    1.500    5.000    3.000    0.000    0.000 
#    0.000   12.500    0.000   17.000    0.000    0.000 
#    0.000    0.000    0.000    0.000    0.000    0.000 
#
# Total GULP energy -297426.817054 kJ/mol
# GULP energy per Si atom -12392.784044 kJ/mol
# Density = 2.490448 g / cm^3
# Si number density = 24.961298 Si / 1000 Ang^3
#
#
#
# Elastic Constant Matrix: (Units=GPa)
#
#
# Indices 1 2 3 4 5 6 
#
# 1 91.4942 59.5063 43.1152 0.0000 7.4592 0.0000
# 2 59.5063 221.0591 29.9002 0.0000 21.4992 0.0000
# 3 43.1152 29.9002 61.0038 0.0000 30.7872 0.0000
# 4 0.0000 0.0000 0.0000 24.3203 0.0000 -2.4652
# 5 7.4592 21.4992 30.7872 0.0000 55.3572 0.0000
# 6 0.0000 0.0000 0.0000 -2.4652 0.0000 28.1093
#
#
#
# Elastic Compliance Matrix: (Units=1/GPa)
#
#
# Indices 1 2 3 4 5 6 
#
# 1 0.020907 -0.004141 -0.016873 0.000000 0.008175 0.000000
# 2 -0.004141 0.005689 0.001351 0.000000 -0.002403 0.000000
# 3 -0.016873 0.001351 0.037219 0.000000 -0.018951 0.000000
# 4 0.000000 0.000000 0.000000 0.041487 0.000000 0.003638
# 5 0.008175 -0.002403 -0.018951 0.000000 0.028436 0.000000
# 6 0.000000 0.000000 0.000000 0.003638 0.000000 0.035895
#
#
# Mechanical properties :
#
#
# Convention : Reuss Voigt Hill
#
# Bulk Modulus (GPa) = 40.83206 70.95563 55.89385
# Shear Modulus (GPa) = 23.02854 37.62636 30.32745
#
# Velocity S-wave (km/s) = 3.04068 3.88672 3.48944
# Velocity P-wave (km/s) = 5.35922 6.97353 6.21898
#
# Compressibility (1/GPa) = 0.02449056
#
# Stress axis : x y z
#
# Youngs Moduli (GPa) = 47.83031 175.76738 26.86777
#
# Poissons Ratio (x) = 0.72783 0.45333
# Poissons Ratio (y) = 0.19806 -0.03629
# Poissons Ratio (z) = 0.80702 -0.23741
#
# Static dielectric constant tensor:
#      x y z
#    x 4.578450 0.000000 0.007120 
#    y 0.000000 4.882860 0.000000 
#    z 0.007120 0.000000 4.499950 
# 
# 
# High freq. dielectric constant tensor:
#      x y z
#    x 1.996110 0.000000 -0.021460 
#    y 0.000000 2.018440 0.000000 
#    z -0.021460 0.000000 1.975390 
# 
# From -- ./inp_files/91262.got.cif
#   From: 2010.06.25/outbox.cif.g09.slc.cpg/sg12_46_cif.got.tgz:91262.got - 2010.06.28 00:19:55.
