data_PCOD8088124
_publ_section_title
;
Structure prediction by ZEFSAII (Michael W. Deem and Ramdas Pophale) SiO2 
 PCOD8088124
Probable space group: C 2/M
;
_chemical_formula_sum "Si O2"
_cell_formula_units_Z 56
_cell_length_a 11.924072
_cell_length_b 14.173647
_cell_length_c 19.945562
_cell_angle_alpha 90.000000
_cell_angle_beta 127.375453
_cell_angle_gamma 90.000000
_cell_volume 2678.809935
_symmetry_space_group_name_H-M "C 2/M"
_symmetry_group_IT_number 12
_symmetry_cell_setting 'monoclinic'
loop_
_space_group_symop_operation_xyz
x,y,z
-x,y,-z
-x,-y,-z
x,-y,z
1/2+x,1/2+y,z
1/2-x,1/2+y,-z
1/2-x,1/2-y,-z
1/2+x,1/2-y,z
loop_
_atom_site_type_symbol
_atom_site_label
_atom_site_fract_x
_atom_site_fract_y
_atom_site_fract_z
Si Si1 0.846832 0.894557 0.701493
Si Si2 0.704806 0.393776 0.066081
Si Si3 0.230738 0.276882 0.159619
Si Si4 0.473953 0.225601 0.685747
Si Si5 0.967678 0.608325 0.816170
Si Si6 0.022649 0.606807 0.583116
Si Si7 0.897656 0.891826 0.114704
O O1 0.876821 0.819244 0.653557
O O2 0.685280 0.890077 0.664976
O O3 0.944978 0.866785 0.800933
O O4 0.883732 0.000000 0.688655
O O5 0.672983 0.500000 0.080771
O O6 0.663946 0.322318 0.110726
O O7 0.868527 0.383846 0.105392
O O8 0.609738 0.370006 0.966896
O O9 0.363117 0.257923 0.256208
O O10 0.115213 0.337635 0.155945
O O11 0.282153 0.330840 0.111760
O O12 0.438685 0.155623 0.734022
O O13 0.436520 0.172096 0.603239
O O14 0.917065 0.500000 0.794528
O O15 0.963938 0.500000 0.565852
O O16 0.000000 0.646240 0.500000
O O17 0.859736 0.000000 0.114981
#
# Coordination Sequence:
#
# PCOD8088124 Si02
#       7
#     8   8   8   8   8   8   8
#     4   9  19  36  57  81 110 143 176 214 264 319
#     4   9  19  34  52  77 107 142 186 230 267 307
#     4  10  19  32  52  79 109 143 183 223 268 314
#     4  10  20  36  57  82 109 142 177 216 263 317
#     4  10  20  34  53  78 108 142 182 226 268 309
#     4  10  21  38  61  86 108 134 172 216 264 320
#     4   9  17  32  54  79 108 142 182 226 268 313
#
# _framework density 20.904805
#
# number of rings (size 3 to 8) (size 9 to 14) (size 15 to 20)
#    0.000    2.429    0.000    2.143    0.000    2.286 
#    0.000    5.714    0.000    4.714    0.000   57.000 
#    0.000    0.000    0.000    0.000    0.000    0.000 
#
# Total GULP energy -347223.470751 kJ/mol
# GULP energy per Si atom -12400.838241 kJ/mol
# Density = 2.085723 g / cm^3
# Si number density = 20.904805 Si / 1000 Ang^3
#
#
#
# Elastic Constant Matrix: (Units=GPa)
#
#
# Indices 1 2 3 4 5 6 
#
# 1 46.1023 40.7936 6.9524 0.0000 0.0872 0.0000
# 2 40.7936 129.2141 32.3423 0.0000 -20.7777 0.0000
# 3 6.9524 32.3423 49.0153 0.0000 -12.6373 0.0000
# 4 0.0000 0.0000 0.0000 27.5651 0.0000 -9.6856
# 5 0.0872 -20.7777 -12.6373 0.0000 20.8361 0.0000
# 6 0.0000 0.0000 0.0000 -9.6856 0.0000 33.9446
#
#
#
# Elastic Compliance Matrix: (Units=1/GPa)
#
#
# Indices 1 2 3 4 5 6 
#
# 1 0.032580 -0.012344 0.000374 0.000000 -0.012219 0.000000
# 2 -0.012344 0.014771 -0.004960 0.000000 0.011773 0.000000
# 3 0.000374 -0.004960 0.026488 0.000000 0.011117 0.000000
# 4 0.000000 0.000000 0.000000 0.040320 0.000000 0.011505
# 5 -0.012219 0.011773 0.011117 0.000000 0.066527 0.000000
# 6 0.000000 0.000000 0.000000 0.011505 0.000000 0.032742
#
#
# Mechanical properties :
#
#
# Convention : Reuss Voigt Hill
#
# Bulk Modulus (GPa) = 25.01402 42.72312 33.86857
# Shear Modulus (GPa) = 19.18525 26.08539 22.63532
#
# Velocity S-wave (km/s) = 3.03271 3.53628 3.29413
# Velocity P-wave (km/s) = 4.92492 6.09549 5.54120
#
# Compressibility (1/GPa) = 0.03997758
#
# Stress axis : x y z
#
# Youngs Moduli (GPa) = 30.69333 67.70119 37.75278
#
# Poissons Ratio (x) = 0.83571 -0.01410
# Poissons Ratio (y) = 0.37888 0.18726
# Poissons Ratio (z) = -0.01146 0.33581
#
# Static dielectric constant tensor:
#      x y z
#    x 3.549470 0.000000 0.065910 
#    y 0.000000 4.217550 0.000000 
#    z 0.065910 0.000000 3.569290 
# 
# 
# High freq. dielectric constant tensor:
#      x y z
#    x 1.805020 0.000000 -0.001090 
#    y 0.000000 1.839400 0.000000 
#    z -0.001090 0.000000 1.795750 
# 
# From -- ./inp_files/263223.got.cif
#   From: 2010.06.25/outbox.cif.g09.slc.cpg/sg12_132_cif.got.tgz:263223.got - 2010.06.28 00:19:55.
