data_PCOD8088522
_publ_section_title
;
Structure prediction by ZEFSAII (Michael W. Deem and Ramdas Pophale) SiO2 
 PCOD8088522
Probable space group: C 2/M
;
_chemical_formula_sum "Si O2"
_cell_formula_units_Z 64
_cell_length_a 20.976745
_cell_length_b 15.530372
_cell_length_c 22.264813
_cell_angle_alpha 90.000000
_cell_angle_beta 152.270575
_cell_angle_gamma 90.000000
_cell_volume 3374.962660
_symmetry_space_group_name_H-M "C 2/M"
_symmetry_group_IT_number 12
_symmetry_cell_setting 'monoclinic'
loop_
_space_group_symop_operation_xyz
x,y,z
-x,y,-z
-x,-y,-z
x,-y,z
1/2+x,1/2+y,z
1/2-x,1/2+y,-z
1/2-x,1/2-y,-z
1/2+x,1/2-y,z
loop_
_atom_site_type_symbol
_atom_site_label
_atom_site_fract_x
_atom_site_fract_y
_atom_site_fract_z
Si Si1 0.481138 0.304113 0.723533
Si Si2 0.380217 0.096042 0.038128
Si Si3 0.644189 0.194006 0.275778
Si Si4 0.879368 0.098099 0.533105
Si Si5 0.677963 0.596458 0.970870
Si Si6 0.735731 0.760685 0.869946
Si Si7 0.391690 0.596509 0.363748
Si Si8 0.652458 0.779060 0.153574
O O1 0.398598 0.247568 0.701842
O O2 0.371749 0.352632 0.590338
O O3 0.580750 0.243425 0.765551
O O4 0.564461 0.377552 0.827736
O O5 0.539602 0.116848 0.174974
O O6 0.323532 0.100001 0.058825
O O7 0.357832 0.000000 0.992268
O O8 0.306031 0.167242 0.935619
O O9 0.788115 0.147968 0.408024
O O10 0.647318 0.255944 0.218448
O O11 0.037556 0.100603 0.643147
O O12 0.827775 0.000000 0.498052
O O13 0.647766 0.500000 0.970193
O O14 0.678949 0.665318 0.025165
O O15 0.756155 0.781141 0.815560
O O16 0.500000 0.642123 0.500000
O O17 0.370690 0.500000 0.369572
O O18 0.239202 0.633535 0.233246
O O19 0.500000 0.794502 0.000000
#
# Coordination Sequence:
#
# PCOD8088522 Si02
#       8
#     8   8   8   8   8   8   8   8
#     4  11  20  38  59  81 113 151 195 240 293 346
#     4  10  19  32  53  84 117 148 180 226 290 347
#     4  12  22  37  55  82 120 153 189 245 295 338
#     4  11  23  37  57  83 113 156 203 235 279 354
#     4  10  19  35  61  83 110 150 192 243 301 348
#     4  11  20  38  56  82 118 152 192 239 287 354
#     4  10  21  38  54  75 118 164 194 225 278 348
#     4  12  23  36  56  86 116 156 195 243 286 343
#
# _framework density 18.963173000000001
#
# number of rings (size 3 to 8) (size 9 to 14) (size 15 to 20)
#    0.000    1.125    6.250    1.875    0.000    1.750 
#    0.000    0.000    0.000    4.125    0.000    0.000 
#    0.000    2.500    0.000    0.000    0.000    0.000 
#
# Total GULP energy -396532.917411 kJ/mol
# GULP energy per Si atom -12391.653669 kJ/mol
# Density = 1.892001 g / cm^3
# Si number density = 18.963173 Si / 1000 Ang^3
#
#
#
# Elastic Constant Matrix: (Units=GPa)
#
#
# Indices 1 2 3 4 5 6 
#
# 1 107.1104 22.8088 30.1831 -0.0001 -10.2752 0.0003
# 2 22.8088 58.0726 12.0431 -0.0033 -8.4244 -0.0016
# 3 30.1831 12.0431 80.2999 -0.0025 -10.9689 -0.0021
# 4 -0.0001 -0.0033 -0.0025 21.8183 -0.0015 -0.0904
# 5 -10.2752 -8.4244 -10.9689 -0.0015 33.2249 -0.0004
# 6 0.0003 -0.0016 -0.0021 -0.0904 -0.0004 15.1842
#
#
#
# Elastic Compliance Matrix: (Units=1/GPa)
#
#
# Indices 1 2 3 4 5 6 
#
# 1 0.011196 -0.003465 -0.003493 -0.000001 0.001431 -0.000001
# 2 -0.003465 0.019315 -0.001122 0.000003 0.003455 0.000002
# 3 -0.003493 -0.001122 0.014397 0.000002 0.003388 0.000002
# 4 -0.000001 0.000003 0.000002 0.045834 0.000003 0.000273
# 5 0.001431 0.003455 0.003388 0.000003 0.032535 0.000002
# 6 -0.000001 0.000002 0.000002 0.000273 0.000002 0.065859
#
#
# Mechanical properties :
#
#
# Convention : Reuss Voigt Hill
#
# Bulk Modulus (GPa) = 34.78666 41.72808 38.25737
# Shear Modulus (GPa) = 23.26879 26.07536 24.67207
#
# Velocity S-wave (km/s) = 3.50673 3.71219 3.61092
# Velocity P-wave (km/s) = 5.89749 6.35818 6.13216
#
# Compressibility (1/GPa) = 0.02874665
#
# Stress axis : x y z
#
# Youngs Moduli (GPa) = 89.32041 51.77364 69.45676
#
# Poissons Ratio (x) = 0.17941 0.24262
# Poissons Ratio (y) = 0.30952 0.07795
# Poissons Ratio (z) = 0.31200 0.05810
#
# Static dielectric constant tensor:
#      x y z
#    x 3.827230 0.000000 -0.082100 
#    y 0.000000 3.209000 0.000000 
#    z -0.082100 0.000000 3.443480 
# 
# 
# High freq. dielectric constant tensor:
#      x y z
#    x 1.747600 0.000000 -0.002210 
#    y 0.000000 1.695100 0.000000 
#    z -0.002210 0.000000 1.735450 
# 
# From -- ./inp_files/322460.got.cif
#   From: 2010.06.25/outbox.cif.g09.slc.cpg/sg12_162_cif.got.tgz:322460.got - 2010.06.28 00:19:55.
