data_PCOD8088435
_publ_section_title
;
Structure prediction by ZEFSAII (Michael W. Deem and Ramdas Pophale) SiO2 
 PCOD8088435
Probable space group: C 2/M
;
_chemical_formula_sum "Si O2"
_cell_formula_units_Z 56
_cell_length_a 17.247553
_cell_length_b 14.197845
_cell_length_c 12.809634
_cell_angle_alpha 90.000000
_cell_angle_beta 117.836654
_cell_angle_gamma 90.000000
_cell_volume 2773.815921
_symmetry_space_group_name_H-M "C 2/M"
_symmetry_group_IT_number 12
_symmetry_cell_setting 'monoclinic'
loop_
_space_group_symop_operation_xyz
x,y,z
-x,y,-z
-x,-y,-z
x,-y,z
1/2+x,1/2+y,z
1/2-x,1/2+y,-z
1/2-x,1/2-y,-z
1/2+x,1/2-y,z
loop_
_atom_site_type_symbol
_atom_site_label
_atom_site_fract_x
_atom_site_fract_y
_atom_site_fract_z
Si Si1 0.240304 0.894693 0.696324
Si Si2 0.512772 0.393248 0.390930
Si Si3 0.905017 0.106204 0.126893
Si Si4 0.842736 0.764279 0.505682
Si Si5 0.409494 0.895302 0.663159
Si Si6 0.709479 0.108073 0.044505
Si Si7 0.034116 0.295162 0.906834
O O1 0.171223 0.813614 0.616521
O O2 0.316448 0.903001 0.660052
O O3 0.280956 0.860440 0.829860
O O4 0.195938 0.000000 0.679998
O O5 0.500000 0.352216 0.500000
O O6 0.544405 0.500000 0.417432
O O7 0.425975 0.382434 0.264398
O O8 0.594195 0.336210 0.390404
O O9 0.801711 0.124244 0.043445
O O10 0.962797 0.181315 0.099080
O O11 0.930518 0.000000 0.106781
O O12 0.750000 0.750000 0.500000
O O13 0.894283 0.663553 0.545105
O O14 0.475441 0.841341 0.781017
O O15 0.445152 0.000000 0.658812
O O16 0.680181 0.000000 0.019338
O O17 0.632820 0.169592 0.946063
O O18 0.000000 0.324986 0.000000
#
# Coordination Sequence:
#
# PCOD8088435 Si02
#       7
#     8   8   8   8   8   8   8
#     4   9  17  31  54  85 113 136 176 233 286 330
#     4  10  19  34  58  86 112 142 182 232 286 334
#     4  10  22  38  54  80 116 149 187 230 276 335
#     4  10  19  32  53  80 115 145 178 225 286 336
#     4  10  20  34  52  81 113 142 184 234 280 330
#     4  10  20  35  58  87 114 142 183 236 285 327
#     4  12  22  36  59  82 113 152 191 229 281 333
#
# _framework density 20.188794000000001
#
# number of rings (size 3 to 8) (size 9 to 14) (size 15 to 20)
#    0.000    1.857    2.857    2.143    0.000    3.714 
#    0.000    0.000    0.000    1.286    0.000    0.000 
#    0.000    0.000    0.000    0.000    0.000    0.000 
#
# Total GULP energy -346891.136536 kJ/mol
# GULP energy per Si atom -12388.969162 kJ/mol
# Density = 2.014284 g / cm^3
# Si number density = 20.188794 Si / 1000 Ang^3
#
#
#
# Elastic Constant Matrix: (Units=GPa)
#
#
# Indices 1 2 3 4 5 6 
#
# 1 37.0105 26.9092 17.4549 0.0000 17.1906 0.0000
# 2 26.9092 140.9848 55.6353 0.0000 12.5949 0.0000
# 3 17.4549 55.6353 87.0308 0.0000 16.6489 0.0000
# 4 0.0000 0.0000 0.0000 32.7445 0.0000 5.5432
# 5 17.1906 12.5949 16.6489 0.0000 27.5258 0.0000
# 6 0.0000 0.0000 0.0000 5.5432 0.0000 26.4724
#
#
#
# Elastic Compliance Matrix: (Units=1/GPa)
#
#
# Indices 1 2 3 4 5 6 
#
# 1 0.042389 -0.005896 -0.000209 0.000000 -0.023649 0.000000
# 2 -0.005896 0.010320 -0.005898 0.000000 0.002527 0.000000
# 3 -0.000209 -0.005898 0.016693 0.000000 -0.007267 0.000000
# 4 0.000000 0.000000 0.000000 0.031662 0.000000 -0.006630
# 5 -0.023649 0.002527 -0.007267 0.000000 0.054338 0.000000
# 6 0.000000 0.000000 0.000000 -0.006630 0.000000 0.039163
#
#
# Mechanical properties :
#
#
# Convention : Reuss Voigt Hill
#
# Bulk Modulus (GPa) = 22.02804 51.66941 36.84873
# Shear Modulus (GPa) = 21.39476 28.35034 24.87255
#
# Velocity S-wave (km/s) = 3.25889 3.75141 3.51379
# Velocity P-wave (km/s) = 5.00951 6.66429 5.89525
#
# Compressibility (1/GPa) = 0.04539669
#
# Stress axis : x y z
#
# Youngs Moduli (GPa) = 23.59117 96.89936 59.90611
#
# Poissons Ratio (x) = 0.57127 0.01250
# Poissons Ratio (y) = 0.13908 0.35334
# Poissons Ratio (z) = 0.00492 0.57153
#
# Static dielectric constant tensor:
#      x y z
#    x 3.425100 0.000000 0.311440 
#    y 0.000000 4.146770 0.000000 
#    z 0.311440 0.000000 3.879790 
# 
# 
# High freq. dielectric constant tensor:
#      x y z
#    x 1.756970 0.000000 0.035130 
#    y 0.000000 1.794480 0.000000 
#    z 0.035130 0.000000 1.786360 
# 
# From -- ./inp_files/225396.got.cif
#   From: 2010.06.25/outbox.cif.g09.slc.cpg/sg12_113_cif.got.tgz:225396.got - 2010.06.28 00:19:55.
