data_PCOD8088378
_publ_section_title
;
Structure prediction by ZEFSAII (Michael W. Deem and Ramdas Pophale) SiO2 
 PCOD8088378
Probable space group: C 2/M
;
_chemical_formula_sum "Si O2"
_cell_formula_units_Z 40
_cell_length_a 28.492616
_cell_length_b 8.874563
_cell_length_c 12.544627
_cell_angle_alpha 90.000000
_cell_angle_beta 136.175160
_cell_angle_gamma 90.000000
_cell_volume 2196.490099
_symmetry_space_group_name_H-M "C 2/M"
_symmetry_group_IT_number 12
_symmetry_cell_setting 'monoclinic'
loop_
_space_group_symop_operation_xyz
x,y,z
-x,y,-z
-x,-y,-z
x,-y,z
1/2+x,1/2+y,z
1/2-x,1/2+y,-z
1/2-x,1/2-y,-z
1/2+x,1/2-y,z
loop_
_atom_site_type_symbol
_atom_site_label
_atom_site_fract_x
_atom_site_fract_y
_atom_site_fract_z
Si Si1 0.318284 0.822882 0.569034
Si Si2 0.642499 0.175640 0.014056
Si Si3 0.798676 0.828372 0.323742
Si Si4 0.322058 0.324991 0.129799
Si Si5 0.421347 0.326910 0.893694
O O1 0.250000 0.750000 0.500000
O O2 0.328575 0.781877 0.461954
O O3 0.382011 0.764097 0.738924
O O4 0.313196 0.000000 0.575646
O O5 0.719734 0.208369 0.174719
O O6 0.592741 0.258405 0.013505
O O7 0.625743 0.000000 0.985177
O O8 0.627753 0.243024 0.871428
O O9 0.842968 0.804203 0.288259
O O10 0.805796 0.000000 0.375326
O O11 0.316836 0.500000 0.091520
O O12 0.250000 0.250000 0.000000
O O13 0.397697 0.500000 0.852694
O O14 0.500000 0.309734 0.000000
#
# Coordination Sequence:
#
# PCOD8088378 Si02
#       5
#     8   8   8   8   8
#     4  12  23  35  56  82 112 147 183 228 277 326
#     4  10  19  32  53  79 110 145 181 224 273 328
#     4   9  18  32  51  79 111 143 180 223 273 324
#     4   9  17  29  48  75 109 143 179 224 272 323
#     4  11  24  40  58  80 109 147 188 229 277 333
#
# _framework density 18.210871999999998
#
# number of rings (size 3 to 8) (size 9 to 14) (size 15 to 20)
#    0.000    1.800    2.000    4.800    0.000    5.600 
#    0.000    0.000    0.000    1.200    0.000    8.400 
#    0.000    0.000    0.000    0.000    0.000    0.000 
#
# Total GULP energy -247980.020222 kJ/mol
# GULP energy per Si atom -12399.001011 kJ/mol
# Density = 1.816942 g / cm^3
# Si number density = 18.210872 Si / 1000 Ang^3
#
#
#
# Elastic Constant Matrix: (Units=GPa)
#
#
# Indices 1 2 3 4 5 6 
#
# 1 113.3068 67.8218 46.9466 0.0000 -32.3673 0.0000
# 2 67.8218 155.1769 56.5625 0.0000 -16.9511 0.0000
# 3 46.9466 56.5625 70.4866 0.0000 -19.2236 0.0000
# 4 0.0000 0.0000 0.0000 28.4504 0.0000 -8.1977
# 5 -32.3673 -16.9511 -19.2236 0.0000 30.0418 0.0000
# 6 0.0000 0.0000 0.0000 -8.1977 0.0000 31.4144
#
#
#
# Elastic Compliance Matrix: (Units=1/GPa)
#
#
# Indices 1 2 3 4 5 6 
#
# 1 0.016959 -0.004475 -0.004130 0.000000 0.013103 0.000000
# 2 -0.004475 0.010297 -0.006073 0.000000 -0.002897 0.000000
# 3 -0.004130 -0.006073 0.023820 0.000000 0.007366 0.000000
# 4 0.000000 0.000000 0.000000 0.038007 0.000000 0.009918
# 5 0.013103 -0.002897 0.007366 0.000000 0.050483 0.000000
# 6 0.000000 0.000000 0.000000 0.009918 0.000000 0.034421
#
#
# Mechanical properties :
#
#
# Convention : Reuss Voigt Hill
#
# Bulk Modulus (GPa) = 46.04142 75.73691 60.88917
# Shear Modulus (GPa) = 23.74369 29.15728 26.45048
#
# Velocity S-wave (km/s) = 3.61476 4.00571 3.81524
# Velocity P-wave (km/s) = 6.53906 7.94187 7.27436
#
# Compressibility (1/GPa) = 0.02171957
#
# Stress axis : x y z
#
# Youngs Moduli (GPa) = 58.96679 97.11431 41.98170
#
# Poissons Ratio (x) = 0.43459 0.17340
# Poissons Ratio (y) = 0.26388 0.25494
# Poissons Ratio (z) = 0.24356 0.58974
#
# Static dielectric constant tensor:
#      x y z
#    x 3.645410 0.000000 -0.688040 
#    y 0.000000 3.602050 0.000000 
#    z -0.688040 0.000000 3.668240 
# 
# 
# High freq. dielectric constant tensor:
#      x y z
#    x 1.701060 0.000000 -0.040770 
#    y 0.000000 1.723150 0.000000 
#    z -0.040770 0.000000 1.675120 
# 
# From -- ./inp_files/162376.got.cif
#   From: 2010.06.25/outbox.cif.g09.slc.cpg/sg12_82_cif.got.tgz:162376.got - 2010.06.28 00:19:55.
