data_PCOD8088573
_publ_section_title
;
Structure prediction by ZEFSAII (Michael W. Deem and Ramdas Pophale) SiO2 
 PCOD8088573
Probable space group: C 2/M
;
_chemical_formula_sum "Si O2"
_cell_formula_units_Z 52
_cell_length_a 5.136699
_cell_length_b 17.381534
_cell_length_c 30.865267
_cell_angle_alpha 90.000000
_cell_angle_beta 100.549336
_cell_angle_gamma 90.000000
_cell_volume 2709.186513
_symmetry_space_group_name_H-M "C 2/M"
_symmetry_group_IT_number 12
_symmetry_cell_setting 'monoclinic'
loop_
_space_group_symop_operation_xyz
x,y,z
-x,y,-z
-x,-y,-z
x,-y,z
1/2+x,1/2+y,z
1/2-x,1/2+y,-z
1/2-x,1/2-y,-z
1/2+x,1/2-y,z
loop_
_atom_site_type_symbol
_atom_site_label
_atom_site_fract_x
_atom_site_fract_y
_atom_site_fract_z
Si Si1 0.122375 0.088771 0.639965
Si Si2 0.943829 0.589672 0.415869
Si Si3 0.064571 0.091405 0.049347
Si Si4 0.842215 0.700293 0.818366
Si Si5 0.813443 0.201102 0.281385
Si Si6 0.876021 0.408827 0.897613
Si Si7 0.500000 0.196402 0.500000
O O1 0.308126 0.114601 0.605908
O O2 0.205651 0.131577 0.685932
O O3 0.821566 0.107456 0.618737
O O4 0.168489 0.000000 0.651476
O O5 0.958710 0.500000 0.429850
O O6 0.945943 0.641411 0.458131
O O7 0.350859 0.120135 0.073125
O O8 0.851356 0.121558 0.077307
O O9 0.054711 0.000000 0.046739
O O10 0.000000 0.125934 0.000000
O O11 0.636181 0.764934 0.827620
O O12 0.767016 0.669615 0.768358
O O13 0.833969 0.627152 0.849298
O O14 0.612286 0.267732 0.289927
O O15 0.869579 0.500000 0.891417
O O16 0.750000 0.250000 0.500000
#
# Coordination Sequence:
#
# PCOD8088573 Si02
#       7
#     8   8   8   8   8   8   4
#     4  10  21  37  59  84 109 141 180 221 267 316
#     4  10  22  40  58  79 112 149 178 214 272 327
#     4   9  17  30  50  77 105 131 167 217 266 309
#     4  10  21  37  54  75 107 144 174 208 264 321
#     4  10  21  36  56  80 107 141 177 214 263 318
#     4  10  19  32  54  79 100 132 177 218 256 304
#     4  12  25  38  57  86 112 142 188 232 263 302
#
# _framework density 19.193954999999999
#
# number of rings (size 3 to 8) (size 9 to 14) (size 15 to 20)
#    0.000    2.000    0.000    3.462    0.000    6.154 
#    0.000    3.077    0.000   20.308    0.000    0.000 
#    0.000    0.000    0.000    0.000    0.000    0.000 
#
# Total GULP energy -322492.317375 kJ/mol
# GULP energy per Si atom -12403.550668 kJ/mol
# Density = 1.915027 g / cm^3
# Si number density = 19.193955 Si / 1000 Ang^3
#
#
#
# Elastic Constant Matrix: (Units=GPa)
#
#
# Indices 1 2 3 4 5 6 
#
# 1 105.2979 24.0758 25.5099 0.0000 -8.1501 0.0000
# 2 24.0758 57.1739 66.2882 0.0000 -7.5608 0.0000
# 3 25.5099 66.2882 129.4323 0.0000 -15.0314 0.0000
# 4 0.0000 0.0000 0.0000 31.8121 0.0000 -5.6694
# 5 -8.1501 -7.5608 -15.0314 0.0000 26.9988 0.0000
# 6 0.0000 0.0000 0.0000 -5.6694 0.0000 16.1165
#
#
#
# Elastic Compliance Matrix: (Units=1/GPa)
#
#
# Indices 1 2 3 4 5 6 
#
# 1 0.010643 -0.005059 0.000750 0.000000 0.002214 0.000000
# 2 -0.005059 0.045464 -0.022436 0.000000 -0.001287 0.000000
# 3 0.000750 -0.022436 0.019635 0.000000 0.004875 0.000000
# 4 0.000000 0.000000 0.000000 0.033537 0.000000 0.011798
# 5 0.002214 -0.001287 0.004875 0.000000 0.040061 0.000000
# 6 0.000000 0.000000 0.000000 0.011798 0.000000 0.066198
#
#
# Mechanical properties :
#
#
# Convention : Reuss Voigt Hill
#
# Bulk Modulus (GPa) = 44.94019 58.18354 51.56186
# Shear Modulus (GPa) = 18.08673 26.72083 22.40378
#
# Velocity S-wave (km/s) = 3.07304 3.73520 3.42018
# Velocity P-wave (km/s) = 6.00467 6.99868 6.52064
#
# Compressibility (1/GPa) = 0.02225180
#
# Stress axis : x y z
#
# Youngs Moduli (GPa) = 93.95713 21.99548 50.92937
#
# Poissons Ratio (x) = 0.11128 -0.03822
# Poissons Ratio (y) = 0.47534 1.14267
# Poissons Ratio (z) = -0.07051 0.49350
#
# Static dielectric constant tensor:
#      x y z
#    x 3.860280 0.000000 -0.037670 
#    y 0.000000 3.218290 0.000000 
#    z -0.037670 0.000000 3.579240 
# 
# 
# High freq. dielectric constant tensor:
#      x y z
#    x 1.770200 0.000000 -0.002840 
#    y 0.000000 1.722060 0.000000 
#    z -0.002840 0.000000 1.756740 
# 
# From -- ./inp_files/354899.got.cif
#   From: 2010.06.25/outbox.cif.g09.slc.cpg/sg12_178_cif.got.tgz:354899.got - 2010.06.28 00:19:55.
