data_PCOD8088581
_publ_section_title
;
Structure prediction by ZEFSAII (Michael W. Deem and Ramdas Pophale) SiO2 
 PCOD8088581
Probable space group: C 2/M
;
_chemical_formula_sum "Si O2"
_cell_formula_units_Z 44
_cell_length_a 11.512343
_cell_length_b 16.524485
_cell_length_c 12.011221
_cell_angle_alpha 90.000000
_cell_angle_beta 117.089645
_cell_angle_gamma 90.000000
_cell_volume 2034.289720
_symmetry_space_group_name_H-M "C 2/M"
_symmetry_group_IT_number 12
_symmetry_cell_setting 'monoclinic'
loop_
_space_group_symop_operation_xyz
x,y,z
-x,y,-z
-x,-y,-z
x,-y,z
1/2+x,1/2+y,z
1/2-x,1/2+y,-z
1/2-x,1/2-y,-z
1/2+x,1/2-y,z
loop_
_atom_site_type_symbol
_atom_site_label
_atom_site_fract_x
_atom_site_fract_y
_atom_site_fract_z
Si Si1 0.723947 0.356887 0.873104
Si Si2 0.373859 0.403734 0.510585
Si Si3 0.122271 0.593972 0.266381
Si Si4 0.500000 0.300935 0.000000
Si Si5 0.055441 0.909736 0.220841
Si Si6 0.126738 0.693833 0.872659
O O1 0.836237 0.392034 0.842975
O O2 0.596582 0.412684 0.810126
O O3 0.684782 0.263843 0.817947
O O4 0.769115 0.366378 0.023638
O O5 0.500000 0.367824 0.500000
O O6 0.382851 0.500000 0.510850
O O7 0.239434 0.374361 0.395509
O O8 0.369497 0.374715 0.637608
O O9 0.089594 0.500000 0.273164
O O10 0.992997 0.646746 0.236848
O O11 0.583177 0.354888 0.124737
O O12 0.405716 0.244312 0.028478
O O13 0.103505 0.000000 0.213684
#
# Coordination Sequence:
#
# PCOD8088581 Si02
#       6
#     8   8   8   4   8   8
#     4  10  19  33  53  76 113 146 172 229 288 327
#     4   9  17  31  51  79 110 138 178 237 282 315
#     4  11  20  34  59  84 108 145 193 231 273 335
#     4  10  19  34  49  72 108 146 170 220 271 336
#     4  10  19  32  54  79 103 139 185 224 268 329
#     4  10  21  35  51  78 114 148 178 224 287 330
#
# _framework density 21.629169000000001
#
# number of rings (size 3 to 8) (size 9 to 14) (size 15 to 20)
#    0.000    2.000    3.636    0.818    0.000    2.182 
#    0.000    3.636    4.000    0.000    0.000    0.000 
#    0.000   40.727    0.000    0.000    0.000    0.000 
#
# Total GULP energy -272570.680520 kJ/mol
# GULP energy per Si atom -12389.576387 kJ/mol
# Density = 2.157994 g / cm^3
# Si number density = 21.629169 Si / 1000 Ang^3
#
#
#
# Elastic Constant Matrix: (Units=GPa)
#
#
# Indices 1 2 3 4 5 6 
#
# 1 23.2732 15.5788 17.8251 0.0000 11.7378 0.0000
# 2 15.5788 65.4775 37.4609 0.0000 6.4595 0.0000
# 3 17.8251 37.4609 141.3790 0.0000 16.3684 0.0000
# 4 0.0000 0.0000 0.0000 23.4843 0.0000 10.0430
# 5 11.7378 6.4595 16.3684 0.0000 41.6880 0.0000
# 6 0.0000 0.0000 0.0000 10.0430 0.0000 17.8681
#
#
#
# Elastic Compliance Matrix: (Units=1/GPa)
#
#
# Indices 1 2 3 4 5 6 
#
# 1 0.059718 -0.011138 -0.002966 0.000000 -0.013924 0.000000
# 2 -0.011138 0.020115 -0.004115 0.000000 0.001635 0.000000
# 3 -0.002966 -0.004115 0.008765 0.000000 -0.001969 0.000000
# 4 0.000000 0.000000 0.000000 0.056055 0.000000 -0.031507
# 5 -0.013924 0.001635 -0.001969 0.000000 0.028428 0.000000
# 6 0.000000 0.000000 0.000000 -0.031507 0.000000 0.073674
#
#
# Mechanical properties :
#
#
# Convention : Reuss Voigt Hill
#
# Bulk Modulus (GPa) = 19.17141 41.31767 30.24454
# Shear Modulus (GPa) = 16.63448 27.22575 21.93011
#
# Velocity S-wave (km/s) = 2.77623 3.55174 3.18766
# Velocity P-wave (km/s) = 4.37716 5.99700 5.24993
#
# Compressibility (1/GPa) = 0.05216100
#
# Stress axis : x y z
#
# Youngs Moduli (GPa) = 16.74545 49.71329 114.08465
#
# Poissons Ratio (x) = 0.55370 0.33837
# Poissons Ratio (y) = 0.18651 0.46945
# Poissons Ratio (z) = 0.04967 0.20457
#
# Static dielectric constant tensor:
#      x y z
#    x 3.706270 0.000000 0.090850 
#    y 0.000000 3.780920 0.000000 
#    z 0.090850 0.000000 4.069280 
# 
# 
# High freq. dielectric constant tensor:
#      x y z
#    x 1.823650 0.000000 0.016010 
#    y 0.000000 1.829720 0.000000 
#    z 0.016010 0.000000 1.848750 
# 
# From -- ./inp_files/215627.got.cif
#   From: 2010.06.25/outbox.cif.g09.slc.cpg/sg12_108_cif.got.tgz:215627.got - 2010.06.28 00:19:55.
