data_PCOD8088578
_publ_section_title
;
Structure prediction by ZEFSAII (Michael W. Deem and Ramdas Pophale) SiO2 
 PCOD8088578
Probable space group: C 2/M
;
_chemical_formula_sum "Si O2"
_cell_formula_units_Z 56
_cell_length_a 19.196976
_cell_length_b 8.980381
_cell_length_c 19.917219
_cell_angle_alpha 90.000000
_cell_angle_beta 61.043473
_cell_angle_gamma 90.000000
_cell_volume 3004.401942
_symmetry_space_group_name_H-M "C 2/M"
_symmetry_group_IT_number 12
_symmetry_cell_setting 'monoclinic'
loop_
_space_group_symop_operation_xyz
x,y,z
-x,y,-z
-x,-y,-z
x,-y,z
1/2+x,1/2+y,z
1/2-x,1/2+y,-z
1/2-x,1/2-y,-z
1/2+x,1/2-y,z
loop_
_atom_site_type_symbol
_atom_site_label
_atom_site_fract_x
_atom_site_fract_y
_atom_site_fract_z
Si Si1 0.121209 0.173969 0.122094
Si Si2 0.643204 0.827673 0.594683
Si Si3 0.670103 0.328778 0.304031
Si Si4 0.512602 0.332329 0.295193
Si Si5 0.419009 0.675411 0.006395
Si Si6 0.791959 0.673187 0.579717
Si Si7 0.746721 0.324693 0.853667
O O1 0.045779 0.200321 0.205531
O O2 0.097216 0.238870 0.060677
O O3 0.198371 0.260245 0.112805
O O4 0.144266 0.000000 0.109246
O O5 0.554213 0.787204 0.656710
O O6 0.702298 0.730290 0.612089
O O7 0.655803 0.791754 0.510406
O O8 0.659701 0.000000 0.602036
O O9 0.696112 0.500000 0.295477
O O10 0.582338 0.310156 0.315993
O O11 0.666926 0.259301 0.378973
O O12 0.733696 0.245139 0.227587
O O13 0.478120 0.500000 0.315780
O O14 0.430030 0.500000 0.994280
O O15 0.500000 0.745226 0.000000
O O16 0.344869 0.715792 0.088489
O O17 0.789140 0.500000 0.598163
O O18 0.760786 0.500000 0.843836
#
# Coordination Sequence:
#
# PCOD8088578 Si02
#       7
#     8   8   8   8   8   8   8
#     4   9  18  34  54  75 104 141 176 213 259 311
#     4  10  21  36  55  79 108 141 176 218 264 311
#     4  10  21  37  56  79 108 140 175 218 267 316
#     4   9  19  34  53  77 105 141 180 218 262 313
#     4   9  18  32  51  77 106 136 174 216 258 308
#     4  10  21  37  56  78 106 141 179 217 261 315
#     4  10  19  32  54  79 102 135 176 217 262 312
#
# _framework density 18.639317999999999
#
# number of rings (size 3 to 8) (size 9 to 14) (size 15 to 20)
#    0.000    2.429    0.000    3.000    0.000    6.286 
#    0.000    6.429    0.000    3.857    0.000    0.000 
#    0.000    0.000    0.000    0.000    0.000    0.000 
#
# Total GULP energy -347271.177601 kJ/mol
# GULP energy per Si atom -12402.542057 kJ/mol
# Density = 1.859689 g / cm^3
# Si number density = 18.639318 Si / 1000 Ang^3
#
#
#
# Elastic Constant Matrix: (Units=GPa)
#
#
# Indices 1 2 3 4 5 6 
#
# 1 53.2118 24.8874 20.8977 0.0001 -9.2941 -0.0004
# 2 24.8874 71.7267 26.9421 0.0001 -6.7923 -0.0008
# 3 20.8977 26.9421 48.5412 0.0001 -10.1804 -0.0002
# 4 0.0001 0.0001 0.0001 27.5192 0.0000 -0.0212
# 5 -9.2941 -6.7923 -10.1804 0.0000 31.9966 0.0000
# 6 -0.0004 -0.0008 -0.0002 -0.0212 0.0000 29.8694
#
#
#
# Elastic Compliance Matrix: (Units=1/GPa)
#
#
# Indices 1 2 3 4 5 6 
#
# 1 0.024764 -0.005719 -0.006679 0.000000 0.003854 0.000000
# 2 -0.005719 0.018948 -0.008100 0.000000 -0.000216 0.000000
# 3 -0.006679 -0.008100 0.029150 0.000000 0.005615 0.000000
# 4 0.000000 0.000000 0.000000 0.036338 0.000000 0.000026
# 5 0.003854 -0.000216 0.005615 0.000000 0.034114 0.000000
# 6 0.000000 0.000000 0.000000 0.000026 0.000000 0.033479
#
#
# Mechanical properties :
#
#
# Convention : Reuss Voigt Hill
#
# Bulk Modulus (GPa) = 31.38100 35.43712 33.40906
# Shear Modulus (GPa) = 21.89044 24.59386 23.24215
#
# Velocity S-wave (km/s) = 3.43070 3.63638 3.53504
# Velocity P-wave (km/s) = 5.70661 6.05676 5.88429
#
# Compressibility (1/GPa) = 0.03186642
#
# Stress axis : x y z
#
# Youngs Moduli (GPa) = 40.38187 52.77539 34.30542
#
# Poissons Ratio (x) = 0.30181 0.22912
# Poissons Ratio (y) = 0.23093 0.27788
# Poissons Ratio (z) = 0.26970 0.42749
#
# Static dielectric constant tensor:
#      x y z
#    x 3.420210 0.000000 0.111630 
#    y 0.000000 3.348520 0.000000 
#    z 0.111630 0.000000 3.460970 
# 
# 
# High freq. dielectric constant tensor:
#      x y z
#    x 1.720090 0.000000 0.003750 
#    y 0.000000 1.717130 0.000000 
#    z 0.003750 0.000000 1.729820 
# 
# From -- ./inp_files/313703.got.cif
#   From: 2010.06.25/outbox.cif.g09.slc.cpg/sg12_157_cif.got.tgz:313703.got - 2010.06.28 00:19:55.
