data_PCOD8088227
_publ_section_title
;
Structure prediction by ZEFSAII (Michael W. Deem and Ramdas Pophale) SiO2 
 PCOD8088227
Probable space group: C 2/M
;
_chemical_formula_sum "Si O2"
_cell_formula_units_Z 48
_cell_length_a 16.423807
_cell_length_b 19.887479
_cell_length_c 12.756449
_cell_angle_alpha 90.000000
_cell_angle_beta 142.354622
_cell_angle_gamma 90.000000
_cell_volume 2544.853651
_symmetry_space_group_name_H-M "C 2/M"
_symmetry_group_IT_number 12
_symmetry_cell_setting 'monoclinic'
loop_
_space_group_symop_operation_xyz
x,y,z
-x,y,-z
-x,-y,-z
x,-y,z
1/2+x,1/2+y,z
1/2-x,1/2+y,-z
1/2-x,1/2-y,-z
1/2+x,1/2-y,z
loop_
_atom_site_type_symbol
_atom_site_label
_atom_site_fract_x
_atom_site_fract_y
_atom_site_fract_z
Si Si1 0.528672 0.336057 0.759383
Si Si2 0.248205 0.184862 0.571020
Si Si3 0.778950 0.201101 0.214081
Si Si4 0.628635 0.847897 0.705443
Si Si5 0.116025 0.921101 0.039606
Si Si6 0.037949 0.679830 0.830200
O O1 0.374684 0.361429 0.593995
O O2 0.603260 0.340716 0.723064
O O3 0.529754 0.258661 0.795957
O O4 0.602186 0.384324 0.914847
O O5 0.250000 0.250000 0.500000
O O6 0.209683 0.200330 0.650517
O O7 0.392902 0.150315 0.714555
O O8 0.790595 0.279127 0.197546
O O9 0.638700 0.171255 0.029942
O O10 0.500000 0.842402 0.500000
O O11 0.734650 0.902279 0.767483
O O12 0.581289 0.865409 0.774962
O O13 0.104157 0.000000 0.010871
O O14 0.000000 0.895527 0.000000
#
# Coordination Sequence:
#
# PCOD8088227 Si02
#       6
#     8   8   8   8   8   8
#     4  10  19  36  53  77 117 146 187 231 281 342
#     4  10  21  28  51  87 116 144 180 218 285 352
#     4  11  18  34  53  86 120 150 178 222 290 361
#     4  11  21  35  57  82 117 148 187 236 290 346
#     4  11  25  40  58  81 107 154 204 239 282 333
#     4  10  19  32  52  88 110 151 178 216 298 355
#
# _framework density 18.861595999999999
#
# number of rings (size 3 to 8) (size 9 to 14) (size 15 to 20)
#    0.000    1.500    3.333    5.000    7.000    0.333 
#    0.000    0.000    0.000    2.000    0.000    1.167 
#    0.000    0.000    0.000    0.000    0.000    0.000 
#
# Total GULP energy -297397.338611 kJ/mol
# GULP energy per Si atom -12391.555775 kJ/mol
# Density = 1.881867 g / cm^3
# Si number density = 18.861596 Si / 1000 Ang^3
#
#
#
# Elastic Constant Matrix: (Units=GPa)
#
#
# Indices 1 2 3 4 5 6 
#
# 1 126.2727 28.0859 43.7177 0.0000 8.3399 0.0000
# 2 28.0859 32.4355 11.3038 0.0000 4.9841 0.0000
# 3 43.7177 11.3038 126.0860 0.0000 20.7759 0.0000
# 4 0.0000 0.0000 0.0000 10.2457 0.0000 1.6012
# 5 8.3399 4.9841 20.7759 0.0000 48.3115 0.0000
# 6 0.0000 0.0000 0.0000 1.6012 0.0000 17.5319
#
#
#
# Elastic Compliance Matrix: (Units=1/GPa)
#
#
# Indices 1 2 3 4 5 6 
#
# 1 0.010812 -0.008346 -0.003051 0.000000 0.000307 0.000000
# 2 -0.008346 0.038488 -0.000151 0.000000 -0.002465 0.000000
# 3 -0.003051 -0.000151 0.009593 0.000000 -0.003583 0.000000
# 4 0.000000 0.000000 0.000000 0.099015 0.000000 -0.009043
# 5 0.000307 -0.002465 -0.003583 0.000000 0.022441 0.000000
# 6 0.000000 0.000000 0.000000 -0.009043 0.000000 0.057865
#
#
# Mechanical properties :
#
#
# Convention : Reuss Voigt Hill
#
# Bulk Modulus (GPa) = 27.93447 50.11209 39.02328
# Shear Modulus (GPa) = 18.29887 28.66363 23.48125
#
# Velocity S-wave (km/s) = 3.11813 3.90254 3.53218
# Velocity P-wave (km/s) = 5.27314 6.85072 6.11304
#
# Compressibility (1/GPa) = 0.03579807
#
# Stress axis : x y z
#
# Youngs Moduli (GPa) = 92.49235 25.98200 104.24382
#
# Poissons Ratio (x) = 0.21684 0.31805
# Poissons Ratio (y) = 0.77191 0.01570
# Poissons Ratio (z) = 0.28220 0.00391
#
# Static dielectric constant tensor:
#      x y z
#    x 3.961900 0.000000 0.424240 
#    y 0.000000 2.808470 0.000000 
#    z 0.424240 0.000000 3.913740 
# 
# 
# High freq. dielectric constant tensor:
#      x y z
#    x 1.754110 0.000000 0.014530 
#    y 0.000000 1.645390 0.000000 
#    z 0.014530 0.000000 1.756750 
# 
# From -- ./inp_files/77266.got.cif
#   From: 2010.06.25/outbox.cif.g09.slc.cpg/sg12_39_cif.got.tgz:77266.got - 2010.06.28 00:19:55.
