data_PCOD8088170
_publ_section_title
;
Structure prediction by ZEFSAII (Michael W. Deem and Ramdas Pophale) SiO2 
 PCOD8088170
Probable space group: C 2/M
;
_chemical_formula_sum "Si O2"
_cell_formula_units_Z 64
_cell_length_a 24.921943
_cell_length_b 14.850744
_cell_length_c 17.719843
_cell_angle_alpha 90.000000
_cell_angle_beta 149.797149
_cell_angle_gamma 90.000000
_cell_volume 3299.227887
_symmetry_space_group_name_H-M "C 2/M"
_symmetry_group_IT_number 12
_symmetry_cell_setting 'monoclinic'
loop_
_space_group_symop_operation_xyz
x,y,z
-x,y,-z
-x,-y,-z
x,-y,z
1/2+x,1/2+y,z
1/2-x,1/2+y,-z
1/2-x,1/2-y,-z
1/2+x,1/2-y,z
loop_
_atom_site_type_symbol
_atom_site_label
_atom_site_fract_x
_atom_site_fract_y
_atom_site_fract_z
Si Si1 0.812473 0.893954 0.162420
Si Si2 0.890542 0.265327 0.827329
Si Si3 0.603900 0.104338 0.835153
Si Si4 0.750715 0.600375 0.747611
Si Si5 0.539883 0.850952 0.470060
Si Si6 0.534239 0.648208 0.462380
Si Si7 0.232694 0.600890 0.604854
Si Si8 0.414860 0.896482 0.715702
O O1 0.782676 0.863534 0.210632
O O2 0.931102 0.859702 0.281924
O O3 0.810303 0.000000 0.154466
O O4 0.721894 0.856239 0.995705
O O5 0.835587 0.330475 0.820112
O O6 0.823471 0.174787 0.730007
O O7 0.904935 0.323220 0.769155
O O8 0.000000 0.234630 0.000000
O O9 0.559045 0.154381 0.707761
O O10 0.530268 0.118922 0.819018
O O11 0.606398 0.000000 0.816902
O O12 0.800668 0.500000 0.810062
O O13 0.641654 0.598592 0.563536
O O14 0.500000 0.896422 0.500000
O O15 0.573685 0.749015 0.525930
O O16 0.641735 0.901669 0.559244
O O17 0.500000 0.601849 0.500000
O O18 0.282978 0.500000 0.664582
O O19 0.177193 0.622818 0.457564
O O20 0.404968 0.000000 0.733796
#
# Coordination Sequence:
#
# PCOD8088170 Si02
#       8
#     8   8   8   8   8   8   8   8
#     4   9  17  30  49  74 111 150 175 206 266 336
#     4  12  23  35  57  87 113 143 181 234 285 328
#     4   9  18  32  51  78 108 141 180 219 267 321
#     4  10  19  32  52  80 112 144 178 217 267 328
#     4  10  19  34  57  81 102 133 186 234 267 311
#     4   9  17  30  49  74 107 141 177 213 258 324
#     4  10  22  41  61  79 107 149 192 229 271 328
#     4   9  19  37  59  84 112 145 186 227 273 330
#
# _framework density 19.398478999999998
#
# number of rings (size 3 to 8) (size 9 to 14) (size 15 to 20)
#    0.000    2.250    1.250    3.000    0.000    5.250 
#    0.000    0.000    0.000    0.000    0.000    0.000 
#    0.000    0.000    0.000    0.000    0.000    0.000 
#
# Total GULP energy -396537.309433 kJ/mol
# GULP energy per Si atom -12391.790920 kJ/mol
# Density = 1.935433 g / cm^3
# Si number density = 19.398479 Si / 1000 Ang^3
#
#
#
# Elastic Constant Matrix: (Units=GPa)
#
#
# Indices 1 2 3 4 5 6 
#
# 1 62.4451 19.6709 28.5135 0.0000 -9.5105 0.0000
# 2 19.6709 74.8615 36.2161 0.0000 -5.4266 0.0000
# 3 28.5135 36.2161 131.7169 0.0000 8.0121 0.0000
# 4 0.0000 0.0000 0.0000 27.0220 0.0000 1.1640
# 5 -9.5105 -5.4266 8.0121 0.0000 19.9206 0.0000
# 6 0.0000 0.0000 0.0000 1.1640 0.0000 19.7574
#
#
#
# Elastic Compliance Matrix: (Units=1/GPa)
#
#
# Indices 1 2 3 4 5 6 
#
# 1 0.020459 -0.002451 -0.004417 0.000000 0.010876 0.000000
# 2 -0.002451 0.016447 -0.004298 0.000000 0.005039 0.000000
# 3 -0.004417 -0.004298 0.010178 0.000000 -0.007373 0.000000
# 4 0.000000 0.000000 0.000000 0.037101 0.000000 -0.002186
# 5 0.010876 0.005039 -0.007373 0.000000 0.059730 0.000000
# 6 0.000000 0.000000 0.000000 -0.002186 0.000000 0.050743
#
#
# Mechanical properties :
#
#
# Convention : Reuss Voigt Hill
#
# Bulk Modulus (GPa) = 40.39886 48.64718 44.52302
# Shear Modulus (GPa) = 22.19854 25.64821 23.92337
#
# Velocity S-wave (km/s) = 3.38649 3.64012 3.51559
# Velocity P-wave (km/s) = 6.01349 6.54214 6.28338
#
# Compressibility (1/GPa) = 0.02475317
#
# Stress axis : x y z
#
# Youngs Moduli (GPa) = 48.87743 60.80318 98.24745
#
# Poissons Ratio (x) = 0.14902 0.43393
# Poissons Ratio (y) = 0.11979 0.42226
# Poissons Ratio (z) = 0.21588 0.26133
#
# Static dielectric constant tensor:
#      x y z
#    x 3.380530 0.000000 0.096310 
#    y 0.000000 3.392990 0.000000 
#    z 0.096310 0.000000 3.813280 
# 
# 
# High freq. dielectric constant tensor:
#      x y z
#    x 1.726130 0.000000 0.006300 
#    y 0.000000 1.750660 0.000000 
#    z 0.006300 0.000000 1.761910 
# 
# From -- ./inp_files/290128.got.cif
#   From: 2010.06.25/outbox.cif.g09.slc.cpg/sg12_146_cif.got.tgz:290128.got - 2010.06.28 00:19:55.
