data_PCOD8088846
_publ_section_title
;
Structure prediction by ZEFSAII (Michael W. Deem and Ramdas Pophale) SiO2 
 PCOD8088846
Probable space group: C 2/M
;
_chemical_formula_sum "Si O2"
_cell_formula_units_Z 56
_cell_length_a 17.201568
_cell_length_b 16.861800
_cell_length_c 12.193799
_cell_angle_alpha 90.000000
_cell_angle_beta 52.145394
_cell_angle_gamma 90.000000
_cell_volume 2792.556232
_symmetry_space_group_name_H-M "C 2/M"
_symmetry_group_IT_number 12
_symmetry_cell_setting 'monoclinic'
loop_
_space_group_symop_operation_xyz
x,y,z
-x,y,-z
-x,-y,-z
x,-y,z
1/2+x,1/2+y,z
1/2-x,1/2+y,-z
1/2-x,1/2-y,-z
1/2+x,1/2-y,z
loop_
_atom_site_type_symbol
_atom_site_label
_atom_site_fract_x
_atom_site_fract_y
_atom_site_fract_z
Si Si1 0.755558 0.091638 0.108985
Si Si2 0.295025 0.341479 0.294100
Si Si3 0.859973 0.905346 0.801396
Si Si4 0.623957 0.139989 0.609750
Si Si5 0.933849 0.180851 0.362670
Si Si6 0.763612 0.162909 0.676666
Si Si7 0.549008 0.087840 0.351333
O O1 0.816002 0.105933 0.168507
O O2 0.647221 0.131800 0.221719
O O3 0.742581 0.000000 0.093781
O O4 0.811772 0.127063 0.955742
O O5 0.203669 0.372898 0.444756
O O6 0.393482 0.350680 0.280977
O O7 0.269762 0.252978 0.275664
O O8 0.781679 0.883403 0.774131
O O9 0.960176 0.855611 0.701232
O O10 0.881452 0.000000 0.782023
O O11 0.569637 0.224644 0.644009
O O12 0.674359 0.124155 0.683539
O O13 0.533451 0.079935 0.672334
O O14 0.863287 0.154291 0.521852
O O15 0.500000 0.132216 0.500000
O O16 0.581935 0.000000 0.360484
#
# Coordination Sequence:
#
# PCOD8088846 Si02
#       7
#     8   8   8   8   8   8   8
#     4  10  22  37  54  81 116 147 181 227 280 332
#     4   9  18  36  58  82 110 140 181 234 282 323
#     4  11  24  39  54  79 117 158 190 223 272 332
#     4   9  18  35  59  85 109 139 180 234 284 322
#     4   9  20  36  57  83 109 142 188 231 273 326
#     4   9  20  37  57  82 111 145 187 227 271 331
#     4  10  19  32  55  85 107 134 183 233 280 329
#
# _framework density 20.053311999999998
#
# number of rings (size 3 to 8) (size 9 to 14) (size 15 to 20)
#    0.000    2.429    1.429    2.143    2.000    3.429 
#    0.000    5.000    0.000    2.571    0.000    0.000 
#    0.000    0.000    0.000    0.000    0.000    0.000 
#
# Total GULP energy -346938.113489 kJ/mol
# GULP energy per Si atom -12390.646910 kJ/mol
# Density = 2.000767 g / cm^3
# Si number density = 20.053312 Si / 1000 Ang^3
#
#
#
# Elastic Constant Matrix: (Units=GPa)
#
#
# Indices 1 2 3 4 5 6 
#
# 1 108.3850 17.5589 37.9391 0.0000 17.6307 0.0000
# 2 17.5589 28.6165 17.0355 0.0000 2.8026 0.0000
# 3 37.9391 17.0355 88.1759 0.0000 14.7959 0.0000
# 4 0.0000 0.0000 0.0000 19.5992 0.0000 6.1593
# 5 17.6307 2.8026 14.7959 0.0000 31.9199 0.0000
# 6 0.0000 0.0000 0.0000 6.1593 0.0000 28.0479
#
#
#
# Elastic Compliance Matrix: (Units=1/GPa)
#
#
# Indices 1 2 3 4 5 6 
#
# 1 0.011961 -0.004842 -0.003442 0.000000 -0.004586 0.000000
# 2 -0.004842 0.041446 -0.006248 0.000000 0.001932 0.000000
# 3 -0.003442 -0.006248 0.014766 0.000000 -0.004395 0.000000
# 4 0.000000 0.000000 0.000000 0.054805 0.000000 -0.012035
# 5 -0.004586 0.001932 -0.004395 0.000000 0.035729 0.000000
# 6 0.000000 0.000000 0.000000 -0.012035 0.000000 0.038296
#
#
# Mechanical properties :
#
#
# Convention : Reuss Voigt Hill
#
# Bulk Modulus (GPa) = 25.56817 41.13826 33.35322
# Shear Modulus (GPa) = 20.91138 26.08966 23.50052
#
# Velocity S-wave (km/s) = 3.23273 3.61087 3.42702
# Velocity P-wave (km/s) = 5.16835 6.15983 5.68574
#
# Compressibility (1/GPa) = 0.03911112
#
# Stress axis : x y z
#
# Youngs Moduli (GPa) = 83.60162 24.12773 67.72101
#
# Poissons Ratio (x) = 0.11681 0.23307
# Poissons Ratio (y) = 0.40476 0.42314
# Poissons Ratio (z) = 0.28773 0.15076
#
# Static dielectric constant tensor:
#      x y z
#    x 3.763110 0.000000 0.042710 
#    y 0.000000 3.364060 0.000000 
#    z 0.042710 0.000000 3.663560 
# 
# 
# High freq. dielectric constant tensor:
#      x y z
#    x 1.795460 0.000000 0.008180 
#    y 0.000000 1.759420 0.000000 
#    z 0.008180 0.000000 1.764250 
# 
# From -- ./inp_files/157734.got.cif
#   From: 2010.06.25/outbox.cif.g09.slc.cpg/sg12_79_cif.got.tgz:157734.got - 2010.06.28 00:19:55.
