data_PCOD8088201
_publ_section_title
;
Structure prediction by ZEFSAII (Michael W. Deem and Ramdas Pophale) SiO2 
 PCOD8088201
Probable space group: C 2/M
;
_chemical_formula_sum "Si O2"
_cell_formula_units_Z 64
_cell_length_a 30.733981
_cell_length_b 8.923324
_cell_length_c 16.623794
_cell_angle_alpha 90.000000
_cell_angle_beta 134.645384
_cell_angle_gamma 90.000000
_cell_volume 3243.635210
_symmetry_space_group_name_H-M "C 2/M"
_symmetry_group_IT_number 12
_symmetry_cell_setting 'monoclinic'
loop_
_space_group_symop_operation_xyz
x,y,z
-x,y,-z
-x,-y,-z
x,-y,z
1/2+x,1/2+y,z
1/2-x,1/2+y,-z
1/2-x,1/2-y,-z
1/2+x,1/2-y,z
loop_
_atom_site_type_symbol
_atom_site_label
_atom_site_fract_x
_atom_site_fract_y
_atom_site_fract_z
Si Si1 0.544924 0.825812 0.382803
Si Si2 0.638471 0.175926 0.949040
Si Si3 0.624983 0.325860 0.616629
Si Si4 0.050511 0.172526 0.951680
Si Si5 0.766552 0.325408 0.795820
Si Si6 0.350452 0.328270 0.783597
Si Si7 0.081376 0.824232 0.735034
Si Si8 0.570649 0.825138 0.232746
O O1 0.598344 0.775932 0.511910
O O2 0.483992 0.734548 0.321906
O O3 0.569754 0.790896 0.326207
O O4 0.530287 0.000000 0.375523
O O5 0.576890 0.227288 0.913842
O O6 0.636822 0.253145 0.859351
O O7 0.636764 0.000000 0.934211
O O8 0.697540 0.227938 0.077009
O O9 0.614486 0.500000 0.582123
O O10 0.696228 0.288198 0.718237
O O11 0.591410 0.281577 0.655406
O O12 0.983274 0.234857 0.882335
O O13 0.047308 0.000000 0.919910
O O14 0.091520 0.191074 0.083290
O O15 0.779184 0.500000 0.797527
O O16 0.790359 0.237873 0.748383
O O17 0.337345 0.500000 0.744635
O O18 0.365719 0.237006 0.721851
O O19 0.084086 0.000000 0.751416
O O20 0.564113 0.000000 0.205335
#
# Coordination Sequence:
#
# PCOD8088201 Si02
#       8
#     8   8   8   8   8   8   8   8
#     4  11  24  40  59  86 117 149 192 242 288 340
#     4  10  19  33  56  86 118 153 188 231 285 342
#     4  10  23  42  62  84 111 152 198 238 288 345
#     4  10  19  32  52  81 117 152 185 230 284 340
#     4   9  20  40  61  82 116 155 193 236 283 340
#     4  10  21  35  55  85 116 148 191 235 280 339
#     4  11  22  37  60  88 118 150 188 236 291 348
#     4  11  22  35  54  82 115 151 190 232 286 346
#
# _framework density 19.730948000000001
#
# number of rings (size 3 to 8) (size 9 to 14) (size 15 to 20)
#    0.000    1.750    1.250    3.000    0.000    8.500 
#    0.000    0.625    0.000    0.000    0.000    0.000 
#    0.000    0.000    0.000    0.000    0.000    0.000 
#
# Total GULP energy -396906.642359 kJ/mol
# GULP energy per Si atom -12403.332574 kJ/mol
# Density = 1.968604 g / cm^3
# Si number density = 19.730948 Si / 1000 Ang^3
#
#
#
# Elastic Constant Matrix: (Units=GPa)
#
#
# Indices 1 2 3 4 5 6 
#
# 1 76.7437 45.2271 40.0714 0.0000 -12.5445 0.0000
# 2 45.2271 87.4891 37.7961 0.0000 -11.1430 0.0000
# 3 40.0714 37.7961 70.4465 0.0000 -2.6684 0.0000
# 4 0.0000 0.0000 0.0000 31.8896 0.0000 -3.1831
# 5 -12.5445 -11.1430 -2.6684 0.0000 24.3444 0.0000
# 6 0.0000 0.0000 0.0000 -3.1831 0.0000 28.2180
#
#
#
# Elastic Compliance Matrix: (Units=1/GPa)
#
#
# Indices 1 2 3 4 5 6 
#
# 1 0.023231 -0.007085 -0.009120 0.000000 0.007728 0.000000
# 2 -0.007085 0.017953 -0.005452 0.000000 0.003969 0.000000
# 3 -0.009120 -0.005452 0.022128 0.000000 -0.004770 0.000000
# 4 0.000000 0.000000 0.000000 0.031715 0.000000 0.003578
# 5 0.007728 0.003969 -0.004770 0.000000 0.046354 0.000000
# 6 0.000000 0.000000 0.000000 0.003578 0.000000 0.035842
#
#
# Mechanical properties :
#
#
# Convention : Reuss Voigt Hill
#
# Bulk Modulus (GPa) = 50.00644 53.42984 51.71814
# Shear Modulus (GPa) = 22.00673 24.32937 23.16805
#
# Velocity S-wave (km/s) = 3.34329 3.51530 3.43038
# Velocity P-wave (km/s) = 6.34844 6.60412 6.47754
#
# Compressibility (1/GPa) = 0.01999742
#
# Stress axis : x y z
#
# Youngs Moduli (GPa) = 43.04567 55.70002 45.19254
#
# Poissons Ratio (x) = 0.39462 0.41218
# Poissons Ratio (y) = 0.30497 0.24639
# Poissons Ratio (z) = 0.39260 0.30368
#
# Static dielectric constant tensor:
#      x y z
#    x 3.585550 0.000000 -0.144080 
#    y 0.000000 3.637150 0.000000 
#    z -0.144080 0.000000 3.606230 
# 
# 
# High freq. dielectric constant tensor:
#      x y z
#    x 1.768420 0.000000 -0.010360 
#    y 0.000000 1.776310 0.000000 
#    z -0.010360 0.000000 1.758410 
# 
# From -- ./inp_files/249980.got.cif
#   From: 2010.06.25/outbox.cif.g09.slc.cpg/sg12_125_cif.got.tgz:249980.got - 2010.06.28 00:19:55.
