data_PCOD8088781
_publ_section_title
;
Structure prediction by ZEFSAII (Michael W. Deem and Ramdas Pophale) SiO2 
 PCOD8088781
Probable space group: C 2/M
;
_chemical_formula_sum "Si O2"
_cell_formula_units_Z 56
_cell_length_a 19.897942
_cell_length_b 9.540387
_cell_length_c 16.236923
_cell_angle_alpha 90.000000
_cell_angle_beta 88.749261
_cell_angle_gamma 90.000000
_cell_volume 3081.586755
_symmetry_space_group_name_H-M "C 2/M"
_symmetry_group_IT_number 12
_symmetry_cell_setting 'monoclinic'
loop_
_space_group_symop_operation_xyz
x,y,z
-x,y,-z
-x,-y,-z
x,-y,z
1/2+x,1/2+y,z
1/2-x,1/2+y,-z
1/2-x,1/2-y,-z
1/2+x,1/2-y,z
loop_
_atom_site_type_symbol
_atom_site_label
_atom_site_fract_x
_atom_site_fract_y
_atom_site_fract_z
Si Si1 0.134625 0.659276 0.651976
Si Si2 0.485377 0.159393 0.222500
Si Si3 0.074486 0.666430 0.484513
Si Si4 0.294274 0.661636 0.060815
Si Si5 0.617155 0.166418 0.307126
Si Si6 0.947192 0.837984 0.068834
Si Si7 0.262499 0.665849 0.246667
O O1 0.161975 0.500000 0.655828
O O2 0.123452 0.708816 0.558283
O O3 0.187910 0.762085 0.690824
O O4 0.062645 0.669023 0.697646
O O5 0.558068 0.218294 0.247924
O O6 0.455606 0.253342 0.151741
O O7 0.490554 0.000000 0.190119
O O8 0.068514 0.500000 0.479745
O O9 0.106211 0.727598 0.399337
O O10 0.000000 0.730195 0.500000
O O11 0.273367 0.500000 0.052056
O O12 0.372248 0.685320 0.036267
O O13 0.280648 0.713542 0.153974
O O14 0.250000 0.750000 0.000000
O O15 0.687557 0.219058 0.268650
O O16 0.614772 0.000000 0.311365
O O17 0.960071 0.000000 0.089385
O O18 0.000000 0.782679 0.000000
O O19 0.270429 0.500000 0.257088
#
# Coordination Sequence:
#
# PCOD8088781 Si02
#       7
#     8   8   8   8   8   8   8
#     4  10  19  32  55  82 105 136 178 218 255 303
#     4  10  19  33  56  82 104 133 178 223 256 297
#     4   9  15  28  51  79 108 136 172 219 262 298
#     4  10  22  38  55  76 104 138 173 212 261 314
#     4   9  18  32  52  79 107 138 177 216 258 308
#     4  10  22  39  56  77 106 140 175 211 262 322
#     4  10  21  37  54  75 108 144 171 207 266 323
#
# _framework density 18.172454999999999
#
# number of rings (size 3 to 8) (size 9 to 14) (size 15 to 20)
#    0.000    2.286    2.857    0.000    2.000    2.000 
#    0.000    0.714    0.000    1.286    0.000    0.000 
#    0.000    0.000    0.000    0.000    0.000    0.000 
#
# Total GULP energy -347225.051784 kJ/mol
# GULP energy per Si atom -12400.894707 kJ/mol
# Density = 1.813109 g / cm^3
# Si number density = 18.172455 Si / 1000 Ang^3
#
#
#
# Elastic Constant Matrix: (Units=GPa)
#
#
# Indices 1 2 3 4 5 6 
#
# 1 115.8738 28.3950 36.5038 0.0000 5.5150 0.0000
# 2 28.3950 37.3151 31.6116 0.0000 10.8893 0.0000
# 3 36.5038 31.6116 89.9599 0.0000 9.1661 0.0000
# 4 0.0000 0.0000 0.0000 21.0453 0.0000 7.7458
# 5 5.5150 10.8893 9.1661 0.0000 34.6792 0.0000
# 6 0.0000 0.0000 0.0000 7.7458 0.0000 23.2209
#
#
#
# Elastic Compliance Matrix: (Units=1/GPa)
#
#
# Indices 1 2 3 4 5 6 
#
# 1 0.010920 -0.006767 -0.002151 0.000000 0.000957 0.000000
# 2 -0.006767 0.045069 -0.012084 0.000000 -0.009882 0.000000
# 3 -0.002151 -0.012084 0.016251 0.000000 -0.000159 0.000000
# 4 0.000000 0.000000 0.000000 0.054167 0.000000 -0.018069
# 5 0.000957 -0.009882 -0.000159 0.000000 0.031828 0.000000
# 6 0.000000 0.000000 0.000000 -0.018069 0.000000 0.049092
#
#
# Mechanical properties :
#
#
# Convention : Reuss Voigt Hill
#
# Bulk Modulus (GPa) = 33.07258 48.46327 40.76793
# Shear Modulus (GPa) = 19.27441 25.56496 22.41968
#
# Velocity S-wave (km/s) = 3.26028 3.75480 3.51624
# Velocity P-wave (km/s) = 5.69310 6.74718 6.24243
#
# Compressibility (1/GPa) = 0.03023653
#
# Stress axis : x y z
#
# Youngs Moduli (GPa) = 91.57185 22.18813 61.53307
#
# Poissons Ratio (x) = 0.15015 0.13235
# Poissons Ratio (y) = 0.61967 0.74359
# Poissons Ratio (z) = 0.19696 0.26813
#
# Static dielectric constant tensor:
#      x y z
#    x 3.547210 0.000000 -0.173310 
#    y 0.000000 3.006870 0.000000 
#    z -0.173310 0.000000 3.472780 
# 
# 
# High freq. dielectric constant tensor:
#      x y z
#    x 1.713970 0.000000 -0.000280 
#    y 0.000000 1.665400 0.000000 
#    z -0.000280 0.000000 1.712530 
# 
# From -- ./inp_files/231033.got.cif
#   From: 2010.06.25/outbox.cif.g09.slc.cpg/sg12_116_cif.got.tgz:231033.got - 2010.06.28 00:19:55.
