data_PCOD8088470
_publ_section_title
;
Structure prediction by ZEFSAII (Michael W. Deem and Ramdas Pophale) SiO2 
 PCOD8088470
Probable space group: C 2/M
;
_chemical_formula_sum "Si O2"
_cell_formula_units_Z 56
_cell_length_a 20.019483
_cell_length_b 8.893152
_cell_length_c 30.492184
_cell_angle_alpha 90.000000
_cell_angle_beta 147.090532
_cell_angle_gamma 90.000000
_cell_volume 2949.492876
_symmetry_space_group_name_H-M "C 2/M"
_symmetry_group_IT_number 12
_symmetry_cell_setting 'monoclinic'
loop_
_space_group_symop_operation_xyz
x,y,z
-x,y,-z
-x,-y,-z
x,-y,z
1/2+x,1/2+y,z
1/2-x,1/2+y,-z
1/2-x,1/2-y,-z
1/2+x,1/2-y,z
loop_
_atom_site_type_symbol
_atom_site_label
_atom_site_fract_x
_atom_site_fract_y
_atom_site_fract_z
Si Si1 0.217681 0.677347 0.583509
Si Si2 0.958056 0.829465 0.824252
Si Si3 0.638023 0.325819 0.841975
Si Si4 0.790760 0.176158 0.329744
Si Si5 0.538603 0.175527 0.317692
Si Si6 0.994908 0.674744 0.600083
Si Si7 0.681356 0.674264 0.002018
O O1 0.234182 0.500000 0.595285
O O2 0.173819 0.737887 0.606202
O O3 0.347806 0.747403 0.643529
O O4 0.117667 0.725303 0.492563
O O5 0.845266 0.715343 0.762105
O O6 0.043839 0.796935 0.829779
O O7 0.907735 0.000000 0.793889
O O8 0.035382 0.806228 0.912091
O O9 0.656681 0.500000 0.841998
O O10 0.587334 0.243880 0.770795
O O11 0.771767 0.254871 0.927676
O O12 0.886432 0.226303 0.345378
O O13 0.800056 0.000000 0.343219
O O14 0.545319 0.210094 0.372756
O O15 0.543084 0.000000 0.309896
O O16 0.027363 0.500000 0.611276
O O17 0.717518 0.500000 0.023821
O O18 0.750000 0.750000 0.000000
#
# Coordination Sequence:
#
# PCOD8088470 Si02
#       7
#     8   8   8   8   8   8   8
#     4  11  22  39  61  82 110 147 186 232 285 336
#     4   9  18  33  53  78 111 148 183 222 277 332
#     4  10  19  32  53  81 113 149 182 222 278 333
#     4  12  24  36  57  85 113 147 189 235 277 327
#     4  11  22  37  59  85 112 145 188 234 278 332
#     4  10  24  42  58  79 111 151 188 229 285 339
#     4   9  17  29  49  78 111 144 181 228 276 326
#
# _framework density 18.986314
#
# number of rings (size 3 to 8) (size 9 to 14) (size 15 to 20)
#    0.000    1.714    1.429    4.714    0.000    6.857 
#    0.000    0.000    0.000    0.857    0.000    6.000 
#    0.000    0.000    0.000    0.000    0.000    0.000 
#
# Total GULP energy -347253.135696 kJ/mol
# GULP energy per Si atom -12401.897703 kJ/mol
# Density = 1.894310 g / cm^3
# Si number density = 18.986314 Si / 1000 Ang^3
#
#
#
# Elastic Constant Matrix: (Units=GPa)
#
#
# Indices 1 2 3 4 5 6 
#
# 1 34.1214 17.1300 4.1282 0.0000 -1.2838 0.0001
# 2 17.1300 97.4269 35.7721 0.0000 0.3173 0.0002
# 3 4.1282 35.7721 111.0082 0.0000 -2.7859 0.0000
# 4 0.0000 0.0000 0.0000 33.6228 0.0000 0.3005
# 5 -1.2838 0.3173 -2.7859 0.0000 8.1897 0.0000
# 6 0.0001 0.0002 0.0000 0.3005 0.0000 24.3761
#
#
#
# Elastic Compliance Matrix: (Units=1/GPa)
#
#
# Indices 1 2 3 4 5 6 
#
# 1 0.032448 -0.006048 0.000883 0.000000 0.005621 0.000000
# 2 -0.006048 0.012793 -0.003968 0.000000 -0.002793 0.000000
# 3 0.000883 -0.003968 0.010350 0.000000 0.003813 0.000000
# 4 0.000000 0.000000 0.000000 0.029745 0.000000 -0.000367
# 5 0.005621 -0.002793 0.003813 0.000000 0.124391 0.000000
# 6 0.000000 0.000000 0.000000 -0.000367 0.000000 0.041028
#
#
# Mechanical properties :
#
#
# Convention : Reuss Voigt Hill
#
# Bulk Modulus (GPa) = 26.79062 39.62411 33.20737
# Shear Modulus (GPa) = 17.76439 25.60613 21.68526
#
# Velocity S-wave (km/s) = 3.06214 3.67640 3.38324
# Velocity P-wave (km/s) = 5.16173 6.23990 5.72625
#
# Compressibility (1/GPa) = 0.03732650
#
# Stress axis : x y z
#
# Youngs Moduli (GPa) = 30.81866 78.16529 96.62003
#
# Poissons Ratio (x) = 0.47272 -0.08534
# Poissons Ratio (y) = 0.18638 0.38337
# Poissons Ratio (z) = -0.02722 0.31015
#
# Static dielectric constant tensor:
#      x y z
#    x 3.097940 0.000000 -0.054940 
#    y 0.000000 3.561100 0.000000 
#    z -0.054940 0.000000 4.035330 
# 
# 
# High freq. dielectric constant tensor:
#      x y z
#    x 1.694820 0.000000 -0.003580 
#    y 0.000000 1.748200 0.000000 
#    z -0.003580 0.000000 1.760150 
# 
# From -- ./inp_files/345667.got.cif
#   From: 2010.06.25/outbox.cif.g09.slc.cpg/sg12_173_cif.got.tgz:345667.got - 2010.06.28 00:19:55.
