data_PCOD8088371
_publ_section_title
;
Structure prediction by ZEFSAII (Michael W. Deem and Ramdas Pophale) SiO2 
 PCOD8088371
Probable space group: C 2/M
;
_chemical_formula_sum "Si O2"
_cell_formula_units_Z 56
_cell_length_a 20.286783
_cell_length_b 9.373539
_cell_length_c 19.995836
_cell_angle_alpha 90.000000
_cell_angle_beta 48.905295
_cell_angle_gamma 90.000000
_cell_volume 2865.570794
_symmetry_space_group_name_H-M "C 2/M"
_symmetry_group_IT_number 12
_symmetry_cell_setting 'monoclinic'
loop_
_space_group_symop_operation_xyz
x,y,z
-x,y,-z
-x,-y,-z
x,-y,z
1/2+x,1/2+y,z
1/2-x,1/2+y,-z
1/2-x,1/2-y,-z
1/2+x,1/2-y,z
loop_
_atom_site_type_symbol
_atom_site_label
_atom_site_fract_x
_atom_site_fract_y
_atom_site_fract_z
Si Si1 0.863936 0.662862 0.222416
Si Si2 0.214213 0.831613 0.959318
Si Si3 0.150141 0.344396 0.621799
Si Si4 0.399820 0.164997 0.577929
Si Si5 0.847923 0.845005 0.492892
Si Si6 0.231791 0.664257 0.222083
Si Si7 0.044163 0.338387 0.039479
O O1 0.829458 0.500000 0.243028
O O2 0.850512 0.729099 0.304951
O O3 0.810824 0.747376 0.201675
O O4 0.967851 0.669591 0.144537
O O5 0.274299 0.799885 0.853252
O O6 0.211334 0.000000 0.976642
O O7 0.250000 0.750000 0.000000
O O8 0.117400 0.775152 0.009566
O O9 0.102748 0.500000 0.654929
O O10 0.102119 0.245343 0.598405
O O11 0.249758 0.368703 0.533106
O O12 0.500000 0.211903 0.500000
O O13 0.344043 0.261195 0.565162
O O14 0.361255 0.195139 0.678345
O O15 0.388176 0.000000 0.566237
O O16 0.893708 0.000000 0.471143
O O17 0.257788 0.500000 0.214043
O O18 0.083093 0.500000 0.009043
O O19 0.000000 0.292604 0.000000
#
# Coordination Sequence:
#
# PCOD8088371 Si02
#       7
#     8   8   8   8   8   8   8
#     4  10  19  34  58  87 115 148 189 235 287 348
#     4  11  24  42  63  87 121 160 201 247 300 358
#     4   9  18  32  51  77 110 146 180 220 277 336
#     4  10  21  38  58  79 108 147 192 238 288 345
#     4  10  19  32  53  79 108 141 182 229 278 331
#     4  10  21  37  60  86 110 146 194 244 293 348
#     4  10  20  36  62  92 121 152 192 243 298 356
#
# _framework density 19.542356000000002
#
# number of rings (size 3 to 8) (size 9 to 14) (size 15 to 20)
#    0.000    2.000    2.857    0.857    0.000    2.857 
#    2.571    0.000    0.000    0.000    0.000    0.000 
#    0.000    0.000    0.000    0.000    0.000    0.000 
#
# Total GULP energy -347017.089819 kJ/mol
# GULP energy per Si atom -12393.467494 kJ/mol
# Density = 1.949788 g / cm^3
# Si number density = 19.542356 Si / 1000 Ang^3
#
#
#
# Elastic Constant Matrix: (Units=GPa)
#
#
# Indices 1 2 3 4 5 6 
#
# 1 77.8302 53.5826 57.5838 0.0000 17.6823 0.0002
# 2 53.5826 98.6696 53.1084 0.0000 17.6327 0.0003
# 3 57.5838 53.1084 120.4844 0.0000 22.4668 0.0000
# 4 0.0000 0.0000 0.0000 23.7745 0.0000 3.7533
# 5 17.6823 17.6327 22.4668 0.0000 38.8576 0.0000
# 6 0.0002 0.0003 0.0000 3.7533 0.0000 30.1481
#
#
#
# Elastic Compliance Matrix: (Units=1/GPa)
#
#
# Indices 1 2 3 4 5 6 
#
# 1 0.025472 -0.009232 -0.007537 0.000000 -0.003044 0.000000
# 2 -0.009232 0.016945 -0.002697 0.000000 -0.001929 0.000000
# 3 -0.007537 -0.002697 0.013700 0.000000 -0.003268 0.000000
# 4 0.000000 0.000000 0.000000 0.042905 0.000000 -0.005342
# 5 -0.003044 -0.001929 -0.003268 0.000000 0.029885 0.000000
# 6 0.000000 0.000000 0.000000 -0.005342 0.000000 0.033835
#
#
# Mechanical properties :
#
#
# Convention : Reuss Voigt Hill
#
# Bulk Modulus (GPa) = 58.19091 69.50378 63.84734
# Shear Modulus (GPa) = 24.10775 27.40334 25.75555
#
# Velocity S-wave (km/s) = 3.51610 3.74873 3.63428
# Velocity P-wave (km/s) = 6.80627 7.37429 7.09597
#
# Compressibility (1/GPa) = 0.01718482
#
# Stress axis : x y z
#
# Youngs Moduli (GPa) = 39.25830 59.01583 72.99120
#
# Poissons Ratio (x) = 0.54483 0.55014
# Poissons Ratio (y) = 0.36243 0.19687
# Poissons Ratio (z) = 0.29590 0.15917
#
# Static dielectric constant tensor:
#      x y z
#    x 3.400120 0.000000 0.107580 
#    y 0.000000 3.831500 0.000000 
#    z 0.107580 0.000000 3.801950 
# 
# 
# High freq. dielectric constant tensor:
#      x y z
#    x 1.728710 0.000000 0.019570 
#    y 0.000000 1.763870 0.000000 
#    z 0.019570 0.000000 1.768140 
# 
# From -- ./inp_files/319728.got.cif
#   From: 2010.06.25/outbox.cif.g09.slc.cpg/sg12_160_cif.got.tgz:319728.got - 2010.06.28 00:19:55.
