data_PCOD8088399
_publ_section_title
;
Structure prediction by ZEFSAII (Michael W. Deem and Ramdas Pophale) SiO2 
 PCOD8088399
Probable space group: C 2/M
;
_chemical_formula_sum "Si O2"
_cell_formula_units_Z 64
_cell_length_a 18.631116
_cell_length_b 9.379501
_cell_length_c 25.269661
_cell_angle_alpha 90.000000
_cell_angle_beta 128.745117
_cell_angle_gamma 90.000000
_cell_volume 3444.117839
_symmetry_space_group_name_H-M "C 2/M"
_symmetry_group_IT_number 12
_symmetry_cell_setting 'monoclinic'
loop_
_space_group_symop_operation_xyz
x,y,z
-x,y,-z
-x,-y,-z
x,-y,z
1/2+x,1/2+y,z
1/2-x,1/2+y,-z
1/2-x,1/2-y,-z
1/2+x,1/2-y,z
loop_
_atom_site_type_symbol
_atom_site_label
_atom_site_fract_x
_atom_site_fract_y
_atom_site_fract_z
Si Si1 0.998441 0.338283 0.845678
Si Si2 0.073280 0.336334 0.770718
Si Si3 0.553641 0.836219 0.472044
Si Si4 0.759762 0.837076 0.801301
Si Si5 0.290848 0.835766 0.717519
Si Si6 0.260059 0.661393 0.600020
Si Si7 0.948982 0.166808 0.633248
Si Si8 0.461938 0.667109 0.926932
O O1 0.009367 0.500000 0.870162
O O2 0.898336 0.310517 0.775213
O O3 0.018485 0.238867 0.905198
O O4 0.068240 0.299975 0.830691
O O5 0.041533 0.500000 0.745763
O O6 0.179489 0.312912 0.806166
O O7 0.008366 0.231883 0.708045
O O8 0.500000 0.783923 0.500000
O O9 0.662897 0.817874 0.526771
O O10 0.521121 0.741279 0.407675
O O11 0.526620 0.000000 0.447983
O O12 0.736350 0.741711 0.739554
O O13 0.854652 0.790726 0.873180
O O14 0.766044 0.000000 0.784937
O O15 0.261816 0.770584 0.648734
O O16 0.262381 0.000000 0.704560
O O17 0.270604 0.500000 0.626611
O O18 0.341295 0.694903 0.595877
O O19 0.970885 0.000000 0.638678
O O20 0.478909 0.500000 0.930341
O O21 0.500000 0.726507 0.000000
#
# Coordination Sequence:
#
# PCOD8088399 Si02
#       8
#     8   8   8   8   8   8   8   8
#     4   9  18  33  53  79 107 139 179 217 258 310
#     4  10  20  36  56  78 108 144 181 220 267 324
#     4  10  23  41  58  76 103 141 183 222 267 330
#     4   9  19  34  54  77 107 145 180 216 261 317
#     4  10  19  32  53  80 107 137 175 222 266 311
#     4  10  21  37  56  78 105 140 180 217 266 327
#     4  11  23  37  56  81 108 139 178 227 275 318
#     4   9  18  34  56  81 109 143 181 218 260 312
#
# _framework density 18.582405999999999
#
# number of rings (size 3 to 8) (size 9 to 14) (size 15 to 20)
#    0.000    2.250    1.250    1.125    1.750    3.000 
#    0.000    0.625    0.000    0.000    0.000    0.000 
#    0.000    0.000    0.000    0.000    0.000    0.000 
#
# Total GULP energy -396871.903148 kJ/mol
# GULP energy per Si atom -12402.246973 kJ/mol
# Density = 1.854011 g / cm^3
# Si number density = 18.582406 Si / 1000 Ang^3
#
#
#
# Elastic Constant Matrix: (Units=GPa)
#
#
# Indices 1 2 3 4 5 6 
#
# 1 113.0159 44.6475 35.8770 0.0000 -20.9090 0.0000
# 2 44.6475 83.9039 49.3371 0.0000 -16.7498 0.0000
# 3 35.8770 49.3371 77.2819 0.0000 -23.3517 0.0000
# 4 0.0000 0.0000 0.0000 29.9192 0.0000 -7.6199
# 5 -20.9090 -16.7498 -23.3517 0.0000 27.8808 0.0000
# 6 0.0000 0.0000 0.0000 -7.6199 0.0000 25.7659
#
#
#
# Elastic Compliance Matrix: (Units=1/GPa)
#
#
# Indices 1 2 3 4 5 6 
#
# 1 0.012024 -0.004799 -0.000890 0.000000 0.005389 0.000000
# 2 -0.004799 0.021057 -0.011353 0.000000 -0.000458 0.000000
# 3 -0.000890 -0.011353 0.024551 0.000000 0.013075 0.000000
# 4 0.000000 0.000000 0.000000 0.036146 0.000000 0.010690
# 5 0.005389 -0.000458 0.013075 0.000000 0.050585 0.000000
# 6 0.000000 0.000000 0.000000 0.010690 0.000000 0.041972
#
#
# Mechanical properties :
#
#
# Convention : Reuss Voigt Hill
#
# Bulk Modulus (GPa) = 42.46682 59.32497 50.89590
# Shear Modulus (GPa) = 21.90414 26.33584 24.11999
#
# Velocity S-wave (km/s) = 3.43703 3.76872 3.60669
# Velocity P-wave (km/s) = 6.21721 7.13669 6.69276
#
# Compressibility (1/GPa) = 0.02354780
#
# Stress axis : x y z
#
# Youngs Moduli (GPa) = 83.16944 47.49115 40.73088
#
# Poissons Ratio (x) = 0.22792 0.03624
# Poissons Ratio (y) = 0.39914 0.46242
# Poissons Ratio (z) = 0.07400 0.53917
#
# Static dielectric constant tensor:
#      x y z
#    x 3.555120 0.000000 -0.081790 
#    y 0.000000 3.452390 0.000000 
#    z -0.081790 0.000000 3.238700 
# 
# 
# High freq. dielectric constant tensor:
#      x y z
#    x 1.726970 0.000000 -0.010130 
#    y 0.000000 1.720740 0.000000 
#    z -0.010130 0.000000 1.703850 
# 
# From -- ./inp_files/314121.got.cif
#   From: 2010.06.25/outbox.cif.g09.slc.cpg/sg12_158_cif.got.tgz:314121.got - 2010.06.28 00:19:55.
