data_PCOD8088384
_publ_section_title
;
Structure prediction by ZEFSAII (Michael W. Deem and Ramdas Pophale) SiO2 
 PCOD8088384
Probable space group: C 2/M
;
_chemical_formula_sum "Si O2"
_cell_formula_units_Z 56
_cell_length_a 22.789760
_cell_length_b 9.220280
_cell_length_c 14.471788
_cell_angle_alpha 90.000000
_cell_angle_beta 74.542787
_cell_angle_gamma 90.000000
_cell_volume 2930.936309
_symmetry_space_group_name_H-M "C 2/M"
_symmetry_group_IT_number 12
_symmetry_cell_setting 'monoclinic'
loop_
_space_group_symop_operation_xyz
x,y,z
-x,y,-z
-x,-y,-z
x,-y,z
1/2+x,1/2+y,z
1/2-x,1/2+y,-z
1/2-x,1/2-y,-z
1/2+x,1/2-y,z
loop_
_atom_site_type_symbol
_atom_site_label
_atom_site_fract_x
_atom_site_fract_y
_atom_site_fract_z
Si Si1 0.900699 0.831094 0.368656
Si Si2 0.344495 0.170779 0.228442
Si Si3 0.874098 0.666021 0.864984
Si Si4 0.024822 0.333285 0.331984
Si Si5 0.788950 0.831419 0.773806
Si Si6 0.887315 0.833721 0.583859
Si Si7 0.931758 0.671883 0.027165
O O1 0.852914 0.759265 0.318986
O O2 0.873668 0.806878 0.482235
O O3 0.964915 0.753004 0.330053
O O4 0.908780 0.000000 0.342402
O O5 0.280176 0.217857 0.212234
O O6 0.397527 0.215984 0.135186
O O7 0.345888 0.000000 0.249980
O O8 0.854055 0.500000 0.883639
O O9 0.930581 0.683385 0.772854
O O10 0.815461 0.750859 0.852136
O O11 0.894424 0.732808 0.954905
O O12 0.008576 0.500000 0.359049
O O13 0.055779 0.265320 0.410030
O O14 0.827018 0.790637 0.665908
O O15 0.793010 0.000000 0.794010
O O16 0.905985 0.000000 0.595083
O O17 0.935707 0.500000 0.014585
O O18 0.000000 0.737767 0.000000
#
# Coordination Sequence:
#
# PCOD8088384 Si02
#       7
#     8   8   8   8   8   8   8
#     4  11  22  34  50  73 103 139 172 208 259 307
#     4  10  21  36  54  75 100 134 175 214 250 296
#     4   9  18  33  55  79 103 135 170 205 250 304
#     4  10  19  32  53  80 105 131 169 213 252 298
#     4   9  19  36  54  74 102 134 170 212 255 298
#     4   9  19  35  52  72 103 139 169 204 257 311
#     4   9  17  32  54  78 104 133 165 204 253 305
#
# _framework density 19.106521999999998
#
# number of rings (size 3 to 8) (size 9 to 14) (size 15 to 20)
#    0.000    2.429    0.000    2.143    0.000    7.429 
#    0.000    0.714    0.000    1.714    0.000    0.000 
#    0.000    0.000    0.000    0.000    0.000    0.000 
#
# Total GULP energy -347272.772161 kJ/mol
# GULP energy per Si atom -12402.599006 kJ/mol
# Density = 1.906303 g / cm^3
# Si number density = 19.106522 Si / 1000 Ang^3
#
#
#
# Elastic Constant Matrix: (Units=GPa)
#
#
# Indices 1 2 3 4 5 6 
#
# 1 126.0191 46.5275 42.1321 0.0000 20.1726 0.0000
# 2 46.5275 69.4253 39.8236 0.0000 14.0924 0.0000
# 3 42.1321 39.8236 97.0182 0.0000 29.0131 0.0000
# 4 0.0000 0.0000 0.0000 22.9185 0.0000 8.4942
# 5 20.1726 14.0924 29.0131 0.0000 29.9842 0.0000
# 6 0.0000 0.0000 0.0000 8.4942 0.0000 31.1991
#
#
#
# Elastic Compliance Matrix: (Units=1/GPa)
#
#
# Indices 1 2 3 4 5 6 
#
# 1 0.011147 -0.006002 -0.001376 0.000000 -0.003347 0.000000
# 2 -0.006002 0.022151 -0.006445 0.000000 -0.000137 0.000000
# 3 -0.001376 -0.006445 0.017404 0.000000 -0.012885 0.000000
# 4 0.000000 0.000000 0.000000 0.048530 0.000000 -0.013213
# 5 -0.003347 -0.000137 -0.012885 0.000000 0.048135 0.000000
# 6 0.000000 0.000000 0.000000 -0.013213 0.000000 0.035650
#
#
# Mechanical properties :
#
#
# Convention : Reuss Voigt Hill
#
# Bulk Modulus (GPa) = 43.37389 61.04768 52.21078
# Shear Modulus (GPa) = 22.89925 27.75232 25.32578
#
# Velocity S-wave (km/s) = 3.46570 3.81531 3.64470
# Velocity P-wave (km/s) = 6.22616 7.17143 6.71545
#
# Compressibility (1/GPa) = 0.02305535
#
# Stress axis : x y z
#
# Youngs Moduli (GPa) = 89.70923 45.14467 57.45820
#
# Poissons Ratio (x) = 0.27094 0.07909
# Poissons Ratio (y) = 0.53840 0.37033
# Poissons Ratio (z) = 0.12348 0.29097
#
# Static dielectric constant tensor:
#      x y z
#    x 3.517370 0.000000 0.061460 
#    y 0.000000 3.429990 0.000000 
#    z 0.061460 0.000000 3.545530 
# 
# 
# High freq. dielectric constant tensor:
#      x y z
#    x 1.742730 0.000000 0.004810 
#    y 0.000000 1.724100 0.000000 
#    z 0.004810 0.000000 1.748550 
# 
# From -- ./inp_files/230881.got.cif
#   From: 2010.06.25/outbox.cif.g09.slc.cpg/sg12_116_cif.got.tgz:230881.got - 2010.06.28 00:19:55.
