data_PCOD8088739
_publ_section_title
;
Structure prediction by ZEFSAII (Michael W. Deem and Ramdas Pophale) SiO2 
 PCOD8088739
Probable space group: C 2/M
;
_chemical_formula_sum "Si O2"
_cell_formula_units_Z 64
_cell_length_a 29.993868
_cell_length_b 8.871958
_cell_length_c 14.965501
_cell_angle_alpha 90.000000
_cell_angle_beta 58.649943
_cell_angle_gamma 90.000000
_cell_volume 3400.974958
_symmetry_space_group_name_H-M "C 2/M"
_symmetry_group_IT_number 12
_symmetry_cell_setting 'monoclinic'
loop_
_space_group_symop_operation_xyz
x,y,z
-x,y,-z
-x,-y,-z
x,-y,z
1/2+x,1/2+y,z
1/2-x,1/2+y,-z
1/2-x,1/2-y,-z
1/2+x,1/2-y,z
loop_
_atom_site_type_symbol
_atom_site_label
_atom_site_fract_x
_atom_site_fract_y
_atom_site_fract_z
Si Si1 0.859990 0.321634 0.703379
Si Si2 0.948627 0.679039 0.102772
Si Si3 0.782525 0.326113 0.543025
Si Si4 0.386804 0.678477 0.493543
Si Si5 0.031719 0.321583 0.717969
Si Si6 0.639447 0.821696 0.936710
Si Si7 0.244616 0.828927 0.778622
Si Si8 0.587911 0.821594 0.169766
O O1 0.867158 0.500000 0.681384
O O2 0.888981 0.238986 0.592174
O O3 0.798659 0.280318 0.769281
O O4 0.885349 0.260135 0.767975
O O5 0.951274 0.500000 0.095502
O O6 0.946923 0.730891 0.207508
O O7 0.896948 0.740130 0.106089
O O8 0.000000 0.744885 0.000000
O O9 0.793206 0.500000 0.509223
O O10 0.750000 0.250000 0.500000
O O11 0.837779 0.244401 0.491414
O O12 0.749771 0.307766 0.667430
O O13 0.383259 0.500000 0.498164
O O14 0.438701 0.732058 0.389814
O O15 0.038582 0.500000 0.696780
O O16 0.971838 0.270919 0.772406
O O17 0.699107 0.776170 0.862132
O O18 0.636026 0.000000 0.942093
O O19 0.618266 0.754913 0.052393
O O20 0.230481 0.000000 0.817654
O O21 0.592108 0.000000 0.164323
#
# Coordination Sequence:
#
# PCOD8088739 Si02
#       8
#     8   8   8   8   8   8   8   8
#     4   9  19  39  60  77 104 145 189 235 282 329
#     4   9  16  30  53  80 110 140 175 224 273 322
#     4  10  21  38  58  81 111 147 188 231 275 327
#     4  11  23  38  55  80 113 146 184 231 279 333
#     4  10  19  34  57  83 110 144 185 227 278 335
#     4  10  19  32  54  85 112 140 182 227 271 329
#     4   9  20  36  52  75 110 145 178 221 274 328
#     4   9  18  34  59  84 106 139 190 239 275 327
#
# _framework density 18.818131999999999
#
# number of rings (size 3 to 8) (size 9 to 14) (size 15 to 20)
#    0.000    2.375    1.250    2.250    1.750    3.500 
#    0.000    4.375    0.000    0.750    0.000    0.000 
#    0.000    0.000    0.000    0.000    0.000    0.000 
#
# Total GULP energy -396826.608169 kJ/mol
# GULP energy per Si atom -12400.831505 kJ/mol
# Density = 1.877530 g / cm^3
# Si number density = 18.818132 Si / 1000 Ang^3
#
#
#
# Elastic Constant Matrix: (Units=GPa)
#
#
# Indices 1 2 3 4 5 6 
#
# 1 140.3560 38.1381 90.5119 0.0000 22.0697 0.0000
# 2 38.1381 60.2553 42.4379 0.0000 1.1471 0.0000
# 3 90.5119 42.4379 127.0734 0.0000 -2.1609 0.0000
# 4 0.0000 0.0000 0.0000 22.2985 0.0000 -6.2399
# 5 22.0697 1.1471 -2.1609 0.0000 35.0105 0.0000
# 6 0.0000 0.0000 0.0000 -6.2399 0.0000 23.4292
#
#
#
# Elastic Compliance Matrix: (Units=1/GPa)
#
#
# Indices 1 2 3 4 5 6 
#
# 1 0.016953 -0.002451 -0.011449 0.000000 -0.011313 0.000000
# 2 -0.002451 0.022102 -0.005627 0.000000 0.000474 0.000000
# 3 -0.011449 -0.005627 0.018048 0.000000 0.008515 0.000000
# 4 0.000000 0.000000 0.000000 0.048457 0.000000 0.012906
# 5 -0.011313 0.000474 0.008515 0.000000 0.036204 0.000000
# 6 0.000000 0.000000 0.000000 0.012906 0.000000 0.046119
#
#
# Mechanical properties :
#
#
# Convention : Reuss Voigt Hill
#
# Bulk Modulus (GPa) = 55.40691 74.42894 64.91793
# Shear Modulus (GPa) = 21.46349 26.58744 24.02546
#
# Velocity S-wave (km/s) = 3.38090 3.76288 3.57700
# Velocity P-wave (km/s) = 6.68939 7.64962 7.18556
#
# Compressibility (1/GPa) = 0.01804829
#
# Stress axis : x y z
#
# Youngs Moduli (GPa) = 58.98770 45.24533 55.40693
#
# Poissons Ratio (x) = 0.11091 0.63434
# Poissons Ratio (y) = 0.14460 0.31178
# Poissons Ratio (z) = 0.67534 0.25460
#
# Static dielectric constant tensor:
#      x y z
#    x 3.640820 0.000000 0.124310 
#    y 0.000000 3.101360 0.000000 
#    z 0.124310 0.000000 3.529260 
# 
# 
# High freq. dielectric constant tensor:
#      x y z
#    x 1.740140 0.000000 0.002160 
#    y 0.000000 1.696770 0.000000 
#    z 0.002160 0.000000 1.737750 
# 
# From -- ./inp_files/249044.got.cif
#   From: 2010.06.25/outbox.cif.g09.slc.cpg/sg12_125_cif.got.tgz:249044.got - 2010.06.28 00:19:55.
