data_PCOD8088116
_publ_section_title
;
Structure prediction by ZEFSAII (Michael W. Deem and Ramdas Pophale) SiO2 
 PCOD8088116
Probable space group: C 2/M
;
_chemical_formula_sum "Si O2"
_cell_formula_units_Z 64
_cell_length_a 22.056861
_cell_length_b 14.214310
_cell_length_c 32.701073
_cell_angle_alpha 90.000000
_cell_angle_beta 19.876209
_cell_angle_gamma 90.000000
_cell_volume 3485.751841
_symmetry_space_group_name_H-M "C 2/M"
_symmetry_group_IT_number 12
_symmetry_cell_setting 'monoclinic'
loop_
_space_group_symop_operation_xyz
x,y,z
-x,y,-z
-x,-y,-z
x,-y,z
1/2+x,1/2+y,z
1/2-x,1/2+y,-z
1/2-x,1/2-y,-z
1/2+x,1/2-y,z
loop_
_atom_site_type_symbol
_atom_site_label
_atom_site_fract_x
_atom_site_fract_y
_atom_site_fract_z
Si Si1 0.047652 0.393855 0.656584
Si Si2 0.895781 0.742831 0.304665
Si Si3 0.795119 0.891237 0.427325
Si Si4 0.792100 0.893032 0.638101
Si Si5 0.808383 0.109055 0.797201
Si Si6 0.160822 0.105000 0.925589
Si Si7 0.787608 0.717349 0.063184
Si Si8 0.878550 0.607816 0.167846
O O1 0.113384 0.500000 0.624264
O O2 0.101452 0.330431 0.660226
O O3 0.137670 0.358762 0.557566
O O4 0.835135 0.388357 0.786233
O O5 0.780616 0.831303 0.394476
O O6 0.811922 0.688644 0.319843
O O7 0.089821 0.785736 0.168840
O O8 0.980673 0.870596 0.333394
O O9 0.777472 0.000000 0.426055
O O10 0.750473 0.877740 0.712000
O O11 0.000000 0.877339 0.500000
O O12 0.737317 0.000000 0.659306
O O13 0.706613 0.168854 0.895915
O O14 0.733933 0.141160 0.800346
O O15 0.766977 0.000000 0.831595
O O16 0.168622 0.172236 0.959921
O O17 0.134741 0.000000 0.959441
O O18 0.000000 0.138555 0.000000
O O19 0.939744 0.667374 0.939792
O O20 0.937717 0.500000 0.125657
#
# Coordination Sequence:
#
# PCOD8088116 Si02
#       8
#     8   8   8   8   8   8   8   8
#     4   9  17  29  48  74 104 140 174 216 270 321
#     4  10  20  34  53  76 108 140 177 221 265 315
#     4   9  18  31  50  80 111 141 177 216 269 326
#     4  10  23  41  58  79 106 140 181 226 273 319
#     4   9  17  29  50  82 116 140 165 211 271 331
#     4   9  17  29  43  65 101 138 172 210 254 306
#     4  10  19  32  52  79 108 140 170 216 267 319
#     4  10  20  34  55  82 110 144 179 214 266 325
#
# _framework density 18.360458000000001
#
# number of rings (size 3 to 8) (size 9 to 14) (size 15 to 20)
#    0.000    2.500    0.000    2.250    1.750    2.500 
#    2.250    0.000    0.000    1.125    0.000    0.000 
#    0.000    0.000    0.000    0.000    0.000    0.000 
#
# Total GULP energy -396690.826419 kJ/mol
# GULP energy per Si atom -12396.588326 kJ/mol
# Density = 1.831867 g / cm^3
# Si number density = 18.360458 Si / 1000 Ang^3
#
#
#
# Elastic Constant Matrix: (Units=GPa)
#
#
# Indices 1 2 3 4 5 6 
#
# 1 68.5929 28.3575 26.8273 0.0021 -1.0650 -0.0141
# 2 28.3575 64.1623 35.4654 -0.0065 -1.2306 0.0069
# 3 26.8273 35.4654 100.6356 0.0871 4.7074 0.0438
# 4 0.0021 -0.0065 0.0871 29.9598 0.0542 -1.1404
# 5 -1.0650 -1.2306 4.7074 0.0542 16.9760 0.0133
# 6 -0.0141 0.0069 0.0438 -1.1404 0.0133 27.8165
#
#
#
# Elastic Compliance Matrix: (Units=1/GPa)
#
#
# Indices 1 2 3 4 5 6 
#
# 1 0.018373 -0.006644 -0.002622 0.000003 0.001398 0.000015
# 2 -0.006644 0.021947 -0.006097 0.000018 0.002865 0.000000
# 3 -0.002622 -0.006097 0.012981 -0.000032 -0.004206 -0.000020
# 4 0.000003 0.000018 -0.000032 0.033430 -0.000097 0.001371
# 5 0.001398 0.002865 -0.004206 -0.000097 0.060369 -0.000026
# 6 0.000015 0.000000 -0.000020 0.001371 -0.000026 0.036006
#
#
# Mechanical properties :
#
#
# Convention : Reuss Voigt Hill
#
# Bulk Modulus (GPa) = 44.29711 46.07678 45.18694
# Shear Modulus (GPa) = 22.58787 24.46649 23.52718
#
# Velocity S-wave (km/s) = 3.51129 3.65439 3.58356
# Velocity P-wave (km/s) = 6.37320 6.55410 6.46428
#
# Compressibility (1/GPa) = 0.02257484
#
# Stress axis : x y z
#
# Youngs Moduli (GPa) = 54.42876 45.56397 77.03399
#
# Poissons Ratio (x) = 0.30273 0.20196
# Poissons Ratio (y) = 0.36163 0.46970
# Poissons Ratio (z) = 0.14269 0.27782
#
# Static dielectric constant tensor:
#      x y z
#    x 3.030000 -0.000060 -0.075480 
#    y -0.000060 3.663420 0.000380 
#    z -0.075480 0.000380 3.509970 
# 
# 
# High freq. dielectric constant tensor:
#      x y z
#    x 1.663880 0.000000 -0.006580 
#    y 0.000000 1.725340 0.000030 
#    z -0.006580 0.000030 1.719690 
# 
# From -- ./inp_files/381463.got.cif
#   From: 2010.06.25/outbox.cif.g09.slc.cpg/sg12_191_cif.got.tgz:381463.got - 2010.06.28 00:19:55.
