data_PCOD8088190
_publ_section_title
;
Structure prediction by ZEFSAII (Michael W. Deem and Ramdas Pophale) SiO2 
 PCOD8088190
Probable space group: C 2/M
;
_chemical_formula_sum "Si O2"
_cell_formula_units_Z 56
_cell_length_a 30.424593
_cell_length_b 8.889891
_cell_length_c 19.538733
_cell_angle_alpha 90.000000
_cell_angle_beta 36.292112
_cell_angle_gamma 90.000000
_cell_volume 3128.006020
_symmetry_space_group_name_H-M "C 2/M"
_symmetry_group_IT_number 12
_symmetry_cell_setting 'monoclinic'
loop_
_space_group_symop_operation_xyz
x,y,z
-x,y,-z
-x,-y,-z
x,-y,z
1/2+x,1/2+y,z
1/2-x,1/2+y,-z
1/2-x,1/2-y,-z
1/2+x,1/2-y,z
loop_
_atom_site_type_symbol
_atom_site_label
_atom_site_fract_x
_atom_site_fract_y
_atom_site_fract_z
Si Si1 0.492367 0.821699 0.845622
Si Si2 0.642358 0.323398 0.906539
Si Si3 0.946423 0.822821 0.507613
Si Si4 0.821820 0.322106 0.877309
Si Si5 0.421232 0.834500 0.135013
Si Si6 0.306933 0.176160 0.739685
Si Si7 0.528477 0.322072 0.267137
O O1 0.561509 0.780661 0.809091
O O2 0.511306 0.739708 0.750849
O O3 0.485734 0.000000 0.843902
O O4 0.414528 0.763344 0.973375
O O5 0.630465 0.500000 0.931853
O O6 0.630606 0.281690 0.841121
O O7 0.724256 0.270604 0.824969
O O8 0.864491 0.755113 0.616614
O O9 0.000000 0.758106 0.500000
O O10 0.978653 0.773800 0.394027
O O11 0.940073 0.000000 0.522592
O O12 0.818915 0.500000 0.890526
O O13 0.825987 0.275209 0.792856
O O14 0.891767 0.255340 0.828842
O O15 0.750000 0.250000 0.000000
O O16 0.383456 0.000000 0.182234
O O17 0.500000 0.846619 0.000000
O O18 0.314822 0.000000 0.719152
O O19 0.539325 0.500000 0.249489
#
# Coordination Sequence:
#
# PCOD8088190 Si02
#       7
#     8   8   8   8   8   8   8
#     4  10  20  34  53  79 109 142 177 213 262 318
#     4  10  19  32  52  81 112 140 174 216 263 313
#     4  10  21  38  57  76  99 134 179 222 265 311
#     4  11  22  35  52  76 107 142 174 209 259 312
#     4   8  16  31  50  75 107 140 175 212 256 317
#     4  10  22  36  52  76 105 137 175 217 258 308
#     4  11  22  36  54  77 105 135 175 222 263 312
#
# _framework density 17.90278
#
# number of rings (size 3 to 8) (size 9 to 14) (size 15 to 20)
#    0.000    2.000    1.429    3.429    0.000    7.429 
#    0.000    0.000    0.000    0.857    0.000    0.000 
#    0.000    0.000    0.000    0.000    0.000    0.000 
#
# Total GULP energy -347230.097736 kJ/mol
# GULP energy per Si atom -12401.074919 kJ/mol
# Density = 1.786203 g / cm^3
# Si number density = 17.902780 Si / 1000 Ang^3
#
#
#
# Elastic Constant Matrix: (Units=GPa)
#
#
# Indices 1 2 3 4 5 6 
#
# 1 89.2896 27.9529 24.6537 -0.0068 27.7724 0.0021
# 2 27.9529 59.8753 33.5292 0.0174 10.1194 -0.0018
# 3 24.6537 33.5292 84.5755 0.0039 19.0440 -0.0034
# 4 -0.0068 0.0174 0.0039 29.7073 0.0002 0.4129
# 5 27.7724 10.1194 19.0440 0.0002 25.2313 -0.0014
# 6 0.0021 -0.0018 -0.0034 0.4129 -0.0014 32.5426
#
#
#
# Elastic Compliance Matrix: (Units=1/GPa)
#
#
# Indices 1 2 3 4 5 6 
#
# 1 0.018739 -0.006259 0.001323 0.000008 -0.019115 -0.000002
# 2 -0.006259 0.023704 -0.008413 -0.000014 0.003732 0.000001
# 3 0.001323 -0.008413 0.017278 0.000003 -0.011123 0.000001
# 4 0.000008 -0.000014 0.000003 0.033668 -0.000006 -0.000427
# 5 -0.019115 0.003732 -0.011123 -0.000006 0.067572 0.000003
# 6 -0.000002 0.000001 0.000001 -0.000427 0.000003 0.030734
#
#
# Mechanical properties :
#
#
# Convention : Reuss Voigt Hill
#
# Bulk Modulus (GPa) = 30.28201 45.11244 37.69723
# Shear Modulus (GPa) = 21.79602 27.33654 24.56628
#
# Velocity S-wave (km/s) = 3.49301 3.91185 3.70835
# Velocity P-wave (km/s) = 5.76364 6.75698 6.27998
#
# Compressibility (1/GPa) = 0.03302290
#
# Stress axis : x y z
#
# Youngs Moduli (GPa) = 53.36484 42.18754 57.87693
#
# Poissons Ratio (x) = 0.26403 -0.07656
# Poissons Ratio (y) = 0.33399 0.48693
# Poissons Ratio (z) = -0.07059 0.35493
#
# Static dielectric constant tensor:
#      x y z
#    x 3.693750 -0.000030 0.227500 
#    y -0.000030 3.338460 0.000010 
#    z 0.227500 0.000010 3.139380 
# 
# 
# High freq. dielectric constant tensor:
#      x y z
#    x 1.699720 0.000000 0.012150 
#    y 0.000000 1.698790 0.000000 
#    z 0.012150 0.000000 1.668800 
# 
# From -- ./inp_files/287863.got.cif
#   From: 2010.06.25/outbox.cif.g09.slc.cpg/sg12_144_cif.got.tgz:287863.got - 2010.06.28 00:19:55.
