data_PCOD8088436
_publ_section_title
;
Structure prediction by ZEFSAII (Michael W. Deem and Ramdas Pophale) SiO2 
 PCOD8088436
Probable space group: C 2/M
;
_chemical_formula_sum "Si O2"
_cell_formula_units_Z 60
_cell_length_a 5.169943
_cell_length_b 31.356319
_cell_length_c 21.861169
_cell_angle_alpha 90.000000
_cell_angle_beta 126.488099
_cell_angle_gamma 90.000000
_cell_volume 2849.244175
_symmetry_space_group_name_H-M "C 2/M"
_symmetry_group_IT_number 12
_symmetry_cell_setting 'monoclinic'
loop_
_space_group_symop_operation_xyz
x,y,z
-x,y,-z
-x,-y,-z
x,-y,z
1/2+x,1/2+y,z
1/2-x,1/2+y,-z
1/2-x,1/2-y,-z
1/2+x,1/2-y,z
loop_
_atom_site_type_symbol
_atom_site_label
_atom_site_fract_x
_atom_site_fract_y
_atom_site_fract_z
Si Si1 0.823095 0.580311 0.338477
Si Si2 0.834331 0.767453 0.320660
Si Si3 0.251909 0.631416 0.305790
Si Si4 0.881024 0.836361 0.045971
Si Si5 0.917410 0.952005 0.171769
Si Si6 0.038979 0.231119 0.848583
Si Si7 0.150461 0.405802 0.857928
Si Si8 0.879336 0.500000 0.551495
O O1 0.605453 0.610091 0.351860
O O2 0.587171 0.555413 0.260210
O O3 0.073637 0.611218 0.339167
O O4 0.004498 0.543614 0.400843
O O5 0.709447 0.744616 0.365103
O O6 0.779005 0.817691 0.314990
O O7 0.678535 0.740410 0.241358
O O8 0.051280 0.624064 0.216062
O O9 0.007928 0.814940 0.127117
O O10 0.068914 0.880807 0.068176
O O11 0.500000 0.841958 0.000000
O O12 0.000000 0.812228 0.000000
O O13 0.592451 0.923617 0.124431
O O14 0.172725 0.943127 0.154392
O O15 0.800935 0.000000 0.149609
O O16 0.414500 0.236972 0.885207
O O17 0.500000 0.500000 0.500000
O O18 0.000000 0.500000 0.500000
#
# Coordination Sequence:
#
# PCOD8088436 Si02
#       8
#     8   8   8   8   8   8   8   4
#     4  10  21  37  58  90 127 159 203 232 275 352
#     4  10  19  32  53  80 116 151 189 244 309 359
#     4  10  20  35  58  84 117 160 197 255 299 340
#     4  12  25  39  54  73 107 149 194 240 295 376
#     4  10  19  35  60  84 108 135 183 246 292 350
#     4  10  21  35  52  73 102 140 180 232 280 358
#     4  10  21  35  55  78 102 142 189 241 308 354
#     4  12  24  40  64  96 142 180 196 222 276 340
#
# _framework density 21.058214
#
# number of rings (size 3 to 8) (size 9 to 14) (size 15 to 20)
#    0.000    1.600    0.667    5.200    0.000    8.000 
#    0.000    0.000    0.000    8.000    0.000    0.000 
#    0.000   37.333    0.000    0.000    0.000    0.000 
#
# Total GULP energy -371657.627187 kJ/mol
# GULP energy per Si atom -12388.587573 kJ/mol
# Density = 2.101029 g / cm^3
# Si number density = 21.058214 Si / 1000 Ang^3
#
#
#
# Elastic Constant Matrix: (Units=GPa)
#
#
# Indices 1 2 3 4 5 6 
#
# 1 163.5922 28.2946 14.5274 0.0000 13.3940 0.0000
# 2 28.2946 102.0092 14.5894 0.0000 6.3128 0.0000
# 3 14.5274 14.5894 41.3332 0.0000 7.4090 0.0000
# 4 0.0000 0.0000 0.0000 22.0486 0.0000 2.2350
# 5 13.3940 6.3128 7.4090 0.0000 22.1697 0.0000
# 6 0.0000 0.0000 0.0000 2.2350 0.0000 25.9718
#
#
#
# Elastic Compliance Matrix: (Units=1/GPa)
#
#
# Indices 1 2 3 4 5 6 
#
# 1 0.006747 -0.001491 -0.001267 0.000000 -0.003229 0.000000
# 2 -0.001491 0.010724 -0.003059 0.000000 -0.001131 0.000000
# 3 -0.001267 -0.003059 0.027045 0.000000 -0.007402 0.000000
# 4 0.000000 0.000000 0.000000 0.045753 0.000000 -0.003937
# 5 -0.003229 -0.001131 -0.007402 0.000000 0.049853 0.000000
# 6 0.000000 0.000000 0.000000 -0.003937 0.000000 0.038842
#
#
# Mechanical properties :
#
#
# Convention : Reuss Voigt Hill
#
# Bulk Modulus (GPa) = 30.40904 46.86192 38.63548
# Shear Modulus (GPa) = 24.80669 30.67290 27.73979
#
# Velocity S-wave (km/s) = 3.43593 3.82065 3.63339
# Velocity P-wave (km/s) = 5.49660 6.46258 5.99907
#
# Compressibility (1/GPa) = 0.03288496
#
# Stress axis : x y z
#
# Youngs Moduli (GPa) = 148.20528 93.24954 36.97501
#
# Poissons Ratio (x) = 0.13900 0.04683
# Poissons Ratio (y) = 0.22091 0.11309
# Poissons Ratio (z) = 0.18772 0.28521
#
# Static dielectric constant tensor:
#      x y z
#    x 5.008490 0.000000 0.042150 
#    y 0.000000 3.696870 0.000000 
#    z 0.042150 0.000000 3.323560 
# 
# 
# High freq. dielectric constant tensor:
#      x y z
#    x 1.865950 0.000000 0.003780 
#    y 0.000000 1.823760 0.000000 
#    z 0.003780 0.000000 1.765450 
# 
# From -- ./inp_files/331668.got.cif
#   From: 2010.06.25/outbox.cif.g09.slc.cpg/sg12_166_cif.got.tgz:331668.got - 2010.06.28 00:19:55.
