data_PCOD8088257
_publ_section_title
;
Structure prediction by ZEFSAII (Michael W. Deem and Ramdas Pophale) SiO2 
 PCOD8088257
Probable space group: C 2/M
;
_chemical_formula_sum "Si O2"
_cell_formula_units_Z 56
_cell_length_a 25.312875
_cell_length_b 8.914801
_cell_length_c 16.355561
_cell_angle_alpha 90.000000
_cell_angle_beta 124.805621
_cell_angle_gamma 90.000000
_cell_volume 3030.477308
_symmetry_space_group_name_H-M "C 2/M"
_symmetry_group_IT_number 12
_symmetry_cell_setting 'monoclinic'
loop_
_space_group_symop_operation_xyz
x,y,z
-x,y,-z
-x,-y,-z
x,-y,z
1/2+x,1/2+y,z
1/2-x,1/2+y,-z
1/2-x,1/2-y,-z
1/2+x,1/2-y,z
loop_
_atom_site_type_symbol
_atom_site_label
_atom_site_fract_x
_atom_site_fract_y
_atom_site_fract_z
Si Si1 0.249135 0.823323 0.873084
Si Si2 0.972298 0.826502 0.561422
Si Si3 0.991773 0.675837 0.243564
Si Si4 0.718554 0.820813 0.279704
Si Si5 0.332969 0.327158 0.490242
Si Si6 0.116196 0.178830 0.293634
Si Si7 0.153549 0.324693 0.902197
O O1 0.263712 0.763608 0.795073
O O2 0.182501 0.755116 0.847481
O O3 0.240554 0.000000 0.864340
O O4 0.308059 0.772527 0.983144
O O5 0.003555 0.723925 0.658156
O O6 0.895713 0.803224 0.489863
O O7 0.000000 0.772209 0.500000
O O8 0.989274 0.000000 0.595037
O O9 0.005449 0.500000 0.247750
O O10 0.042775 0.764238 0.232416
O O11 0.920657 0.719287 0.149778
O O12 0.772379 0.754631 0.389843
O O13 0.650424 0.748656 0.244660
O O14 0.713416 0.000000 0.277545
O O15 0.317155 0.500000 0.487674
O O16 0.345994 0.259778 0.592098
O O17 0.115391 0.000000 0.288967
O O18 0.161143 0.500000 0.893597
#
# Coordination Sequence:
#
# PCOD8088257 Si02
#       7
#     8   8   8   8   8   8   8
#     4   9  19  34  55  80 103 132 170 212 257 308
#     4   9  18  31  49  74 106 135 168 211 251 298
#     4  10  20  34  53  73 101 138 173 209 255 306
#     4  10  19  32  53  77 102 131 171 212 254 304
#     4   8  16  30  47  72 102 133 166 203 247 298
#     4  10  20  35  52  73 103 136 173 211 254 304
#     4   9  19  36  54  76 106 135 167 211 260 306
#
# _framework density 18.478936999999998
#
# number of rings (size 3 to 8) (size 9 to 14) (size 15 to 20)
#    0.000    2.714    0.000    2.143    2.000    2.000 
#    0.000    3.571    0.000    4.286    0.000    0.000 
#    0.000    0.000    0.000    0.000    0.000    0.000 
#
# Total GULP energy -347167.469714 kJ/mol
# GULP energy per Si atom -12398.838204 kJ/mol
# Density = 1.843688 g / cm^3
# Si number density = 18.478937 Si / 1000 Ang^3
#
#
#
# Elastic Constant Matrix: (Units=GPa)
#
#
# Indices 1 2 3 4 5 6 
#
# 1 133.4663 38.7368 58.2270 0.0000 -6.2948 0.0000
# 2 38.7368 41.5953 26.5512 0.0000 1.1602 0.0000
# 3 58.2270 26.5512 69.4101 0.0000 3.7258 0.0000
# 4 0.0000 0.0000 0.0000 20.5934 0.0000 -0.7723
# 5 -6.2948 1.1602 3.7258 0.0000 29.8624 0.0000
# 6 0.0000 0.0000 0.0000 -0.7723 0.0000 31.8957
#
#
#
# Elastic Compliance Matrix: (Units=1/GPa)
#
#
# Indices 1 2 3 4 5 6 
#
# 1 0.013681 -0.007128 -0.008980 0.000000 0.004281 0.000000
# 2 -0.007128 0.035524 -0.007505 0.000000 -0.001946 0.000000
# 3 -0.008980 -0.007505 0.025065 0.000000 -0.004729 0.000000
# 4 0.000000 0.000000 0.000000 0.048603 0.000000 0.001177
# 5 0.004281 -0.001946 -0.004729 0.000000 0.035055 0.000000
# 6 0.000000 0.000000 0.000000 0.001177 0.000000 0.031381
#
#
# Mechanical properties :
#
#
# Convention : Reuss Voigt Hill
#
# Bulk Modulus (GPa) = 36.97623 54.61130 45.79376
# Shear Modulus (GPa) = 20.36254 24.53408 22.44831
#
# Velocity S-wave (km/s) = 3.32314 3.64768 3.48919
# Velocity P-wave (km/s) = 5.89726 6.88173 6.40843
#
# Compressibility (1/GPa) = 0.02704440
#
# Stress axis : x y z
#
# Youngs Moduli (GPa) = 73.09478 28.14984 39.89676
#
# Poissons Ratio (x) = 0.20066 0.35826
# Poissons Ratio (y) = 0.52103 0.29942
# Poissons Ratio (z) = 0.65637 0.21126
#
# Static dielectric constant tensor:
#      x y z
#    x 3.515570 0.000000 0.029800 
#    y 0.000000 3.163220 0.000000 
#    z 0.029800 0.000000 3.491530 
# 
# 
# High freq. dielectric constant tensor:
#      x y z
#    x 1.727520 0.000000 0.002830 
#    y 0.000000 1.698810 0.000000 
#    z 0.002830 0.000000 1.700960 
# 
# From -- ./inp_files/238907.got.cif
#   From: 2010.06.25/outbox.cif.g09.slc.cpg/sg12_120_cif.got.tgz:238907.got - 2010.06.28 00:19:55.
