data_PCOD8088234
_publ_section_title
;
Structure prediction by ZEFSAII (Michael W. Deem and Ramdas Pophale) SiO2 
 PCOD8088234
Probable space group: C 2/M
;
_chemical_formula_sum "Si O2"
_cell_formula_units_Z 56
_cell_length_a 21.405891
_cell_length_b 8.805972
_cell_length_c 18.498026
_cell_angle_alpha 90.000000
_cell_angle_beta 122.262364
_cell_angle_gamma 90.000000
_cell_volume 2948.543013
_symmetry_space_group_name_H-M "C 2/M"
_symmetry_group_IT_number 12
_symmetry_cell_setting 'monoclinic'
loop_
_space_group_symop_operation_xyz
x,y,z
-x,y,-z
-x,-y,-z
x,-y,z
1/2+x,1/2+y,z
1/2-x,1/2+y,-z
1/2-x,1/2-y,-z
1/2+x,1/2-y,z
loop_
_atom_site_type_symbol
_atom_site_label
_atom_site_fract_x
_atom_site_fract_y
_atom_site_fract_z
Si Si1 0.981883 0.179319 0.382544
Si Si2 0.171972 0.819621 0.973531
Si Si3 0.109011 0.181010 0.234945
Si Si4 0.584206 0.319649 0.059666
Si Si5 0.957825 0.820223 0.207198
Si Si6 0.261728 0.674540 0.584162
Si Si7 0.603147 0.174864 0.544412
O O1 0.954867 0.234623 0.287827
O O2 0.059327 0.261534 0.447824
O O3 0.919075 0.227533 0.399803
O O4 0.995004 0.000000 0.393861
O O5 0.114789 0.760269 0.877743
O O6 0.179913 0.000000 0.978746
O O7 0.250000 0.750000 0.000000
O O8 0.139464 0.761141 0.030612
O O9 0.118820 0.234172 0.157738
O O10 0.030920 0.245798 0.214317
O O11 0.172425 0.247752 0.327190
O O12 0.111909 0.000000 0.240086
O O13 0.579523 0.500000 0.052052
O O14 0.500000 0.256042 0.000000
O O15 0.961031 0.000000 0.203499
O O16 0.278985 0.500000 0.578900
O O17 0.250000 0.750000 0.500000
O O18 0.189414 0.696412 0.587519
O O19 0.581571 0.000000 0.543248
#
# Coordination Sequence:
#
# PCOD8088234 Si02
#       7
#     8   8   8   8   8   8   8
#     4  10  19  32  53  75  96 135 181 214 250 308
#     4  10  20  34  53  80 109 137 169 214 270 318
#     4   9  16  29  51  78 102 130 173 222 261 299
#     4   9  15  28  53  80 102 129 173 223 259 298
#     4   9  17  30  50  76 103 129 169 219 261 301
#     4  10  21  34  51  75 105 136 169 214 264 310
#     4  10  20  34  49  72 106 138 166 211 268 312
#
# _framework density 18.992429999999999
#
# number of rings (size 3 to 8) (size 9 to 14) (size 15 to 20)
#    0.000    2.429    1.429    2.571    0.000    3.429 
#    0.000    2.857    0.000    2.143    0.000    0.000 
#    0.000    0.000    0.000    0.000    0.000    0.000 
#
# Total GULP energy -347086.223757 kJ/mol
# GULP energy per Si atom -12395.936563 kJ/mol
# Density = 1.894920 g / cm^3
# Si number density = 18.992430 Si / 1000 Ang^3
#
#
#
# Elastic Constant Matrix: (Units=GPa)
#
#
# Indices 1 2 3 4 5 6 
#
# 1 134.2709 18.8313 87.6179 0.0000 10.9675 0.0000
# 2 18.8313 22.6628 18.7557 0.0000 3.7531 0.0000
# 3 87.6179 18.7557 193.9725 0.0000 -1.1337 0.0000
# 4 0.0000 0.0000 0.0000 15.5964 0.0000 4.1895
# 5 10.9675 3.7531 -1.1337 0.0000 33.6158 0.0000
# 6 0.0000 0.0000 0.0000 4.1895 0.0000 21.8284
#
#
#
# Elastic Compliance Matrix: (Units=1/GPa)
#
#
# Indices 1 2 3 4 5 6 
#
# 1 0.011525 -0.005106 -0.004732 0.000000 -0.003350 0.000000
# 2 -0.005106 0.051269 -0.002675 0.000000 -0.004148 0.000000
# 3 -0.004732 -0.002675 0.007564 0.000000 0.002098 0.000000
# 4 0.000000 0.000000 0.000000 0.067603 0.000000 -0.012975
# 5 -0.003350 -0.004148 0.002098 0.000000 0.031375 0.000000
# 6 0.000000 0.000000 0.000000 -0.012975 0.000000 0.048302
#
#
# Mechanical properties :
#
#
# Convention : Reuss Voigt Hill
#
# Bulk Modulus (GPa) = 22.05957 66.81290 44.43623
# Shear Modulus (GPa) = 19.39691 29.25487 24.32589
#
# Velocity S-wave (km/s) = 3.19924 3.92898 3.58274
# Velocity P-wave (km/s) = 5.02862 7.47245 6.36885
#
# Compressibility (1/GPa) = 0.04533180
#
# Stress axis : x y z
#
# Youngs Moduli (GPa) = 86.76773 19.50505 132.21105
#
# Poissons Ratio (x) = 0.09959 0.62559
# Poissons Ratio (y) = 0.44302 0.35370
# Poissons Ratio (z) = 0.41056 0.05218
#
# Static dielectric constant tensor:
#      x y z
#    x 3.701730 0.000000 -0.032950 
#    y 0.000000 3.065830 0.000000 
#    z -0.032950 0.000000 3.798350 
# 
# 
# High freq. dielectric constant tensor:
#      x y z
#    x 1.745890 0.000000 -0.004000 
#    y 0.000000 1.689820 0.000000 
#    z -0.004000 0.000000 1.751860 
# 
# From -- ./inp_files/281632.got.cif
#   From: 2010.06.25/outbox.cif.g09.slc.cpg/sg12_141_cif.got.tgz:281632.got - 2010.06.28 00:19:55.
