data_PCOD8088805
_publ_section_title
;
Structure prediction by ZEFSAII (Michael W. Deem and Ramdas Pophale) SiO2 
 PCOD8088805
Probable space group: C 2/M
;
_chemical_formula_sum "Si O2"
_cell_formula_units_Z 64
_cell_length_a 30.758130
_cell_length_b 8.874983
_cell_length_c 20.098979
_cell_angle_alpha 90.000000
_cell_angle_beta 142.893373
_cell_angle_gamma 90.000000
_cell_volume 3310.053007
_symmetry_space_group_name_H-M "C 2/M"
_symmetry_group_IT_number 12
_symmetry_cell_setting 'monoclinic'
loop_
_space_group_symop_operation_xyz
x,y,z
-x,y,-z
-x,-y,-z
x,-y,z
1/2+x,1/2+y,z
1/2-x,1/2+y,-z
1/2-x,1/2-y,-z
1/2+x,1/2-y,z
loop_
_atom_site_type_symbol
_atom_site_label
_atom_site_fract_x
_atom_site_fract_y
_atom_site_fract_z
Si Si1 0.922521 0.176303 0.795290
Si Si2 0.582853 0.177128 0.596467
Si Si3 0.680200 0.676111 0.447397
Si Si4 0.329852 0.321259 0.802275
Si Si5 0.823734 0.177632 0.173213
Si Si6 0.161510 0.322933 0.946782
Si Si7 0.418737 0.320940 0.035472
Si Si8 0.828238 0.323024 0.422924
O O1 0.887013 0.213418 0.681512
O O2 0.876306 0.250745 0.798593
O O3 0.003592 0.238307 0.893942
O O4 0.925016 0.000000 0.811971
O O5 0.500000 0.232355 0.500000
O O6 0.633459 0.257523 0.711814
O O7 0.610682 0.218075 0.556436
O O8 0.588880 0.000000 0.617404
O O9 0.695638 0.500000 0.472134
O O10 0.750000 0.750000 0.500000
O O11 0.656722 0.740122 0.489809
O O12 0.332618 0.500000 0.800913
O O13 0.248108 0.264006 0.698265
O O14 0.361636 0.266781 0.910865
O O15 0.855137 0.246324 0.143973
O O16 0.834537 0.000000 0.185234
O O17 0.739177 0.222481 0.072569
O O18 0.155249 0.500000 0.929193
O O19 0.099479 0.262659 0.918852
O O20 0.417643 0.500000 0.045707
O O21 0.825813 0.500000 0.434496
#
# Coordination Sequence:
#
# PCOD8088805 Si02
#       8
#     8   8   8   8   8   8   8   8
#     4   9  18  32  52  80 110 140 182 232 275 323
#     4  10  22  39  59  87 122 155 187 233 293 348
#     4  11  21  36  57  80 110 144 187 237 279 327
#     4   9  16  30  54  80 106 139 183 229 270 321
#     4  10  21  38  61  84 109 146 193 237 278 335
#     4  10  21  37  57  82 114 147 182 234 290 341
#     4  10  19  32  55  83 109 142 183 227 279 338
#     4  10  20  36  58  82 111 149 189 226 274 337
#
# _framework density 19.335038000000001
#
# number of rings (size 3 to 8) (size 9 to 14) (size 15 to 20)
#    0.000    2.125    1.250    2.250    0.000    5.750 
#    0.000    4.375    0.000    0.750    0.000    0.000 
#    0.000    0.000    0.000    0.000    0.000    0.000 
#
# Total GULP energy -396810.496957 kJ/mol
# GULP energy per Si atom -12400.328030 kJ/mol
# Density = 1.929103 g / cm^3
# Si number density = 19.335038 Si / 1000 Ang^3
#
#
#
# Elastic Constant Matrix: (Units=GPa)
#
#
# Indices 1 2 3 4 5 6 
#
# 1 134.5539 27.3695 38.4518 0.0000 -9.8388 0.0000
# 2 27.3695 45.8170 26.6233 0.0000 -11.3460 0.0000
# 3 38.4518 26.6233 60.7360 0.0000 -10.0402 0.0000
# 4 0.0000 0.0000 0.0000 28.2527 0.0000 -6.5922
# 5 -9.8388 -11.3460 -10.0402 0.0000 32.1468 0.0000
# 6 0.0000 0.0000 0.0000 -6.5922 0.0000 27.6980
#
#
#
# Elastic Compliance Matrix: (Units=1/GPa)
#
#
# Indices 1 2 3 4 5 6 
#
# 1 0.009354 -0.002792 -0.004626 0.000000 0.000432 0.000000
# 2 -0.002792 0.031542 -0.010923 0.000000 0.006866 0.000000
# 3 -0.004626 -0.010923 0.024579 0.000000 0.002406 0.000000
# 4 0.000000 0.000000 0.000000 0.037476 0.000000 0.008919
# 5 0.000432 0.006866 0.002406 0.000000 0.034414 0.000000
# 6 0.000000 0.000000 0.000000 0.008919 0.000000 0.038227
#
#
# Mechanical properties :
#
#
# Convention : Reuss Voigt Hill
#
# Bulk Modulus (GPa) = 34.73310 47.33288 41.03299
# Shear Modulus (GPa) = 22.53550 27.53030 25.03290
#
# Velocity S-wave (km/s) = 3.41768 3.77749 3.60208
# Velocity P-wave (km/s) = 5.79456 6.59996 6.21033
#
# Compressibility (1/GPa) = 0.02879098
#
# Stress axis : x y z
#
# Youngs Moduli (GPa) = 106.91047 31.70421 40.68444
#
# Poissons Ratio (x) = 0.08853 0.18822
# Poissons Ratio (y) = 0.29852 0.44441
# Poissons Ratio (z) = 0.49460 0.34631
#
# Static dielectric constant tensor:
#      x y z
#    x 3.368360 0.000000 -0.268060 
#    y 0.000000 3.247110 0.000000 
#    z -0.268060 0.000000 3.402760 
# 
# 
# High freq. dielectric constant tensor:
#      x y z
#    x 1.764960 0.000000 -0.004620 
#    y 0.000000 1.723530 0.000000 
#    z -0.004620 0.000000 1.757520 
# 
# From -- ./inp_files/295758.got.cif
#   From: 2010.06.25/outbox.cif.g09.slc.cpg/sg12_148_cif.got.tgz:295758.got - 2010.06.28 00:19:55.
