data_PCOD8088449
_publ_section_title
;
Structure prediction by ZEFSAII (Michael W. Deem and Ramdas Pophale) SiO2 
 PCOD8088449
Probable space group: C 2/M
;
_chemical_formula_sum "Si O2"
_cell_formula_units_Z 40
_cell_length_a 13.594157
_cell_length_b 20.650518
_cell_length_c 8.266476
_cell_angle_alpha 90.000000
_cell_angle_beta 64.399411
_cell_angle_gamma 90.000000
_cell_volume 2092.798409
_symmetry_space_group_name_H-M "C 2/M"
_symmetry_group_IT_number 12
_symmetry_cell_setting 'monoclinic'
loop_
_space_group_symop_operation_xyz
x,y,z
-x,y,-z
-x,-y,-z
x,-y,z
1/2+x,1/2+y,z
1/2-x,1/2+y,-z
1/2-x,1/2-y,-z
1/2+x,1/2-y,z
loop_
_atom_site_type_symbol
_atom_site_label
_atom_site_fract_x
_atom_site_fract_y
_atom_site_fract_z
Si Si1 0.255166 0.571872 0.815137
Si Si2 0.628090 0.688712 0.427880
Si Si3 0.943972 0.632385 0.199563
Si Si4 0.647968 0.073127 0.223880
Si Si5 0.293106 0.821163 0.569848
O O1 0.302580 0.500000 0.741825
O O2 0.337850 0.628698 0.708570
O O3 0.139963 0.578060 0.804778
O O4 0.236612 0.578534 0.019386
O O5 0.500000 0.695893 0.500000
O O6 0.683787 0.757610 0.335667
O O7 0.670571 0.677156 0.582146
O O8 0.877633 0.683535 0.356557
O O9 0.030893 0.598298 0.252267
O O10 0.000000 0.665517 0.000000
O O11 0.691849 0.113633 0.342997
O O12 0.635215 0.000000 0.293906
#
# Coordination Sequence:
#
# PCOD8088449 Si02
#       5
#     8   8   8   8   8
#     4   9  19  34  52  77 107 141 178 210 252 310
#     4  10  21  38  55  73 102 138 175 213 258 310
#     4   9  17  31  53  80 111 140 165 205 263 317
#     4  10  19  32  53  81 110 136 168 216 263 302
#     4  10  21  35  54  81 105 131 174 217 255 307
#
# _framework density 19.113164999999999
#
# number of rings (size 3 to 8) (size 9 to 14) (size 15 to 20)
#    0.000    2.400    0.000    2.400    0.000    8.400 
#    0.000    5.000    0.000    2.400    0.000    0.000 
#    0.000    0.000    0.000    0.000    0.000    0.000 
#
# Total GULP energy -247837.058425 kJ/mol
# GULP energy per Si atom -12391.852921 kJ/mol
# Density = 1.906966 g / cm^3
# Si number density = 19.113165 Si / 1000 Ang^3
#
#
#
# Elastic Constant Matrix: (Units=GPa)
#
#
# Indices 1 2 3 4 5 6 
#
# 1 132.0326 39.2074 27.7978 0.0000 6.8253 0.0000
# 2 39.2074 107.9300 35.5928 0.0000 6.1730 0.0000
# 3 27.7978 35.5928 50.9306 0.0000 8.5989 0.0000
# 4 0.0000 0.0000 0.0000 24.8107 0.0000 -0.8518
# 5 6.8253 6.1730 8.5989 0.0000 17.6747 0.0000
# 6 0.0000 0.0000 0.0000 -0.8518 0.0000 19.9429
#
#
#
# Elastic Compliance Matrix: (Units=1/GPa)
#
#
# Indices 1 2 3 4 5 6 
#
# 1 0.008938 -0.002126 -0.003198 0.000000 -0.001153 0.000000
# 2 -0.002126 0.012546 -0.007633 0.000000 0.000153 0.000000
# 3 -0.003198 -0.007633 0.028387 0.000000 -0.009910 0.000000
# 4 0.000000 0.000000 0.000000 0.040364 0.000000 0.001724
# 5 -0.001153 0.000153 -0.009910 0.000000 0.061791 0.000000
# 6 0.000000 0.000000 0.000000 0.001724 0.000000 0.050217
#
#
# Mechanical properties :
#
#
# Convention : Reuss Voigt Hill
#
# Bulk Modulus (GPa) = 41.74084 55.12102 48.43093
# Shear Modulus (GPa) = 21.17346 25.03866 23.10606
#
# Velocity S-wave (km/s) = 3.33197 3.62335 3.48071
# Velocity P-wave (km/s) = 6.05713 6.81225 6.44576
#
# Compressibility (1/GPa) = 0.02395735
#
# Stress axis : x y z
#
# Youngs Moduli (GPa) = 111.87944 79.70522 35.22687
#
# Poissons Ratio (x) = 0.16949 0.11264
# Poissons Ratio (y) = 0.23791 0.26889
# Poissons Ratio (z) = 0.35775 0.60840
#
# Static dielectric constant tensor:
#      x y z
#    x 3.419740 0.000000 0.085850 
#    y 0.000000 3.560750 0.000000 
#    z 0.085850 0.000000 3.485550 
# 
# 
# High freq. dielectric constant tensor:
#      x y z
#    x 1.735870 0.000000 0.012580 
#    y 0.000000 1.746780 0.000000 
#    z 0.012580 0.000000 1.722830 
# 
# From -- ./inp_files/48488.got.cif
#   From: 2010.06.25/outbox.cif.g09.slc.cpg/sg12_25_cif.got.tgz:48488.got - 2010.06.28 00:19:55.
