data_PCOD8088415
_publ_section_title
;
Structure prediction by ZEFSAII (Michael W. Deem and Ramdas Pophale) SiO2 
 PCOD8088415
Probable space group: C 2/M
;
_chemical_formula_sum "Si O2"
_cell_formula_units_Z 60
_cell_length_a 24.983119
_cell_length_b 8.869686
_cell_length_c 14.641988
_cell_angle_alpha 90.000000
_cell_angle_beta 74.530296
_cell_angle_gamma 90.000000
_cell_volume 3127.008663
_symmetry_space_group_name_H-M "C 2/M"
_symmetry_group_IT_number 12
_symmetry_cell_setting 'monoclinic'
loop_
_space_group_symop_operation_xyz
x,y,z
-x,y,-z
-x,-y,-z
x,-y,z
1/2+x,1/2+y,z
1/2-x,1/2+y,-z
1/2-x,1/2-y,-z
1/2+x,1/2-y,z
loop_
_atom_site_type_symbol
_atom_site_label
_atom_site_fract_x
_atom_site_fract_y
_atom_site_fract_z
Si Si1 0.000000 0.707314 0.500000
Si Si2 0.510079 0.161551 0.290511
Si Si3 0.120533 0.827543 0.187742
Si Si4 0.190088 0.825584 0.785838
Si Si5 0.800326 0.826843 0.681501
Si Si6 0.305869 0.676728 0.009322
Si Si7 0.116342 0.680311 0.489738
Si Si8 0.900312 0.825843 0.319446
O O1 0.003914 0.623514 0.401150
O O2 0.061934 0.781878 0.480578
O O3 0.570294 0.224113 0.240891
O O4 0.464048 0.277335 0.274626
O O5 0.502908 0.000000 0.244128
O O6 0.171535 0.803975 0.233391
O O7 0.100112 0.000000 0.197020
O O8 0.142335 0.776011 0.078347
O O9 0.237186 0.726758 0.716388
O O10 0.180317 0.771798 0.894130
O O11 0.132633 0.798368 0.759111
O O12 0.208406 0.000000 0.773969
O O13 0.830506 0.724478 0.592755
O O14 0.802046 0.000000 0.648815
O O15 0.296593 0.500000 0.006182
O O16 0.250000 0.750000 0.000000
O O17 0.104452 0.500000 0.485387
O O18 0.128054 0.723664 0.589227
O O19 0.898584 0.000000 0.349871
#
# Coordination Sequence:
#
# PCOD8088415 Si02
#       8
#     4   8   8   8   8   8   8   8
#     4  10  19  32  53  80 109 142 185 230 273 326
#     4  11  21  36  58  84 114 152 192 233 282 339
#     4  10  21  36  55  87 121 146 181 235 291 338
#     4  10  22  40  62  83 112 154 194 232 285 345
#     4  11  22  35  56  88 120 150 186 236 289 334
#     4  10  20  37  60  87 115 147 187 235 290 344
#     4  11  21  36  56  83 116 154 194 233 281 341
#     4  10  22  40  58  82 114 152 196 238 279 336
#
# _framework density 19.187667000000001
#
# number of rings (size 3 to 8) (size 9 to 14) (size 15 to 20)
#    0.000    1.600    2.667    3.600    0.000    2.667 
#    0.000    2.667    0.000    4.000    0.000    0.000 
#    0.000    0.000    0.000    0.000    0.000    0.000 
#
# Total GULP energy -371721.450489 kJ/mol
# GULP energy per Si atom -12390.715016 kJ/mol
# Density = 1.914400 g / cm^3
# Si number density = 19.187667 Si / 1000 Ang^3
#
#
#
# Elastic Constant Matrix: (Units=GPa)
#
#
# Indices 1 2 3 4 5 6 
#
# 1 105.4952 42.6537 50.1981 0.0000 0.7916 0.0000
# 2 42.6537 72.9203 37.5900 0.0000 -2.8858 0.0000
# 3 50.1981 37.5900 92.5267 0.0000 -0.3210 0.0000
# 4 0.0000 0.0000 0.0000 16.4386 0.0000 -2.6716
# 5 0.7916 -2.8858 -0.3210 0.0000 33.7468 0.0000
# 6 0.0000 0.0000 0.0000 -2.6716 0.0000 25.4573
#
#
#
# Elastic Compliance Matrix: (Units=1/GPa)
#
#
# Indices 1 2 3 4 5 6 
#
# 1 0.014379 -0.005594 -0.005532 0.000000 -0.000868 0.000000
# 2 -0.005594 0.019590 -0.004918 0.000000 0.001760 0.000000
# 3 -0.005532 -0.004918 0.015806 0.000000 -0.000140 0.000000
# 4 0.000000 0.000000 0.000000 0.061888 0.000000 0.006495
# 5 -0.000868 0.001760 -0.000140 0.000000 0.029802 0.000000
# 6 0.000000 0.000000 0.000000 0.006495 0.000000 0.039963
#
#
# Mechanical properties :
#
#
# Convention : Reuss Voigt Hill
#
# Bulk Modulus (GPa) = 56.53153 59.09175 57.81164
# Shear Modulus (GPa) = 22.78811 24.49524 23.64168
#
# Velocity S-wave (km/s) = 3.44996 3.57685 3.51398
# Velocity P-wave (km/s) = 6.73766 6.92258 6.83074
#
# Compressibility (1/GPa) = 0.01768924
#
# Stress axis : x y z
#
# Youngs Moduli (GPa) = 69.54349 51.04524 63.26615
#
# Poissons Ratio (x) = 0.28554 0.34997
# Poissons Ratio (y) = 0.38902 0.31114
# Poissons Ratio (z) = 0.38469 0.25104
#
# Static dielectric constant tensor:
#      x y z
#    x 3.335810 0.000000 -0.142510 
#    y 0.000000 3.414950 0.000000 
#    z -0.142510 0.000000 3.467690 
# 
# 
# High freq. dielectric constant tensor:
#      x y z
#    x 1.742350 0.000000 -0.007980 
#    y 0.000000 1.738450 0.000000 
#    z -0.007980 0.000000 1.745580 
# 
# From -- ./inp_files/238546.got.cif
#   From: 2010.06.25/outbox.cif.g09.slc.cpg/sg12_120_cif.got.tgz:238546.got - 2010.06.28 00:19:55.
