data_PCOD8088432
_publ_section_title
;
Structure prediction by ZEFSAII (Michael W. Deem and Ramdas Pophale) SiO2 
 PCOD8088432
Probable space group: C 2/M
;
_chemical_formula_sum "Si O2"
_cell_formula_units_Z 56
_cell_length_a 8.844443
_cell_length_b 15.527456
_cell_length_c 29.631579
_cell_angle_alpha 90.000000
_cell_angle_beta 41.736514
_cell_angle_gamma 90.000000
_cell_volume 2708.994289
_symmetry_space_group_name_H-M "C 2/M"
_symmetry_group_IT_number 12
_symmetry_cell_setting 'monoclinic'
loop_
_space_group_symop_operation_xyz
x,y,z
-x,y,-z
-x,-y,-z
x,-y,z
1/2+x,1/2+y,z
1/2-x,1/2+y,-z
1/2-x,1/2-y,-z
1/2+x,1/2-y,z
loop_
_atom_site_type_symbol
_atom_site_label
_atom_site_fract_x
_atom_site_fract_y
_atom_site_fract_z
Si Si1 0.588623 0.397438 0.432738
Si Si2 0.870602 0.500000 0.923714
Si Si3 0.224069 0.837572 0.838724
Si Si4 0.085840 0.398713 0.295580
Si Si5 0.063739 0.898713 0.704421
Si Si6 0.247690 0.602562 0.432735
Si Si7 0.010820 0.000000 0.923715
Si Si8 0.917695 0.662429 0.161276
O O1 0.500000 0.359893 0.500000
O O2 0.581559 0.500000 0.435498
O O3 0.428693 0.361883 0.428522
O O4 0.844768 0.365204 0.367725
O O5 0.689857 0.500000 0.924057
O O6 0.027876 0.584396 0.885026
O O7 0.744516 0.500000 0.999999
O O8 0.363942 0.849963 0.761790
O O9 0.046984 0.915605 0.885028
O O10 0.079069 0.750001 0.868370
O O11 0.397590 0.831525 0.840962
O O12 0.077290 0.500000 0.287695
O O13 0.277430 0.374737 0.289028
O O14 0.183388 0.865204 0.632277
O O15 0.827107 0.849960 0.761790
O O16 0.015754 0.000000 0.712309
O O17 0.240960 0.500000 0.435490
O O18 0.000000 0.640105 0.500000
#
# Coordination Sequence:
#
# PCOD8088432 Si02
#       8
#     8   4   8   8   8   8   4   8
#     4   9  16  26  43  71 108 149 196 246 299 353
#     4   9  20  40  65  91 122 159 196 237 291 355
#     4  11  22  38  61  89 121 158 200 244 295 352
#     4  10  19  32  53  80 113 152 198 249 300 352
#     4  10  19  32  53  80 113 152 198 249 300 352
#     4   9  16  26  43  71 108 149 196 246 299 353
#     4   9  20  40  65  91 122 159 196 237 291 355
#     4  11  22  38  61  89 121 158 200 244 295 352
#
# _framework density 20.671879000000001
#
# number of rings (size 3 to 8) (size 9 to 14) (size 15 to 20)
#    0.000    2.143    1.429    2.571    0.000    5.143 
#    0.000    0.000    0.000    6.857    0.000    6.000 
#    0.000    0.000    0.000    0.000    0.000    0.000 
#
# Total GULP energy -347288.347695 kJ/mol
# GULP energy per Si atom -12403.155275 kJ/mol
# Density = 2.062483 g / cm^3
# Si number density = 20.671879 Si / 1000 Ang^3
#
#
#
# Elastic Constant Matrix: (Units=GPa)
#
#
# Indices 1 2 3 4 5 6 
#
# 1 102.9310 41.3966 36.9261 0.0006 1.0198 0.0004
# 2 41.3966 105.3540 62.3980 -0.0023 -1.0200 -0.0001
# 3 36.9261 62.3980 153.1296 -0.0048 -3.4584 -0.0015
# 4 0.0006 -0.0023 -0.0048 3.7082 0.0006 1.0946
# 5 1.0198 -1.0200 -3.4584 0.0006 22.7624 -0.0003
# 6 0.0004 -0.0001 -0.0015 1.0946 -0.0003 26.1966
#
#
#
# Elastic Compliance Matrix: (Units=1/GPa)
#
#
# Indices 1 2 3 4 5 6 
#
# 1 0.011736 -0.003865 -0.001275 -0.000006 -0.000893 0.000000
# 2 -0.003865 0.013785 -0.004683 0.000003 0.000079 0.000000
# 3 -0.001275 -0.004683 0.008773 0.000008 0.001180 0.000000
# 4 -0.000006 0.000003 0.000008 0.273042 -0.000006 -0.011409
# 5 -0.000893 0.000079 0.001180 -0.000006 0.044155 0.000001
# 6 0.000000 0.000000 0.000000 -0.011409 0.000001 0.038650
#
#
# Mechanical properties :
#
#
# Convention : Reuss Voigt Hill
#
# Bulk Modulus (GPa) = 68.27355 71.42842 69.85099
# Shear Modulus (GPa) = 12.05780 25.24638 18.65209
#
# Velocity S-wave (km/s) = 2.41777 3.49849 3.00708
# Velocity P-wave (km/s) = 6.39477 7.13776 6.77646
#
# Compressibility (1/GPa) = 0.01464696
#
# Stress axis : x y z
#
# Youngs Moduli (GPa) = 85.20855 72.54290 113.98535
#
# Poissons Ratio (x) = 0.28035 0.14538
# Poissons Ratio (y) = 0.32930 0.53384
# Poissons Ratio (z) = 0.10868 0.33975
#
# Static dielectric constant tensor:
#      x y z
#    x 3.669620 0.000000 -0.008850 
#    y 0.000000 3.625280 0.000000 
#    z -0.008850 0.000000 3.852670 
# 
# 
# High freq. dielectric constant tensor:
#      x y z
#    x 1.804650 0.000000 -0.000290 
#    y 0.000000 1.790630 0.000000 
#    z -0.000290 0.000000 1.810610 
# 
# From -- ./inp_files/356689.got.cif
#   From: 2010.06.25/outbox.cif.g09.slc.cpg/sg12_179_cif.got.tgz:356689.got - 2010.06.28 00:19:55.
