data_PCOD8088725
_publ_section_title
;
Structure prediction by ZEFSAII (Michael W. Deem and Ramdas Pophale) SiO2 
 PCOD8088725
Probable space group: C 2/M
;
_chemical_formula_sum "Si O2"
_cell_formula_units_Z 60
_cell_length_a 13.521365
_cell_length_b 30.793462
_cell_length_c 7.948206
_cell_angle_alpha 90.000000
_cell_angle_beta 60.794771
_cell_angle_gamma 90.000000
_cell_volume 2888.693689
_symmetry_space_group_name_H-M "C 2/M"
_symmetry_group_IT_number 12
_symmetry_cell_setting 'monoclinic'
loop_
_space_group_symop_operation_xyz
x,y,z
-x,y,-z
-x,-y,-z
x,-y,z
1/2+x,1/2+y,z
1/2-x,1/2+y,-z
1/2-x,1/2-y,-z
1/2+x,1/2-y,z
loop_
_atom_site_type_symbol
_atom_site_label
_atom_site_fract_x
_atom_site_fract_y
_atom_site_fract_z
Si Si1 0.721889 0.290928 0.206182
Si Si2 0.221051 0.048697 0.707110
Si Si3 0.377664 0.631766 0.331260
Si Si4 0.631840 0.712063 0.903933
Si Si5 0.169516 0.547919 0.032473
Si Si6 0.000000 0.827713 0.500000
Si Si7 0.951083 0.417838 0.368689
Si Si8 0.684780 0.874355 0.766059
O O1 0.787115 0.250068 0.235062
O O2 0.612260 0.298258 0.415261
O O3 0.813314 0.330578 0.126305
O O4 0.671374 0.288133 0.062890
O O5 0.121620 0.083467 0.748986
O O6 0.245804 0.054341 0.882958
O O7 0.334166 0.056920 0.502385
O O8 0.177593 0.000000 0.703358
O O9 0.347523 0.666687 0.210574
O O10 0.496260 0.643385 0.328929
O O11 0.287848 0.631025 0.553982
O O12 0.500000 0.725084 0.000000
O O13 0.184677 0.500000 0.940372
O O14 0.041195 0.550119 0.209283
O O15 0.199440 0.583257 0.868597
O O16 0.929006 0.379194 0.252221
O O17 0.000000 0.397147 0.500000
#
# Coordination Sequence:
#
# PCOD8088725 Si02
#       8
#     8   8   8   8   8   4   8   8
#     4  10  23  41  66  94 123 154 209 251 310 374
#     4   9  18  34  57  85 117 162 212 262 309 364
#     4  10  21  38  61  84 119 159 201 246 309 369
#     4  11  22  42  68  94 118 161 201 257 315 373
#     4  10  19  32  54  83 121 164 210 258 315 372
#     4  10  20  40  63  92 122 170 195 248 314 372
#     4   9  18  32  52  80 119 165 208 251 316 375
#     4  10  21  34  53  83 120 160 195 253 300 363
#
# _framework density 20.770634999999999
#
# number of rings (size 3 to 8) (size 9 to 14) (size 15 to 20)
#    0.000    2.133    1.333    1.600    0.000    8.000 
#    0.000    3.000    8.800    1.200    0.000    0.000 
#    0.000    0.000    0.000    0.000    0.000    0.000 
#
# Total GULP energy -371645.315036 kJ/mol
# GULP energy per Si atom -12388.177168 kJ/mol
# Density = 2.072336 g / cm^3
# Si number density = 20.770635 Si / 1000 Ang^3
#
#
#
# Elastic Constant Matrix: (Units=GPa)
#
#
# Indices 1 2 3 4 5 6 
#
# 1 99.3111 77.0792 25.9503 0.0000 14.0207 0.0000
# 2 77.0792 159.1208 32.1598 0.0000 5.9668 0.0000
# 3 25.9503 32.1598 57.6326 0.0000 3.3101 0.0000
# 4 0.0000 0.0000 0.0000 26.9779 0.0000 2.1302
# 5 14.0207 5.9668 3.3101 0.0000 28.4361 0.0000
# 6 0.0000 0.0000 0.0000 2.1302 0.0000 26.4939
#
#
#
# Elastic Compliance Matrix: (Units=1/GPa)
#
#
# Indices 1 2 3 4 5 6 
#
# 1 0.017922 -0.007748 -0.003355 0.000000 -0.006821 0.000000
# 2 -0.007748 0.010463 -0.002460 0.000000 0.001911 0.000000
# 3 -0.003355 -0.002460 0.020245 0.000000 -0.000186 0.000000
# 4 0.000000 0.000000 0.000000 0.037304 0.000000 -0.002999
# 5 -0.006821 0.001911 -0.000186 0.000000 0.038150 0.000000
# 6 0.000000 0.000000 0.000000 -0.002999 0.000000 0.037986
#
#
# Mechanical properties :
#
#
# Convention : Reuss Voigt Hill
#
# Bulk Modulus (GPa) = 46.49886 65.16035 55.82960
# Shear Modulus (GPa) = 25.46291 28.43993 26.95142
#
# Velocity S-wave (km/s) = 3.50510 3.70433 3.60609
# Velocity P-wave (km/s) = 6.23028 7.05235 6.65402
#
# Compressibility (1/GPa) = 0.02150591
#
# Stress axis : x y z
#
# Youngs Moduli (GPa) = 55.79613 95.57350 49.39475
#
# Poissons Ratio (x) = 0.74050 0.16571
# Poissons Ratio (y) = 0.43231 0.12149
# Poissons Ratio (z) = 0.18718 0.23508
#
# Static dielectric constant tensor:
#      x y z
#    x 4.331880 0.000000 0.365900 
#    y 0.000000 4.138730 0.000000 
#    z 0.365900 0.000000 3.774610 
# 
# 
# High freq. dielectric constant tensor:
#      x y z
#    x 1.809790 0.000000 0.021970 
#    y 0.000000 1.804210 0.000000 
#    z 0.021970 0.000000 1.810520 
# 
# From -- ./inp_files/67818.got.cif
#   From: 2010.06.25/outbox.cif.g09.slc.cpg/sg12_34_cif.got.tgz:67818.got - 2010.06.28 00:19:55.
