data_PCOD8088814
_publ_section_title
;
Structure prediction by ZEFSAII (Michael W. Deem and Ramdas Pophale) SiO2 
 PCOD8088814
Probable space group: C 2/M
;
_chemical_formula_sum "Si O2"
_cell_formula_units_Z 56
_cell_length_a 30.351932
_cell_length_b 9.473591
_cell_length_c 19.949579
_cell_angle_alpha 90.000000
_cell_angle_beta 30.868705
_cell_angle_gamma 90.000000
_cell_volume 2943.157099
_symmetry_space_group_name_H-M "C 2/M"
_symmetry_group_IT_number 12
_symmetry_cell_setting 'monoclinic'
loop_
_space_group_symop_operation_xyz
x,y,z
-x,y,-z
-x,-y,-z
x,-y,z
1/2+x,1/2+y,z
1/2-x,1/2+y,-z
1/2-x,1/2-y,-z
1/2+x,1/2-y,z
loop_
_atom_site_type_symbol
_atom_site_label
_atom_site_fract_x
_atom_site_fract_y
_atom_site_fract_z
Si Si1 0.529113 0.842064 0.385967
Si Si2 0.623608 0.334437 0.458500
Si Si3 0.653207 0.847514 0.676726
Si Si4 0.405238 0.832646 0.108265
Si Si5 0.777975 0.330992 0.160536
Si Si6 0.273854 0.169631 0.900228
Si Si7 0.347370 0.651905 0.431866
O O1 0.500000 0.830444 0.500000
O O2 0.469303 0.735744 0.424131
O O3 0.627346 0.798125 0.246350
O O4 0.514284 0.000000 0.378166
O O5 0.610541 0.500000 0.469977
O O6 0.691482 0.286457 0.313503
O O7 0.657949 0.287545 0.486307
O O8 0.648905 0.780837 0.756613
O O9 0.604756 0.754724 0.683242
O O10 0.751790 0.868249 0.528374
O O11 0.605907 0.000000 0.738291
O O12 0.359725 0.780503 0.099050
O O13 0.405029 0.000000 0.103906
O O14 0.500000 0.772012 0.000000
O O15 0.779585 0.500000 0.144255
O O16 0.781842 0.241703 0.086634
O O17 0.255953 0.000000 0.928205
O O18 0.250000 0.250000 0.000000
O O19 0.394944 0.500000 0.369381
#
# Coordination Sequence:
#
# PCOD8088814 Si02
#       7
#     8   8   8   8   8   8   8
#     4  10  21  38  59  86 116 143 182 240 291 338
#     4  10  19  32  55  83 112 147 187 233 284 340
#     4   9  16  29  49  73 101 137 180 222 267 322
#     4   9  17  32  55  80 108 145 190 235 275 328
#     4  10  19  35  60  86 112 149 196 240 287 342
#     4  11  24  43  64  86 117 154 191 237 294 354
#     4   9  17  30  47  72 106 140 173 218 274 324
#
# _framework density 19.027187000000001
#
# number of rings (size 3 to 8) (size 9 to 14) (size 15 to 20)
#    0.000    2.286    2.857    0.429    0.000    2.000 
#    2.571    0.714    0.000    0.857    0.000    0.000 
#    0.000    0.000    0.000    0.000    0.000    0.000 
#
# Total GULP energy -346874.610690 kJ/mol
# GULP energy per Si atom -12388.378953 kJ/mol
# Density = 1.898388 g / cm^3
# Si number density = 19.027187 Si / 1000 Ang^3
#
#
#
# Elastic Constant Matrix: (Units=GPa)
#
#
# Indices 1 2 3 4 5 6 
#
# 1 136.2904 66.8649 52.2139 0.0013 19.7459 -0.0005
# 2 66.8649 59.4739 33.1624 -0.0022 7.9473 0.0008
# 3 52.2139 33.1624 78.9792 -0.0051 0.7850 0.0007
# 4 0.0013 -0.0022 -0.0051 21.6794 -0.0015 4.9008
# 5 19.7459 7.9473 0.7850 -0.0015 33.9976 0.0009
# 6 -0.0005 0.0008 0.0007 4.9008 0.0009 33.1648
#
#
#
# Elastic Compliance Matrix: (Units=1/GPa)
#
#
# Indices 1 2 3 4 5 6 
#
# 1 0.018783 -0.017408 -0.005042 -0.000005 -0.006724 0.000002
# 2 -0.017408 0.038942 -0.004854 0.000004 0.001120 -0.000002
# 3 -0.005042 -0.004854 0.017997 0.000004 0.003647 -0.000001
# 4 -0.000005 0.000004 0.000004 0.047721 0.000004 -0.007052
# 5 -0.006724 0.001120 0.003647 0.000004 0.032973 -0.000002
# 6 0.000002 -0.000002 -0.000001 -0.007052 -0.000002 0.031194
#
#
# Mechanical properties :
#
#
# Convention : Reuss Voigt Hill
#
# Bulk Modulus (GPa) = 47.35953 64.35845 55.85899
# Shear Modulus (GPa) = 20.05966 25.93517 22.99741
#
# Velocity S-wave (km/s) = 3.25046 3.69597 3.48035
# Velocity P-wave (km/s) = 6.24755 7.21883 6.75068
#
# Compressibility (1/GPa) = 0.02111508
#
# Stress axis : x y z
#
# Youngs Moduli (GPa) = 53.23849 25.67894 55.56632
#
# Poissons Ratio (x) = 0.44702 0.28015
# Poissons Ratio (y) = 0.92678 0.26972
# Poissons Ratio (z) = 0.26841 0.12464
#
# Static dielectric constant tensor:
#      x y z
#    x 3.598220 -0.000010 0.032960 
#    y -0.000010 3.677230 0.000020 
#    z 0.032960 0.000020 3.406860 
# 
# 
# High freq. dielectric constant tensor:
#      x y z
#    x 1.744680 0.000000 0.010770 
#    y 0.000000 1.720290 0.000000 
#    z 0.010770 0.000000 1.719690 
# 
# From -- ./inp_files/329512.got.cif
#   From: 2010.06.25/outbox.cif.g09.slc.cpg/sg12_165_cif.got.tgz:329512.got - 2010.06.28 00:19:55.
