data_PCOD8088133
_publ_section_title
;
Structure prediction by ZEFSAII (Michael W. Deem and Ramdas Pophale) SiO2 
 PCOD8088133
Probable space group: C 2/M
;
_chemical_formula_sum "Si O2"
_cell_formula_units_Z 56
_cell_length_a 26.621498
_cell_length_b 9.117459
_cell_length_c 13.439376
_cell_angle_alpha 90.000000
_cell_angle_beta 116.904266
_cell_angle_gamma 90.000000
_cell_volume 2908.943405
_symmetry_space_group_name_H-M "C 2/M"
_symmetry_group_IT_number 12
_symmetry_cell_setting 'monoclinic'
loop_
_space_group_symop_operation_xyz
x,y,z
-x,y,-z
-x,-y,-z
x,-y,z
1/2+x,1/2+y,z
1/2-x,1/2+y,-z
1/2-x,1/2-y,-z
1/2+x,1/2-y,z
loop_
_atom_site_type_symbol
_atom_site_label
_atom_site_fract_x
_atom_site_fract_y
_atom_site_fract_z
Si Si1 0.339109 0.172270 0.896344
Si Si2 0.722384 0.828868 0.739566
Si Si3 0.126712 0.828415 0.565546
Si Si4 0.804875 0.334773 0.072301
Si Si5 0.538470 0.669498 0.319865
Si Si6 0.943263 0.829704 0.893088
Si Si7 0.955363 0.337517 0.373823
O O1 0.282599 0.252040 0.807155
O O2 0.392311 0.233774 0.886893
O O3 0.333228 0.000000 0.868715
O O4 0.349944 0.203844 0.025326
O O5 0.687444 0.753707 0.618270
O O6 0.680624 0.805947 0.799013
O O7 0.732494 0.000000 0.725404
O O8 0.093983 0.791443 0.434150
O O9 0.092477 0.770921 0.630245
O O10 0.137045 0.000000 0.587783
O O11 0.786373 0.500000 0.041242
O O12 0.750000 0.250000 0.000000
O O13 0.522307 0.500000 0.321779
O O14 0.551214 0.706007 0.217867
O O15 0.484975 0.766263 0.304253
O O16 0.929995 0.000000 0.900402
O O17 0.000000 0.782049 0.000000
O O18 0.931165 0.500000 0.323369
O O19 0.000000 0.358272 0.500000
#
# Coordination Sequence:
#
# PCOD8088133 Si02
#       7
#     8   8   8   8   8   8   8
#     4  10  20  36  56  79 108 140 176 218 265 314
#     4  10  19  33  54  81 112 143 176 214 260 314
#     4  10  19  32  52  79 111 144 177 214 261 316
#     4   8  16  30  49  74 104 136 168 206 252 303
#     4   9  19  36  55  76 106 142 179 221 266 312
#     4  10  22  40  59  78 101 134 178 224 269 315
#     4   9  17  30  50  76 105 137 173 213 258 307
#
# _framework density 19.250975
#
# number of rings (size 3 to 8) (size 9 to 14) (size 15 to 20)
#    0.000    2.571    0.000    1.714    0.000    5.429 
#    0.000    3.571    0.000    0.000    0.000    0.000 
#    0.000    0.000    0.000    0.000    0.000    0.000 
#
# Total GULP energy -346925.616418 kJ/mol
# GULP energy per Si atom -12390.200586 kJ/mol
# Density = 1.920716 g / cm^3
# Si number density = 19.250975 Si / 1000 Ang^3
#
#
#
# Elastic Constant Matrix: (Units=GPa)
#
#
# Indices 1 2 3 4 5 6 
#
# 1 98.8162 55.6570 60.0169 0.0000 -3.5250 0.0000
# 2 55.6570 103.0620 53.8439 0.0000 1.5326 0.0000
# 3 60.0169 53.8439 102.4042 0.0000 3.9980 0.0000
# 4 0.0000 0.0000 0.0000 23.7687 0.0000 4.2587
# 5 -3.5250 1.5326 3.9980 0.0000 25.2503 0.0000
# 6 0.0000 0.0000 0.0000 4.2587 0.0000 36.1372
#
#
#
# Elastic Compliance Matrix: (Units=1/GPa)
#
#
# Indices 1 2 3 4 5 6 
#
# 1 0.018321 -0.005875 -0.007810 0.000000 0.004151 0.000000
# 2 -0.005875 0.015264 -0.004542 0.000000 -0.001027 0.000000
# 3 -0.007810 -0.004542 0.016867 0.000000 -0.003485 0.000000
# 4 0.000000 0.000000 0.000000 0.042980 0.000000 -0.005065
# 5 0.004151 -0.001027 -0.003485 0.000000 0.040797 0.000000
# 6 0.000000 0.000000 0.000000 -0.005065 0.000000 0.028269
#
#
# Mechanical properties :
#
#
# Convention : Reuss Voigt Hill
#
# Bulk Modulus (GPa) = 71.44781 71.47979 71.46380
# Shear Modulus (GPa) = 24.55571 26.01554 25.28562
#
# Velocity S-wave (km/s) = 3.57537 3.68011 3.62812
# Velocity P-wave (km/s) = 7.36470 7.43429 7.39958
#
# Compressibility (1/GPa) = 0.01399623
#
# Stress axis : x y z
#
# Youngs Moduli (GPa) = 54.58358 65.51328 59.28697
#
# Poissons Ratio (x) = 0.38489 0.46304
# Poissons Ratio (y) = 0.32068 0.26931
# Poissons Ratio (z) = 0.42631 0.29759
#
# Static dielectric constant tensor:
#      x y z
#    x 3.340650 0.000000 -0.049160 
#    y 0.000000 3.637850 0.000000 
#    z -0.049160 0.000000 3.439200 
# 
# 
# High freq. dielectric constant tensor:
#      x y z
#    x 1.731660 0.000000 0.004080 
#    y 0.000000 1.758850 0.000000 
#    z 0.004080 0.000000 1.745680 
# 
# From -- ./inp_files/244313.got.cif
#   From: 2010.06.25/outbox.cif.g09.slc.cpg/sg12_123_cif.got.tgz:244313.got - 2010.06.28 00:19:55.
