data_PCOD8088333
_publ_section_title
;
Structure prediction by ZEFSAII (Michael W. Deem and Ramdas Pophale) SiO2 
 PCOD8088333
Probable space group: C 2/M
;
_chemical_formula_sum "Si O2"
_cell_formula_units_Z 56
_cell_length_a 26.309888
_cell_length_b 22.763148
_cell_length_c 11.133678
_cell_angle_alpha 90.000000
_cell_angle_beta 25.034355
_cell_angle_gamma 90.000000
_cell_volume 2821.605181
_symmetry_space_group_name_H-M "C 2/M"
_symmetry_group_IT_number 12
_symmetry_cell_setting 'monoclinic'
loop_
_space_group_symop_operation_xyz
x,y,z
-x,y,-z
-x,-y,-z
x,-y,z
1/2+x,1/2+y,z
1/2-x,1/2+y,-z
1/2-x,1/2-y,-z
1/2+x,1/2-y,z
loop_
_atom_site_type_symbol
_atom_site_label
_atom_site_fract_x
_atom_site_fract_y
_atom_site_fract_z
Si Si1 0.096213 0.603930 0.393129
Si Si2 0.410015 0.336758 0.413938
Si Si3 0.279866 0.434148 0.821848
Si Si4 0.701697 0.169395 0.673494
Si Si5 0.834821 0.795836 0.162282
Si Si6 0.920629 0.565479 0.951210
Si Si7 0.311964 0.225394 0.750345
O O1 0.097965 0.673856 0.405201
O O2 0.000000 0.585693 0.500000
O O3 0.053963 0.574813 0.609537
O O4 0.226214 0.580655 0.069212
O O5 0.386924 0.389849 0.557269
O O6 0.325385 0.342584 0.479463
O O7 0.390730 0.275319 0.521062
O O8 0.547616 0.336520 0.076608
O O9 0.332067 0.500000 0.710101
O O10 0.174747 0.425874 0.950601
O O11 0.732224 0.177141 0.468143
O O12 0.637392 0.228282 0.860386
O O13 0.609848 0.114525 0.883095
O O14 0.788793 0.799063 0.124653
O O15 0.912857 0.500000 0.024329
O O16 0.250000 0.250000 0.000000
#
# Coordination Sequence:
#
# PCOD8088333 Si02
#       7
#     8   8   8   8   8   8   8
#     4  10  19  32  53  78 108 138 174 223 274 323
#     4  10  19  33  55  80 105 139 176 217 267 320
#     4   9  17  31  50  78 109 136 178 223 262 315
#     4   9  19  36  54  80 106 137 182 221 262 318
#     4  10  21  35  54  76 110 144 172 218 269 320
#     4   9  17  31  56  82 104 137 180 231 273 305
#     4  11  22  33  51  83 109 137 173 219 270 320
#
# _framework density 19.846858999999998
#
# number of rings (size 3 to 8) (size 9 to 14) (size 15 to 20)
#    0.000    2.286    1.429    1.714    4.000    1.714 
#    0.000    2.857    0.000    8.571    0.000    0.000 
#    0.000    0.000    0.000    0.000    0.000    0.000 
#
# Total GULP energy -347170.980943 kJ/mol
# GULP energy per Si atom -12398.963605 kJ/mol
# Density = 1.980169 g / cm^3
# Si number density = 19.846859 Si / 1000 Ang^3
#
#
#
# Elastic Constant Matrix: (Units=GPa)
#
#
# Indices 1 2 3 4 5 6 
#
# 1 51.5707 9.9434 28.6495 0.0000 18.7684 0.0001
# 2 9.9434 129.5156 51.2683 -0.0001 12.9823 0.0001
# 3 28.6495 51.2683 102.5162 -0.0002 14.1839 0.0000
# 4 0.0000 -0.0001 -0.0002 31.2192 0.0000 1.5264
# 5 18.7684 12.9823 14.1839 0.0000 22.1509 -0.0001
# 6 0.0001 0.0001 0.0000 1.5264 -0.0001 20.7493
#
#
#
# Elastic Compliance Matrix: (Units=1/GPa)
#
#
# Indices 1 2 3 4 5 6 
#
# 1 0.031283 0.002665 -0.006794 0.000000 -0.023717 0.000000
# 2 0.002665 0.010016 -0.005079 0.000000 -0.004876 0.000000
# 3 -0.006794 -0.005079 0.014247 0.000000 -0.000390 0.000000
# 4 0.000000 0.000000 0.000000 0.032147 0.000000 -0.002365
# 5 -0.023717 -0.004876 -0.000390 0.000000 0.068348 0.000000
# 6 0.000000 0.000000 0.000000 -0.002365 0.000000 0.048368
#
#
# Mechanical properties :
#
#
# Convention : Reuss Voigt Hill
#
# Bulk Modulus (GPa) = 26.93230 51.48054 39.20642
# Shear Modulus (GPa) = 21.25841 27.73997 24.49919
#
# Velocity S-wave (km/s) = 3.27635 3.74264 3.51723
# Velocity P-wave (km/s) = 5.28320 6.68369 6.02428
#
# Compressibility (1/GPa) = 0.03713014
#
# Stress axis : x y z
#
# Youngs Moduli (GPa) = 31.96650 99.84304 70.18990
#
# Poissons Ratio (x) = -0.26607 0.47684
# Poissons Ratio (y) = -0.08519 0.35649
# Poissons Ratio (z) = 0.21717 0.50710
#
# Static dielectric constant tensor:
#      x y z
#    x 3.339900 0.000000 0.267690 
#    y 0.000000 3.568420 0.000000 
#    z 0.267690 0.000000 3.594130 
# 
# 
# High freq. dielectric constant tensor:
#      x y z
#    x 1.736460 0.000000 0.023180 
#    y 0.000000 1.771340 0.000000 
#    z 0.023180 0.000000 1.770620 
# 
# From -- ./inp_files/133168.got.cif
#   From: 2010.06.25/outbox.cif.g09.slc.cpg/sg12_67_cif.got.tgz:133168.got - 2010.06.28 00:19:55.
