data_PCOD8088929
_publ_section_title
;
Structure prediction by ZEFSAII (Michael W. Deem and Ramdas Pophale) SiO2 
 PCOD8088929
Probable space group: C 2/M
;
_chemical_formula_sum "Si O2"
_cell_formula_units_Z 64
_cell_length_a 18.301032
_cell_length_b 8.922135
_cell_length_c 22.758825
_cell_angle_alpha 90.000000
_cell_angle_beta 114.753491
_cell_angle_gamma 90.000000
_cell_volume 3374.709003
_symmetry_space_group_name_H-M "C 2/M"
_symmetry_group_IT_number 12
_symmetry_cell_setting 'monoclinic'
loop_
_space_group_symop_operation_xyz
x,y,z
-x,y,-z
-x,-y,-z
x,-y,z
1/2+x,1/2+y,z
1/2-x,1/2+y,-z
1/2-x,1/2-y,-z
1/2+x,1/2-y,z
loop_
_atom_site_type_symbol
_atom_site_label
_atom_site_fract_x
_atom_site_fract_y
_atom_site_fract_z
Si Si1 0.856799 0.826586 0.822125
Si Si2 0.872125 0.164914 0.316043
Si Si3 0.916928 0.669986 0.438777
Si Si4 0.176302 0.677650 0.941039
Si Si5 0.268311 0.676287 0.444872
Si Si6 0.704548 0.322106 0.827126
Si Si7 0.977788 0.827122 0.058834
Si Si8 0.692774 0.834347 0.303913
O O1 0.793508 0.731628 0.838758
O O2 0.856936 0.780180 0.753336
O O3 0.945517 0.793649 0.875103
O O4 0.833364 0.000000 0.820308
O O5 0.925936 0.276490 0.373725
O O6 0.861658 0.219550 0.245164
O O7 0.783512 0.156241 0.312488
O O8 0.912177 0.000000 0.331218
O O9 0.885701 0.500000 0.427927
O O10 0.855187 0.772454 0.452696
O O11 0.000000 0.685755 0.500000
O O12 0.186763 0.500000 0.944120
O O13 0.174357 0.738832 0.874503
O O14 0.093976 0.720331 0.945466
O O15 0.250000 0.750000 0.000000
O O16 0.270583 0.500000 0.453763
O O17 0.250000 0.750000 0.500000
O O18 0.198536 0.720322 0.373819
O O19 0.708664 0.500000 0.838782
O O20 0.950264 0.000000 0.054909
O O21 0.000000 0.786407 0.000000
O O22 0.653213 0.000000 0.286344
#
# Coordination Sequence:
#
# PCOD8088929 Si02
#       8
#     8   8   8   8   8   8   8   8
#     4  10  19  32  56  86 111 140 179 220 264 316
#     4   8  16  31  52  77 104 139 179 220 266 315
#     4  10  20  33  51  77 108 141 179 224 270 319
#     4  12  25  40  60  84 111 144 181 220 265 316
#     4  10  20  34  53  76 103 138 179 223 271 321
#     4  10  20  36  58  83 112 142 177 222 268 317
#     4  10  22  40  59  81 112 145 178 219 263 310
#     4   8  16  31  50  74 105 139 175 218 267 318
#
# _framework density 18.964597999999999
#
# number of rings (size 3 to 8) (size 9 to 14) (size 15 to 20)
#    0.000    2.250    0.000    4.875    0.000    8.750 
#    0.000    1.250    0.000    0.000    0.000    0.000 
#    0.000    0.000    0.000    0.000    0.000    0.000 
#
# Total GULP energy -396722.045200 kJ/mol
# GULP energy per Si atom -12397.563913 kJ/mol
# Density = 1.892143 g / cm^3
# Si number density = 18.964598 Si / 1000 Ang^3
#
#
#
# Elastic Constant Matrix: (Units=GPa)
#
#
# Indices 1 2 3 4 5 6 
#
# 1 67.9614 48.0819 55.0134 0.0000 -7.8900 0.0000
# 2 48.0819 120.0927 79.4242 0.0000 -2.0697 0.0000
# 3 55.0134 79.4242 167.4427 0.0000 -13.6879 0.0000
# 4 0.0000 0.0000 0.0000 33.8988 0.0000 -1.9705
# 5 -7.8900 -2.0697 -13.6879 0.0000 27.7567 0.0000
# 6 0.0000 0.0000 0.0000 -1.9705 0.0000 29.8400
#
#
#
# Elastic Compliance Matrix: (Units=1/GPa)
#
#
# Indices 1 2 3 4 5 6 
#
# 1 0.023133 -0.006386 -0.004243 0.000000 0.004007 0.000000
# 2 -0.006386 0.014005 -0.004802 0.000000 -0.003139 0.000000
# 3 -0.004243 -0.004802 0.009916 0.000000 0.003326 0.000000
# 4 0.000000 0.000000 0.000000 0.029613 0.000000 0.001956
# 5 0.004007 -0.003139 0.003326 0.000000 0.038572 0.000000
# 6 0.000000 0.000000 0.000000 0.001956 0.000000 0.033641
#
#
# Mechanical properties :
#
#
# Convention : Reuss Voigt Hill
#
# Bulk Modulus (GPa) = 61.76227 80.05953 70.91090
# Shear Modulus (GPa) = 27.00663 29.83092 28.41877
#
# Velocity S-wave (km/s) = 3.77776 3.97038 3.87527
# Velocity P-wave (km/s) = 7.18794 7.95773 7.58261
#
# Compressibility (1/GPa) = 0.01619111
#
# Stress axis : x y z
#
# Youngs Moduli (GPa) = 43.22917 71.40194 100.84880
#
# Poissons Ratio (x) = 0.45598 0.42795
# Poissons Ratio (y) = 0.27607 0.48424
# Poissons Ratio (z) = 0.18344 0.34284
#
# Static dielectric constant tensor:
#      x y z
#    x 3.074990 0.000000 -0.182730 
#    y 0.000000 3.620350 0.000000 
#    z -0.182730 0.000000 4.058390 
# 
# 
# High freq. dielectric constant tensor:
#      x y z
#    x 1.698870 0.000000 -0.007320 
#    y 0.000000 1.744630 0.000000 
#    z -0.007320 0.000000 1.760860 
# 
# From -- ./inp_files/345577.got.cif
#   From: 2010.06.25/outbox.cif.g09.slc.cpg/sg12_173_cif.got.tgz:345577.got - 2010.06.28 00:19:55.
