data_PCOD8088266
_publ_section_title
;
Structure prediction by ZEFSAII (Michael W. Deem and Ramdas Pophale) SiO2 
 PCOD8088266
Probable space group: C 2/M
;
_chemical_formula_sum "Si O2"
_cell_formula_units_Z 44
_cell_length_a 20.722775
_cell_length_b 7.784326
_cell_length_c 35.702988
_cell_angle_alpha 90.000000
_cell_angle_beta 157.614490
_cell_angle_gamma 90.000000
_cell_volume 2193.371071
_symmetry_space_group_name_H-M "C 2/M"
_symmetry_group_IT_number 12
_symmetry_cell_setting 'monoclinic'
loop_
_space_group_symop_operation_xyz
x,y,z
-x,y,-z
-x,-y,-z
x,-y,z
1/2+x,1/2+y,z
1/2-x,1/2+y,-z
1/2-x,1/2-y,-z
1/2+x,1/2-y,z
loop_
_atom_site_type_symbol
_atom_site_label
_atom_site_fract_x
_atom_site_fract_y
_atom_site_fract_z
Si Si1 0.893993 0.500000 0.269666
Si Si2 0.000000 0.739031 0.000000
Si Si3 0.100191 0.194569 0.591310
Si Si4 0.003315 0.695955 0.198510
Si Si5 0.494043 0.500000 0.057311
Si Si6 0.997400 0.000000 0.142213
Si Si7 0.899416 0.500000 0.355815
Si Si8 0.627686 0.313994 0.793059
O O1 0.694626 0.500000 0.166355
O O2 0.977599 0.500000 0.355820
O O3 0.946113 0.674088 0.275749
O O4 0.068662 0.839813 0.000477
O O5 0.829064 0.642203 0.896220
O O6 0.297101 0.219682 0.687973
O O7 0.037861 0.327601 0.589562
O O8 0.000000 0.237930 0.500000
O O9 0.062275 0.000000 0.584805
O O10 0.959784 0.500000 0.163230
O O11 0.937996 0.827031 0.131486
O O12 0.909461 0.742184 0.186037
O O13 0.413977 0.500000 0.055911
O O14 0.198066 0.000000 0.245598
O O15 0.537942 0.500000 0.738354
#
# Coordination Sequence:
#
# PCOD8088266 Si02
#       8
#     4   4   8   8   4   4   4   8
#     4   9  19  33  51  77 101 133 172 210 250 296
#     4   9  19  34  54  73  99 134 175 211 250 297
#     4   9  18  32  53  83 105 133 166 207 254 300
#     4  10  19  32  53  77 104 133 165 209 252 302
#     4   8  16  33  55  72  99 134 165 214 255 300
#     4   9  17  33  51  76 104 129 166 206 262 298
#     4   9  17  31  53  77 106 132 166 209 250 305
#     4  11  20  34  54  75  98 135 175 211 250 301
#
# _framework density 20.060444
#
# number of rings (size 3 to 8) (size 9 to 14) (size 15 to 20)
#    0.000    2.545    1.818    1.091    0.000    0.727 
#    0.000   10.909    0.000    1.091    0.000    0.000 
#    0.000    0.000    0.000    0.000    0.000    0.000 
#
# Total GULP energy -272560.651599 kJ/mol
# GULP energy per Si atom -12389.120527 kJ/mol
# Density = 2.001479 g / cm^3
# Si number density = 20.060444 Si / 1000 Ang^3
#
#
#
# Elastic Constant Matrix: (Units=GPa)
#
#
# Indices 1 2 3 4 5 6 
#
# 1 132.5156 76.0938 27.8753 0.0012 -39.8745 0.0036
# 2 76.0938 182.3576 31.7927 0.0038 -30.7597 0.0109
# 3 27.8753 31.7927 39.5770 0.0121 -20.8872 0.0028
# 4 0.0012 0.0038 0.0121 5.8816 -0.0080 7.7706
# 5 -39.8745 -30.7597 -20.8872 -0.0080 32.4306 -0.0024
# 6 0.0036 0.0109 0.0028 7.7706 -0.0024 14.3930
#
#
#
# Elastic Compliance Matrix: (Units=1/GPa)
#
#
# Indices 1 2 3 4 5 6 
#
# 1 0.013532 -0.003415 0.000430 0.000053 0.013676 -0.000027
# 2 -0.003415 0.007633 -0.003214 0.000032 0.000971 -0.000021
# 3 0.000430 -0.003214 0.039716 -0.000161 0.023060 0.000085
# 4 0.000053 0.000032 -0.000161 0.592977 0.000114 -0.320138
# 5 0.013676 0.000971 0.023060 0.000114 0.063423 -0.000059
# 6 -0.000027 -0.000021 0.000085 -0.320138 -0.000059 0.242315
#
#
# Mechanical properties :
#
#
# Convention : Reuss Voigt Hill
#
# Bulk Modulus (GPa) = 20.62572 69.55265 45.08918
# Shear Modulus (GPa) = 5.05994 25.12027 15.09011
#
# Velocity S-wave (km/s) = 1.58991 3.54252 2.74566
# Velocity P-wave (km/s) = 3.69791 7.17492 5.70763
#
# Compressibility (1/GPa) = 0.04848315
#
# Stress axis : x y z
#
# Youngs Moduli (GPa) = 73.90030 131.01514 25.17854
#
# Poissons Ratio (x) = 0.44737 -0.01082
# Poissons Ratio (y) = 0.25234 0.08092
# Poissons Ratio (z) = -0.03176 0.42107
#
# Static dielectric constant tensor:
#      x y z
#    x 3.743630 -0.000020 -0.310960 
#    y -0.000020 3.888950 0.000010 
#    z -0.310960 0.000010 3.467330 
# 
# 
# High freq. dielectric constant tensor:
#      x y z
#    x 1.771660 0.000000 -0.009510 
#    y 0.000000 1.797400 0.000000 
#    z -0.009510 0.000000 1.749430 
# 
# From -- ./inp_files/377863.got.cif
#   From: 2010.06.25/outbox.cif.g09.slc.cpg/sg12_189_cif.got.tgz:377863.got - 2010.06.28 00:19:55.
