data_PCOD8088447
_publ_section_title
;
Structure prediction by ZEFSAII (Michael W. Deem and Ramdas Pophale) SiO2 
 PCOD8088447
Probable space group: C 2/M
;
_chemical_formula_sum "Si O2"
_cell_formula_units_Z 64
_cell_length_a 18.670387
_cell_length_b 9.330525
_cell_length_c 29.495183
_cell_angle_alpha 90.000000
_cell_angle_beta 137.345182
_cell_angle_gamma 90.000000
_cell_volume 3481.537087
_symmetry_space_group_name_H-M "C 2/M"
_symmetry_group_IT_number 12
_symmetry_cell_setting 'monoclinic'
loop_
_space_group_symop_operation_xyz
x,y,z
-x,y,-z
-x,-y,-z
x,-y,z
1/2+x,1/2+y,z
1/2-x,1/2+y,-z
1/2-x,1/2-y,-z
1/2+x,1/2-y,z
loop_
_atom_site_type_symbol
_atom_site_label
_atom_site_fract_x
_atom_site_fract_y
_atom_site_fract_z
Si Si1 0.590606 0.663089 0.776721
Si Si2 0.156995 0.834219 0.981917
Si Si3 0.296041 0.664743 0.893311
Si Si4 0.891038 0.662533 0.690118
Si Si5 0.653826 0.168357 0.432768
Si Si6 0.419715 0.668563 0.861793
Si Si7 0.949948 0.836951 0.347160
Si Si8 0.272897 0.164210 0.724534
O O1 0.591584 0.500000 0.793735
O O2 0.693318 0.738185 0.843582
O O3 0.487563 0.737155 0.749789
O O4 0.588033 0.678185 0.721838
O O5 0.153716 0.809275 0.034258
O O6 0.175353 0.000000 0.978971
O O7 0.250000 0.750000 0.000000
O O8 0.041369 0.782260 0.911228
O O9 0.262091 0.500000 0.870683
O O10 0.379911 0.710599 0.893730
O O11 0.933529 0.500000 0.708542
O O12 0.842528 0.703967 0.618933
O O13 0.800146 0.684065 0.684635
O O14 0.750000 0.250000 0.500000
O O15 0.545373 0.230148 0.403290
O O16 0.661143 0.000000 0.446545
O O17 0.409832 0.500000 0.850016
O O18 0.348133 0.743055 0.791039
O O19 0.849230 0.788083 0.329623
O O20 0.985530 0.000000 0.374425
O O21 0.284799 0.000000 0.746225
#
# Coordination Sequence:
#
# PCOD8088447 Si02
#       8
#     8   8   8   8   8   8   8   8
#     4  10  19  32  53  81 109 138 178 228 272 317
#     4  10  23  40  55  76 106 142 184 231 282 335
#     4  10  20  36  57  76 103 143 184 224 274 335
#     4   9  20  36  55  80 112 148 183 219 267 325
#     4  10  20  36  59  84 111 147 187 222 262 316
#     4  10  21  37  57  79 105 142 187 229 274 330
#     4   9  18  34  55  81 111 142 177 220 267 317
#     4  10  20  36  57  82 113 144 179 226 277 325
#
# _framework density 18.382684999999999
#
# number of rings (size 3 to 8) (size 9 to 14) (size 15 to 20)
#    0.000    2.250    1.250    1.125    1.750    4.500 
#    0.000    0.625    0.000    6.000    0.000    0.000 
#    0.000    0.000    0.000    0.000    0.000    0.000 
#
# Total GULP energy -396828.419568 kJ/mol
# GULP energy per Si atom -12400.888112 kJ/mol
# Density = 1.834085 g / cm^3
# Si number density = 18.382685 Si / 1000 Ang^3
#
#
#
# Elastic Constant Matrix: (Units=GPa)
#
#
# Indices 1 2 3 4 5 6 
#
# 1 123.6227 45.3392 56.9051 0.0000 17.6365 0.0000
# 2 45.3392 81.1656 61.2929 0.0000 12.9670 0.0000
# 3 56.9051 61.2929 108.9668 0.0000 23.3731 0.0000
# 4 0.0000 0.0000 0.0000 35.2905 0.0000 4.5901
# 5 17.6365 12.9670 23.3731 0.0000 24.6322 0.0000
# 6 0.0000 0.0000 0.0000 4.5901 0.0000 27.4763
#
#
#
# Elastic Compliance Matrix: (Units=1/GPa)
#
#
# Indices 1 2 3 4 5 6 
#
# 1 0.011291 -0.003236 -0.003399 0.000000 -0.003155 0.000000
# 2 -0.003236 0.022347 -0.011116 0.000000 0.001101 0.000000
# 3 -0.003399 -0.011116 0.019370 0.000000 -0.010094 0.000000
# 4 0.000000 0.000000 0.000000 0.028966 0.000000 -0.004839
# 5 -0.003155 0.001101 -0.010094 0.000000 0.051855 0.000000
# 6 0.000000 0.000000 0.000000 -0.004839 0.000000 0.037203
#
#
# Mechanical properties :
#
#
# Convention : Reuss Voigt Hill
#
# Bulk Modulus (GPa) = 57.12673 71.20326 64.16500
# Shear Modulus (GPa) = 23.54387 27.49432 25.51910
#
# Velocity S-wave (km/s) = 3.58266 3.87158 3.72992
# Velocity P-wave (km/s) = 6.94678 7.66834 7.31646
#
# Compressibility (1/GPa) = 0.01750494
#
# Stress axis : x y z
#
# Youngs Moduli (GPa) = 88.56747 44.74963 51.62553
#
# Poissons Ratio (x) = 0.14481 0.17550
# Poissons Ratio (y) = 0.28660 0.57387
# Poissons Ratio (z) = 0.30108 0.49744
#
# Static dielectric constant tensor:
#      x y z
#    x 3.538410 0.000000 0.107010 
#    y 0.000000 3.456130 0.000000 
#    z 0.107010 0.000000 3.276880 
# 
# 
# High freq. dielectric constant tensor:
#      x y z
#    x 1.719230 0.000000 0.008830 
#    y 0.000000 1.712340 0.000000 
#    z 0.008830 0.000000 1.703270 
# 
# From -- ./inp_files/378264.got.cif
#   From: 2010.06.25/outbox.cif.g09.slc.cpg/sg12_190_cif.got.tgz:378264.got - 2010.06.28 00:19:55.
