data_PCOD8088183
_publ_section_title
;
Structure prediction by ZEFSAII (Michael W. Deem and Ramdas Pophale) SiO2 
 PCOD8088183
Probable space group: C 2/M
;
_chemical_formula_sum "Si O2"
_cell_formula_units_Z 56
_cell_length_a 30.862314
_cell_length_b 17.459987
_cell_length_c 8.966645
_cell_angle_alpha 90.000000
_cell_angle_beta 32.429204
_cell_angle_gamma 90.000000
_cell_volume 2591.047770
_symmetry_space_group_name_H-M "C 2/M"
_symmetry_group_IT_number 12
_symmetry_cell_setting 'monoclinic'
loop_
_space_group_symop_operation_xyz
x,y,z
-x,y,-z
-x,-y,-z
x,-y,z
1/2+x,1/2+y,z
1/2-x,1/2+y,-z
1/2-x,1/2-y,-z
1/2+x,1/2-y,z
loop_
_atom_site_type_symbol
_atom_site_label
_atom_site_fract_x
_atom_site_fract_y
_atom_site_fract_z
Si Si1 0.326954 0.412674 0.843309
Si Si2 0.142913 0.273323 0.469083
Si Si3 0.580138 0.089957 0.180404
Si Si4 0.587512 0.914203 0.814248
Si Si5 0.791468 0.677633 0.008813
Si Si6 0.074703 0.915003 0.175049
Si Si7 0.528628 0.358132 0.766962
O O1 0.304514 0.500000 0.930205
O O2 0.352555 0.380289 0.933850
O O3 0.399744 0.406181 0.514091
O O4 0.248294 0.372424 0.008380
O O5 0.140059 0.353355 0.567433
O O6 0.146905 0.274956 0.274885
O O7 0.060508 0.225326 0.729923
O O8 0.223713 0.228243 0.290286
O O9 0.500000 0.119605 0.500000
O O10 0.660844 0.128548 0.009459
O O11 0.588923 0.000000 0.179920
O O12 0.576665 0.112081 0.016967
O O13 0.626958 0.000000 0.690425
O O14 0.500000 0.918279 0.000000
O O15 0.000000 0.926888 0.500000
O O16 0.049611 0.855808 0.116567
O O17 0.097019 0.000000 0.045715
O O18 0.500000 0.401166 0.000000
#
# Coordination Sequence:
#
# PCOD8088183 Si02
#       7
#     8   8   8   8   8   8   8
#     4   9  18  34  57  83 115 153 187 226 277 332
#     4  10  22  39  56  83 118 157 195 233 293 351
#     4  10  21  38  64  93 115 146 196 249 299 350
#     4  10  21  39  62  87 116 149 193 250 303 352
#     4  10  21  39  59  83 118 153 194 242 289 348
#     4   8  15  30  52  79 110 146 187 222 260 319
#     4  10  19  32  52  80 118 152 187 229 270 324
#
# _framework density 21.612877999999998
#
# number of rings (size 3 to 8) (size 9 to 14) (size 15 to 20)
#    0.000    2.429    0.000    3.000    0.000    4.000 
#    0.000   23.571    0.000    3.429    0.000    0.000 
#    0.000    0.571    0.000    0.000    0.000    0.143 
#
# Total GULP energy -346903.951409 kJ/mol
# GULP energy per Si atom -12389.426836 kJ/mol
# Density = 2.156369 g / cm^3
# Si number density = 21.612878 Si / 1000 Ang^3
#
#
#
# Elastic Constant Matrix: (Units=GPa)
#
#
# Indices 1 2 3 4 5 6 
#
# 1 165.2577 49.4949 48.8595 0.0000 -2.4046 0.0000
# 2 49.4949 81.7453 36.3806 0.0000 -2.5167 0.0000
# 3 48.8595 36.3806 73.6281 0.0000 6.7571 0.0000
# 4 0.0000 0.0000 0.0000 26.3879 0.0000 0.3834
# 5 -2.4046 -2.5167 6.7571 0.0000 30.1507 0.0000
# 6 0.0000 0.0000 0.0000 0.3834 0.0000 31.0395
#
#
#
# Elastic Compliance Matrix: (Units=1/GPa)
#
#
# Indices 1 2 3 4 5 6 
#
# 1 0.008194 -0.003139 -0.004005 0.000000 0.001289 0.000000
# 2 -0.003139 0.017175 -0.006648 0.000000 0.002673 0.000000
# 3 -0.004005 -0.006648 0.020016 0.000000 -0.005360 0.000000
# 4 0.000000 0.000000 0.000000 0.037903 0.000000 -0.000468
# 5 0.001289 0.002673 -0.005360 0.000000 0.034694 0.000000
# 6 0.000000 0.000000 0.000000 -0.000468 0.000000 0.032223
#
#
# Mechanical properties :
#
#
# Convention : Reuss Voigt Hill
#
# Bulk Modulus (GPa) = 56.17841 65.56679 60.87260
# Shear Modulus (GPa) = 27.21473 29.90871 28.56172
#
# Velocity S-wave (km/s) = 3.55236 3.72403 3.63921
# Velocity P-wave (km/s) = 6.54791 6.99242 6.77381
#
# Compressibility (1/GPa) = 0.01780043
#
# Stress axis : x y z
#
# Youngs Moduli (GPa) = 122.03769 58.22366 49.95920
#
# Poissons Ratio (x) = 0.18279 0.20007
# Poissons Ratio (y) = 0.38313 0.33215
# Poissons Ratio (z) = 0.48873 0.38710
#
# Static dielectric constant tensor:
#      x y z
#    x 4.134680 0.000000 -0.117140 
#    y 0.000000 3.997690 0.000000 
#    z -0.117140 0.000000 3.711600 
# 
# 
# High freq. dielectric constant tensor:
#      x y z
#    x 1.848820 0.000000 -0.001810 
#    y 0.000000 1.842650 0.000000 
#    z -0.001810 0.000000 1.832160 
# 
# From -- ./inp_files/113360.got.cif
#   From: 2010.06.25/outbox.cif.g09.slc.cpg/sg12_57_cif.got.tgz:113360.got - 2010.06.28 00:19:55.
