data_PCOD8088983
_publ_section_title
;
Structure prediction by ZEFSAII (Michael W. Deem and Ramdas Pophale) SiO2 
 PCOD8088983
Probable space group: C 2/M
;
_chemical_formula_sum "Si O2"
_cell_formula_units_Z 56
_cell_length_a 9.031008
_cell_length_b 20.075526
_cell_length_c 14.299924
_cell_angle_alpha 90.000000
_cell_angle_beta 87.400067
_cell_angle_gamma 90.000000
_cell_volume 2589.939423
_symmetry_space_group_name_H-M "C 2/M"
_symmetry_group_IT_number 12
_symmetry_cell_setting 'monoclinic'
loop_
_space_group_symop_operation_xyz
x,y,z
-x,y,-z
-x,-y,-z
x,-y,z
1/2+x,1/2+y,z
1/2-x,1/2+y,-z
1/2-x,1/2-y,-z
1/2+x,1/2-y,z
loop_
_atom_site_type_symbol
_atom_site_label
_atom_site_fract_x
_atom_site_fract_y
_atom_site_fract_z
Si Si1 0.566500 0.077691 0.742896
Si Si2 0.044371 0.808533 0.892282
Si Si3 0.525667 0.395533 0.399177
Si Si4 0.328528 0.831504 0.423735
Si Si5 0.115781 0.928947 0.204247
Si Si6 0.755755 0.191160 0.378621
Si Si7 0.630650 0.187065 0.185114
O O1 0.582783 0.114484 0.641187
O O2 0.710008 0.087555 0.804239
O O3 0.437238 0.112482 0.807746
O O4 0.528517 0.000000 0.726316
O O5 0.221988 0.812039 0.881826
O O6 0.976069 0.869668 0.837296
O O7 0.988376 0.738522 0.853231
O O8 0.000000 0.816363 0.000000
O O9 0.500000 0.433207 0.500000
O O10 0.650332 0.340076 0.417347
O O11 0.582347 0.442754 0.315134
O O12 0.374312 0.366803 0.360054
O O13 0.359155 0.832951 0.535703
O O14 0.357696 0.755724 0.394170
O O15 0.083069 0.000000 0.154244
O O16 0.662712 0.208087 0.289840
#
# Coordination Sequence:
#
# PCOD8088983 Si02
#       7
#     8   8   8   8   8   8   8
#     4  10  23  42  64  93 134 183 222 265 324 389
#     4  12  26  45  71  99 127 164 215 277 345 401
#     4   9  17  33  55  89 126 168 210 256 307 375
#     4   9  19  33  56  87 133 171 222 257 313 377
#     4  10  21  41  65  92 129 170 212 261 322 390
#     4  10  19  32  57  94 126 171 214 269 318 375
#     4  12  24  42  67  93 129 163 215 273 331 394
#
# _framework density 21.622128
#
# number of rings (size 3 to 8) (size 9 to 14) (size 15 to 20)
#    0.000    1.714    1.429    3.857    2.000    1.714 
#    0.000    3.571    0.000    2.143    0.000    0.000 
#    0.000    0.000    0.000    0.000    0.000    0.000 
#
# Total GULP energy -346958.165009 kJ/mol
# GULP energy per Si atom -12391.363036 kJ/mol
# Density = 2.157292 g / cm^3
# Si number density = 21.622128 Si / 1000 Ang^3
#
#
#
# Elastic Constant Matrix: (Units=GPa)
#
#
# Indices 1 2 3 4 5 6 
#
# 1 85.0474 35.4790 37.0434 0.0000 -32.0223 0.0000
# 2 35.4790 126.0509 35.3406 0.0000 -16.4026 0.0000
# 3 37.0434 35.3406 99.7136 0.0000 -15.1179 0.0000
# 4 0.0000 0.0000 0.0000 2.4994 0.0000 -0.9947
# 5 -32.0223 -16.4026 -15.1179 0.0000 27.9813 0.0000
# 6 0.0000 0.0000 0.0000 -0.9947 0.0000 17.9175
#
#
#
# Elastic Compliance Matrix: (Units=1/GPa)
#
#
# Indices 1 2 3 4 5 6 
#
# 1 0.023239 -0.002349 -0.004332 0.000000 0.022877 0.000000
# 2 -0.002349 0.009431 -0.002221 0.000000 0.001639 0.000000
# 3 -0.004332 -0.002221 0.012500 0.000000 0.000494 0.000000
# 4 0.000000 0.000000 0.000000 0.409131 0.000000 0.022714
# 5 0.022877 0.001639 0.000494 0.000000 0.063148 0.000000
# 6 0.000000 0.000000 0.000000 0.022714 0.000000 0.057072
#
#
# Mechanical properties :
#
#
# Convention : Reuss Voigt Hill
#
# Bulk Modulus (GPa) = 36.54333 58.50423 47.52378
# Shear Modulus (GPa) = 8.31328 23.20956 15.76142
#
# Velocity S-wave (km/s) = 1.96294 3.27986 2.70283
# Velocity P-wave (km/s) = 4.69842 6.43891 5.63625
#
# Compressibility (1/GPa) = 0.02736478
#
# Stress axis : x y z
#
# Youngs Moduli (GPa) = 43.03109 106.03727 79.99904
#
# Poissons Ratio (x) = 0.24913 0.34656
# Poissons Ratio (y) = 0.10110 0.17768
# Poissons Ratio (z) = 0.18641 0.23551
#
# Static dielectric constant tensor:
#      x y z
#    x 4.038300 0.000000 -0.101280 
#    y 0.000000 3.675370 0.000000 
#    z -0.101280 0.000000 3.888210 
# 
# 
# High freq. dielectric constant tensor:
#      x y z
#    x 1.858730 0.000000 -0.006160 
#    y 0.000000 1.838770 0.000000 
#    z -0.006160 0.000000 1.832800 
# 
# From -- ./inp_files/197535.got.cif
#   From: 2010.06.25/outbox.cif.g09.slc.cpg/sg12_99_cif.got.tgz:197535.got - 2010.06.28 00:19:55.
