data_PCOD8088875
_publ_section_title
;
Structure prediction by ZEFSAII (Michael W. Deem and Ramdas Pophale) SiO2 
 PCOD8088875
Probable space group: C 2/M
;
_chemical_formula_sum "Si O2"
_cell_formula_units_Z 56
_cell_length_a 13.693964
_cell_length_b 21.994987
_cell_length_c 18.557929
_cell_angle_alpha 90.000000
_cell_angle_beta 148.251944
_cell_angle_gamma 90.000000
_cell_volume 2941.175386
_symmetry_space_group_name_H-M "C 2/M"
_symmetry_group_IT_number 12
_symmetry_cell_setting 'monoclinic'
loop_
_space_group_symop_operation_xyz
x,y,z
-x,y,-z
-x,-y,-z
x,-y,z
1/2+x,1/2+y,z
1/2-x,1/2+y,-z
1/2-x,1/2-y,-z
1/2+x,1/2-y,z
loop_
_atom_site_type_symbol
_atom_site_label
_atom_site_fract_x
_atom_site_fract_y
_atom_site_fract_z
Si Si1 0.049219 0.213063 0.187470
Si Si2 0.083579 0.568146 0.244800
Si Si3 0.184603 0.932791 0.466137
Si Si4 0.663713 0.177542 0.902387
Si Si5 0.141934 0.339784 0.525232
Si Si6 0.663418 0.227952 0.745066
Si Si7 0.113853 0.143292 0.644079
O O1 0.174290 0.196723 0.335183
O O2 0.168153 0.195413 0.191626
O O3 0.997841 0.284950 0.157476
O O4 0.856946 0.175538 0.067193
O O5 0.030611 0.500000 0.184523
O O6 0.185354 0.562822 0.383686
O O7 0.211478 0.601139 0.266027
O O8 0.898959 0.607876 0.143980
O O9 0.296212 0.903000 0.470547
O O10 0.004858 0.894809 0.373902
O O11 0.123865 0.000000 0.403215
O O12 0.698807 0.215316 0.850831
O O13 0.000000 0.354784 0.500000
O O14 0.038593 0.298511 0.401310
O O15 0.673891 0.297731 0.726512
O O16 0.000000 0.161923 0.500000
#
# Coordination Sequence:
#
# PCOD8088875 Si02
#       7
#     8   8   8   8   8   8   8
#     4  10  22  36  53  86 115 144 185 235 292 333
#     4  10  20  36  57  83 116 153 191 228 278 342
#     4  10  20  34  54  82 114 149 191 234 281 336
#     4  11  21  36  57  82 116 152 184 233 284 339
#     4  10  21  35  56  83 110 145 186 238 282 332
#     4  11  20  34  59  85 114 142 186 237 285 334
#     4  10  19  32  55  87 116 146 183 238 290 336
#
# _framework density 19.040008
#
# number of rings (size 3 to 8) (size 9 to 14) (size 15 to 20)
#    0.000    1.714    2.857    3.000    2.000    3.143 
#    0.000    0.714    0.000    2.571    0.000    4.000 
#    0.000    0.000    0.000    0.000    0.000    0.000 
#
# Total GULP energy -347128.919673 kJ/mol
# GULP energy per Si atom -12397.461417 kJ/mol
# Density = 1.899667 g / cm^3
# Si number density = 19.040008 Si / 1000 Ang^3
#
#
#
# Elastic Constant Matrix: (Units=GPa)
#
#
# Indices 1 2 3 4 5 6 
#
# 1 63.3814 34.3840 29.1777 -0.0028 9.3541 -0.0012
# 2 34.3840 118.6280 27.2568 -0.0059 13.7576 -0.0017
# 3 29.1777 27.2568 68.1202 -0.0195 10.0464 -0.0091
# 4 -0.0028 -0.0059 -0.0195 30.4976 -0.0058 12.0042
# 5 9.3541 13.7576 10.0464 -0.0058 17.3705 -0.0018
# 6 -0.0012 -0.0017 -0.0091 12.0042 -0.0018 41.8441
#
#
#
# Elastic Compliance Matrix: (Units=1/GPa)
#
#
# Indices 1 2 3 4 5 6 
#
# 1 0.021979 -0.004237 -0.007072 -0.000004 -0.004391 0.000000
# 2 -0.004237 0.010644 -0.001681 0.000000 -0.005177 0.000000
# 3 -0.007072 -0.001681 0.019267 0.000010 -0.006004 0.000001
# 4 -0.000004 0.000000 0.000010 0.036963 0.000008 -0.010604
# 5 -0.004391 -0.005177 -0.006004 0.000008 0.067506 -0.000001
# 6 0.000000 0.000000 0.000001 -0.010604 -0.000001 0.026940
#
#
# Mechanical properties :
#
#
# Convention : Reuss Voigt Hill
#
# Bulk Modulus (GPa) = 38.59195 47.97407 43.28301
# Shear Modulus (GPa) = 22.94468 28.56317 25.75392
#
# Velocity S-wave (km/s) = 3.47519 3.87740 3.68179
# Velocity P-wave (km/s) = 6.03452 6.73029 6.39188
#
# Compressibility (1/GPa) = 0.02591214
#
# Stress axis : x y z
#
# Youngs Moduli (GPa) = 45.49748 93.94732 51.90234
#
# Poissons Ratio (x) = 0.39802 0.36703
# Poissons Ratio (y) = 0.19276 0.08725
# Poissons Ratio (z) = 0.32174 0.15792
#
# Static dielectric constant tensor:
#      x y z
#    x 3.536590 -0.000010 0.145340 
#    y -0.000010 3.596500 0.000000 
#    z 0.145340 0.000000 3.371160 
# 
# 
# High freq. dielectric constant tensor:
#      x y z
#    x 1.746170 0.000000 0.014120 
#    y 0.000000 1.727610 0.000000 
#    z 0.014120 0.000000 1.727360 
# 
# From -- ./inp_files/217649.got.cif
#   From: 2010.06.25/outbox.cif.g09.slc.cpg/sg12_109_cif.got.tgz:217649.got - 2010.06.28 00:19:55.
