data_PCOD8088346
_publ_section_title
;
Structure prediction by ZEFSAII (Michael W. Deem and Ramdas Pophale) SiO2 
 PCOD8088346
Probable space group: C 2/M
;
_chemical_formula_sum "Si O2"
_cell_formula_units_Z 56
_cell_length_a 14.454885
_cell_length_b 8.978923
_cell_length_c 29.852224
_cell_angle_alpha 90.000000
_cell_angle_beta 126.872125
_cell_angle_gamma 90.000000
_cell_volume 3099.509016
_symmetry_space_group_name_H-M "C 2/M"
_symmetry_group_IT_number 12
_symmetry_cell_setting 'monoclinic'
loop_
_space_group_symop_operation_xyz
x,y,z
-x,y,-z
-x,-y,-z
x,-y,z
1/2+x,1/2+y,z
1/2-x,1/2+y,-z
1/2-x,1/2-y,-z
1/2+x,1/2-y,z
loop_
_atom_site_type_symbol
_atom_site_label
_atom_site_fract_x
_atom_site_fract_y
_atom_site_fract_z
Si Si1 0.665983 0.825415 0.352072
Si Si2 0.783767 0.322932 0.732337
Si Si3 0.803658 0.668887 0.057439
Si Si4 0.597814 0.669795 0.062168
Si Si5 0.042977 0.678112 0.647876
Si Si6 0.425213 0.675623 0.435602
Si Si7 0.558404 0.176248 0.141196
O O1 0.656075 0.776488 0.297143
O O2 0.562733 0.758049 0.352276
O O3 0.792558 0.775753 0.406639
O O4 0.653640 0.000000 0.352408
O O5 0.763465 0.500000 0.728241
O O6 0.660944 0.242858 0.702681
O O7 0.866590 0.262412 0.795690
O O8 0.820186 0.500000 0.046770
O O9 0.722842 0.682278 0.076712
O O10 0.927378 0.737331 0.107218
O O11 0.750000 0.750000 0.000000
O O12 0.565352 0.500000 0.065205
O O13 0.609930 0.767547 0.109697
O O14 0.500000 0.733681 0.000000
O O15 0.048630 0.500000 0.649187
O O16 0.023525 0.737306 0.591988
O O17 0.500000 0.722295 0.500000
O O18 0.432413 0.500000 0.427426
O O19 0.562481 0.000000 0.143342
#
# Coordination Sequence:
#
# PCOD8088346 Si02
#       7
#     8   8   8   8   8   8   8
#     4   8  16  32  53  74 101 137 171 207 253 305
#     4   9  19  37  54  71 100 135 173 212 254 307
#     4  10  20  34  52  74 100 131 164 199 248 306
#     4  10  20  34  52  75 102 131 160 199 254 307
#     4  10  19  32  53  79 104 135 173 215 261 297
#     4   9  18  34  54  76 106 145 179 206 248 305
#     4  10  21  35  54  77  99 131 172 212 251 301
#
# _framework density 18.067377
#
# number of rings (size 3 to 8) (size 9 to 14) (size 15 to 20)
#    0.000    2.571    1.429    1.286    0.000    3.429 
#    0.000    8.571    0.000    0.000    0.000    0.000 
#    0.000    0.000    0.000    0.000    0.000    0.000 
#
# Total GULP energy -347139.620699 kJ/mol
# GULP energy per Si atom -12397.843596 kJ/mol
# Density = 1.802626 g / cm^3
# Si number density = 18.067377 Si / 1000 Ang^3
#
#
#
# Elastic Constant Matrix: (Units=GPa)
#
#
# Indices 1 2 3 4 5 6 
#
# 1 147.1937 29.5924 78.1768 0.0000 2.9263 0.0000
# 2 29.5924 27.5479 32.4669 0.0000 1.1545 0.0000
# 3 78.1768 32.4669 183.7725 0.0000 0.2676 0.0000
# 4 0.0000 0.0000 0.0000 26.3263 0.0000 -2.6429
# 5 2.9263 1.1545 0.2676 0.0000 19.2178 0.0000
# 6 0.0000 0.0000 0.0000 -2.6429 0.0000 26.9204
#
#
#
# Elastic Compliance Matrix: (Units=1/GPa)
#
#
# Indices 1 2 3 4 5 6 
#
# 1 0.009774 -0.007020 -0.002916 0.000000 -0.001026 0.000000
# 2 -0.007020 0.051022 -0.006025 0.000000 -0.001912 0.000000
# 3 -0.002916 -0.006025 0.007746 0.000000 0.000698 0.000000
# 4 0.000000 0.000000 0.000000 0.038363 0.000000 0.003766
# 5 -0.001026 -0.001912 0.000698 0.000000 0.052297 0.000000
# 6 0.000000 0.000000 0.000000 0.003766 0.000000 0.037516
#
#
# Mechanical properties :
#
#
# Convention : Reuss Voigt Hill
#
# Bulk Modulus (GPa) = 27.30759 70.99848 49.15303
# Shear Modulus (GPa) = 20.76009 29.04476 24.90242
#
# Velocity S-wave (km/s) = 3.39342 4.01381 3.71659
# Velocity P-wave (km/s) = 5.52276 7.80146 6.75883
#
# Compressibility (1/GPa) = 0.03661986
#
# Stress axis : x y z
#
# Youngs Moduli (GPa) = 102.30851 19.59932 129.10639
#
# Poissons Ratio (x) = 0.13758 0.37652
# Poissons Ratio (y) = 0.71817 0.77787
# Poissons Ratio (z) = 0.29837 0.11809
#
# Static dielectric constant tensor:
#      x y z
#    x 3.422530 0.000000 0.073570 
#    y 0.000000 3.149320 0.000000 
#    z 0.073570 0.000000 3.470490 
# 
# 
# High freq. dielectric constant tensor:
#      x y z
#    x 1.707170 0.000000 0.003830 
#    y 0.000000 1.678070 0.000000 
#    z 0.003830 0.000000 1.703370 
# 
# From -- ./inp_files/359653.got.cif
#   From: 2010.06.25/outbox.cif.g09.slc.cpg/sg12_180_cif.got.tgz:359653.got - 2010.06.28 00:19:55.
