data_PCOD8088109
_publ_section_title
;
Structure prediction by ZEFSAII (Michael W. Deem and Ramdas Pophale) SiO2 
 PCOD8088109
Probable space group: C 2/M
;
_chemical_formula_sum "Si O2"
_cell_formula_units_Z 64
_cell_length_a 20.391859
_cell_length_b 9.335162
_cell_length_c 19.018949
_cell_angle_alpha 90.000000
_cell_angle_beta 90.768473
_cell_angle_gamma 90.000000
_cell_volume 3620.146352
_symmetry_space_group_name_H-M "C 2/M"
_symmetry_group_IT_number 12
_symmetry_cell_setting 'monoclinic'
loop_
_space_group_symop_operation_xyz
x,y,z
-x,y,-z
-x,-y,-z
x,-y,z
1/2+x,1/2+y,z
1/2-x,1/2+y,-z
1/2-x,1/2-y,-z
1/2+x,1/2-y,z
loop_
_atom_site_type_symbol
_atom_site_label
_atom_site_fract_x
_atom_site_fract_y
_atom_site_fract_z
Si Si1 0.610144 0.665148 0.815247
Si Si2 0.564628 0.332508 0.543534
Si Si3 0.929844 0.834810 0.032049
Si Si4 0.310346 0.832973 0.967753
Si Si5 0.192965 0.834259 0.462504
Si Si6 0.108357 0.330482 0.677594
Si Si7 0.739854 0.162109 0.183026
Si Si8 0.240914 0.164765 0.314737
O O1 0.603229 0.500000 0.791720
O O2 0.567631 0.696966 0.884379
O O3 0.584337 0.765175 0.751636
O O4 0.685394 0.704322 0.835280
O O5 0.500000 0.291776 0.500000
O O6 0.566766 0.500000 0.563394
O O7 0.623785 0.287744 0.493187
O O8 0.566492 0.240735 0.614758
O O9 0.909010 0.000000 0.019099
O O10 0.878579 0.731385 0.993914
O O11 0.000000 0.800564 0.000000
O O12 0.306868 0.812239 0.883911
O O13 0.305776 0.000000 0.988518
O O14 0.250000 0.750000 0.000000
O O15 0.250000 0.750000 0.500000
O O16 0.193909 0.799231 0.379521
O O17 0.207746 0.000000 0.475579
O O18 0.096403 0.500000 0.677471
O O19 0.184457 0.288539 0.666562
O O20 0.712297 0.253974 0.247120
O O21 0.737559 0.000000 0.208797
O O22 0.239823 0.000000 0.294469
#
# Coordination Sequence:
#
# PCOD8088109 Si02
#       8
#     8   8   8   8   8   8   8   8
#     4   9  17  33  54  77 106 140 179 218 263 322
#     4  10  21  36  54  77 106 142 178 213 260 319
#     4  10  21  38  58  82 112 146 185 227 275 330
#     4  11  21  35  56  82 112 143 183 229 275 326
#     4  10  19  33  53  77 104 132 169 215 261 308
#     4  10  19  32  52  79 106 135 176 221 265 312
#     4   9  18  32  51  77 106 138 175 219 267 318
#     4   9  18  31  49  77 106 132 170 220 265 312
#
# _framework density 17.678842
#
# number of rings (size 3 to 8) (size 9 to 14) (size 15 to 20)
#    0.000    2.250    2.500    0.750    0.000    3.000 
#    0.000    1.250    0.000    6.000    0.000    0.000 
#    0.000    0.000    0.000    0.000    0.000    0.000 
#
# Total GULP energy -396843.890030 kJ/mol
# GULP energy per Si atom -12401.371563 kJ/mol
# Density = 1.763860 g / cm^3
# Si number density = 17.678842 Si / 1000 Ang^3
#
#
#
# Elastic Constant Matrix: (Units=GPa)
#
#
# Indices 1 2 3 4 5 6 
#
# 1 93.0687 52.5980 65.0993 0.0000 -1.4307 0.0000
# 2 52.5980 89.3560 74.0020 0.0000 7.1339 0.0000
# 3 65.0993 74.0020 142.5339 0.0000 -0.4620 0.0000
# 4 0.0000 0.0000 0.0000 35.7161 0.0000 5.2061
# 5 -1.4307 7.1339 -0.4620 0.0000 25.4202 0.0000
# 6 0.0000 0.0000 0.0000 5.2061 0.0000 22.7267
#
#
#
# Elastic Compliance Matrix: (Units=1/GPa)
#
#
# Indices 1 2 3 4 5 6 
#
# 1 0.017934 -0.007039 -0.004527 0.000000 0.002903 0.000000
# 2 -0.007039 0.023256 -0.008882 0.000000 -0.007084 0.000000
# 3 -0.004527 -0.008882 0.013703 0.000000 0.002487 0.000000
# 4 0.000000 0.000000 0.000000 0.028966 0.000000 -0.006635
# 5 0.002903 -0.007084 0.002487 0.000000 0.041535 0.000000
# 6 0.000000 0.000000 0.000000 -0.006635 0.000000 0.045521
#
#
# Mechanical properties :
#
#
# Convention : Reuss Voigt Hill
#
# Bulk Modulus (GPa) = 71.44638 78.70637 75.07637
# Shear Modulus (GPa) = 23.09695 25.65655 24.37675
#
# Velocity S-wave (km/s) = 3.61844 3.81367 3.71734
# Velocity P-wave (km/s) = 7.61306 8.00055 7.80921
#
# Compressibility (1/GPa) = 0.01399651
#
# Stress axis : x y z
#
# Youngs Moduli (GPa) = 55.75963 42.99873 72.97604
#
# Poissons Ratio (x) = 0.30268 0.33035
# Poissons Ratio (y) = 0.39251 0.64820
# Poissons Ratio (z) = 0.25242 0.38193
#
# Static dielectric constant tensor:
#      x y z
#    x 1.952790 0.000000 -0.634270 
#    y 0.000000 3.306380 0.000000 
#    z -0.634270 0.000000 3.080260 
# 
# 
# High freq. dielectric constant tensor:
#      x y z
#    x 1.652800 0.000000 -0.003390 
#    y 0.000000 1.686200 0.000000 
#    z -0.003390 0.000000 1.695470 
# 
# From -- ./inp_files/281414.got.cif
#   From: 2010.06.25/outbox.cif.g09.slc.cpg/sg12_141_cif.got.tgz:281414.got - 2010.06.28 00:19:55.
