data_PCOD8088789
_publ_section_title
;
Structure prediction by ZEFSAII (Michael W. Deem and Ramdas Pophale) SiO2 
 PCOD8088789
Probable space group: C 2/M
;
_chemical_formula_sum "Si O2"
_cell_formula_units_Z 64
_cell_length_a 13.875414
_cell_length_b 20.798529
_cell_length_c 12.754967
_cell_angle_alpha 90.000000
_cell_angle_beta 68.596572
_cell_angle_gamma 90.000000
_cell_volume 3427.073690
_symmetry_space_group_name_H-M "C 2/M"
_symmetry_group_IT_number 12
_symmetry_cell_setting 'monoclinic'
loop_
_space_group_symop_operation_xyz
x,y,z
-x,y,-z
-x,-y,-z
x,-y,z
1/2+x,1/2+y,z
1/2-x,1/2+y,-z
1/2-x,1/2-y,-z
1/2+x,1/2-y,z
loop_
_atom_site_type_symbol
_atom_site_label
_atom_site_fract_x
_atom_site_fract_y
_atom_site_fract_z
Si Si1 0.272731 0.841831 0.272948
Si Si2 0.401507 0.712697 0.254614
Si Si3 0.861439 0.217511 0.840528
Si Si4 0.038634 0.424007 0.871528
Si Si5 0.232086 0.173665 0.513815
Si Si6 0.878613 0.572916 0.560094
Si Si7 0.303289 0.325137 0.089191
Si Si8 0.348026 0.926867 0.814688
O O1 0.340223 0.778773 0.267919
O O2 0.188184 0.836444 0.214601
O O3 0.349772 0.897735 0.206369
O O4 0.209425 0.854818 0.406481
O O5 0.519595 0.728669 0.234742
O O6 0.360810 0.666636 0.365346
O O7 0.386992 0.675687 0.149851
O O8 0.797206 0.281870 0.844463
O O9 0.858790 0.196809 0.962168
O O10 0.050715 0.500000 0.868505
O O11 0.954289 0.399139 0.821215
O O12 0.000000 0.397897 0.000000
O O13 0.250000 0.250000 0.500000
O O14 0.328465 0.130446 0.513885
O O15 0.845529 0.500000 0.537370
O O16 0.846894 0.584110 0.691873
O O17 0.000000 0.580358 0.500000
O O18 0.254869 0.395563 0.095071
O O19 0.340325 0.000000 0.851912
#
# Coordination Sequence:
#
# PCOD8088789 Si02
#       8
#     8   8   8   8   8   8   8   8
#     4  10  21  35  52  79 112 145 186 226 283 338
#     4  10  20  36  54  78 111 146 188 231 283 335
#     4  10  21  33  55  80 105 149 184 229 282 342
#     4  10  20  34  55  84 117 150 184 230 291 358
#     4  10  21  38  52  82 119 152 189 236 293 351
#     4  10  20  35  59  88 115 150 194 242 299 356
#     4  10  19  35  55  80 110 137 186 235 284 335
#     4  10  19  32  55  82 109 143 179 228 289 337
#
# _framework density 18.674824000000001
#
# number of rings (size 3 to 8) (size 9 to 14) (size 15 to 20)
#    0.000    2.000    1.250    2.625    0.000    5.000 
#    0.000    0.000    0.000    3.750    0.000    1.750 
#    0.000    0.000    0.000    0.000    0.000    0.000 
#
# Total GULP energy -396612.554557 kJ/mol
# GULP energy per Si atom -12394.142330 kJ/mol
# Density = 1.863232 g / cm^3
# Si number density = 18.674824 Si / 1000 Ang^3
#
#
#
# Elastic Constant Matrix: (Units=GPa)
#
#
# Indices 1 2 3 4 5 6 
#
# 1 88.2932 23.4816 30.5144 0.0000 5.5008 0.0000
# 2 23.4816 57.6783 23.4369 0.0000 5.9462 0.0000
# 3 30.5144 23.4369 93.7918 0.0000 2.6196 0.0000
# 4 0.0000 0.0000 0.0000 14.3161 0.0000 -22.0288
# 5 5.5008 5.9462 2.6196 0.0000 27.6389 0.0000
# 6 0.0000 0.0000 0.0000 -22.0288 0.0000 -17.0598
#
#
#
# Elastic Compliance Matrix: (Units=1/GPa)
#
#
# Indices 1 2 3 4 5 6 
#
# 1 0.013666 -0.004025 -0.003398 0.000000 -0.001532 0.000000
# 2 -0.004025 0.020868 -0.003812 0.000000 -0.003327 0.000000
# 3 -0.003398 -0.003812 0.012712 0.000000 0.000292 0.000000
# 4 0.000000 0.000000 0.000000 0.023386 0.000000 -0.030197
# 5 -0.001532 -0.003327 0.000292 0.000000 0.037174 0.000000
# 6 0.000000 0.000000 0.000000 -0.030197 0.000000 -0.019625
#
#
# Mechanical properties :
#
#
# Convention : Reuss Voigt Hill
#
# Bulk Modulus (GPa) = 40.36103 43.84768 42.10436
# Shear Modulus (GPa) = 42.04879 15.80106 28.92492
#
# Velocity S-wave (km/s) = 4.75028 2.91196 3.93984
# Velocity P-wave (km/s) = 7.19349 5.90225 6.57962
#
# Compressibility (1/GPa) = 0.02477637
#
# Stress axis : x y z
#
# Youngs Moduli (GPa) = 73.17415 47.91968 78.66767
#
# Poissons Ratio (x) = 0.19288 0.26728
# Poissons Ratio (y) = 0.29454 0.29989
# Poissons Ratio (z) = 0.24861 0.18268
#
# Static dielectric constant tensor:
#      x y z
#    x 3.780940 0.000000 -2.237240 
#    y 0.000000 3.343840 0.000000 
#    z -2.237240 0.000000 16.169250 
# 
# 
# High freq. dielectric constant tensor:
#      x y z
#    x 1.707430 0.000000 0.009780 
#    y 0.000000 1.706220 0.000000 
#    z 0.009780 0.000000 1.743250 
# 
# From -- ./inp_files/135346.got.cif
#   From: 2010.06.25/outbox.cif.g09.slc.cpg/sg12_68_cif.got.tgz:135346.got - 2010.06.28 00:19:55.
