data_PCOD8088001
_publ_section_title
;
Structure prediction by ZEFSAII (Michael W. Deem and Ramdas Pophale) SiO2 
 PCOD8088001
Probable space group: C 2/M
;
_chemical_formula_sum "Si O2"
_cell_formula_units_Z 64
_cell_length_a 17.499921
_cell_length_b 13.082032
_cell_length_c 27.308258
_cell_angle_alpha 90.000000
_cell_angle_beta 33.217676
_cell_angle_gamma 90.000000
_cell_volume 3424.871178
_symmetry_space_group_name_H-M "C 2/M"
_symmetry_group_IT_number 12
_symmetry_cell_setting 'monoclinic'
loop_
_space_group_symop_operation_xyz
x,y,z
-x,y,-z
-x,-y,-z
x,-y,z
1/2+x,1/2+y,z
1/2-x,1/2+y,-z
1/2-x,1/2-y,-z
1/2+x,1/2-y,z
loop_
_atom_site_type_symbol
_atom_site_label
_atom_site_fract_x
_atom_site_fract_y
_atom_site_fract_z
Si Si1 0.116677 0.617174 0.343044
Si Si2 0.640563 0.881952 0.787341
Si Si3 0.841271 0.694353 0.522380
Si Si4 0.860075 0.882105 0.836298
Si Si5 0.648658 0.693847 0.718580
Si Si6 0.553777 0.118443 0.022745
Si Si7 0.613710 0.307643 0.281800
Si Si8 0.833917 0.885367 0.467671
O O1 0.094077 0.500000 0.339973
O O2 0.271202 0.630822 0.282455
O O3 0.104432 0.688244 0.301494
O O4 0.000387 0.654991 0.445615
O O5 0.638030 0.813288 0.739438
O O6 0.526199 0.836571 0.887027
O O7 0.789894 0.871529 0.733031
O O8 0.613756 0.000000 0.786813
O O9 0.736840 0.673016 0.622376
O O10 0.837360 0.815699 0.514364
O O11 0.799373 0.634954 0.495071
O O12 0.837578 0.813590 0.800176
O O13 0.992844 0.848805 0.796801
O O14 0.875027 0.000000 0.812618
O O15 0.718753 0.864799 0.943104
O O16 0.512005 0.000000 0.043434
O O17 0.500000 0.167741 0.000000
O O18 0.464365 0.361267 0.363150
O O19 0.832720 0.000000 0.487940
#
# Coordination Sequence:
#
# PCOD8088001 Si02
#       8
#     8   8   8   8   8   8   8   8
#     4  10  22  38  53  74 109 146 178 219 264 315
#     4  10  20  36  55  80 113 142 171 217 268 319
#     4  10  21  34  49  76 104 139 189 218 257 323
#     4  11  20  33  56  83 109 135 175 228 266 306
#     4  11  23  35  52  80 111 143 180 213 263 328
#     4   9  17  31  56  85 106 133 174 217 268 315
#     4  10  19  33  56  82 103 134 181 222 266 318
#     4  10  19  32  52  76 105 135 175 233 272 298
#
# _framework density 18.686834000000001
#
# number of rings (size 3 to 8) (size 9 to 14) (size 15 to 20)
#    0.000    1.875    2.500    2.250    0.000    3.000 
#    0.000    0.625    0.000    4.500    0.000    7.875 
#    0.000    0.000    0.000    0.000    0.000    0.000 
#
# Total GULP energy -396731.111520 kJ/mol
# GULP energy per Si atom -12397.847235 kJ/mol
# Density = 1.864430 g / cm^3
# Si number density = 18.686834 Si / 1000 Ang^3
#
#
#
# Elastic Constant Matrix: (Units=GPa)
#
#
# Indices 1 2 3 4 5 6 
#
# 1 58.5871 26.2930 25.3721 0.0000 -16.6888 0.0000
# 2 26.2930 118.6226 25.9467 0.0000 -3.9155 0.0000
# 3 25.3721 25.9467 69.6112 -0.0007 -13.0016 0.0000
# 4 0.0000 0.0000 -0.0007 21.9129 0.0001 -2.2881
# 5 -16.6888 -3.9155 -13.0016 0.0001 28.5620 0.0000
# 6 0.0000 0.0000 0.0000 -2.2881 0.0000 16.0204
#
#
#
# Elastic Compliance Matrix: (Units=1/GPa)
#
#
# Indices 1 2 3 4 5 6 
#
# 1 0.024307 -0.003852 -0.005322 0.000000 0.011252 0.000000
# 2 -0.003852 0.009792 -0.002640 0.000000 -0.002110 0.000000
# 3 -0.005322 -0.002640 0.018187 0.000001 0.004807 0.000000
# 4 0.000000 0.000000 0.000001 0.046326 0.000000 0.006616
# 5 0.011252 -0.002110 0.004807 0.000000 0.043485 0.000000
# 6 0.000000 0.000000 0.000000 0.006616 0.000000 0.063365
#
#
# Mechanical properties :
#
#
# Convention : Reuss Voigt Hill
#
# Bulk Modulus (GPa) = 34.89435 44.67161 39.78298
# Shear Modulus (GPa) = 20.95170 24.57967 22.76569
#
# Velocity S-wave (km/s) = 3.35207 3.63071 3.49416
# Velocity P-wave (km/s) = 5.80479 6.44464 6.13306
#
# Compressibility (1/GPa) = 0.02865793
#
# Stress axis : x y z
#
# Youngs Moduli (GPa) = 41.13957 102.12710 54.98386
#
# Poissons Ratio (x) = 0.39342 0.29263
# Poissons Ratio (y) = 0.15848 0.14515
# Poissons Ratio (z) = 0.21895 0.26959
#
# Static dielectric constant tensor:
#      x y z
#    x 3.266290 0.000000 -0.179270 
#    y 0.000000 3.318420 0.000000 
#    z -0.179270 0.000000 3.534620 
# 
# 
# High freq. dielectric constant tensor:
#      x y z
#    x 1.710410 0.000000 -0.020390 
#    y 0.000000 1.706910 0.000000 
#    z -0.020390 0.000000 1.730280 
# 
# From -- ./inp_files/379085.got.cif
#   From: 2010.06.25/outbox.cif.g09.slc.cpg/sg12_190_cif.got.tgz:379085.got - 2010.06.28 00:19:55.
