data_PCOD8088988
_publ_section_title
;
Structure prediction by ZEFSAII (Michael W. Deem and Ramdas Pophale) SiO2 
 PCOD8088988
Probable space group: C 2/M
;
_chemical_formula_sum "Si O2"
_cell_formula_units_Z 48
_cell_length_a 26.054948
_cell_length_b 20.834298
_cell_length_c 9.410908
_cell_angle_alpha 90.000000
_cell_angle_beta 27.563973
_cell_angle_gamma 90.000000
_cell_volume 2363.939948
_symmetry_space_group_name_H-M "C 2/M"
_symmetry_group_IT_number 12
_symmetry_cell_setting 'monoclinic'
loop_
_space_group_symop_operation_xyz
x,y,z
-x,y,-z
-x,-y,-z
x,-y,z
1/2+x,1/2+y,z
1/2-x,1/2+y,-z
1/2-x,1/2-y,-z
1/2+x,1/2-y,z
loop_
_atom_site_type_symbol
_atom_site_label
_atom_site_fract_x
_atom_site_fract_y
_atom_site_fract_z
Si Si1 0.566481 0.138892 0.202845
Si Si2 0.546630 0.429227 0.725894
Si Si3 0.249308 0.074012 0.395446
Si Si4 0.131507 0.161178 0.911832
Si Si5 0.522230 0.228469 0.796623
Si Si6 0.260896 0.247468 0.140671
O O1 0.500000 0.109515 0.500000
O O2 0.475127 0.176084 0.334153
O O3 0.623908 0.083812 0.966854
O O4 0.660698 0.188868 0.014652
O O5 0.533439 0.500000 0.693496
O O6 0.675840 0.411747 0.433035
O O7 0.500000 0.424691 0.000000
O O8 0.477008 0.383379 0.790915
O O9 0.219427 0.122252 0.598308
O O10 0.232578 0.000000 0.487023
O O11 0.189691 0.185501 0.914674
O O12 0.082103 0.223066 0.953853
O O13 0.639674 0.265374 0.505026
O O14 0.500000 0.192495 0.000000
O O15 0.250000 0.250000 0.000000
#
# Coordination Sequence:
#
# PCOD8088988 Si02
#       6
#     8   8   8   8   8   8
#     4  11  22  37  56  83 119 157 199 237 292 364
#     4   8  14  28  52  83 114 144 187 240 290 337
#     4  10  20  36  60  88 116 153 202 248 293 346
#     4  10  19  32  58  86 116 149 191 245 295 353
#     4  11  21  35  58  86 118 147 193 247 300 350
#     4  11  22  37  56  85 122 160 191 237 303 362
#
# _framework density 20.305084000000001
#
# number of rings (size 3 to 8) (size 9 to 14) (size 15 to 20)
#    0.000    1.833    1.667    6.000    0.000    3.000 
#    0.000    0.000    0.000    7.500    0.000    7.000 
#    0.000    0.000    0.000    0.000    0.000    0.000 
#
# Total GULP energy -297363.399884 kJ/mol
# GULP energy per Si atom -12390.141662 kJ/mol
# Density = 2.025887 g / cm^3
# Si number density = 20.305084 Si / 1000 Ang^3
#
#
#
# Elastic Constant Matrix: (Units=GPa)
#
#
# Indices 1 2 3 4 5 6 
#
# 1 100.9373 36.4691 28.7684 0.0000 3.8465 0.0000
# 2 36.4691 75.3959 18.9405 0.0000 3.6800 0.0000
# 3 28.7684 18.9405 96.8416 0.0000 -0.3039 0.0000
# 4 0.0000 0.0000 0.0000 20.4547 0.0000 -4.7128
# 5 3.8465 3.6800 -0.3039 0.0000 25.6460 0.0000
# 6 0.0000 0.0000 0.0000 -4.7128 0.0000 27.9535
#
#
#
# Elastic Compliance Matrix: (Units=1/GPa)
#
#
# Indices 1 2 3 4 5 6 
#
# 1 0.012673 -0.005392 -0.002714 0.000000 -0.001159 0.000000
# 2 -0.005392 0.016349 -0.001601 0.000000 -0.001556 0.000000
# 3 -0.002714 -0.001601 0.011448 0.000000 0.000772 0.000000
# 4 0.000000 0.000000 0.000000 0.050864 0.000000 0.008575
# 5 -0.001159 -0.001556 0.000772 0.000000 0.039399 0.000000
# 6 0.000000 0.000000 0.000000 0.008575 0.000000 0.037220
#
#
# Mechanical properties :
#
#
# Convention : Reuss Voigt Hill
#
# Bulk Modulus (GPa) = 47.48892 49.05897 48.27394
# Shear Modulus (GPa) = 25.72227 27.41062 26.56645
#
# Velocity S-wave (km/s) = 3.56306 3.67814 3.62106
# Velocity P-wave (km/s) = 6.35340 6.50013 6.42718
#
# Compressibility (1/GPa) = 0.02105754
#
# Stress axis : x y z
#
# Youngs Moduli (GPa) = 78.90942 61.16462 87.35265
#
# Poissons Ratio (x) = 0.32977 0.23706
# Poissons Ratio (y) = 0.42544 0.13984
# Poissons Ratio (z) = 0.21414 0.09792
#
# Static dielectric constant tensor:
#      x y z
#    x 3.840150 0.000000 -0.345030 
#    y 0.000000 3.628420 0.000000 
#    z -0.345030 0.000000 3.826000 
# 
# 
# High freq. dielectric constant tensor:
#      x y z
#    x 1.776370 0.000000 -0.022600 
#    y 0.000000 1.774000 0.000000 
#    z -0.022600 0.000000 1.787210 
# 
# From -- ./inp_files/106512.got.cif
#   From: 2010.06.25/outbox.cif.g09.slc.cpg/sg12_54_cif.got.tgz:106512.got - 2010.06.28 00:19:55.
