data_PCOD8088828
_publ_section_title
;
Structure prediction by ZEFSAII (Michael W. Deem and Ramdas Pophale) SiO2 
 PCOD8088828
Probable space group: C 2/M
;
_chemical_formula_sum "Si O2"
_cell_formula_units_Z 56
_cell_length_a 28.626790
_cell_length_b 8.794172
_cell_length_c 17.550140
_cell_angle_alpha 90.000000
_cell_angle_beta 43.023082
_cell_angle_gamma 90.000000
_cell_volume 3014.526233
_symmetry_space_group_name_H-M "C 2/M"
_symmetry_group_IT_number 12
_symmetry_cell_setting 'monoclinic'
loop_
_space_group_symop_operation_xyz
x,y,z
-x,y,-z
-x,-y,-z
x,-y,z
1/2+x,1/2+y,z
1/2-x,1/2+y,-z
1/2-x,1/2-y,-z
1/2+x,1/2-y,z
loop_
_atom_site_type_symbol
_atom_site_label
_atom_site_fract_x
_atom_site_fract_y
_atom_site_fract_z
Si Si1 0.782984 0.177282 0.263143
Si Si2 0.139023 0.822060 0.415718
Si Si3 0.087358 0.679381 0.166986
Si Si4 0.318376 0.676146 0.387933
Si Si5 0.154795 0.319109 0.241737
Si Si6 0.057263 0.823106 0.660756
Si Si7 0.698096 0.180507 0.913420
O O1 0.707596 0.244998 0.365813
O O2 0.826684 0.203775 0.287612
O O3 0.775876 0.000000 0.251599
O O4 0.821083 0.263065 0.148630
O O5 0.117338 0.748025 0.361145
O O6 0.078702 0.791908 0.547810
O O7 0.153430 0.000000 0.387182
O O8 0.085018 0.500000 0.169774
O O9 0.112834 0.739066 0.218622
O O10 0.139085 0.737879 0.040408
O O11 0.012655 0.739606 0.236991
O O12 0.312272 0.500000 0.415635
O O13 0.250000 0.750000 0.500000
O O14 0.384816 0.743638 0.351419
O O15 0.157140 0.500000 0.243952
O O16 0.231407 0.256158 0.144012
O O17 0.046073 0.000000 0.689374
O O18 0.706496 0.000000 0.904518
#
# Coordination Sequence:
#
# PCOD8088828 Si02
#       7
#     8   8   8   8   8   8   8
#     4  10  19  32  55  84 109 137 175 220 268 314
#     4  10  19  33  53  80 111 140 176 219 266 318
#     4  10  23  39  54  76 107 145 183 221 266 317
#     4  10  20  35  56  83 110 139 177 217 263 318
#     4  10  20  35  56  81 107 137 180 225 267 316
#     4  10  22  37  54  78 110 144 179 218 263 319
#     4  10  20  36  57  80 107 139 180 224 266 315
#
# _framework density 18.576716000000001
#
# number of rings (size 3 to 8) (size 9 to 14) (size 15 to 20)
#    0.000    2.000    1.429    3.857    0.000    5.143 
#    0.000    3.571    0.000    4.286    0.000    0.000 
#    0.000    0.000    0.000    0.000    0.000    0.000 
#
# Total GULP energy -347229.738994 kJ/mol
# GULP energy per Si atom -12401.062107 kJ/mol
# Density = 1.853443 g / cm^3
# Si number density = 18.576716 Si / 1000 Ang^3
#
#
#
# Elastic Constant Matrix: (Units=GPa)
#
#
# Indices 1 2 3 4 5 6 
#
# 1 125.4086 23.7150 51.0713 0.0089 4.3549 -0.0032
# 2 23.7150 44.5092 15.4170 0.0041 6.4286 0.0010
# 3 51.0713 15.4170 72.0235 0.0077 0.0042 0.0071
# 4 0.0089 0.0041 0.0077 32.0419 0.0041 -0.6468
# 5 4.3549 6.4286 0.0042 0.0041 23.1286 0.0014
# 6 -0.0032 0.0010 0.0071 -0.6468 0.0014 27.7053
#
#
#
# Elastic Compliance Matrix: (Units=1/GPa)
#
#
# Indices 1 2 3 4 5 6 
#
# 1 0.011768 -0.003455 -0.007605 -0.000001 -0.001254 0.000003
# 2 -0.003455 0.026380 -0.003197 -0.000001 -0.006681 0.000000
# 3 -0.007605 -0.003197 0.019961 -0.000003 0.002317 -0.000006
# 4 -0.000001 -0.000001 -0.000003 0.031224 -0.000005 0.000729
# 5 -0.001254 -0.006681 0.002317 -0.000005 0.045329 -0.000003
# 6 0.000003 0.000000 -0.000006 0.000729 -0.000003 0.036111
#
#
# Mechanical properties :
#
#
# Convention : Reuss Voigt Hill
#
# Bulk Modulus (GPa) = 33.78782 46.92754 40.35768
# Shear Modulus (GPa) = 23.90611 26.69102 25.29856
#
# Velocity S-wave (km/s) = 3.59121 3.79463 3.69432
# Velocity P-wave (km/s) = 5.95176 6.67197 6.32213
#
# Compressibility (1/GPa) = 0.02959647
#
# Stress axis : x y z
#
# Youngs Moduli (GPa) = 84.97782 37.90713 50.09755
#
# Poissons Ratio (x) = 0.13096 0.38099
# Poissons Ratio (y) = 0.29357 0.16015
# Poissons Ratio (z) = 0.64624 0.12118
#
# Static dielectric constant tensor:
#      x y z
#    x 3.645400 0.000000 0.271150 
#    y 0.000000 3.421830 0.000050 
#    z 0.271150 0.000050 3.457150 
# 
# 
# High freq. dielectric constant tensor:
#      x y z
#    x 1.720470 0.000000 0.017750 
#    y 0.000000 1.725110 0.000000 
#    z 0.017750 0.000000 1.716000 
# 
# From -- ./inp_files/295071.got.cif
#   From: 2010.06.25/outbox.cif.g09.slc.cpg/sg12_148_cif.got.tgz:295071.got - 2010.06.28 00:19:55.
