data_PCOD8088168
_publ_section_title
;
Structure prediction by ZEFSAII (Michael W. Deem and Ramdas Pophale) SiO2 
 PCOD8088168
Probable space group: C 2/M
;
_chemical_formula_sum "Si O2"
_cell_formula_units_Z 64
_cell_length_a 18.652874
_cell_length_b 8.988432
_cell_length_c 20.994728
_cell_angle_alpha 90.000000
_cell_angle_beta 89.065023
_cell_angle_gamma 90.000000
_cell_volume 3519.509318
_symmetry_space_group_name_H-M "C 2/M"
_symmetry_group_IT_number 12
_symmetry_cell_setting 'monoclinic'
loop_
_space_group_symop_operation_xyz
x,y,z
-x,y,-z
-x,-y,-z
x,-y,z
1/2+x,1/2+y,z
1/2-x,1/2+y,-z
1/2-x,1/2-y,-z
1/2+x,1/2-y,z
loop_
_atom_site_type_symbol
_atom_site_label
_atom_site_fract_x
_atom_site_fract_y
_atom_site_fract_z
Si Si1 0.079293 0.672552 0.876753
Si Si2 0.111438 0.329655 0.733963
Si Si3 0.046564 0.168707 0.062654
Si Si4 0.374205 0.825946 0.605428
Si Si5 0.327697 0.176231 0.003642
Si Si6 0.885643 0.327552 0.459854
Si Si7 0.485984 0.675186 0.363218
Si Si8 0.734804 0.168866 0.638819
O O1 0.060702 0.500000 0.885147
O O2 0.114229 0.710246 0.808265
O O3 0.003540 0.758941 0.882379
O O4 0.137506 0.720346 0.928880
O O5 0.087336 0.500000 0.722581
O O6 0.055528 0.224227 0.699398
O O7 0.190506 0.304710 0.704282
O O8 0.120577 0.259618 0.052665
O O9 0.065940 0.000000 0.081417
O O10 0.000000 0.175945 0.000000
O O11 0.373459 0.774331 0.531904
O O12 0.434189 0.737938 0.643322
O O13 0.299287 0.784529 0.638833
O O14 0.387795 0.000000 0.611901
O O15 0.320275 0.000000 0.995125
O O16 0.250000 0.250000 0.000000
O O17 0.907152 0.500000 0.455616
O O18 0.950943 0.236986 0.428493
O O19 0.813700 0.295154 0.421790
O O20 0.487332 0.500000 0.366725
O O21 0.763666 0.000000 0.634701
#
# Coordination Sequence:
#
# PCOD8088168 Si02
#       8
#     8   8   8   8   8   8   8   8
#     4   9  18  34  57  79 100 134 176 212 249 298
#     4   9  19  38  58  74  98 133 171 211 256 304
#     4   9  17  30  50  77 107 137 169 206 247 292
#     4  11  21  33  51  74 101 133 168 209 259 310
#     4  10  19  32  52  80 112 142 172 209 255 301
#     4   9  19  35  53  73  99 132 167 206 258 314
#     4  11  22  34  51  75 101 130 167 212 257 304
#     4   9  18  33  52  74 101 131 165 209 258 307
#
# _framework density 18.184352000000001
#
# number of rings (size 3 to 8) (size 9 to 14) (size 15 to 20)
#    0.000    2.375    0.000    3.750    0.000    7.000 
#    0.000    1.250    0.000    4.500    0.000    0.000 
#    0.000    0.000    0.000    0.000    0.000    0.000 
#
# Total GULP energy -396860.980434 kJ/mol
# GULP energy per Si atom -12401.905639 kJ/mol
# Density = 1.814296 g / cm^3
# Si number density = 18.184352 Si / 1000 Ang^3
#
#
#
# Elastic Constant Matrix: (Units=GPa)
#
#
# Indices 1 2 3 4 5 6 
#
# 1 127.7835 62.4206 43.1221 0.0000 -10.4691 0.0000
# 2 62.4206 97.6955 32.7246 0.0000 -5.5096 0.0000
# 3 43.1221 32.7246 83.9417 0.0000 -14.6677 0.0000
# 4 0.0000 0.0000 0.0000 19.7101 0.0000 -4.8213
# 5 -10.4691 -5.5096 -14.6677 0.0000 15.0203 0.0000
# 6 0.0000 0.0000 0.0000 -4.8213 0.0000 37.9120
#
#
#
# Elastic Compliance Matrix: (Units=1/GPa)
#
#
# Indices 1 2 3 4 5 6 
#
# 1 0.012439 -0.006687 -0.003252 0.000000 0.003042 0.000000
# 2 -0.006687 0.015368 -0.002876 0.000000 -0.001832 0.000000
# 3 -0.003252 -0.002876 0.017030 0.000000 0.013309 0.000000
# 4 0.000000 0.000000 0.000000 0.052364 0.000000 0.006659
# 5 0.003042 -0.001832 0.013309 0.000000 0.081021 0.000000
# 6 0.000000 0.000000 0.000000 0.006659 0.000000 0.027224
#
#
# Mechanical properties :
#
#
# Convention : Reuss Voigt Hill
#
# Bulk Modulus (GPa) = 52.06194 65.10615 58.58405
# Shear Modulus (GPa) = 21.05449 25.93869 23.49659
#
# Velocity S-wave (km/s) = 3.40639 3.78091 3.59852
# Velocity P-wave (km/s) = 6.64557 7.41225 7.03935
#
# Compressibility (1/GPa) = 0.01920789
#
# Stress axis : x y z
#
# Youngs Moduli (GPa) = 80.39501 65.06854 58.71848
#
# Poissons Ratio (x) = 0.43509 0.19093
# Poissons Ratio (y) = 0.53758 0.16890
# Poissons Ratio (z) = 0.26141 0.18717
#
# Static dielectric constant tensor:
#      x y z
#    x 3.329460 0.000000 -0.115870 
#    y 0.000000 3.347180 0.000000 
#    z -0.115870 0.000000 3.278010 
# 
# 
# High freq. dielectric constant tensor:
#      x y z
#    x 1.703970 0.000000 -0.011420 
#    y 0.000000 1.707490 0.000000 
#    z -0.011420 0.000000 1.684590 
# 
# From -- ./inp_files/313974.got.cif
#   From: 2010.06.25/outbox.cif.g09.slc.cpg/sg12_157_cif.got.tgz:313974.got - 2010.06.28 00:19:55.
