data_PCOD8088315
_publ_section_title
;
Structure prediction by ZEFSAII (Michael W. Deem and Ramdas Pophale) SiO2 
 PCOD8088315
Probable space group: C 2/M
;
_chemical_formula_sum "Si O2"
_cell_formula_units_Z 56
_cell_length_a 18.106850
_cell_length_b 9.162162
_cell_length_c 19.547405
_cell_angle_alpha 90.000000
_cell_angle_beta 114.787166
_cell_angle_gamma 90.000000
_cell_volume 2944.111962
_symmetry_space_group_name_H-M "C 2/M"
_symmetry_group_IT_number 12
_symmetry_cell_setting 'monoclinic'
loop_
_space_group_symop_operation_xyz
x,y,z
-x,y,-z
-x,-y,-z
x,-y,z
1/2+x,1/2+y,z
1/2-x,1/2+y,-z
1/2-x,1/2-y,-z
1/2+x,1/2-y,z
loop_
_atom_site_type_symbol
_atom_site_label
_atom_site_fract_x
_atom_site_fract_y
_atom_site_fract_z
Si Si1 0.625324 0.329459 0.936851
Si Si2 0.716010 0.830172 0.085571
Si Si3 0.667717 0.170987 0.633970
Si Si4 0.491255 0.169950 0.342275
Si Si5 0.490102 0.168324 0.805661
Si Si6 0.581152 0.664724 0.487282
Si Si7 0.303382 0.168584 0.766415
O O1 0.614217 0.500000 0.943796
O O2 0.694860 0.292724 0.908482
O O3 0.540984 0.263709 0.878375
O O4 0.647710 0.258925 0.018209
O O5 0.713567 0.780058 0.162940
O O6 0.694896 0.000000 0.069348
O O7 0.596350 0.207177 0.660005
O O8 0.650747 0.247297 0.554586
O O9 0.751371 0.232843 0.695444
O O10 0.676105 0.000000 0.624130
O O11 0.489790 0.220061 0.263265
O O12 0.562924 0.258113 0.407989
O O13 0.512462 0.000000 0.358040
O O14 0.396425 0.195801 0.784630
O O15 0.514236 0.000000 0.825179
O O16 0.500000 0.667482 0.500000
O O17 0.611212 0.500000 0.485692
O O18 0.278466 0.000000 0.746870
#
# Coordination Sequence:
#
# PCOD8088315 Si02
#       7
#     8   8   8   8   8   8   8
#     4  10  20  34  55  80 103 130 168 213 254 297
#     4   9  19  36  56  77 102 133 169 209 253 300
#     4  10  19  32  53  78 104 133 166 210 258 301
#     4   9  18  33  53  77 103 132 168 209 255 303
#     4  10  21  36  53  74 104 139 170 205 252 304
#     4   9  17  30  51  78 104 131 167 211 254 298
#     4  10  21  36  53  74 102 137 174 208 247 301
#
# _framework density 19.021015999999999
#
# number of rings (size 3 to 8) (size 9 to 14) (size 15 to 20)
#    0.000    2.429    0.000    2.143    0.000    5.143 
#    0.000    3.571    0.000    0.000    0.000    0.000 
#    0.000    0.000    0.000    0.000    0.000    0.000 
#
# Total GULP energy -347317.686661 kJ/mol
# GULP energy per Si atom -12404.203095 kJ/mol
# Density = 1.897772 g / cm^3
# Si number density = 19.021016 Si / 1000 Ang^3
#
#
#
# Elastic Constant Matrix: (Units=GPa)
#
#
# Indices 1 2 3 4 5 6 
#
# 1 35.6603 24.0424 23.8994 0.0000 12.1843 0.0000
# 2 24.0424 91.7023 63.3401 0.0000 19.7698 0.0000
# 3 23.8994 63.3401 120.3980 0.0000 31.2306 0.0000
# 4 0.0000 0.0000 0.0000 39.5128 0.0000 6.3491
# 5 12.1843 19.7698 31.2306 0.0000 16.6088 0.0000
# 6 0.0000 0.0000 0.0000 6.3491 0.0000 20.5746
#
#
#
# Elastic Compliance Matrix: (Units=1/GPa)
#
#
# Indices 1 2 3 4 5 6 
#
# 1 0.039606 -0.006329 0.002050 0.000000 -0.025377 0.000000
# 2 -0.006329 0.018534 -0.007762 0.000000 -0.002823 0.000000
# 3 0.002050 -0.007762 0.019475 0.000000 -0.028885 0.000000
# 4 0.000000 0.000000 0.000000 0.026629 0.000000 -0.008217
# 5 -0.025377 -0.002823 -0.028885 0.000000 0.136500 0.000000
# 6 0.000000 0.000000 0.000000 -0.008217 0.000000 0.051139
#
#
# Mechanical properties :
#
#
# Convention : Reuss Voigt Hill
#
# Bulk Modulus (GPa) = 18.67986 52.25828 35.46907
# Shear Modulus (GPa) = 14.97862 24.43782 19.70822
#
# Velocity S-wave (km/s) = 2.80925 3.58827 3.22239
# Velocity P-wave (km/s) = 4.51270 6.68590 5.70376
#
# Compressibility (1/GPa) = 0.05353358
#
# Stress axis : x y z
#
# Youngs Moduli (GPa) = 25.24865 53.95438 51.34852
#
# Poissons Ratio (x) = 0.34149 -0.10529
# Poissons Ratio (y) = 0.15980 0.39856
# Poissons Ratio (z) = -0.05177 0.41879
#
# Static dielectric constant tensor:
#      x y z
#    x 3.247010 0.000000 -0.052480 
#    y 0.000000 3.484270 0.000000 
#    z -0.052480 0.000000 3.546510 
# 
# 
# High freq. dielectric constant tensor:
#      x y z
#    x 1.715870 0.000000 0.002260 
#    y 0.000000 1.740750 0.000000 
#    z 0.002260 0.000000 1.750820 
# 
# From -- ./inp_files/313705.got.cif
#   From: 2010.06.25/outbox.cif.g09.slc.cpg/sg12_157_cif.got.tgz:313705.got - 2010.06.28 00:19:55.
