data_PCOD8088589
_publ_section_title
;
Structure prediction by ZEFSAII (Michael W. Deem and Ramdas Pophale) SiO2 
 PCOD8088589
Probable space group: C 2/M
;
_chemical_formula_sum "Si O2"
_cell_formula_units_Z 40
_cell_length_a 5.162217
_cell_length_b 17.826409
_cell_length_c 24.636626
_cell_angle_alpha 90.000000
_cell_angle_beta 70.667206
_cell_angle_gamma 90.000000
_cell_volume 2139.314503
_symmetry_space_group_name_H-M "C 2/M"
_symmetry_group_IT_number 12
_symmetry_cell_setting 'monoclinic'
loop_
_space_group_symop_operation_xyz
x,y,z
-x,y,-z
-x,-y,-z
x,-y,z
1/2+x,1/2+y,z
1/2-x,1/2+y,-z
1/2-x,1/2-y,-z
1/2+x,1/2-y,z
loop_
_atom_site_type_symbol
_atom_site_label
_atom_site_fract_x
_atom_site_fract_y
_atom_site_fract_z
Si Si1 0.110171 0.588944 0.435717
Si Si2 0.221315 0.088865 0.366344
Si Si3 0.334687 0.201906 0.267073
Si Si4 0.192965 0.412349 0.036126
Si Si5 0.427524 0.202240 0.864921
O O1 0.094628 0.500000 0.439799
O O2 0.419470 0.615758 0.404594
O O3 0.000000 0.623275 0.500000
O O4 0.922712 0.617722 0.399527
O O5 0.308164 0.127103 0.304287
O O6 0.237951 0.000000 0.356153
O O7 0.536952 0.260987 0.281420
O O8 0.452341 0.175810 0.201019
O O9 0.170960 0.500000 0.050171
O O10 0.093913 0.371161 0.096960
O O11 0.500000 0.388038 0.000000
O O12 0.000000 0.388142 0.000000
O O13 0.126887 0.237451 0.878985
#
# Coordination Sequence:
#
# PCOD8088589 Si02
#       5
#     8   8   8   8   8
#     4   9  17  30  50  77 105 130 164 213 258 298
#     4  10  19  32  54  79  99 130 175 212 250 305
#     4  10  21  37  54  74 105 139 169 210 262 304
#     4  10  21  36  54  79 110 139 167 208 262 306
#     4  10  21  36  55  78 102 136 179 213 248 301
#
# _framework density 18.697578
#
# number of rings (size 3 to 8) (size 9 to 14) (size 15 to 20)
#    0.000    2.200    0.000    3.000    0.000    5.600 
#    0.000    0.000    0.000   26.400    0.000    0.000 
#    0.000    0.000    0.000    0.000    0.000    0.000 
#
# Total GULP energy -248069.491558 kJ/mol
# GULP energy per Si atom -12403.474578 kJ/mol
# Density = 1.865502 g / cm^3
# Si number density = 18.697578 Si / 1000 Ang^3
#
#
#
# Elastic Constant Matrix: (Units=GPa)
#
#
# Indices 1 2 3 4 5 6 
#
# 1 124.6550 20.4547 46.5686 0.0000 16.3457 0.0000
# 2 20.4547 50.3427 64.8018 0.0000 6.4250 0.0000
# 3 46.5686 64.8018 133.7646 0.0000 11.9341 0.0000
# 4 0.0000 0.0000 0.0000 33.8190 0.0000 4.2091
# 5 16.3457 6.4250 11.9341 0.0000 25.9183 0.0000
# 6 0.0000 0.0000 0.0000 4.2091 0.0000 3.5119
#
#
#
# Elastic Compliance Matrix: (Units=1/GPa)
#
#
# Indices 1 2 3 4 5 6 
#
# 1 0.009789 0.001252 -0.003583 0.000000 -0.004834 0.000000
# 2 0.001252 0.052978 -0.025923 0.000000 -0.001986 0.000000
# 3 -0.003583 -0.025923 0.021385 0.000000 -0.001161 0.000000
# 4 0.000000 0.000000 0.000000 0.034753 0.000000 -0.041653
# 5 -0.004834 -0.001986 -0.001161 0.000000 0.042658 0.000000
# 6 0.000000 0.000000 0.000000 -0.041653 0.000000 0.334672
#
#
# Mechanical properties :
#
#
# Convention : Reuss Voigt Hill
#
# Bulk Modulus (GPa) = 36.17610 63.60139 49.88874
# Shear Modulus (GPa) = 8.89744 24.44566 16.67155
#
# Velocity S-wave (km/s) = 2.18379 3.61975 2.98928
# Velocity P-wave (km/s) = 5.07431 7.18052 6.21725
#
# Compressibility (1/GPa) = 0.02764256
#
# Stress axis : x y z
#
# Youngs Moduli (GPa) = 102.15331 18.87587 46.76102
#
# Poissons Ratio (x) = -0.02363 0.16755
# Poissons Ratio (y) = -0.12787 1.21221
# Poissons Ratio (z) = 0.36603 0.48933
#
# Static dielectric constant tensor:
#      x y z
#    x 3.667650 0.000000 0.019000 
#    y 0.000000 3.015540 0.000000 
#    z 0.019000 0.000000 3.496310 
# 
# 
# High freq. dielectric constant tensor:
#      x y z
#    x 1.750240 0.000000 0.003640 
#    y 0.000000 1.695270 0.000000 
#    z 0.003640 0.000000 1.734070 
# 
# From -- ./inp_files/252548.got.cif
#   From: 2010.06.25/outbox.cif.g09.slc.cpg/sg12_127_cif.got.tgz:252548.got - 2010.06.28 00:19:55.
