data_PCOD8088895
_publ_section_title
;
Structure prediction by ZEFSAII (Michael W. Deem and Ramdas Pophale) SiO2 
 PCOD8088895
Probable space group: C 2/M
;
_chemical_formula_sum "Si O2"
_cell_formula_units_Z 40
_cell_length_a 27.012960
_cell_length_b 7.732292
_cell_length_c 18.987719
_cell_angle_alpha 90.000000
_cell_angle_beta 147.859227
_cell_angle_gamma 90.000000
_cell_volume 2109.919529
_symmetry_space_group_name_H-M "C 2/M"
_symmetry_group_IT_number 12
_symmetry_cell_setting 'monoclinic'
loop_
_space_group_symop_operation_xyz
x,y,z
-x,y,-z
-x,-y,-z
x,-y,z
1/2+x,1/2+y,z
1/2-x,1/2+y,-z
1/2-x,1/2-y,-z
1/2+x,1/2-y,z
loop_
_atom_site_type_symbol
_atom_site_label
_atom_site_fract_x
_atom_site_fract_y
_atom_site_fract_z
Si Si1 0.914903 0.803339 0.555323
Si Si2 0.071144 0.305948 0.649482
Si Si3 0.139353 0.000000 0.118985
Si Si4 0.143745 0.305911 0.368635
Si Si5 0.433202 0.500000 0.815215
Si Si6 0.277051 0.304090 0.264272
O O1 0.899094 0.687786 0.604768
O O2 0.842211 0.745218 0.407694
O O3 0.021032 0.782236 0.655967
O O4 0.897140 0.000000 0.555808
O O5 0.099577 0.500000 0.704084
O O6 0.163818 0.204389 0.737194
O O7 0.000000 0.302440 0.500000
O O8 0.191450 0.826712 0.157041
O O9 0.130280 0.000000 0.192060
O O10 0.041146 0.000000 0.962685
O O11 0.135922 0.500000 0.327687
O O12 0.250000 0.250000 0.500000
O O13 0.087264 0.174166 0.252184
O O14 0.240223 0.500000 0.229586
#
# Coordination Sequence:
#
# PCOD8088895 Si02
#       6
#     8   8   4   8   4   8
#     4  10  19  32  55  91 126 152 190 244 298 348
#     4   9  16  28  50  86 122 154 190 235 296 346
#     4  11  24  42  63  80 118 158 197 242 281 352
#     4  12  23  39  62  89 119 152 190 241 296 353
#     4  11  26  44  60  88 115 155 198 238 294 342
#     4  10  20  34  58  89 120 156 194 240 290 347
#
# _framework density 18.958068999999998
#
# number of rings (size 3 to 8) (size 9 to 14) (size 15 to 20)
#    0.000    1.600    3.000    2.400    2.800    5.600 
#    0.000    2.000    0.000    1.200    0.000    0.000 
#    0.000    0.000    0.000    0.000    0.000    0.000 
#
# Total GULP energy -248006.472834 kJ/mol
# GULP energy per Si atom -12400.323642 kJ/mol
# Density = 1.891492 g / cm^3
# Si number density = 18.958069 Si / 1000 Ang^3
#
#
#
# Elastic Constant Matrix: (Units=GPa)
#
#
# Indices 1 2 3 4 5 6 
#
# 1 124.3552 39.5516 45.2201 0.0000 16.9665 0.0000
# 2 39.5516 136.0223 41.9907 0.0000 7.1016 0.0000
# 3 45.2201 41.9907 65.0526 0.0000 10.9507 0.0000
# 4 0.0000 0.0000 0.0000 26.0517 0.0000 3.4942
# 5 16.9665 7.1016 10.9507 0.0000 24.0139 0.0000
# 6 0.0000 0.0000 0.0000 3.4942 0.0000 29.0320
#
#
#
# Elastic Compliance Matrix: (Units=1/GPa)
#
#
# Indices 1 2 3 4 5 6 
#
# 1 0.011365 -0.001080 -0.006396 0.000000 -0.004794 0.000000
# 2 -0.001080 0.009284 -0.005316 0.000000 0.000442 0.000000
# 3 -0.006396 -0.005316 0.024072 0.000000 -0.004886 0.000000
# 4 0.000000 0.000000 0.000000 0.039015 0.000000 -0.004696
# 5 -0.004794 0.000442 -0.004886 0.000000 0.047127 0.000000
# 6 0.000000 0.000000 0.000000 -0.004696 0.000000 0.035010
#
#
# Mechanical properties :
#
#
# Convention : Reuss Voigt Hill
#
# Bulk Modulus (GPa) = 52.25601 64.32832 58.29217
# Shear Modulus (GPa) = 25.27344 29.06404 27.16874
#
# Velocity S-wave (km/s) = 3.65516 3.91969 3.78973
# Velocity P-wave (km/s) = 6.74073 7.38179 7.06853
#
# Compressibility (1/GPa) = 0.01913655
#
# Stress axis : x y z
#
# Youngs Moduli (GPa) = 87.99112 107.71406 41.54122
#
# Poissons Ratio (x) = 0.11631 0.26570
# Poissons Ratio (y) = 0.09501 0.22085
# Poissons Ratio (z) = 0.56280 0.57265
#
# Static dielectric constant tensor:
#      x y z
#    x 3.729110 0.000000 0.208090 
#    y 0.000000 3.627810 0.000000 
#    z 0.208090 0.000000 3.054090 
# 
# 
# High freq. dielectric constant tensor:
#      x y z
#    x 1.749320 0.000000 0.024050 
#    y 0.000000 1.752900 0.000000 
#    z 0.024050 0.000000 1.683740 
# 
# From -- ./inp_files/274679.got.cif
#   From: 2010.06.25/outbox.cif.g09.slc.cpg/sg12_138_cif.got.tgz:274679.got - 2010.06.28 00:19:55.
