data_PCOD8088702
_publ_section_title
;
Structure prediction by ZEFSAII (Michael W. Deem and Ramdas Pophale) SiO2 
 PCOD8088702
Probable space group: C 2/M
;
_chemical_formula_sum "Si O2"
_cell_formula_units_Z 56
_cell_length_a 31.728657
_cell_length_b 11.572711
_cell_length_c 8.419152
_cell_angle_alpha 90.000000
_cell_angle_beta 118.155187
_cell_angle_gamma 90.000000
_cell_volume 2725.602892
_symmetry_space_group_name_H-M "C 2/M"
_symmetry_group_IT_number 12
_symmetry_cell_setting 'monoclinic'
loop_
_space_group_symop_operation_xyz
x,y,z
-x,y,-z
-x,-y,-z
x,-y,z
1/2+x,1/2+y,z
1/2-x,1/2+y,-z
1/2-x,1/2-y,-z
1/2+x,1/2-y,z
loop_
_atom_site_type_symbol
_atom_site_label
_atom_site_fract_x
_atom_site_fract_y
_atom_site_fract_z
Si Si1 0.130308 0.812721 0.236497
Si Si2 0.881074 0.866213 0.136192
Si Si3 0.205900 0.789722 0.815738
Si Si4 0.770996 0.126821 0.474368
Si Si5 0.363806 0.870061 0.491146
Si Si6 0.032231 0.872442 0.192305
Si Si7 0.048515 0.726977 0.520661
O O1 0.177092 0.886580 0.356429
O O2 0.132952 0.689434 0.330666
O O3 0.086509 0.882936 0.231139
O O4 0.125261 0.795667 0.038924
O O5 0.832069 0.861072 0.148407
O O6 0.925167 0.808008 0.305056
O O7 0.893107 0.000000 0.123190
O O8 0.226376 0.869357 0.711715
O O9 0.179045 0.680559 0.690535
O O10 0.250000 0.750000 0.000000
O O11 0.750000 0.250000 0.500000
O O12 0.745750 0.000000 0.470384
O O13 0.413925 0.864083 0.484318
O O14 0.350516 0.000000 0.503142
O O15 0.027391 0.806473 0.346257
O O16 0.011458 0.000000 0.184863
O O17 0.000000 0.809749 0.000000
O O18 0.000000 0.665319 0.500000
#
# Coordination Sequence:
#
# PCOD8088702 Si02
#       7
#     8   8   8   8   8   8   8
#     4  10  21  37  57  81 113 149 191 239 287 345
#     4  11  21  35  58  86 116 148 184 234 297 355
#     4  10  22  39  59  87 117 148 188 240 295 351
#     4  11  23  39  60  86 117 155 197 239 289 350
#     4   9  21  40  60  81 111 154 198 240 286 341
#     4  10  19  32  54  82 113 150 188 231 288 352
#     4  10  21  35  54  83 117 148 189 238 288 346
#
# _framework density 20.545914
#
# number of rings (size 3 to 8) (size 9 to 14) (size 15 to 20)
#    0.000    1.857    0.000    4.714    0.000    6.000 
#    0.000    2.857    0.000   14.571    0.000    0.000 
#    0.000    0.000    0.000    0.000    0.000    0.000 
#
# Total GULP energy -346986.062340 kJ/mol
# GULP energy per Si atom -12392.359369 kJ/mol
# Density = 2.049915 g / cm^3
# Si number density = 20.545914 Si / 1000 Ang^3
#
#
#
# Elastic Constant Matrix: (Units=GPa)
#
#
# Indices 1 2 3 4 5 6 
#
# 1 93.0907 24.7051 24.5135 0.0000 -1.8382 0.0000
# 2 24.7051 131.6911 36.7483 0.0000 -5.4348 0.0000
# 3 24.5135 36.7483 153.7059 0.0000 -5.0688 0.0000
# 4 0.0000 0.0000 0.0000 12.6363 0.0000 2.7213
# 5 -1.8382 -5.4348 -5.0688 0.0000 41.5930 0.0000
# 6 0.0000 0.0000 0.0000 2.7213 0.0000 8.3416
#
#
#
# Elastic Compliance Matrix: (Units=1/GPa)
#
#
# Indices 1 2 3 4 5 6 
#
# 1 0.011589 -0.001773 -0.001421 0.000000 0.000107 0.000000
# 2 -0.001773 0.008436 -0.001707 0.000000 0.000816 0.000000
# 3 -0.001421 -0.001707 0.007160 0.000000 0.000587 0.000000
# 4 0.000000 0.000000 0.000000 0.085117 0.000000 -0.027769
# 5 0.000107 0.000816 0.000587 0.000000 0.024225 0.000000
# 6 0.000000 0.000000 0.000000 -0.027769 0.000000 0.128941
#
#
# Mechanical properties :
#
#
# Convention : Reuss Voigt Hill
#
# Bulk Modulus (GPa) = 57.52784 61.15795 59.34289
# Shear Modulus (GPa) = 17.78943 32.01555 24.90249
#
# Velocity S-wave (km/s) = 2.94570 3.95174 3.48521
# Velocity P-wave (km/s) = 6.29524 7.11708 6.71873
#
# Compressibility (1/GPa) = 0.01738289
#
# Stress axis : x y z
#
# Youngs Moduli (GPa) = 86.28837 118.53593 139.66400
#
# Poissons Ratio (x) = 0.21019 0.19843
# Poissons Ratio (y) = 0.15301 0.23844
# Poissons Ratio (z) = 0.12260 0.20237
#
# Static dielectric constant tensor:
#      x y z
#    x 3.827850 0.000000 0.062230 
#    y 0.000000 3.385630 0.000000 
#    z 0.062230 0.000000 3.752620 
# 
# 
# High freq. dielectric constant tensor:
#      x y z
#    x 1.813220 0.000000 0.000140 
#    y 0.000000 1.776690 0.000000 
#    z 0.000140 0.000000 1.816610 
# 
# From -- ./inp_files/110555.got.cif
#   From: 2010.06.25/outbox.cif.g09.slc.cpg/sg12_56_cif.got.tgz:110555.got - 2010.06.28 00:19:55.
