data_PCOD8088493
_publ_section_title
;
Structure prediction by ZEFSAII (Michael W. Deem and Ramdas Pophale) SiO2 
 PCOD8088493
Probable space group: C 2/M
;
_chemical_formula_sum "Si O2"
_cell_formula_units_Z 56
_cell_length_a 33.431328
_cell_length_b 8.768797
_cell_length_c 14.965548
_cell_angle_alpha 90.000000
_cell_angle_beta 45.672350
_cell_angle_gamma 90.000000
_cell_volume 3138.399704
_symmetry_space_group_name_H-M "C 2/M"
_symmetry_group_IT_number 12
_symmetry_cell_setting 'monoclinic'
loop_
_space_group_symop_operation_xyz
x,y,z
-x,y,-z
-x,-y,-z
x,-y,z
1/2+x,1/2+y,z
1/2-x,1/2+y,-z
1/2-x,1/2-y,-z
1/2+x,1/2-y,z
loop_
_atom_site_type_symbol
_atom_site_label
_atom_site_fract_x
_atom_site_fract_y
_atom_site_fract_z
Si Si1 0.395041 0.676975 0.981304
Si Si2 0.170475 0.678745 0.067576
Si Si3 0.127205 0.320739 0.651427
Si Si4 0.513179 0.323255 0.878202
Si Si5 0.707680 0.677145 0.179906
Si Si6 0.798394 0.178598 0.607237
Si Si7 0.817393 0.819609 0.263526
O O1 0.383092 0.500000 0.988535
O O2 0.356397 0.739747 0.121954
O O3 0.380524 0.757349 0.910983
O O4 0.459482 0.710685 0.901418
O O5 0.165352 0.500000 0.075509
O O6 0.166373 0.737310 0.175882
O O7 0.228720 0.735619 0.932823
O O8 0.134759 0.500000 0.625962
O O9 0.062426 0.282004 0.765449
O O10 0.147603 0.231416 0.531720
O O11 0.164029 0.266939 0.676996
O O12 0.531483 0.500000 0.845324
O O13 0.500000 0.276950 0.000000
O O14 0.704163 0.500000 0.162908
O O15 0.688456 0.714196 0.309981
O O16 0.746211 0.277863 0.656420
O O17 0.785565 0.000000 0.612875
O O18 0.823964 0.000000 0.268362
#
# Coordination Sequence:
#
# PCOD8088493 Si02
#       7
#     8   8   8   8   8   8   8
#     4  10  20  34  57  82 111 145 180 224 274 326
#     4  10  19  32  53  82 113 142 178 223 272 325
#     4  12  25  38  54  80 112 149 188 228 274 327
#     4  10  20  39  60  80 106 144 189 229 273 322
#     4   9  19  34  53  79 110 144 181 220 270 327
#     4  11  22  38  57  80 112 149 186 228 272 327
#     4  11  21  36  56  81 112 149 185 224 272 326
#
# _framework density 17.843488000000001
#
# number of rings (size 3 to 8) (size 9 to 14) (size 15 to 20)
#    0.000    1.571    2.857    3.000    0.000    3.143 
#    0.000    0.000    0.000    0.857    0.000    6.000 
#    0.000    0.000    0.000    0.000    0.000    0.000 
#
# Total GULP energy -347334.250809 kJ/mol
# GULP energy per Si atom -12404.794672 kJ/mol
# Density = 1.780288 g / cm^3
# Si number density = 17.843488 Si / 1000 Ang^3
#
#
#
# Elastic Constant Matrix: (Units=GPa)
#
#
# Indices 1 2 3 4 5 6 
#
# 1 110.7839 44.1172 46.3833 0.0000 22.9726 0.0001
# 2 44.1172 56.1818 27.6377 0.0000 7.2995 -0.0001
# 3 46.3833 27.6377 89.0638 0.0000 9.2790 0.0001
# 4 0.0000 0.0000 0.0000 24.9138 0.0000 -1.8327
# 5 22.9726 7.2995 9.2790 0.0000 23.6081 0.0000
# 6 0.0001 -0.0001 0.0001 -1.8327 0.0000 31.7671
#
#
#
# Elastic Compliance Matrix: (Units=1/GPa)
#
#
# Indices 1 2 3 4 5 6 
#
# 1 0.017413 -0.009754 -0.004787 0.000000 -0.012047 0.000000
# 2 -0.009754 0.026857 -0.003522 0.000000 0.002572 0.000000
# 3 -0.004787 -0.003522 0.014822 0.000000 -0.000079 0.000000
# 4 0.000000 0.000000 0.000000 0.040309 0.000000 0.002326
# 5 -0.012047 0.002572 -0.000079 0.000000 0.053317 0.000000
# 6 0.000000 0.000000 0.000000 0.002326 0.000000 0.031613
#
#
# Mechanical properties :
#
#
# Convention : Reuss Voigt Hill
#
# Bulk Modulus (GPa) = 43.54152 54.70065 49.12108
# Shear Modulus (GPa) = 21.91891 25.25054 23.58473
#
# Velocity S-wave (km/s) = 3.50865 3.76588 3.63954
# Velocity P-wave (km/s) = 6.39289 7.04496 6.72683
#
# Compressibility (1/GPa) = 0.02296659
#
# Stress axis : x y z
#
# Youngs Moduli (GPa) = 57.42824 37.23385 67.46727
#
# Poissons Ratio (x) = 0.36317 0.32294
# Poissons Ratio (y) = 0.56014 0.23765
# Poissons Ratio (z) = 0.27489 0.13115
#
# Static dielectric constant tensor:
#      x y z
#    x 3.298560 0.000000 0.111710 
#    y 0.000000 3.265330 0.000000 
#    z 0.111710 0.000000 3.254680 
# 
# 
# High freq. dielectric constant tensor:
#      x y z
#    x 1.690140 0.000000 0.010500 
#    y 0.000000 1.694890 0.000000 
#    z 0.010500 0.000000 1.674340 
# 
# From -- ./inp_files/237436.got.cif
#   From: 2010.06.25/outbox.cif.g09.slc.cpg/sg12_119_cif.got.tgz:237436.got - 2010.06.28 00:19:55.
