data_PCOD8088033
_publ_section_title
;
Structure prediction by ZEFSAII (Michael W. Deem and Ramdas Pophale) SiO2 
 PCOD8088033
Probable space group: C 2/M
;
_chemical_formula_sum "Si O2"
_cell_formula_units_Z 64
_cell_length_a 19.722662
_cell_length_b 9.204309
_cell_length_c 21.197835
_cell_angle_alpha 90.000000
_cell_angle_beta 69.640278
_cell_angle_gamma 90.000000
_cell_volume 3607.712490
_symmetry_space_group_name_H-M "C 2/M"
_symmetry_group_IT_number 12
_symmetry_cell_setting 'monoclinic'
loop_
_space_group_symop_operation_xyz
x,y,z
-x,y,-z
-x,-y,-z
x,-y,z
1/2+x,1/2+y,z
1/2-x,1/2+y,-z
1/2-x,1/2-y,-z
1/2+x,1/2-y,z
loop_
_atom_site_type_symbol
_atom_site_label
_atom_site_fract_x
_atom_site_fract_y
_atom_site_fract_z
Si Si1 0.415092 0.664239 0.532585
Si Si2 0.727321 0.827987 0.943461
Si Si3 0.676094 0.169146 0.535847
Si Si4 0.928598 0.331056 0.060162
Si Si5 0.175690 0.167417 0.320230
Si Si6 0.666670 0.833956 0.681622
Si Si7 0.882699 0.837552 0.190892
Si Si8 0.721746 0.164479 0.190601
O O1 0.500000 0.675958 0.500000
O O2 0.387918 0.500000 0.526854
O O3 0.384263 0.775203 0.492018
O O4 0.389732 0.707037 0.611378
O O5 0.643047 0.792719 0.956939
O O6 0.778363 0.761612 0.872380
O O7 0.741043 0.000000 0.943710
O O8 0.750000 0.750000 0.000000
O O9 0.750000 0.250000 0.500000
O O10 0.648060 0.200526 0.615422
O O11 0.689777 0.000000 0.520400
O O12 0.929828 0.500000 0.076229
O O13 0.932049 0.246894 0.125072
O O14 0.000000 0.282131 0.000000
O O15 0.249365 0.203088 0.333763
O O16 0.168095 0.264819 0.259683
O O17 0.173446 0.000000 0.299564
O O18 0.613718 0.737602 0.741911
O O19 0.651006 0.000000 0.704351
O O20 0.801054 0.834684 0.193760
O O21 0.912837 0.000000 0.187618
O O22 0.696485 0.000000 0.183312
#
# Coordination Sequence:
#
# PCOD8088033 Si02
#       8
#     8   8   8   8   8   8   8   8
#     4  10  21  37  55  76 106 142 176 214 264 319
#     4  10  19  32  52  77 104 133 165 206 253 297
#     4  11  21  34  54  80 107 135 175 219 264 312
#     4   9  18  33  53  75 101 136 171 201 243 300
#     4   9  16  30  50  73 100 132 170 208 255 307
#     4   9  17  30  49  73 101 132 167 211 257 304
#     4   9  17  28  46  75 104 130 164 208 253 296
#     4   9  17  29  47  74 102 129 167 210 251 296
#
# _framework density 17.739774000000001
#
# number of rings (size 3 to 8) (size 9 to 14) (size 15 to 20)
#    0.000    2.500    1.250    1.500    0.000    5.500 
#    0.000    0.000    2.750    0.000    0.000    0.000 
#    0.000    0.000    0.000    0.000    0.000    0.000 
#
# Total GULP energy -396804.001977 kJ/mol
# GULP energy per Si atom -12400.125062 kJ/mol
# Density = 1.769940 g / cm^3
# Si number density = 17.739774 Si / 1000 Ang^3
#
#
#
# Elastic Constant Matrix: (Units=GPa)
#
#
# Indices 1 2 3 4 5 6 
#
# 1 43.0222 37.0231 49.3009 0.0000 1.3817 -0.0001
# 2 37.0231 118.0355 90.2763 0.0000 7.4078 -0.0001
# 3 49.3009 90.2763 171.1697 0.0000 0.1973 0.0000
# 4 0.0000 0.0000 0.0000 36.2845 0.0000 6.3779
# 5 1.3817 7.4078 0.1973 0.0000 25.6841 -0.0001
# 6 -0.0001 -0.0001 0.0000 6.3779 -0.0001 20.2725
#
#
#
# Elastic Compliance Matrix: (Units=1/GPa)
#
#
# Indices 1 2 3 4 5 6 
#
# 1 0.036906 -0.005748 -0.007598 0.000000 -0.000269 0.000000
# 2 -0.005748 0.015527 -0.006529 0.000000 -0.004119 0.000000
# 3 -0.007598 -0.006529 0.011471 0.000000 0.002204 0.000000
# 4 0.000000 0.000000 0.000000 0.029173 0.000000 -0.009178
# 5 -0.000269 -0.004119 0.002204 0.000000 0.040120 0.000000
# 6 0.000000 0.000000 0.000000 -0.009178 0.000000 0.052215
#
#
# Mechanical properties :
#
#
# Convention : Reuss Voigt Hill
#
# Bulk Modulus (GPa) = 41.39981 76.15868 58.77925
# Shear Modulus (GPa) = 21.43965 26.82335 24.13150
#
# Velocity S-wave (km/s) = 3.48021 3.89272 3.69223
# Velocity P-wave (km/s) = 6.28785 7.95164 7.16818
#
# Compressibility (1/GPa) = 0.02415470
#
# Stress axis : x y z
#
# Youngs Moduli (GPa) = 27.09614 64.40539 87.17470
#
# Poissons Ratio (x) = 0.37020 0.66234
# Poissons Ratio (y) = 0.15575 0.56913
# Poissons Ratio (z) = 0.20587 0.42048
#
# Static dielectric constant tensor:
#      x y z
#    x 2.872950 0.000000 -0.001090 
#    y 0.000000 3.492620 0.000000 
#    z -0.001090 0.000000 3.459860 
# 
# 
# High freq. dielectric constant tensor:
#      x y z
#    x 1.636810 0.000000 0.004320 
#    y 0.000000 1.694510 0.000000 
#    z 0.004320 0.000000 1.701400 
# 
# From -- ./inp_files/319942.got.cif
#   From: 2010.06.25/outbox.cif.g09.slc.cpg/sg12_160_cif.got.tgz:319942.got - 2010.06.28 00:19:55.
