data_PCOD8088623
_publ_section_title
;
Structure prediction by ZEFSAII (Michael W. Deem and Ramdas Pophale) SiO2 
 PCOD8088623
Probable space group: C 2/M
;
_chemical_formula_sum "Si O2"
_cell_formula_units_Z 56
_cell_length_a 19.292752
_cell_length_b 8.761183
_cell_length_c 20.631315
_cell_angle_alpha 90.000000
_cell_angle_beta 122.657727
_cell_angle_gamma 90.000000
_cell_volume 2935.952803
_symmetry_space_group_name_H-M "C 2/M"
_symmetry_group_IT_number 12
_symmetry_cell_setting 'monoclinic'
loop_
_space_group_symop_operation_xyz
x,y,z
-x,y,-z
-x,-y,-z
x,-y,z
1/2+x,1/2+y,z
1/2-x,1/2+y,-z
1/2-x,1/2-y,-z
1/2+x,1/2-y,z
loop_
_atom_site_type_symbol
_atom_site_label
_atom_site_fract_x
_atom_site_fract_y
_atom_site_fract_z
Si Si1 0.988103 0.170344 0.682475
Si Si2 0.457388 0.671162 0.815682
Si Si3 0.709802 0.820746 0.287498
Si Si4 0.262525 0.821688 0.935853
Si Si5 0.166890 0.182653 0.762033
Si Si6 0.307793 0.317488 0.583578
Si Si7 0.071175 0.825724 0.984881
O O1 0.073807 0.249399 0.702837
O O2 0.991604 0.169679 0.761206
O O3 0.901082 0.247268 0.617245
O O4 0.987429 0.000000 0.653721
O O5 0.429826 0.500000 0.822990
O O6 0.380098 0.782823 0.786076
O O7 0.534039 0.726400 0.897234
O O8 0.777011 0.762045 0.269526
O O9 0.724898 0.734582 0.362881
O O10 0.717542 0.000000 0.303726
O O11 0.201831 0.757284 0.848896
O O12 0.249394 0.000000 0.936448
O O13 0.250000 0.750000 0.000000
O O14 0.354452 0.784370 0.958471
O O15 0.164720 0.000000 0.763478
O O16 0.307751 0.500000 0.582389
O O17 0.250000 0.250000 0.500000
O O18 0.103043 0.000000 0.998411
O O19 0.000000 0.802862 0.000000
#
# Coordination Sequence:
#
# PCOD8088623 Si02
#       7
#     8   8   8   8   8   8   8
#     4   8  15  30  52  73  94 129 173 206 241 297
#     4   9  17  31  50  70  98 137 177 217 260 310
#     4  10  19  32  54  81 106 134 170 215 263 311
#     4  11  22  35  52  75 106 144 185 231 280 326
#     4   9  18  33  52  75 104 137 175 218 262 313
#     4  10  20  36  59  83 107 136 168 206 252 307
#     4  10  20  33  50  73 102 138 181 228 275 322
#
# _framework density 19.073875999999998
#
# number of rings (size 3 to 8) (size 9 to 14) (size 15 to 20)
#    0.000    2.429    0.000    3.857    0.000    3.143 
#    0.000    2.857    0.000   15.429    0.000    0.000 
#    0.000    0.000    0.000    0.000    0.000    0.000 
#
# Total GULP energy -347007.999868 kJ/mol
# GULP energy per Si atom -12393.142852 kJ/mol
# Density = 1.903046 g / cm^3
# Si number density = 19.073876 Si / 1000 Ang^3
#
#
#
# Elastic Constant Matrix: (Units=GPa)
#
#
# Indices 1 2 3 4 5 6 
#
# 1 129.5648 25.5035 54.5624 0.0000 13.1620 0.0000
# 2 25.5035 45.2645 24.7008 0.0000 -0.0272 0.0000
# 3 54.5624 24.7008 115.0562 0.0000 14.9799 0.0000
# 4 0.0000 0.0000 0.0000 26.8275 0.0000 0.5434
# 5 13.1620 -0.0272 14.9799 0.0000 25.0660 0.0000
# 6 0.0000 0.0000 0.0000 0.5434 0.0000 25.6931
#
#
#
# Elastic Compliance Matrix: (Units=1/GPa)
#
#
# Indices 1 2 3 4 5 6 
#
# 1 0.010344 -0.003833 -0.003659 0.000000 -0.003249 0.000000
# 2 -0.003833 0.026733 -0.004540 0.000000 0.004755 0.000000
# 3 -0.003659 -0.004540 0.012093 0.000000 -0.005310 0.000000
# 4 0.000000 0.000000 0.000000 0.037291 0.000000 -0.000789
# 5 -0.003249 0.004755 -0.005310 0.000000 0.044779 0.000000
# 6 0.000000 0.000000 0.000000 -0.000789 0.000000 0.038938
#
#
# Mechanical properties :
#
#
# Convention : Reuss Voigt Hill
#
# Bulk Modulus (GPa) = 39.83507 55.49098 47.66303
# Shear Modulus (GPa) = 24.67783 27.85856 26.26820
#
# Velocity S-wave (km/s) = 3.60085 3.82587 3.71507
# Velocity P-wave (km/s) = 6.18208 6.97655 6.59130
#
# Compressibility (1/GPa) = 0.02510351
#
# Stress axis : x y z
#
# Youngs Moduli (GPa) = 96.67733 37.40750 82.69294
#
# Poissons Ratio (x) = 0.14338 0.30260
# Poissons Ratio (y) = 0.37056 0.37547
# Poissons Ratio (z) = 0.35378 0.16985
#
# Static dielectric constant tensor:
#      x y z
#    x 3.750220 0.000000 0.360560 
#    y 0.000000 3.279430 0.000000 
#    z 0.360560 0.000000 6.023300 
# 
# 
# High freq. dielectric constant tensor:
#      x y z
#    x 1.749560 0.000000 0.007890 
#    y 0.000000 1.708530 0.000000 
#    z 0.007890 0.000000 1.738680 
# 
# From -- ./inp_files/314449.got.cif
#   From: 2010.06.25/outbox.cif.g09.slc.cpg/sg12_158_cif.got.tgz:314449.got - 2010.06.28 00:19:55.
