data_PCOD8088845
_publ_section_title
;
Structure prediction by ZEFSAII (Michael W. Deem and Ramdas Pophale) SiO2 
 PCOD8088845
Probable space group: C 2/M
;
_chemical_formula_sum "Si O2"
_cell_formula_units_Z 64
_cell_length_a 9.815496
_cell_length_b 30.233971
_cell_length_c 15.510615
_cell_angle_alpha 90.000000
_cell_angle_beta 135.965617
_cell_angle_gamma 90.000000
_cell_volume 3199.465639
_symmetry_space_group_name_H-M "C 2/M"
_symmetry_group_IT_number 12
_symmetry_cell_setting 'monoclinic'
loop_
_space_group_symop_operation_xyz
x,y,z
-x,y,-z
-x,-y,-z
x,-y,z
1/2+x,1/2+y,z
1/2-x,1/2+y,-z
1/2-x,1/2-y,-z
1/2+x,1/2-y,z
loop_
_atom_site_type_symbol
_atom_site_label
_atom_site_fract_x
_atom_site_fract_y
_atom_site_fract_z
Si Si1 0.044059 0.876857 0.701558
Si Si2 0.107061 0.381055 0.469986
Si Si3 0.074781 0.450639 0.849184
Si Si4 0.663571 0.868324 0.304370
Si Si5 0.715709 0.950638 0.729805
Si Si6 0.509441 0.788298 0.865426
Si Si7 0.355356 0.551704 0.132862
Si Si8 0.178154 0.789500 0.848817
O O1 0.119011 0.864401 0.638848
O O2 0.183105 0.916215 0.802728
O O3 0.058006 0.833363 0.768452
O O4 0.822970 0.895337 0.599261
O O5 0.146715 0.355698 0.398055
O O6 0.000000 0.353447 0.500000
O O7 0.963128 0.422474 0.390390
O O8 0.986679 0.500000 0.821289
O O9 0.223937 0.449676 0.837059
O O10 0.898648 0.418190 0.745270
O O11 0.192480 0.436559 0.987956
O O12 0.517806 0.835074 0.191922
O O13 0.929943 0.933653 0.801348
O O14 0.680325 0.000000 0.678854
O O15 0.324423 0.774790 0.839535
O O16 0.529743 0.750638 0.801342
O O17 0.703526 0.796923 0.009183
O O18 0.343989 0.500000 0.153461
#
# Coordination Sequence:
#
# PCOD8088845 Si02
#       8
#     8   8   8   8   8   8   8   8
#     4  11  22  37  55  83 115 151 184 228 285 331
#     4  11  22  38  56  79 105 146 198 239 268 319
#     4   9  18  33  54  83 116 150 185 227 279 338
#     4  10  22  38  58  80 116 150 184 227 284 338
#     4   9  18  34  54  77 110 150 192 240 282 319
#     4   9  18  37  59  87 113 147 178 223 281 334
#     4  10  19  32  55  84 116 149 186 229 280 340
#     4   9  19  35  60  85 117 143 179 225 277 338
#
# _framework density 20.003339
#
# number of rings (size 3 to 8) (size 9 to 14) (size 15 to 20)
#    0.000    2.250    1.250    1.500    0.000    5.250 
#    0.000    1.875    0.000    3.750    0.000    0.000 
#    0.000    0.000    0.000    0.000    0.000    0.000 
#
# Total GULP energy -396521.179116 kJ/mol
# GULP energy per Si atom -12391.286847 kJ/mol
# Density = 1.995781 g / cm^3
# Si number density = 20.003339 Si / 1000 Ang^3
#
#
#
# Elastic Constant Matrix: (Units=GPa)
#
#
# Indices 1 2 3 4 5 6 
#
# 1 90.4842 19.8353 31.8049 0.0000 -19.0701 0.0000
# 2 19.8353 68.1834 18.9662 0.0000 -6.8828 0.0000
# 3 31.8049 18.9662 69.8822 0.0000 -9.8348 0.0000
# 4 0.0000 0.0000 0.0000 20.1976 0.0000 -1.5652
# 5 -19.0701 -6.8828 -9.8348 0.0000 32.9276 0.0000
# 6 0.0000 0.0000 0.0000 -1.5652 0.0000 25.9949
#
#
#
# Elastic Compliance Matrix: (Units=1/GPa)
#
#
# Indices 1 2 3 4 5 6 
#
# 1 0.014731 -0.002182 -0.005194 0.000000 0.006524 0.000000
# 2 -0.002182 0.016330 -0.003274 0.000000 0.001172 0.000000
# 3 -0.005194 -0.003274 0.017790 0.000000 0.001621 0.000000
# 4 0.000000 0.000000 0.000000 0.049743 0.000000 0.002995
# 5 0.006524 0.001172 0.001621 0.000000 0.034877 0.000000
# 6 0.000000 0.000000 0.000000 0.002995 0.000000 0.038649
#
#
# Mechanical properties :
#
#
# Convention : Reuss Voigt Hill
#
# Bulk Modulus (GPa) = 36.29598 41.08473 38.69036
# Shear Modulus (GPa) = 24.67866 26.35357 25.51612
#
# Velocity S-wave (km/s) = 3.51626 3.63362 3.57542
# Velocity P-wave (km/s) = 5.88810 6.17963 6.03562
#
# Compressibility (1/GPa) = 0.02755126
#
# Stress axis : x y z
#
# Youngs Moduli (GPa) = 67.88619 61.23662 56.21014
#
# Poissons Ratio (x) = 0.13362 0.29195
# Poissons Ratio (y) = 0.14813 0.18403
# Poissons Ratio (z) = 0.35259 0.20049
#
# Static dielectric constant tensor:
#      x y z
#    x 3.881910 0.000000 -0.264400 
#    y 0.000000 3.462360 0.000000 
#    z -0.264400 0.000000 3.572400 
# 
# 
# High freq. dielectric constant tensor:
#      x y z
#    x 1.793530 0.000000 -0.011110 
#    y 0.000000 1.757930 0.000000 
#    z -0.011110 0.000000 1.773470 
# 
# From -- ./inp_files/201329.got.cif
#   From: 2010.06.25/outbox.cif.g09.slc.cpg/sg12_101_cif.got.tgz:201329.got - 2010.06.28 00:19:55.
