data_PCOD8088521
_publ_section_title
;
Structure prediction by ZEFSAII (Michael W. Deem and Ramdas Pophale) SiO2 
 PCOD8088521
Probable space group: C 2/M
;
_chemical_formula_sum "Si O2"
_cell_formula_units_Z 64
_cell_length_a 22.301524
_cell_length_b 15.077085
_cell_length_c 17.143525
_cell_angle_alpha 90.000000
_cell_angle_beta 146.318852
_cell_angle_gamma 90.000000
_cell_volume 3196.751956
_symmetry_space_group_name_H-M "C 2/M"
_symmetry_group_IT_number 12
_symmetry_cell_setting 'monoclinic'
loop_
_space_group_symop_operation_xyz
x,y,z
-x,y,-z
-x,-y,-z
x,-y,z
1/2+x,1/2+y,z
1/2-x,1/2+y,-z
1/2-x,1/2-y,-z
1/2+x,1/2-y,z
loop_
_atom_site_type_symbol
_atom_site_label
_atom_site_fract_x
_atom_site_fract_y
_atom_site_fract_z
Si Si1 0.796729 0.100740 0.901382
Si Si2 0.125629 0.245217 0.129286
Si Si3 0.761878 0.709113 0.598717
Si Si4 0.446539 0.901093 0.752845
Si Si5 0.184656 0.837043 0.909322
Si Si6 0.052686 0.404818 0.637010
Si Si7 0.327311 0.097348 0.923355
Si Si8 0.968702 0.744284 0.645393
O O1 0.866920 0.159846 0.918576
O O2 0.673351 0.133458 0.761405
O O3 0.810618 0.000000 0.888175
O O4 0.833911 0.107745 0.031545
O O5 0.178822 0.227705 0.272388
O O6 0.192222 0.327063 0.162302
O O7 0.000000 0.269169 0.000000
O O8 0.750000 0.750000 0.500000
O O9 0.831752 0.618047 0.672081
O O10 0.636792 0.696097 0.487486
O O11 0.465605 0.815640 0.719510
O O12 0.438247 0.000000 0.704966
O O13 0.545982 0.899894 0.919269
O O14 0.252671 0.890753 0.919064
O O15 0.067058 0.812671 0.749675
O O16 0.250000 0.750000 0.000000
O O17 0.056746 0.500000 0.688682
O O18 0.000000 0.429879 0.500000
O O19 0.976205 0.330168 0.588096
O O20 0.299628 0.000000 0.858872
#
# Coordination Sequence:
#
# PCOD8088521 Si02
#       8
#     8   8   8   8   8   8   8   8
#     4  11  23  39  61  91 128 166 211 262 314 376
#     4  12  23  41  66  91 127 165 216 266 308 373
#     4  10  24  40  59  88 122 167 208 254 315 376
#     4  10  19  36  59  87 117 154 206 261 305 361
#     4  12  20  37  65  94 126 164 206 258 318 373
#     4  10  19  32  53  84 116 149 197 259 316 365
#     4  11  22  38  66  99 126 159 209 268 318 367
#     4  11  20  35  59  84 119 160 201 247 315 378
#
# _framework density 20.020320999999999
#
# number of rings (size 3 to 8) (size 9 to 14) (size 15 to 20)
#    0.000    1.125    5.000    1.500    1.750    3.000 
#    0.000    3.750    0.000    0.750    0.000    0.000 
#    0.000    0.000    0.000    0.000    0.000    0.000 
#
# Total GULP energy -396484.664649 kJ/mol
# GULP energy per Si atom -12390.145770 kJ/mol
# Density = 1.997475 g / cm^3
# Si number density = 20.020321 Si / 1000 Ang^3
#
#
#
# Elastic Constant Matrix: (Units=GPa)
#
#
# Indices 1 2 3 4 5 6 
#
# 1 95.6434 41.9891 39.6670 0.0000 -2.1481 0.0000
# 2 41.9891 93.8616 21.0175 0.0000 4.5810 0.0000
# 3 39.6670 21.0175 110.3137 0.0000 11.7507 0.0000
# 4 0.0000 0.0000 0.0000 26.1532 0.0000 9.4176
# 5 -2.1481 4.5810 11.7507 0.0000 39.2908 0.0000
# 6 0.0000 0.0000 0.0000 9.4176 0.0000 38.1692
#
#
#
# Elastic Compliance Matrix: (Units=1/GPa)
#
#
# Indices 1 2 3 4 5 6 
#
# 1 0.014971 -0.005811 -0.004582 0.000000 0.002866 0.000000
# 2 -0.005811 0.013402 -0.000272 0.000000 -0.001799 0.000000
# 3 -0.004582 -0.000272 0.011143 0.000000 -0.003551 0.000000
# 4 0.000000 0.000000 0.000000 0.041965 0.000000 -0.010354
# 5 0.002866 -0.001799 -0.003551 0.000000 0.026880 0.000000
# 6 0.000000 0.000000 0.000000 -0.010354 0.000000 0.028754
#
#
# Mechanical properties :
#
#
# Convention : Reuss Voigt Hill
#
# Bulk Modulus (GPa) = 54.98696 56.12955 55.55825
# Shear Modulus (GPa) = 30.39381 33.86563 32.12972
#
# Velocity S-wave (km/s) = 3.90057 4.11732 4.01041
# Velocity P-wave (km/s) = 6.91456 7.12041 7.01824
#
# Compressibility (1/GPa) = 0.01818613
#
# Stress axis : x y z
#
# Youngs Moduli (GPa) = 66.79429 74.61309 89.74540
#
# Poissons Ratio (x) = 0.43361 0.41117
# Poissons Ratio (y) = 0.38817 0.02443
# Poissons Ratio (z) = 0.30602 0.02031
#
# Static dielectric constant tensor:
#      x y z
#    x 3.931480 0.000000 0.190830 
#    y 0.000000 3.809150 0.000000 
#    z 0.190830 0.000000 3.847270 
# 
# 
# High freq. dielectric constant tensor:
#      x y z
#    x 1.782140 0.000000 0.005610 
#    y 0.000000 1.770360 0.000000 
#    z 0.005610 0.000000 1.774650 
# 
# From -- ./inp_files/290135.got.cif
#   From: 2010.06.25/outbox.cif.g09.slc.cpg/sg12_146_cif.got.tgz:290135.got - 2010.06.28 00:19:55.
