data_PCOD8088653
_publ_section_title
;
Structure prediction by ZEFSAII (Michael W. Deem and Ramdas Pophale) SiO2 
 PCOD8088653
Probable space group: C 2/M
;
_chemical_formula_sum "Si O2"
_cell_formula_units_Z 56
_cell_length_a 25.516146
_cell_length_b 13.983347
_cell_length_c 8.790891
_cell_angle_alpha 90.000000
_cell_angle_beta 117.183724
_cell_angle_gamma 90.000000
_cell_volume 2790.150374
_symmetry_space_group_name_H-M "C 2/M"
_symmetry_group_IT_number 12
_symmetry_cell_setting 'monoclinic'
loop_
_space_group_symop_operation_xyz
x,y,z
-x,y,-z
-x,-y,-z
x,-y,z
1/2+x,1/2+y,z
1/2-x,1/2+y,-z
1/2-x,1/2-y,-z
1/2+x,1/2-y,z
loop_
_atom_site_type_symbol
_atom_site_label
_atom_site_fract_x
_atom_site_fract_y
_atom_site_fract_z
Si Si1 0.335289 0.890448 0.887121
Si Si2 0.856831 0.110530 0.936036
Si Si3 0.634558 0.791929 0.611776
Si Si4 0.926667 0.729652 0.170251
Si Si5 0.736712 0.890605 0.926531
Si Si6 0.317349 0.732486 0.621807
Si Si7 0.972100 0.603573 0.627386
O O1 0.338529 0.825626 0.742775
O O2 0.340852 0.000000 0.843487
O O3 0.388809 0.862520 0.069188
O O4 0.276343 0.872713 0.911505
O O5 0.805292 0.135151 0.989759
O O6 0.831004 0.136734 0.735821
O O7 0.875826 0.000000 0.964405
O O8 0.913698 0.176259 0.050694
O O9 0.592236 0.743141 0.681890
O O10 0.695853 0.827989 0.763040
O O11 0.649425 0.719009 0.494734
O O12 0.597305 0.876293 0.481428
O O13 0.994129 0.692460 0.243371
O O14 0.724575 0.000000 0.866327
O O15 0.250000 0.750000 0.500000
O O16 0.979074 0.500000 0.720528
O O17 0.000000 0.594236 0.500000
#
# Coordination Sequence:
#
# PCOD8088653 Si02
#       7
#     8   8   8   8   8   8   8
#     4   9  19  32  49  74 106 141 178 215 263 323
#     4  10  21  37  54  74 104 143 187 224 263 313
#     4  10  19  32  54  81 112 139 172 217 277 327
#     4   9  19  34  58  77 105 141 184 225 261 312
#     4   9  17  31  52  77 103 140 181 216 258 317
#     4  11  22  33  50  77 114 146 171 216 274 332
#     4   9  17  32  56  86 113 137 171 220 273 323
#
# _framework density 20.070602000000001
#
# number of rings (size 3 to 8) (size 9 to 14) (size 15 to 20)
#    0.000    2.429    1.429    0.857    2.000    6.857 
#    0.000    3.571    0.000    9.857    0.000    0.000 
#    0.000    0.000    0.000    0.000    0.000    0.000 
#
# Total GULP energy -346969.745620 kJ/mol
# GULP energy per Si atom -12391.776629 kJ/mol
# Density = 2.002492 g / cm^3
# Si number density = 20.070602 Si / 1000 Ang^3
#
#
#
# Elastic Constant Matrix: (Units=GPa)
#
#
# Indices 1 2 3 4 5 6 
#
# 1 23.0100 5.8512 10.2893 0.0000 0.0787 0.0000
# 2 5.8512 103.5107 29.5339 0.0000 12.2225 0.0000
# 3 10.2893 29.5339 68.1068 0.0000 1.5065 0.0000
# 4 0.0000 0.0000 0.0000 21.6903 0.0000 6.7120
# 5 0.0787 12.2225 1.5065 0.0000 30.7637 0.0000
# 6 0.0000 0.0000 0.0000 6.7120 0.0000 13.1393
#
#
#
# Elastic Compliance Matrix: (Units=1/GPa)
#
#
# Indices 1 2 3 4 5 6 
#
# 1 0.046662 -0.000781 -0.006722 0.000000 0.000520 0.000000
# 2 -0.000781 0.011594 -0.004813 0.000000 -0.004369 0.000000
# 3 -0.006722 -0.004813 0.017762 0.000000 0.001060 0.000000
# 4 0.000000 0.000000 0.000000 0.054760 0.000000 -0.027973
# 5 0.000520 -0.004369 0.001060 0.000000 0.034188 0.000000
# 6 0.000000 0.000000 0.000000 -0.027973 0.000000 0.090397
#
#
# Mechanical properties :
#
#
# Convention : Reuss Voigt Hill
#
# Bulk Modulus (GPa) = 19.46074 31.77516 25.61795
# Shear Modulus (GPa) = 16.82789 23.04885 19.93837
#
# Velocity S-wave (km/s) = 2.89872 3.39246 3.15526
# Velocity P-wave (km/s) = 4.57390 5.58669 5.10547
#
# Compressibility (1/GPa) = 0.05138552
#
# Stress axis : x y z
#
# Youngs Moduli (GPa) = 21.43055 86.25067 56.29965
#
# Poissons Ratio (x) = 0.06737 0.37847
# Poissons Ratio (y) = 0.01674 0.27097
# Poissons Ratio (z) = 0.14406 0.41513
#
# Static dielectric constant tensor:
#      x y z
#    x 3.731370 0.000000 -0.220510 
#    y 0.000000 3.488740 0.000000 
#    z -0.220510 0.000000 4.302480 
# 
# 
# High freq. dielectric constant tensor:
#      x y z
#    x 1.763440 0.000000 -0.000660 
#    y 0.000000 1.761790 0.000000 
#    z -0.000660 0.000000 1.777920 
# 
# From -- ./inp_files/86345.got.cif
#   From: 2010.06.25/outbox.cif.g09.slc.cpg/sg12_44_cif.got.tgz:86345.got - 2010.06.28 00:19:55.
