data_PCOD8088078
_publ_section_title
;
Structure prediction by ZEFSAII (Michael W. Deem and Ramdas Pophale) SiO2 
 PCOD8088078
Probable space group: C 2/M
;
_chemical_formula_sum "Si O2"
_cell_formula_units_Z 56
_cell_length_a 28.295453
_cell_length_b 9.451159
_cell_length_c 17.256474
_cell_angle_alpha 90.000000
_cell_angle_beta 136.232699
_cell_angle_gamma 90.000000
_cell_volume 3192.207508
_symmetry_space_group_name_H-M "C 2/M"
_symmetry_group_IT_number 12
_symmetry_cell_setting 'monoclinic'
loop_
_space_group_symop_operation_xyz
x,y,z
-x,y,-z
-x,-y,-z
x,-y,z
1/2+x,1/2+y,z
1/2-x,1/2+y,-z
1/2-x,1/2-y,-z
1/2+x,1/2-y,z
loop_
_atom_site_type_symbol
_atom_site_label
_atom_site_fract_x
_atom_site_fract_y
_atom_site_fract_z
Si Si1 0.087796 0.167069 0.718370
Si Si2 0.453596 0.836637 0.580627
Si Si3 0.183384 0.837768 0.151271
Si Si4 0.574415 0.163522 0.116341
Si Si5 0.337981 0.164393 0.323029
Si Si6 0.899507 0.160896 0.092169
Si Si7 0.971613 0.661311 0.774815
O O1 0.140834 0.236891 0.722802
O O2 0.116681 0.202353 0.838299
O O3 0.013614 0.237776 0.618857
O O4 0.081769 0.000000 0.695445
O O5 0.385147 0.803441 0.452759
O O6 0.437799 0.800184 0.651943
O O7 0.476182 0.000000 0.596807
O O8 0.135555 0.747389 0.149905
O O9 0.261562 0.793082 0.256936
O O10 0.171563 0.000000 0.160420
O O11 0.166241 0.813257 0.039904
O O12 0.580824 0.188916 0.216848
O O13 0.583445 0.000000 0.104732
O O14 0.500000 0.217225 0.000000
O O15 0.342268 0.000000 0.302780
O O16 0.960560 0.250761 0.128898
O O17 0.924560 0.000000 0.118989
O O18 0.996023 0.500000 0.804314
#
# Coordination Sequence:
#
# PCOD8088078 Si02
#       7
#     8   8   8   8   8   8   8
#     4  10  20  33  52  77 101 127 165 210 252 291
#     4   9  18  34  55  74  97 132 170 204 241 289
#     4  10  21  35  51  72 102 136 167 200 243 296
#     4  10  19  32  52  78 103 126 161 206 249 295
#     4  10  21  36  51  71 100 135 172 204 238 291
#     4   9  18  32  49  73 102 129 161 203 248 293
#     4   9  17  31  52  76  99 126 162 205 248 289
#
# _framework density 17.542719999999999
#
# number of rings (size 3 to 8) (size 9 to 14) (size 15 to 20)
#    0.000    2.429    1.429    0.857    0.000    4.857 
#    0.000    0.714    0.000    0.000    0.000    0.000 
#    0.000    0.000    0.000    0.000    0.000    0.000 
#
# Total GULP energy -347178.598800 kJ/mol
# GULP energy per Si atom -12399.235671 kJ/mol
# Density = 1.750279 g / cm^3
# Si number density = 17.542720 Si / 1000 Ang^3
#
#
#
# Elastic Constant Matrix: (Units=GPa)
#
#
# Indices 1 2 3 4 5 6 
#
# 1 125.8965 59.6306 60.0874 0.0000 5.7519 0.0000
# 2 59.6306 68.4550 39.6485 0.0000 5.5092 0.0000
# 3 60.0874 39.6485 78.2803 0.0000 8.7450 0.0000
# 4 0.0000 0.0000 0.0000 19.6985 0.0000 -0.7775
# 5 5.7519 5.5092 8.7450 0.0000 23.4013 0.0000
# 6 0.0000 0.0000 0.0000 -0.7775 0.0000 33.3218
#
#
#
# Elastic Compliance Matrix: (Units=1/GPa)
#
#
# Indices 1 2 3 4 5 6 
#
# 1 0.016120 -0.009755 -0.007562 0.000000 0.001160 0.000000
# 2 -0.009755 0.026599 -0.005794 0.000000 -0.001699 0.000000
# 3 -0.007562 -0.005794 0.022075 0.000000 -0.005027 0.000000
# 4 0.000000 0.000000 0.000000 0.050812 0.000000 0.001186
# 5 0.001160 -0.001699 -0.005027 0.000000 0.044726 0.000000
# 6 0.000000 0.000000 0.000000 0.001186 0.000000 0.030038
#
#
# Mechanical properties :
#
#
# Convention : Reuss Voigt Hill
#
# Bulk Modulus (GPa) = 53.84800 65.70720 59.77760
# Shear Modulus (GPa) = 20.59454 22.83536 21.71495
#
# Velocity S-wave (km/s) = 3.43003 3.61182 3.52210
# Velocity P-wave (km/s) = 6.81534 7.41151 7.11967
#
# Compressibility (1/GPa) = 0.01857079
#
# Stress axis : x y z
#
# Youngs Moduli (GPa) = 62.03558 37.59604 45.29927
#
# Poissons Ratio (x) = 0.36676 0.34255
# Poissons Ratio (y) = 0.60518 0.26247
# Poissons Ratio (z) = 0.46912 0.21784
#
# Static dielectric constant tensor:
#      x y z
#    x 3.195170 0.000000 -0.242020 
#    y 0.000000 3.289740 0.000000 
#    z -0.242020 0.000000 3.382640 
# 
# 
# High freq. dielectric constant tensor:
#      x y z
#    x 1.668580 0.000000 -0.019270 
#    y 0.000000 1.678850 0.000000 
#    z -0.019270 0.000000 1.675130 
# 
# From -- ./inp_files/288151.got.cif
#   From: 2010.06.25/outbox.cif.g09.slc.cpg/sg12_145_cif.got.tgz:288151.got - 2010.06.28 00:19:55.
