data_PCOD8088751
_publ_section_title
;
Structure prediction by ZEFSAII (Michael W. Deem and Ramdas Pophale) SiO2 
 PCOD8088751
Probable space group: C 2/M
;
_chemical_formula_sum "Si O2"
_cell_formula_units_Z 44
_cell_length_a 19.909889
_cell_length_b 9.000153
_cell_length_c 14.272442
_cell_angle_alpha 90.000000
_cell_angle_beta 122.173781
_cell_angle_gamma 90.000000
_cell_volume 2164.769295
_symmetry_space_group_name_H-M "C 2/M"
_symmetry_group_IT_number 12
_symmetry_cell_setting 'monoclinic'
loop_
_space_group_symop_operation_xyz
x,y,z
-x,y,-z
-x,-y,-z
x,-y,z
1/2+x,1/2+y,z
1/2-x,1/2+y,-z
1/2-x,1/2-y,-z
1/2+x,1/2-y,z
loop_
_atom_site_type_symbol
_atom_site_label
_atom_site_fract_x
_atom_site_fract_y
_atom_site_fract_z
Si Si1 0.412851 0.328860 0.205245
Si Si2 0.720747 0.676242 0.383739
Si Si3 0.339991 0.336567 0.959475
Si Si4 0.217240 0.172025 0.746147
Si Si5 0.057188 0.335094 0.237114
Si Si6 0.000000 0.250032 0.000000
O O1 0.439108 0.500000 0.214179
O O2 0.368411 0.300460 0.270333
O O3 0.491172 0.228300 0.259309
O O4 0.351741 0.288011 0.076205
O O5 0.723603 0.500000 0.394704
O O6 0.750000 0.750000 0.500000
O O7 0.779064 0.728499 0.344000
O O8 0.632111 0.726904 0.294157
O O9 0.299947 0.500000 0.922730
O O10 0.286330 0.214065 0.870075
O O11 0.425531 0.351050 0.973140
O O12 0.229421 0.000000 0.728381
O O13 0.081279 0.500000 0.289082
O O14 0.023180 0.349638 0.106775
#
# Coordination Sequence:
#
# PCOD8088751 Si02
#       6
#     8   8   8   8   8   4
#     4   9  21  38  57  87 128 167 202 247 305 366
#     4  12  26  45  68  91 120 159 208 261 309 365
#     4  10  19  32  54  85 124 167 208 247 299 364
#     4  11  22  38  60  88 124 162 205 254 306 363
#     4  11  22  38  62  93 127 162 206 254 305 366
#     4  10  20  32  56  90 130 164 202 250 306 366
#
# _framework density 20.325492000000001
#
# number of rings (size 3 to 8) (size 9 to 14) (size 15 to 20)
#    0.000    1.455    1.818    3.818    0.000    5.818 
#    0.000    0.909    0.000    5.455    0.000    0.000 
#    0.000    0.000    0.000    0.000    0.000    0.000 
#
# Total GULP energy -272824.608461 kJ/mol
# GULP energy per Si atom -12401.118566 kJ/mol
# Density = 2.027923 g / cm^3
# Si number density = 20.325492 Si / 1000 Ang^3
#
#
#
# Elastic Constant Matrix: (Units=GPa)
#
#
# Indices 1 2 3 4 5 6 
#
# 1 116.2224 51.8733 42.8405 0.0000 -18.2752 0.0000
# 2 51.8733 143.3829 42.6850 0.0000 -12.5353 0.0000
# 3 42.8405 42.6850 73.5247 0.0000 -13.5270 0.0000
# 4 0.0000 0.0000 0.0000 29.1541 0.0000 0.6570
# 5 -18.2752 -12.5353 -13.5270 0.0000 23.7785 0.0000
# 6 0.0000 0.0000 0.0000 0.6570 0.0000 30.8888
#
#
#
# Elastic Compliance Matrix: (Units=1/GPa)
#
#
# Indices 1 2 3 4 5 6 
#
# 1 0.012347 -0.002596 -0.004683 0.000000 0.005457 0.000000
# 2 -0.002596 0.009051 -0.003609 0.000000 0.000723 0.000000
# 3 -0.004683 -0.003609 0.019448 0.000000 0.005562 0.000000
# 4 0.000000 0.000000 0.000000 0.034317 0.000000 -0.000730
# 5 0.005457 0.000723 0.005562 0.000000 0.049794 0.000000
# 6 0.000000 0.000000 0.000000 -0.000730 0.000000 0.032390
#
#
# Mechanical properties :
#
#
# Convention : Reuss Voigt Hill
#
# Bulk Modulus (GPa) = 52.43826 67.54750 59.99288
# Shear Modulus (GPa) = 26.95710 29.81303 28.38506
#
# Velocity S-wave (km/s) = 3.64575 3.83401 3.74107
# Velocity P-wave (km/s) = 6.60131 7.27355 6.94557
#
# Compressibility (1/GPa) = 0.01907004
#
# Stress axis : x y z
#
# Youngs Moduli (GPa) = 80.99075 110.48411 51.41849
#
# Poissons Ratio (x) = 0.28678 0.24081
# Poissons Ratio (y) = 0.21022 0.18558
# Poissons Ratio (z) = 0.37931 0.39875
#
# Static dielectric constant tensor:
#      x y z
#    x 3.847980 0.000000 -0.155210 
#    y 0.000000 3.588030 0.000000 
#    z -0.155210 0.000000 3.510290 
# 
# 
# High freq. dielectric constant tensor:
#      x y z
#    x 1.802630 0.000000 -0.011360 
#    y 0.000000 1.797850 0.000000 
#    z -0.011360 0.000000 1.765470 
# 
# From -- ./inp_files/230553.got.cif
#   From: 2010.06.25/outbox.cif.g09.slc.cpg/sg12_116_cif.got.tgz:230553.got - 2010.06.28 00:19:55.
