data_PCOD8088661
_publ_section_title
;
Structure prediction by ZEFSAII (Michael W. Deem and Ramdas Pophale) SiO2 
 PCOD8088661
Probable space group: C 2/M
;
_chemical_formula_sum "Si O2"
_cell_formula_units_Z 40
_cell_length_a 17.331617
_cell_length_b 14.399168
_cell_length_c 24.053377
_cell_angle_alpha 90.000000
_cell_angle_beta 20.409341
_cell_angle_gamma 90.000000
_cell_volume 2093.319095
_symmetry_space_group_name_H-M "C 2/M"
_symmetry_group_IT_number 12
_symmetry_cell_setting 'monoclinic'
loop_
_space_group_symop_operation_xyz
x,y,z
-x,y,-z
-x,-y,-z
x,-y,z
1/2+x,1/2+y,z
1/2-x,1/2+y,-z
1/2-x,1/2-y,-z
1/2+x,1/2-y,z
loop_
_atom_site_type_symbol
_atom_site_label
_atom_site_fract_x
_atom_site_fract_y
_atom_site_fract_z
Si Si1 0.228996 0.397830 0.274805
Si Si2 0.449417 0.610248 0.469391
Si Si3 0.721485 0.601679 0.632501
Si Si4 0.273852 0.767965 0.174281
Si Si5 0.593232 0.769652 0.656607
O O1 0.254791 0.500000 0.229738
O O2 0.327370 0.402249 0.269630
O O3 0.356776 0.318157 0.155763
O O4 0.971923 0.367896 0.450421
O O5 0.500000 0.634756 0.500000
O O6 0.456104 0.500000 0.455176
O O7 0.630696 0.658025 0.306490
O O8 0.201519 0.647312 0.620585
O O9 0.674258 0.500000 0.638269
O O10 0.560345 0.676960 0.715144
O O11 0.147046 0.716382 0.208491
O O12 0.500000 0.817006 0.000000
O O13 0.750000 0.750000 0.500000
#
# Coordination Sequence:
#
# PCOD8088661 Si02
#       5
#     8   8   8   8   8
#     4   9  17  31  54  79 106 139 173 221 276 324
#     4  10  21  39  61  80 106 149 195 230 261 320
#     4   9  16  30  55  81 102 132 182 232 266 311
#     4  11  23  37  54  83 119 147 176 225 287 332
#     4  10  19  32  54  82 107 143 184 227 272 319
#
# _framework density 19.108409999999999
#
# number of rings (size 3 to 8) (size 9 to 14) (size 15 to 20)
#    0.000    2.200    4.000    2.400    0.000    4.800 
#    0.000    4.000    0.000    4.800    0.000    0.000 
#    0.000    0.000    0.000    0.000    0.000    0.000 
#
# Total GULP energy -247761.000055 kJ/mol
# GULP energy per Si atom -12388.050003 kJ/mol
# Density = 1.906492 g / cm^3
# Si number density = 19.108410 Si / 1000 Ang^3
#
#
#
# Elastic Constant Matrix: (Units=GPa)
#
#
# Indices 1 2 3 4 5 6 
#
# 1 94.0819 47.1390 34.3390 0.0049 -3.0179 -0.0648
# 2 47.1390 119.0383 29.7021 0.1310 7.6593 -0.0871
# 3 34.3390 29.7021 76.0124 -0.1286 -5.7429 0.2034
# 4 0.0049 0.1310 -0.1286 15.2289 0.0598 7.1464
# 5 -3.0179 7.6593 -5.7429 0.0598 14.7427 -0.0776
# 6 -0.0648 -0.0871 0.2034 7.1464 -0.0776 18.9782
#
#
#
# Elastic Compliance Matrix: (Units=1/GPa)
#
#
# Indices 1 2 3 4 5 6 
#
# 1 0.014914 -0.005043 -0.004470 -0.000070 0.003933 0.000118
# 2 -0.005043 0.011648 -0.002894 -0.000130 -0.008211 0.000082
# 3 -0.004470 -0.002894 0.016847 0.000273 0.007149 -0.000283
# 4 -0.000070 -0.000130 0.000273 0.079767 -0.000322 -0.030042
# 5 0.003933 -0.008211 0.007149 -0.000322 0.075689 0.000330
# 6 0.000118 0.000082 -0.000283 -0.030042 0.000330 0.064010
#
#
# Mechanical properties :
#
#
# Convention : Reuss Voigt Hill
#
# Bulk Modulus (GPa) = 53.77891 56.83254 55.30572
# Shear Modulus (GPa) = 17.01331 21.65345 19.33338
#
# Velocity S-wave (km/s) = 2.98712 3.36994 3.18429
# Velocity P-wave (km/s) = 6.33265 6.70438 6.52116
#
# Compressibility (1/GPa) = 0.01859465
#
# Stress axis : x y z
#
# Youngs Moduli (GPa) = 67.05246 85.84843 59.35690
#
# Poissons Ratio (x) = 0.43296 0.26532
# Poissons Ratio (y) = 0.33817 0.17178
# Poissons Ratio (z) = 0.29972 0.24845
#
# Static dielectric constant tensor:
#      x y z
#    x 3.748750 -0.004770 -0.159040 
#    y -0.004770 3.909880 0.000010 
#    z -0.159040 0.000010 3.190350 
# 
# 
# High freq. dielectric constant tensor:
#      x y z
#    x 1.753430 -0.000010 0.006660 
#    y -0.000010 1.748080 0.000070 
#    z 0.006660 0.000070 1.691950 
# 
# From -- ./inp_files/157597.got.cif
#   From: 2010.06.25/outbox.cif.g09.slc.cpg/sg12_79_cif.got.tgz:157597.got - 2010.06.28 00:19:55.
