data_PCOD8088400
_publ_section_title
;
Structure prediction by ZEFSAII (Michael W. Deem and Ramdas Pophale) SiO2 
 PCOD8088400
Probable space group: C 2/M
;
_chemical_formula_sum "Si O2"
_cell_formula_units_Z 56
_cell_length_a 32.962538
_cell_length_b 8.997209
_cell_length_c 11.315317
_cell_angle_alpha 90.000000
_cell_angle_beta 60.238355
_cell_angle_gamma 90.000000
_cell_volume 2913.157096
_symmetry_space_group_name_H-M "C 2/M"
_symmetry_group_IT_number 12
_symmetry_cell_setting 'monoclinic'
loop_
_space_group_symop_operation_xyz
x,y,z
-x,y,-z
-x,-y,-z
x,-y,z
1/2+x,1/2+y,z
1/2-x,1/2+y,-z
1/2-x,1/2-y,-z
1/2+x,1/2-y,z
loop_
_atom_site_type_symbol
_atom_site_label
_atom_site_fract_x
_atom_site_fract_y
_atom_site_fract_z
Si Si1 0.895463 0.324305 0.903365
Si Si2 0.114871 0.674359 0.345609
Si Si3 0.786380 0.329583 0.696181
Si Si4 0.163074 0.674239 0.612997
Si Si5 0.007504 0.325585 0.125266
Si Si6 0.423463 0.676232 0.372554
Si Si7 0.807304 0.675493 0.171968
O O1 0.890514 0.500000 0.908186
O O2 0.899632 0.267214 0.762759
O O3 0.940334 0.276538 0.914112
O O4 0.849124 0.257442 0.031985
O O5 0.104640 0.500000 0.379370
O O6 0.169954 0.706587 0.282452
O O7 0.084394 0.764225 0.483766
O O8 0.771739 0.500000 0.726264
O O9 0.799816 0.286993 0.542468
O O10 0.742162 0.235128 0.802920
O O11 0.150306 0.500000 0.630885
O O12 0.115249 0.762060 0.661332
O O13 0.184784 0.727176 0.704782
O O14 0.998800 0.500000 0.159926
O O15 0.973521 0.231383 0.256678
O O16 0.000000 0.283327 0.000000
O O17 0.421675 0.500000 0.376251
O O18 0.806156 0.500000 0.164409
#
# Coordination Sequence:
#
# PCOD8088400 Si02
#       7
#     8   8   8   8   8   8   8
#     4   9  19  35  56  79 102 137 184 224 255 304
#     4   9  19  38  57  74 103 142 184 220 254 308
#     4   9  18  31  49  74 105 143 180 217 263 312
#     4   9  18  34  54  77 108 143 179 217 259 315
#     4  10  20  37  61  84 107 138 176 214 258 316
#     4  11  22  35  55  82 110 138 172 219 271 315
#     4  10  19  32  53  80 107 137 177 223 266 309
#
# _framework density 19.223130999999999
#
# number of rings (size 3 to 8) (size 9 to 14) (size 15 to 20)
#    0.000    2.429    0.000    3.429    0.000    6.571 
#    0.000    5.000    0.000    0.000    0.000    0.000 
#    0.000    0.000    0.000    0.000    0.000    0.000 
#
# Total GULP energy -347247.665016 kJ/mol
# GULP energy per Si atom -12401.702322 kJ/mol
# Density = 1.917938 g / cm^3
# Si number density = 19.223131 Si / 1000 Ang^3
#
#
#
# Elastic Constant Matrix: (Units=GPa)
#
#
# Indices 1 2 3 4 5 6 
#
# 1 97.3704 26.6186 61.7030 0.0000 0.0332 0.0000
# 2 26.6186 49.6282 33.5203 0.0000 -7.6472 0.0000
# 3 61.7030 33.5203 96.5653 0.0000 -13.4998 0.0000
# 4 0.0000 0.0000 0.0000 19.2444 0.0000 -12.0114
# 5 0.0332 -7.6472 -13.4998 0.0000 35.2002 0.0000
# 6 0.0000 0.0000 0.0000 -12.0114 0.0000 23.4846
#
#
#
# Elastic Compliance Matrix: (Units=1/GPa)
#
#
# Indices 1 2 3 4 5 6 
#
# 1 0.018265 -0.002890 -0.011368 0.000000 -0.005005 0.000000
# 2 -0.002890 0.026962 -0.007073 0.000000 0.003148 0.000000
# 3 -0.011368 -0.007073 0.020986 0.000000 0.006523 0.000000
# 4 0.000000 0.000000 0.000000 0.076330 0.000000 0.039040
# 5 -0.005005 0.003148 0.006523 0.000000 0.031599 0.000000
# 6 0.000000 0.000000 0.000000 0.039040 0.000000 0.062548
#
#
# Mechanical properties :
#
#
# Convention : Reuss Voigt Hill
#
# Bulk Modulus (GPa) = 42.45678 54.13862 48.29770
# Shear Modulus (GPa) = 17.40934 23.70065 20.55500
#
# Velocity S-wave (km/s) = 3.01266 3.51511 3.27354
# Velocity P-wave (km/s) = 5.85113 6.68574 6.28231
#
# Compressibility (1/GPa) = 0.02355337
#
# Stress axis : x y z
#
# Youngs Moduli (GPa) = 54.74821 37.08934 47.65015
#
# Poissons Ratio (x) = 0.10719 0.54167
# Poissons Ratio (y) = 0.15822 0.33701
# Poissons Ratio (z) = 0.62236 0.26231
#
# Static dielectric constant tensor:
#      x y z
#    x 3.616730 0.000000 0.076320 
#    y 0.000000 3.183740 0.000000 
#    z 0.076320 0.000000 3.617050 
# 
# 
# High freq. dielectric constant tensor:
#      x y z
#    x 1.752000 0.000000 -0.001440 
#    y 0.000000 1.716360 0.000000 
#    z -0.001440 0.000000 1.753460 
# 
# From -- ./inp_files/187220.got.cif
#   From: 2010.06.25/outbox.cif.g09.slc.cpg/sg12_94_cif.got.tgz:187220.got - 2010.06.28 00:19:55.
