data_PCOD8088205
_publ_section_title
;
Structure prediction by ZEFSAII (Michael W. Deem and Ramdas Pophale) SiO2 
 PCOD8088205
Probable space group: C 2/M
;
_chemical_formula_sum "Si O2"
_cell_formula_units_Z 64
_cell_length_a 16.988295
_cell_length_b 13.471794
_cell_length_c 18.976437
_cell_angle_alpha 90.000000
_cell_angle_beta 127.767020
_cell_angle_gamma 90.000000
_cell_volume 3433.175399
_symmetry_space_group_name_H-M "C 2/M"
_symmetry_group_IT_number 12
_symmetry_cell_setting 'monoclinic'
loop_
_space_group_symop_operation_xyz
x,y,z
-x,y,-z
-x,-y,-z
x,-y,z
1/2+x,1/2+y,z
1/2-x,1/2+y,-z
1/2-x,1/2-y,-z
1/2+x,1/2-y,z
loop_
_atom_site_type_symbol
_atom_site_label
_atom_site_fract_x
_atom_site_fract_y
_atom_site_fract_z
Si Si1 0.634331 0.885598 0.655333
Si Si2 0.843967 0.114554 0.183039
Si Si3 0.056517 0.803798 0.291585
Si Si4 0.237284 0.385354 0.573507
Si Si5 0.232395 0.797515 0.155472
Si Si6 0.169705 0.889011 0.987076
Si Si7 0.442700 0.615233 0.862582
Si Si8 0.559069 0.885432 0.375283
O O1 0.685322 0.834522 0.614581
O O2 0.696918 0.868017 0.760402
O O3 0.520910 0.851703 0.608665
O O4 0.630532 0.000000 0.634678
O O5 0.767630 0.183265 0.185533
O O6 0.824182 0.141551 0.090820
O O7 0.958157 0.139336 0.265912
O O8 0.822160 0.000000 0.188560
O O9 0.155864 0.838175 0.386867
O O10 0.072294 0.828641 0.219044
O O11 0.045337 0.685533 0.299572
O O12 0.256719 0.500000 0.599876
O O13 0.167987 0.370345 0.467635
O O14 0.119896 0.819394 0.116939
O O15 0.239063 0.822092 0.075456
O O16 0.055654 0.882281 0.950243
O O17 0.209377 0.000000 0.018235
O O18 0.406166 0.500000 0.836630
O O19 0.541522 0.000000 0.342249
#
# Coordination Sequence:
#
# PCOD8088205 Si02
#       8
#     8   8   8   8   8   8   8   8
#     4  10  19  32  52  82 109 131 167 216 271 317
#     4  10  22  37  52  76 109 143 178 214 256 315
#     4  11  19  35  54  76 103 144 181 216 257 312
#     4  10  19  33  56  79 105 138 174 221 268 314
#     4  12  19  32  55  82 106 137 172 214 266 311
#     4   9  19  34  55  83 110 133 168 218 265 307
#     4  10  20  34  56  84 109 133 175 225 264 306
#     4  10  21  35  51  79 112 138 172 218 269 322
#
# _framework density 18.641634
#
# number of rings (size 3 to 8) (size 9 to 14) (size 15 to 20)
#    0.000    1.750    2.500    4.500    0.000    2.500 
#    0.000    0.625    0.000    1.500    0.000    0.875 
#    0.000    0.000    0.000    0.000    0.000    0.000 
#
# Total GULP energy -396587.903367 kJ/mol
# GULP energy per Si atom -12393.371980 kJ/mol
# Density = 1.859920 g / cm^3
# Si number density = 18.641634 Si / 1000 Ang^3
#
#
#
# Elastic Constant Matrix: (Units=GPa)
#
#
# Indices 1 2 3 4 5 6 
#
# 1 60.0612 48.9997 8.1922 0.0000 -1.5662 0.0000
# 2 48.9997 91.1370 22.8340 0.0000 -3.3853 0.0000
# 3 8.1922 22.8340 50.5941 0.0000 0.6061 0.0000
# 4 0.0000 0.0000 0.0000 21.3213 0.0000 2.6566
# 5 -1.5662 -3.3853 0.6061 0.0000 13.0391 0.0000
# 6 0.0000 0.0000 0.0000 2.6566 0.0000 30.1609
#
#
#
# Elastic Compliance Matrix: (Units=1/GPa)
#
#
# Indices 1 2 3 4 5 6 
#
# 1 0.030000 -0.016854 0.002760 0.000000 -0.000901 0.000000
# 2 -0.016854 0.022000 -0.007248 0.000000 0.004024 0.000000
# 3 0.002760 -0.007248 0.022621 0.000000 -0.002602 0.000000
# 4 0.000000 0.000000 0.000000 0.047422 0.000000 -0.004177
# 5 -0.000901 0.004024 -0.002602 0.000000 0.077750 0.000000
# 6 0.000000 0.000000 0.000000 -0.004177 0.000000 0.033523
#
#
# Mechanical properties :
#
#
# Convention : Reuss Voigt Hill
#
# Bulk Modulus (GPa) = 31.31333 40.20492 35.75912
# Shear Modulus (GPa) = 17.44311 21.02202 19.23256
#
# Velocity S-wave (km/s) = 3.06225 3.36176 3.21549
# Velocity P-wave (km/s) = 5.41638 6.05662 5.74542
#
# Compressibility (1/GPa) = 0.03193528
#
# Stress axis : x y z
#
# Youngs Moduli (GPa) = 33.33318 45.45507 44.20753
#
# Poissons Ratio (x) = 0.76612 -0.12201
# Poissons Ratio (y) = 0.56181 0.32042
# Poissons Ratio (z) = -0.09200 0.32946
#
# Static dielectric constant tensor:
#      x y z
#    x 3.460160 0.000000 0.147200 
#    y 0.000000 3.276030 0.000000 
#    z 0.147200 0.000000 3.409240 
# 
# 
# High freq. dielectric constant tensor:
#      x y z
#    x 1.709970 0.000000 0.015420 
#    y 0.000000 1.702940 0.000000 
#    z 0.015420 0.000000 1.728180 
# 
# From -- ./inp_files/315761.got.cif
#   From: 2010.06.25/outbox.cif.g09.slc.cpg/sg12_158_cif.got.tgz:315761.got - 2010.06.28 00:19:55.
