data_PCOD8088188
_publ_section_title
;
Structure prediction by ZEFSAII (Michael W. Deem and Ramdas Pophale) SiO2 
 PCOD8088188
Probable space group: C 2/M
;
_chemical_formula_sum "Si O2"
_cell_formula_units_Z 56
_cell_length_a 20.127397
_cell_length_b 8.995002
_cell_length_c 28.973593
_cell_angle_alpha 90.000000
_cell_angle_beta 34.516701
_cell_angle_gamma 90.000000
_cell_volume 2972.373586
_symmetry_space_group_name_H-M "C 2/M"
_symmetry_group_IT_number 12
_symmetry_cell_setting 'monoclinic'
loop_
_space_group_symop_operation_xyz
x,y,z
-x,y,-z
-x,-y,-z
x,-y,z
1/2+x,1/2+y,z
1/2-x,1/2+y,-z
1/2-x,1/2-y,-z
1/2+x,1/2-y,z
loop_
_atom_site_type_symbol
_atom_site_label
_atom_site_fract_x
_atom_site_fract_y
_atom_site_fract_z
Si Si1 0.767625 0.674168 0.699882
Si Si2 0.197743 0.326326 0.427066
Si Si3 0.500496 0.325323 0.594671
Si Si4 0.026890 0.675943 0.849791
Si Si5 0.684790 0.672804 0.995657
Si Si6 0.086091 0.329854 0.182603
Si Si7 0.568702 0.326713 0.657954
O O1 0.759290 0.500000 0.714897
O O2 0.778102 0.707645 0.639849
O O3 0.877393 0.741756 0.663848
O O4 0.653885 0.754905 0.785178
O O5 0.173713 0.500000 0.449895
O O6 0.308257 0.264992 0.392956
O O7 0.083307 0.234811 0.506788
O O8 0.480291 0.500000 0.599654
O O9 0.560910 0.286464 0.608750
O O10 0.031019 0.500000 0.853662
O O11 0.940472 0.745318 0.938543
O O12 0.978810 0.724123 0.826970
O O13 0.664273 0.500000 0.018555
O O14 0.750000 0.750000 0.000000
O O15 0.772383 0.691538 0.901770
O O16 0.053417 0.500000 0.209694
O O17 0.041616 0.239982 0.251951
O O18 0.563502 0.500000 0.670216
#
# Coordination Sequence:
#
# PCOD8088188 Si02
#       7
#     8   8   8   8   8   8   8
#     4  11  22  37  58  80 108 145 181 224 272 322
#     4  10  21  38  58  80 104 138 185 228 271 322
#     4  11  24  38  54  79 110 144 181 224 273 323
#     4  10  19  32  52  81 111 141 179 222 270 322
#     4   9  17  29  47  77 112 143 177 220 269 318
#     4   9  18  31  51  80 110 140 177 220 265 315
#     4  10  21  37  56  79 109 144 181 223 270 321
#
# _framework density 18.840161999999999
#
# number of rings (size 3 to 8) (size 9 to 14) (size 15 to 20)
#    0.000    2.000    1.429    3.429    0.000    7.429 
#    0.000    0.000    0.000    0.857    0.000    6.000 
#    0.000    0.000    0.000    0.000    0.000    0.000 
#
# Total GULP energy -347222.249588 kJ/mol
# GULP energy per Si atom -12400.794628 kJ/mol
# Density = 1.879728 g / cm^3
# Si number density = 18.840162 Si / 1000 Ang^3
#
#
#
# Elastic Constant Matrix: (Units=GPa)
#
#
# Indices 1 2 3 4 5 6 
#
# 1 46.7168 22.5680 13.4711 0.0014 -16.6474 -0.0046
# 2 22.5680 79.1833 44.9703 -0.0004 -11.2484 -0.0024
# 3 13.4711 44.9703 116.1615 -0.0001 -27.9020 -0.0001
# 4 0.0014 -0.0004 -0.0001 40.5968 0.0002 -4.0771
# 5 -16.6474 -11.2484 -27.9020 0.0002 23.6718 0.0002
# 6 -0.0046 -0.0024 -0.0001 -4.0771 0.0002 25.1165
#
#
#
# Elastic Compliance Matrix: (Units=1/GPa)
#
#
# Indices 1 2 3 4 5 6 
#
# 1 0.033472 -0.009213 0.005981 -0.000001 0.026211 0.000005
# 2 -0.009213 0.018727 -0.007812 0.000001 -0.006789 0.000000
# 3 0.005981 -0.007812 0.015425 0.000000 0.018676 0.000000
# 4 -0.000001 0.000001 0.000000 0.025041 -0.000001 0.004065
# 5 0.026211 -0.006789 0.018676 -0.000001 0.079466 0.000003
# 6 0.000005 0.000000 0.000000 0.004065 0.000003 0.040474
#
#
# Mechanical properties :
#
#
# Convention : Reuss Voigt Hill
#
# Bulk Modulus (GPa) = 21.96062 44.89782 33.42922
# Shear Modulus (GPa) = 20.01024 28.61383 24.31203
#
# Velocity S-wave (km/s) = 3.26253 3.90136 3.59616
# Velocity P-wave (km/s) = 5.08662 6.64657 5.91822
#
# Compressibility (1/GPa) = 0.04553605
#
# Stress axis : x y z
#
# Youngs Moduli (GPa) = 29.87576 53.39865 64.82811
#
# Poissons Ratio (x) = 0.49197 -0.38774
# Poissons Ratio (y) = 0.27525 0.50644
# Poissons Ratio (z) = -0.17869 0.41716
#
# Static dielectric constant tensor:
#      x y z
#    x 3.220840 0.000000 -0.169770 
#    y 0.000000 3.490220 0.000000 
#    z -0.169770 0.000000 3.697460 
# 
# 
# High freq. dielectric constant tensor:
#      x y z
#    x 1.695480 0.000000 -0.014210 
#    y 0.000000 1.738750 0.000000 
#    z -0.014210 0.000000 1.746630 
# 
# From -- ./inp_files/275700.got.cif
#   From: 2010.06.25/outbox.cif.g09.slc.cpg/sg12_138_cif.got.tgz:275700.got - 2010.06.28 00:19:55.
