data_PCOD8088471
_publ_section_title
;
Structure prediction by ZEFSAII (Michael W. Deem and Ramdas Pophale) SiO2 
 PCOD8088471
Probable space group: C 2/M
;
_chemical_formula_sum "Si O2"
_cell_formula_units_Z 56
_cell_length_a 20.180547
_cell_length_b 8.789043
_cell_length_c 16.981113
_cell_angle_alpha 90.000000
_cell_angle_beta 103.849654
_cell_angle_gamma 90.000000
_cell_volume 2924.336473
_symmetry_space_group_name_H-M "C 2/M"
_symmetry_group_IT_number 12
_symmetry_cell_setting 'monoclinic'
loop_
_space_group_symop_operation_xyz
x,y,z
-x,y,-z
-x,-y,-z
x,-y,z
1/2+x,1/2+y,z
1/2-x,1/2+y,-z
1/2-x,1/2-y,-z
1/2+x,1/2-y,z
loop_
_atom_site_type_symbol
_atom_site_label
_atom_site_fract_x
_atom_site_fract_y
_atom_site_fract_z
Si Si1 0.383457 0.675156 0.087106
Si Si2 0.025472 0.677833 0.159737
Si Si3 0.424465 0.170969 0.512546
Si Si4 0.794154 0.322663 0.194489
Si Si5 0.643162 0.325947 0.099968
Si Si6 0.526307 0.322673 0.324716
Si Si7 0.121880 0.822977 0.650392
O O1 0.381005 0.500000 0.113966
O O2 0.461244 0.729000 0.109644
O O3 0.339153 0.774502 0.133313
O O4 0.352347 0.697254 0.992092
O O5 0.008752 0.500000 0.153489
O O6 0.088095 0.711998 0.119971
O O7 0.045757 0.728632 0.253106
O O8 0.500000 0.174587 0.500000
O O9 0.422627 0.270555 0.591438
O O10 0.374058 0.241119 0.433097
O O11 0.400945 0.000000 0.525370
O O12 0.805789 0.500000 0.211966
O O13 0.715912 0.281946 0.156643
O O14 0.815674 0.234293 0.279232
O O15 0.623269 0.500000 0.114506
O O16 0.537350 0.500000 0.311874
O O17 0.448207 0.284666 0.324171
O O18 0.128710 0.000000 0.635933
#
# Coordination Sequence:
#
# PCOD8088471 Si02
#       7
#     8   8   8   8   8   8   8
#     4  11  22  39  61  83 111 148 189 236 287 340
#     4  12  24  37  58  85 114 148 191 238 282 334
#     4   9  17  29  49  79 114 145 181 232 278 323
#     4  11  22  37  59  85 114 148 189 237 282 334
#     4  10  24  42  58  80 113 152 190 232 288 342
#     4  10  19  33  54  80 113 149 186 228 278 336
#     4  10  19  32  53  81 113 150 187 226 277 335
#
# _framework density 19.149643000000001
#
# number of rings (size 3 to 8) (size 9 to 14) (size 15 to 20)
#    0.000    1.571    1.429    4.286    0.000    6.857 
#    0.000    0.000    0.000    0.857    0.000    0.000 
#    0.000    0.000    0.000    0.000    0.000    0.000 
#
# Total GULP energy -347354.426889 kJ/mol
# GULP energy per Si atom -12405.515246 kJ/mol
# Density = 1.910606 g / cm^3
# Si number density = 19.149643 Si / 1000 Ang^3
#
#
#
# Elastic Constant Matrix: (Units=GPa)
#
#
# Indices 1 2 3 4 5 6 
#
# 1 33.7875 6.9137 -6.2444 0.0000 3.4929 0.0000
# 2 6.9137 51.9544 17.9779 0.0000 3.0606 0.0000
# 3 -6.2444 17.9779 85.6998 0.0000 9.3999 0.0000
# 4 0.0000 0.0000 0.0000 37.6691 0.0000 -2.5664
# 5 3.4929 3.0606 9.3999 0.0000 10.2483 0.0000
# 6 0.0000 0.0000 0.0000 -2.5664 0.0000 26.1354
#
#
#
# Elastic Compliance Matrix: (Units=1/GPa)
#
#
# Indices 1 2 3 4 5 6 
#
# 1 0.033118 -0.005327 0.005108 0.000000 -0.014382 0.000000
# 2 -0.005327 0.021667 -0.004918 0.000000 -0.000144 0.000000
# 3 0.005108 -0.004918 0.014568 0.000000 -0.013634 0.000000
# 4 0.000000 0.000000 0.000000 0.026726 0.000000 0.002624
# 5 -0.014382 -0.000144 -0.013634 0.000000 0.115027 0.000000
# 6 0.000000 0.000000 0.000000 0.002624 0.000000 0.038520
#
#
# Mechanical properties :
#
#
# Convention : Reuss Voigt Hill
#
# Bulk Modulus (GPa) = 16.92662 23.19291 20.05977
# Shear Modulus (GPa) = 17.88324 24.99689 21.44006
#
# Velocity S-wave (km/s) = 3.05924 3.61688 3.34968
# Velocity P-wave (km/s) = 4.61919 5.43876 5.04564
#
# Compressibility (1/GPa) = 0.05907852
#
# Stress axis : x y z
#
# Youngs Moduli (GPa) = 30.19541 46.15379 68.64423
#
# Poissons Ratio (x) = 0.24588 -0.35064
# Poissons Ratio (y) = 0.16086 0.33756
# Poissons Ratio (z) = -0.15424 0.22696
#
# Static dielectric constant tensor:
#      x y z
#    x 3.175840 0.000000 0.101260 
#    y 0.000000 3.602200 0.000000 
#    z 0.101260 0.000000 3.736110 
# 
# 
# High freq. dielectric constant tensor:
#      x y z
#    x 1.705060 0.000000 0.005110 
#    y 0.000000 1.757860 0.000000 
#    z 0.005110 0.000000 1.764320 
# 
# From -- ./inp_files/275590.got.cif
#   From: 2010.06.25/outbox.cif.g09.slc.cpg/sg12_138_cif.got.tgz:275590.got - 2010.06.28 00:19:55.
