data_PCOD8088098
_publ_section_title
;
Structure prediction by ZEFSAII (Michael W. Deem and Ramdas Pophale) SiO2 
 PCOD8088098
Probable space group: C 2/M
;
_chemical_formula_sum "Si O2"
_cell_formula_units_Z 64
_cell_length_a 16.263120
_cell_length_b 27.888309
_cell_length_c 11.716498
_cell_angle_alpha 90.000000
_cell_angle_beta 146.324062
_cell_angle_gamma 90.000000
_cell_volume 2946.602125
_symmetry_space_group_name_H-M "C 2/M"
_symmetry_group_IT_number 12
_symmetry_cell_setting 'monoclinic'
loop_
_space_group_symop_operation_xyz
x,y,z
-x,y,-z
-x,-y,-z
x,-y,z
1/2+x,1/2+y,z
1/2-x,1/2+y,-z
1/2-x,1/2-y,-z
1/2+x,1/2-y,z
loop_
_atom_site_type_symbol
_atom_site_label
_atom_site_fract_x
_atom_site_fract_y
_atom_site_fract_z
Si Si1 0.717396 0.811285 0.852390
Si Si2 0.790385 0.089436 0.049633
Si Si3 0.067738 0.863722 0.457804
Si Si4 0.326497 0.946671 0.310498
Si Si5 0.048156 0.793001 0.236510
Si Si6 0.220573 0.351941 0.624719
Si Si7 0.503585 0.192105 0.790603
Si Si8 0.637778 0.887819 0.091746
O O1 0.649206 0.823945 0.650078
O O2 0.606054 0.783303 0.808414
O O3 0.737552 0.859560 0.946455
O O4 0.873680 0.786429 0.009187
O O5 0.694402 0.078165 0.053413
O O6 0.965920 0.094158 0.282847
O O7 0.754915 0.052140 0.907743
O O8 0.075326 0.815962 0.391355
O O9 0.232989 0.883297 0.665135
O O10 0.000000 0.847566 0.500000
O O11 0.500000 0.933740 0.500000
O O12 0.251616 0.907731 0.308939
O O13 0.306522 0.000000 0.339455
O O14 0.123739 0.827244 0.229707
O O15 0.099930 0.737008 0.287966
O O16 0.104854 0.348369 0.387562
O O17 0.592642 0.165735 0.994848
O O18 0.500000 0.911712 0.000000
#
# Coordination Sequence:
#
# PCOD8088098 Si02
#       8
#     8   8   8   8   8   8   8   8
#     4   9  19  35  53  71 105 156 199 238 288 353
#     4   8  17  35  56  80 111 150 193 239 297 364
#     4   9  19  35  53  74 109 159 204 240 289 355
#     4  10  20  37  66  98 122 150 195 251 316 387
#     4  11  22  34  51  80 116 158 203 250 294 345
#     4  11  21  36  56  84 119 155 193 249 315 356
#     4  11  22  34  50  79 116 158 208 245 285 352
#     4  10  19  32  52  78 108 151 204 250 290 346
#
# _framework density 21.719933000000001
#
# number of rings (size 3 to 8) (size 9 to 14) (size 15 to 20)
#    0.000    2.125    0.000    5.250    0.000    3.000 
#    0.000    0.000    0.000   17.250    0.000    5.250 
#    0.000    0.000    0.000    0.000    0.000    0.000 
#
# Total GULP energy -396517.092074 kJ/mol
# GULP energy per Si atom -12391.159127 kJ/mol
# Density = 2.167050 g / cm^3
# Si number density = 21.719933 Si / 1000 Ang^3
#
#
#
# Elastic Constant Matrix: (Units=GPa)
#
#
# Indices 1 2 3 4 5 6 
#
# 1 85.1912 37.6340 22.6243 0.0000 5.7932 0.0000
# 2 37.6340 92.9525 27.7155 0.0000 -3.9530 0.0000
# 3 22.6243 27.7155 109.8944 0.0000 1.6917 0.0000
# 4 0.0000 0.0000 0.0000 14.4475 0.0000 -4.4558
# 5 5.7932 -3.9530 1.6917 0.0000 29.1297 0.0000
# 6 0.0000 0.0000 0.0000 -4.4558 0.0000 21.9753
#
#
#
# Elastic Compliance Matrix: (Units=1/GPa)
#
#
# Indices 1 2 3 4 5 6 
#
# 1 0.014938 -0.005735 -0.001573 0.000000 -0.003658 0.000000
# 2 -0.005735 0.013924 -0.002380 0.000000 0.003168 0.000000
# 3 -0.001573 -0.002380 0.010033 0.000000 -0.000593 0.000000
# 4 0.000000 0.000000 0.000000 0.073833 0.000000 0.014971
# 5 -0.003658 0.003168 -0.000593 0.000000 0.035521 0.000000
# 6 0.000000 0.000000 0.000000 0.014971 0.000000 0.048541
#
#
# Mechanical properties :
#
#
# Convention : Reuss Voigt Hill
#
# Bulk Modulus (GPa) = 51.22797 51.55395 51.39096
# Shear Modulus (GPa) = 22.45459 26.44814 24.45137
#
# Velocity S-wave (km/s) = 3.21880 3.49333 3.35887
# Velocity P-wave (km/s) = 6.11973 6.32917 6.22533
#
# Compressibility (1/GPa) = 0.01952059
#
# Stress axis : x y z
#
# Youngs Moduli (GPa) = 66.94327 71.81682 99.67340
#
# Poissons Ratio (x) = 0.41184 0.15676
# Poissons Ratio (y) = 0.38389 0.23721
# Poissons Ratio (z) = 0.10529 0.17092
#
# Static dielectric constant tensor:
#      x y z
#    x 4.178090 0.000000 -0.032420 
#    y 0.000000 3.379440 0.000000 
#    z -0.032420 0.000000 4.319400 
# 
# 
# High freq. dielectric constant tensor:
#      x y z
#    x 1.855240 0.000000 -0.003090 
#    y 0.000000 1.794540 0.000000 
#    z -0.003090 0.000000 1.867500 
# 
# From -- ./inp_files/161268.got.cif
#   From: 2010.06.25/outbox.cif.g09.slc.cpg/sg12_81_cif.got.tgz:161268.got - 2010.06.28 00:19:55.
