data_PCOD8088701
_publ_section_title
;
Structure prediction by ZEFSAII (Michael W. Deem and Ramdas Pophale) SiO2 
 PCOD8088701
Probable space group: C 2/M
;
_chemical_formula_sum "Si O2"
_cell_formula_units_Z 56
_cell_length_a 24.720878
_cell_length_b 8.789189
_cell_length_c 21.870629
_cell_angle_alpha 90.000000
_cell_angle_beta 138.877892
_cell_angle_gamma 90.000000
_cell_volume 3125.210937
_symmetry_space_group_name_H-M "C 2/M"
_symmetry_group_IT_number 12
_symmetry_cell_setting 'monoclinic'
loop_
_space_group_symop_operation_xyz
x,y,z
-x,y,-z
-x,-y,-z
x,-y,z
1/2+x,1/2+y,z
1/2-x,1/2+y,-z
1/2-x,1/2-y,-z
1/2+x,1/2-y,z
loop_
_atom_site_type_symbol
_atom_site_label
_atom_site_fract_x
_atom_site_fract_y
_atom_site_fract_z
Si Si1 0.370710 0.323890 0.589810
Si Si2 0.960272 0.826130 0.210608
Si Si3 0.335059 0.821089 0.780232
Si Si4 0.017252 0.321757 0.898131
Si Si5 0.721612 0.324529 0.913321
Si Si6 0.751388 0.823352 0.598441
Si Si7 0.666193 0.679663 0.091569
O O1 0.358614 0.500000 0.562794
O O2 0.465774 0.279933 0.681120
O O3 0.336632 0.224472 0.504607
O O4 0.322492 0.282576 0.610667
O O5 0.958037 0.719738 0.149609
O O6 0.876517 0.806841 0.177147
O O7 0.972024 0.000000 0.197929
O O8 0.424709 0.768965 0.833193
O O9 0.267627 0.773561 0.672918
O O10 0.312443 0.734464 0.822642
O O11 0.330973 0.000000 0.788412
O O12 0.028304 0.500000 0.917053
O O13 0.076565 0.239182 0.996399
O O14 0.748845 0.500000 0.936554
O O15 0.762967 0.240821 0.892152
O O16 0.750000 0.250000 0.000000
O O17 0.750304 0.000000 0.614470
O O18 0.665969 0.500000 0.087995
#
# Coordination Sequence:
#
# PCOD8088701 Si02
#       7
#     8   8   8   8   8   8   8
#     4   9  18  33  53  80 113 146 181 223 271 328
#     4  10  20  35  57  82 112 147 184 226 275 327
#     4  11  23  38  56  81 113 148 185 229 280 333
#     4  11  22  35  55  82 113 146 183 228 277 329
#     4  11  22  37  58  83 110 146 189 233 277 322
#     4  10  19  32  54  82 113 146 181 223 272 331
#     4  12  25  39  56  78 110 152 191 229 275 330
#
# _framework density 17.918790000000001
#
# number of rings (size 3 to 8) (size 9 to 14) (size 15 to 20)
#    0.000    1.429    2.857    3.429    0.000    5.143 
#    0.000    0.000    0.000    0.857    0.000    6.000 
#    0.000    0.000    0.000    0.000    0.000    0.000 
#
# Total GULP energy -347356.152468 kJ/mol
# GULP energy per Si atom -12405.576874 kJ/mol
# Density = 1.787801 g / cm^3
# Si number density = 17.918790 Si / 1000 Ang^3
#
#
#
# Elastic Constant Matrix: (Units=GPa)
#
#
# Indices 1 2 3 4 5 6 
#
# 1 68.5737 35.9000 46.7441 0.0000 -7.0183 0.0000
# 2 35.9000 98.4799 46.8176 0.0000 -5.8681 0.0000
# 3 46.7441 46.8176 126.5875 0.0000 3.3349 0.0000
# 4 0.0000 0.0000 0.0000 34.1746 0.0000 -3.3081
# 5 -7.0183 -5.8681 3.3349 0.0000 27.5731 0.0000
# 6 0.0000 0.0000 0.0000 -3.3081 0.0000 25.6885
#
#
#
# Elastic Compliance Matrix: (Units=1/GPa)
#
#
# Indices 1 2 3 4 5 6 
#
# 1 0.022020 -0.004575 -0.006582 0.000000 0.005427 0.000000
# 2 -0.004575 0.013556 -0.003380 0.000000 0.002129 0.000000
# 3 -0.006582 -0.003380 0.011681 0.000000 -0.003808 0.000000
# 4 0.000000 0.000000 0.000000 0.029631 0.000000 0.003816
# 5 0.005427 0.002129 -0.003808 0.000000 0.038562 0.000000
# 6 0.000000 0.000000 0.000000 0.003816 0.000000 0.039419
#
#
# Mechanical properties :
#
#
# Convention : Reuss Voigt Hill
#
# Bulk Modulus (GPa) = 54.99890 61.39606 58.19748
# Shear Modulus (GPa) = 26.31508 28.43252 27.37380
#
# Velocity S-wave (km/s) = 3.83636 3.98772 3.91277
# Velocity P-wave (km/s) = 7.09814 7.45254 7.27750
#
# Compressibility (1/GPa) = 0.01818218
#
# Stress axis : x y z
#
# Youngs Moduli (GPa) = 45.41290 73.76836 85.61031
#
# Poissons Ratio (x) = 0.33746 0.56352
# Poissons Ratio (y) = 0.20775 0.28940
# Poissons Ratio (z) = 0.29892 0.24937
#
# Static dielectric constant tensor:
#      x y z
#    x 3.307170 0.000000 0.141070 
#    y 0.000000 3.432410 0.000000 
#    z 0.141070 0.000000 3.368050 
# 
# 
# High freq. dielectric constant tensor:
#      x y z
#    x 1.673270 0.000000 0.007010 
#    y 0.000000 1.705490 0.000000 
#    z 0.007010 0.000000 1.696210 
# 
# From -- ./inp_files/288461.got.cif
#   From: 2010.06.25/outbox.cif.g09.slc.cpg/sg12_145_cif.got.tgz:288461.got - 2010.06.28 00:19:55.
