data_PCOD8088520
_publ_section_title
;
Structure prediction by ZEFSAII (Michael W. Deem and Ramdas Pophale) SiO2 
 PCOD8088520
Probable space group: C 2/M
;
_chemical_formula_sum "Si O2"
_cell_formula_units_Z 56
_cell_length_a 29.282660
_cell_length_b 16.452763
_cell_length_c 9.557733
_cell_angle_alpha 90.000000
_cell_angle_beta 38.852666
_cell_angle_gamma 90.000000
_cell_volume 2888.639413
_symmetry_space_group_name_H-M "C 2/M"
_symmetry_group_IT_number 12
_symmetry_cell_setting 'monoclinic'
loop_
_space_group_symop_operation_xyz
x,y,z
-x,y,-z
-x,-y,-z
x,-y,z
1/2+x,1/2+y,z
1/2-x,1/2+y,-z
1/2-x,1/2-y,-z
1/2+x,1/2-y,z
loop_
_atom_site_type_symbol
_atom_site_label
_atom_site_fract_x
_atom_site_fract_y
_atom_site_fract_z
Si Si1 0.305445 0.682983 0.307920
Si Si2 0.417690 0.906801 0.895680
Si Si3 0.669662 0.089811 0.639160
Si Si4 0.547016 0.852034 0.753880
Si Si5 0.904243 0.763274 0.826573
Si Si6 0.061643 0.804172 0.551585
Si Si7 0.082685 0.905893 0.756571
O O1 0.250000 0.750000 0.500000
O O2 0.252333 0.608276 0.401340
O O3 0.365984 0.654166 0.275203
O O4 0.338262 0.711508 0.083064
O O5 0.498893 0.908339 0.766640
O O6 0.413343 0.835832 0.788254
O O7 0.400918 0.000000 0.882120
O O8 0.363216 0.866946 0.143331
O O9 0.618457 0.098919 0.627064
O O10 0.665235 0.000000 0.705562
O O11 0.578792 0.772758 0.605833
O O12 0.500000 0.824715 0.000000
O O13 0.890771 0.799522 0.704094
O O14 0.976254 0.804492 0.718761
O O15 0.086272 0.882792 0.582889
O O16 0.106741 0.000000 0.717192
O O17 0.000000 0.892293 0.000000
#
# Coordination Sequence:
#
# PCOD8088520 Si02
#       7
#     8   8   8   8   8   8   8
#     4  12  22  38  61  89 118 156 198 245 300 365
#     4   9  17  32  55  84 118 154 194 240 287 343
#     4  10  19  32  53  84 116 148 190 244 295 342
#     4   9  17  31  57  85 114 153 196 236 281 352
#     4  10  21  37  58  87 117 155 199 242 304 357
#     4  10  20  38  61  85 115 152 198 247 294 357
#     4  11  23  41  65  92 118 156 211 262 298 344
#
# _framework density 19.386289999999999
#
# number of rings (size 3 to 8) (size 9 to 14) (size 15 to 20)
#    0.000    1.857    2.857    2.143    2.000    1.714 
#    0.000   12.143    0.000    0.000    0.000    0.000 
#    0.000    0.000    0.000    0.000    0.000    0.000 
#
# Total GULP energy -346893.107711 kJ/mol
# GULP energy per Si atom -12389.039561 kJ/mol
# Density = 1.934217 g / cm^3
# Si number density = 19.386290 Si / 1000 Ang^3
#
#
#
# Elastic Constant Matrix: (Units=GPa)
#
#
# Indices 1 2 3 4 5 6 
#
# 1 75.9189 43.1651 52.1348 0.0000 0.1484 0.0000
# 2 43.1651 67.9437 33.1365 0.0000 8.1170 0.0000
# 3 52.1348 33.1365 107.4262 0.0000 6.9888 0.0000
# 4 0.0000 0.0000 0.0000 22.0490 0.0000 -4.4880
# 5 0.1484 8.1170 6.9888 0.0000 31.2090 0.0000
# 6 0.0000 0.0000 0.0000 -4.4880 0.0000 26.2242
#
#
#
# Elastic Compliance Matrix: (Units=1/GPa)
#
#
# Indices 1 2 3 4 5 6 
#
# 1 0.027249 -0.013349 -0.009462 0.000000 0.005461 0.000000
# 2 -0.013349 0.024218 -0.000595 0.000000 -0.006102 0.000000
# 3 -0.009462 -0.000595 0.014279 0.000000 -0.002998 0.000000
# 4 0.000000 0.000000 0.000000 0.046990 0.000000 0.008042
# 5 0.005461 -0.006102 -0.002998 0.000000 0.034275 0.000000
# 6 0.000000 0.000000 0.000000 0.008042 0.000000 0.039509
#
#
# Mechanical properties :
#
#
# Convention : Reuss Voigt Hill
#
# Bulk Modulus (GPa) = 52.81375 56.46239 54.63807
# Shear Modulus (GPa) = 20.86442 24.08659 22.47551
#
# Velocity S-wave (km/s) = 3.28418 3.52867 3.40862
# Velocity P-wave (km/s) = 6.45624 6.76684 6.61337
#
# Compressibility (1/GPa) = 0.01893446
#
# Stress axis : x y z
#
# Youngs Moduli (GPa) = 36.69901 41.29164 70.03287
#
# Poissons Ratio (x) = 0.55121 0.66262
# Poissons Ratio (y) = 0.48990 0.04165
# Poissons Ratio (z) = 0.34723 0.02456
#
# Static dielectric constant tensor:
#      x y z
#    x 3.290120 0.000000 0.341550 
#    y 0.000000 3.618720 0.000000 
#    z 0.341550 0.000000 2.793650 
# 
# 
# High freq. dielectric constant tensor:
#      x y z
#    x 1.737310 0.000000 -0.002290 
#    y 0.000000 1.754200 0.000000 
#    z -0.002290 0.000000 1.741860 
# 
# From -- ./inp_files/75832.got.cif
#   From: 2010.06.25/outbox.cif.g09.slc.cpg/sg12_38_cif.got.tgz:75832.got - 2010.06.28 00:19:55.
