data_PCOD8088278
_publ_section_title
;
Structure prediction by ZEFSAII (Michael W. Deem and Ramdas Pophale) SiO2 
 PCOD8088278
Probable space group: C 2/M
;
_chemical_formula_sum "Si O2"
_cell_formula_units_Z 56
_cell_length_a 29.503627
_cell_length_b 9.104667
_cell_length_c 11.943332
_cell_angle_alpha 90.000000
_cell_angle_beta 70.514481
_cell_angle_gamma 90.000000
_cell_volume 3024.477692
_symmetry_space_group_name_H-M "C 2/M"
_symmetry_group_IT_number 12
_symmetry_cell_setting 'monoclinic'
loop_
_space_group_symop_operation_xyz
x,y,z
-x,y,-z
-x,-y,-z
x,-y,z
1/2+x,1/2+y,z
1/2-x,1/2+y,-z
1/2-x,1/2-y,-z
1/2+x,1/2-y,z
loop_
_atom_site_type_symbol
_atom_site_label
_atom_site_fract_x
_atom_site_fract_y
_atom_site_fract_z
Si Si1 0.815035 0.827414 0.362174
Si Si2 0.089687 0.672236 0.101682
Si Si3 0.453882 0.174845 0.473844
Si Si4 0.790999 0.328607 0.602561
Si Si5 0.901054 0.825905 0.131676
Si Si6 0.022799 0.328441 0.790312
Si Si7 0.370558 0.827394 0.698596
O O1 0.818864 0.751697 0.479336
O O2 0.764680 0.781498 0.344325
O O3 0.858298 0.772733 0.248474
O O4 0.817470 0.000000 0.379456
O O5 0.098680 0.500000 0.074490
O O6 0.118666 0.733903 0.186344
O O7 0.033575 0.705987 0.164740
O O8 0.110690 0.762080 0.980473
O O9 0.500000 0.238944 0.500000
O O10 0.454363 0.228277 0.345041
O O11 0.407252 0.237530 0.575860
O O12 0.455886 0.000000 0.472663
O O13 0.796543 0.500000 0.572749
O O14 0.816807 0.288463 0.699558
O O15 0.951779 0.761039 0.131495
O O16 0.904509 0.000000 0.122202
O O17 0.032271 0.500000 0.803660
O O18 0.379700 0.000000 0.697644
#
# Coordination Sequence:
#
# PCOD8088278 Si02
#       7
#     8   8   8   8   8   8   8
#     4   9  19  35  52  74 104 132 161 203 249 292
#     4  10  20  34  51  73 101 130 166 211 250 288
#     4   9  14  24  45  75 104 122 144 190 250 299
#     4   9  17  32  57  82 100 123 160 204 251 301
#     4  11  23  36  49  67  99 140 174 203 242 291
#     4  10  19  32  53  77  99 127 166 211 252 291
#     4   9  16  28  49  77 103 127 156 199 254 300
#
# _framework density 18.515592999999999
#
# number of rings (size 3 to 8) (size 9 to 14) (size 15 to 20)
#    0.000    2.429    1.429    1.714    0.000    4.571 
#    0.000    1.429    0.000    1.286    0.000    0.000 
#    0.000    0.000    0.000    0.000    0.000    0.000 
#
# Total GULP energy -347156.756541 kJ/mol
# GULP energy per Si atom -12398.455591 kJ/mol
# Density = 1.847345 g / cm^3
# Si number density = 18.515593 Si / 1000 Ang^3
#
#
#
# Elastic Constant Matrix: (Units=GPa)
#
#
# Indices 1 2 3 4 5 6 
#
# 1 109.5464 28.6359 50.4481 0.0000 21.6930 0.0000
# 2 28.6359 34.1343 33.5135 0.0000 1.9841 0.0000
# 3 50.4481 33.5135 107.4563 0.0000 19.6338 0.0000
# 4 0.0000 0.0000 0.0000 22.8653 0.0000 -1.6085
# 5 21.6930 1.9841 19.6338 0.0000 28.8055 0.0000
# 6 0.0000 0.0000 0.0000 -1.6085 0.0000 14.8177
#
#
#
# Elastic Compliance Matrix: (Units=1/GPa)
#
#
# Indices 1 2 3 4 5 6 
#
# 1 0.014291 -0.009288 -0.002242 0.000000 -0.008594 0.000000
# 2 -0.009288 0.049510 -0.013405 0.000000 0.012721 0.000000
# 3 -0.002242 -0.013405 0.016063 0.000000 -0.008336 0.000000
# 4 0.000000 0.000000 0.000000 0.044071 0.000000 0.004784
# 5 -0.008594 0.012721 -0.008336 0.000000 0.045994 0.000000
# 6 0.000000 0.000000 0.000000 0.004784 0.000000 0.068006
#
#
# Mechanical properties :
#
#
# Convention : Reuss Voigt Hill
#
# Bulk Modulus (GPa) = 33.34117 52.92577 43.13347
# Shear Modulus (GPa) = 16.78967 22.53365 19.66166
#
# Velocity S-wave (km/s) = 3.01455 3.49235 3.26221
# Velocity P-wave (km/s) = 5.49208 6.70138 6.12664
#
# Compressibility (1/GPa) = 0.02999295
#
# Stress axis : x y z
#
# Youngs Moduli (GPa) = 69.97435 20.19813 62.25606
#
# Poissons Ratio (x) = 0.18760 0.13959
# Poissons Ratio (y) = 0.64992 0.83454
# Poissons Ratio (z) = 0.15690 0.27075
#
# Static dielectric constant tensor:
#      x y z
#    x 3.559470 0.000000 0.094050 
#    y 0.000000 3.005520 0.000000 
#    z 0.094050 0.000000 3.515620 
# 
# 
# High freq. dielectric constant tensor:
#      x y z
#    x 1.724450 0.000000 0.009630 
#    y 0.000000 1.678390 0.000000 
#    z 0.009630 0.000000 1.716750 
# 
# From -- ./inp_files/186456.got.cif
#   From: 2010.06.25/outbox.cif.g09.slc.cpg/sg12_94_cif.got.tgz:186456.got - 2010.06.28 00:19:55.
