data_PCOD8088318
_publ_section_title
;
Structure prediction by ZEFSAII (Michael W. Deem and Ramdas Pophale) SiO2 
 PCOD8088318
Probable space group: C 2/M
;
_chemical_formula_sum "Si O2"
_cell_formula_units_Z 40
_cell_length_a 27.418500
_cell_length_b 9.179982
_cell_length_c 18.877360
_cell_angle_alpha 90.000000
_cell_angle_beta 153.235382
_cell_angle_gamma 90.000000
_cell_volume 2139.705716
_symmetry_space_group_name_H-M "C 2/M"
_symmetry_group_IT_number 12
_symmetry_cell_setting 'monoclinic'
loop_
_space_group_symop_operation_xyz
x,y,z
-x,y,-z
-x,-y,-z
x,-y,z
1/2+x,1/2+y,z
1/2-x,1/2+y,-z
1/2-x,1/2-y,-z
1/2+x,1/2-y,z
loop_
_atom_site_type_symbol
_atom_site_label
_atom_site_fract_x
_atom_site_fract_y
_atom_site_fract_z
Si Si1 0.959042 0.331799 0.525074
Si Si2 0.860261 0.669914 0.126675
Si Si3 0.910010 0.835491 0.823030
Si Si4 0.258962 0.170314 0.724590
Si Si5 0.064157 0.330407 0.928791
O O1 0.923553 0.500000 0.486869
O O2 0.859222 0.228963 0.412439
O O3 0.000000 0.296927 0.500000
O O4 0.054461 0.290833 0.702260
O O5 0.834255 0.500000 0.090089
O O6 0.907364 0.723477 0.112809
O O7 0.750000 0.750000 0.000000
O O8 0.804748 0.749616 0.713983
O O9 0.958007 0.757648 0.815771
O O10 0.876356 0.000000 0.760079
O O11 0.000000 0.831784 0.000000
O O12 0.253776 0.000000 0.701567
O O13 0.333558 0.204748 0.888955
O O14 0.034146 0.500000 0.892433
#
# Coordination Sequence:
#
# PCOD8088318 Si02
#       5
#     8   8   8   8   8
#     4  10  21  36  53  75 104 136 170 210 255 302
#     4  10  21  36  54  76 103 135 170 211 256 302
#     4   9  17  30  51  78 105 134 169 208 251 301
#     4  10  19  32  53  78 104 135 170 210 253 299
#     4   9  18  33  52  76 105 135 170 211 253 297
#
# _framework density 18.69416
#
# number of rings (size 3 to 8) (size 9 to 14) (size 15 to 20)
#    0.000    2.400    0.000    2.400    0.000    5.200 
#    0.000    1.000    0.000    0.000    0.000    0.000 
#    0.000    0.000    0.000    0.000    0.000    0.000 
#
# Total GULP energy -248065.621429 kJ/mol
# GULP energy per Si atom -12403.281071 kJ/mol
# Density = 1.865161 g / cm^3
# Si number density = 18.694160 Si / 1000 Ang^3
#
#
#
# Elastic Constant Matrix: (Units=GPa)
#
#
# Indices 1 2 3 4 5 6 
#
# 1 179.8382 79.1490 72.3173 0.0000 3.8838 0.0000
# 2 79.1490 100.9092 52.8417 0.0000 13.1309 0.0000
# 3 72.3173 52.8417 79.0860 0.0000 6.3309 0.0000
# 4 0.0000 0.0000 0.0000 23.8237 0.0000 13.7062
# 5 3.8838 13.1309 6.3309 0.0000 29.1024 0.0000
# 6 0.0000 0.0000 0.0000 13.7062 0.0000 37.7398
#
#
#
# Elastic Compliance Matrix: (Units=1/GPa)
#
#
# Indices 1 2 3 4 5 6 
#
# 1 0.010218 -0.005110 -0.006111 0.000000 0.002271 0.000000
# 2 -0.005110 0.018471 -0.007181 0.000000 -0.006090 0.000000
# 3 -0.006111 -0.007181 0.023108 0.000000 -0.000971 0.000000
# 4 0.000000 0.000000 0.000000 0.053062 0.000000 -0.019271
# 5 0.002271 -0.006090 -0.000971 0.000000 0.037017 0.000000
# 6 0.000000 0.000000 0.000000 -0.019271 0.000000 0.033496
#
#
# Mechanical properties :
#
#
# Convention : Reuss Voigt Hill
#
# Bulk Modulus (GPa) = 66.69903 85.38324 76.04113
# Shear Modulus (GPa) = 23.02304 28.50155 25.76229
#
# Velocity S-wave (km/s) = 3.51317 3.90888 3.71630
# Velocity P-wave (km/s) = 7.22586 8.13298 7.69280
#
# Compressibility (1/GPa) = 0.01499272
#
# Stress axis : x y z
#
# Youngs Moduli (GPa) = 97.86859 54.13907 43.27455
#
# Poissons Ratio (x) = 0.27665 0.26444
# Poissons Ratio (y) = 0.50011 0.31077
# Poissons Ratio (z) = 0.59806 0.38879
#
# Static dielectric constant tensor:
#      x y z
#    x 3.703520 0.000000 -0.063400 
#    y 0.000000 3.463050 0.000000 
#    z -0.063400 0.000000 3.210510 
# 
# 
# High freq. dielectric constant tensor:
#      x y z
#    x 1.740860 0.000000 0.007280 
#    y 0.000000 1.727910 0.000000 
#    z 0.007280 0.000000 1.703990 
# 
# From -- ./inp_files/151680.got.cif
#   From: 2010.06.25/outbox.cif.g09.slc.cpg/sg12_76_cif.got.tgz:151680.got - 2010.06.28 00:19:55.
