data_PCOD8088444
_publ_section_title
;
Structure prediction by ZEFSAII (Michael W. Deem and Ramdas Pophale) SiO2 
 PCOD8088444
Probable space group: C 2/M
;
_chemical_formula_sum "Si O2"
_cell_formula_units_Z 52
_cell_length_a 5.179117
_cell_length_b 17.505816
_cell_length_c 30.055422
_cell_angle_alpha 90.000000
_cell_angle_beta 109.602676
_cell_angle_gamma 90.000000
_cell_volume 2567.030792
_symmetry_space_group_name_H-M "C 2/M"
_symmetry_group_IT_number 12
_symmetry_cell_setting 'monoclinic'
loop_
_space_group_symop_operation_xyz
x,y,z
-x,y,-z
-x,-y,-z
x,-y,z
1/2+x,1/2+y,z
1/2-x,1/2+y,-z
1/2-x,1/2-y,-z
1/2+x,1/2-y,z
loop_
_atom_site_type_symbol
_atom_site_label
_atom_site_fract_x
_atom_site_fract_y
_atom_site_fract_z
Si Si1 0.771382 0.090485 0.646738
Si Si2 0.712752 0.590588 0.862302
Si Si3 0.396315 0.090652 0.193847
Si Si4 0.910736 0.298829 0.946065
Si Si5 0.123315 0.408652 0.300108
Si Si6 0.763982 0.087699 0.546515
Si Si7 0.000000 0.197284 0.500000
O O1 0.553014 0.124385 0.668882
O O2 0.690261 0.115103 0.591981
O O3 0.069908 0.122976 0.676606
O O4 0.774887 0.000000 0.650946
O O5 0.724877 0.500000 0.869008
O O6 0.408565 0.620138 0.833613
O O7 0.812724 0.626756 0.914075
O O8 0.903656 0.619810 0.833287
O O9 0.498480 0.123571 0.246955
O O10 0.400186 0.000000 0.196093
O O11 0.666737 0.237741 0.935148
O O12 0.000000 0.327200 0.000000
O O13 0.119310 0.500000 0.300011
O O14 0.500000 0.100834 0.500000
O O15 0.020700 0.138521 0.543248
O O16 0.863489 0.000000 0.551978
O O17 0.750000 0.250000 0.500000
#
# Coordination Sequence:
#
# PCOD8088444 Si02
#       7
#     8   8   8   8   8   8   4
#     4   9  18  29  48  77 109 142 176 216 274 332
#     4  10  19  32  53  81 108 140 181 225 274 320
#     4   9  17  29  48  76 112 142 172 223 278 321
#     4  10  21  37  55  77 109 147 184 223 270 322
#     4   9  16  28  45  73 110 142 172 215 271 330
#     4  10  22  39  61  88 119 148 183 239 291 330
#     4  12  25  42  59  82 112 148 190 224 269 338
#
# _framework density 20.256868000000001
#
# number of rings (size 3 to 8) (size 9 to 14) (size 15 to 20)
#    0.000    2.308    0.769    2.077    2.154    4.000 
#    0.000    0.000    0.000    5.538    0.000   21.538 
#    0.000    0.000    0.000    0.000    0.000    0.000 
#
# Total GULP energy -322276.371536 kJ/mol
# GULP energy per Si atom -12395.245059 kJ/mol
# Density = 2.021076 g / cm^3
# Si number density = 20.256868 Si / 1000 Ang^3
#
#
#
# Elastic Constant Matrix: (Units=GPa)
#
#
# Indices 1 2 3 4 5 6 
#
# 1 139.4501 14.2287 55.1687 0.0000 -5.8484 0.0000
# 2 14.2287 38.2487 28.4637 0.0000 -5.4529 0.0000
# 3 55.1687 28.4637 157.3119 0.0000 -0.4179 0.0000
# 4 0.0000 0.0000 0.0000 10.3286 0.0000 -8.1422
# 5 -5.8484 -5.4529 -0.4179 0.0000 36.7656 0.0000
# 6 0.0000 0.0000 0.0000 -8.1422 0.0000 17.2997
#
#
#
# Elastic Compliance Matrix: (Units=1/GPa)
#
#
# Indices 1 2 3 4 5 6 
#
# 1 0.008413 -0.000889 -0.002787 0.000000 0.001175 0.000000
# 2 -0.000889 0.031042 -0.005293 0.000000 0.004402 0.000000
# 3 -0.002787 -0.005293 0.008289 0.000000 -0.001134 0.000000
# 4 0.000000 0.000000 0.000000 0.153930 0.000000 0.072447
# 5 0.001175 0.004402 -0.001134 0.000000 0.028026 0.000000
# 6 0.000000 0.000000 0.000000 0.072447 0.000000 0.091902
#
#
# Mechanical properties :
#
#
# Convention : Reuss Voigt Hill
#
# Bulk Modulus (GPa) = 33.54905 58.97034 46.25970
# Shear Modulus (GPa) = 14.30716 28.68876 21.49796
#
# Velocity S-wave (km/s) = 2.66049 3.76739 3.26124
# Velocity P-wave (km/s) = 5.10249 6.93533 6.08827
#
# Compressibility (1/GPa) = 0.02980710
#
# Stress axis : x y z
#
# Youngs Moduli (GPa) = 118.85789 32.21432 120.64434
#
# Poissons Ratio (x) = 0.02863 0.33619
# Poissons Ratio (y) = 0.10561 0.63862
# Poissons Ratio (z) = 0.33122 0.17052
#
# Static dielectric constant tensor:
#      x y z
#    x 13.235280 0.000000 0.446470 
#    y 0.000000 3.276660 0.000000 
#    z 0.446470 0.000000 3.882510 
# 
# 
# High freq. dielectric constant tensor:
#      x y z
#    x 1.808130 0.000000 -0.009880 
#    y 0.000000 1.738500 0.000000 
#    z -0.009880 0.000000 1.797950 
# 
# From -- ./inp_files/331209.got.cif
#   From: 2010.06.25/outbox.cif.g09.slc.cpg/sg12_166_cif.got.tgz:331209.got - 2010.06.28 00:19:55.
