data_PCOD8088650
_publ_section_title
;
Structure prediction by ZEFSAII (Michael W. Deem and Ramdas Pophale) SiO2 
 PCOD8088650
Probable space group: C 2/M
;
_chemical_formula_sum "Si O2"
_cell_formula_units_Z 56
_cell_length_a 23.270918
_cell_length_b 9.282602
_cell_length_c 15.197434
_cell_angle_alpha 90.000000
_cell_angle_beta 116.414834
_cell_angle_gamma 90.000000
_cell_volume 2940.126080
_symmetry_space_group_name_H-M "C 2/M"
_symmetry_group_IT_number 12
_symmetry_cell_setting 'monoclinic'
loop_
_space_group_symop_operation_xyz
x,y,z
-x,y,-z
-x,-y,-z
x,-y,z
1/2+x,1/2+y,z
1/2-x,1/2+y,-z
1/2-x,1/2-y,-z
1/2+x,1/2-y,z
loop_
_atom_site_type_symbol
_atom_site_label
_atom_site_fract_x
_atom_site_fract_y
_atom_site_fract_z
Si Si1 0.834698 0.162343 0.354753
Si Si2 0.772112 0.834945 0.139168
Si Si3 0.485143 0.829736 0.085774
Si Si4 0.651536 0.831242 0.947487
Si Si5 0.974463 0.164578 0.390038
Si Si6 0.813954 0.669991 0.514504
Si Si7 0.055652 0.331849 0.305513
O O1 0.776163 0.190653 0.247205
O O2 0.897959 0.179310 0.338208
O O3 0.833814 0.278303 0.431273
O O4 0.830752 0.000000 0.391938
O O5 0.825019 0.739742 0.126415
O O6 0.787507 0.000000 0.126178
O O7 0.700521 0.793558 0.060091
O O8 0.417464 0.766440 0.073410
O O9 0.541214 0.790118 0.193984
O O10 0.478520 0.000000 0.071272
O O11 0.500000 0.761662 0.000000
O O12 0.647039 0.000000 0.926614
O O13 0.000000 0.226216 0.500000
O O14 0.003755 0.254208 0.330718
O O15 0.997232 0.000000 0.393841
O O16 0.801354 0.500000 0.504503
O O17 0.750000 0.750000 0.500000
O O18 0.871334 0.711241 0.620787
O O19 0.044991 0.500000 0.314251
#
# Coordination Sequence:
#
# PCOD8088650 Si02
#       7
#     8   8   8   8   8   8   8
#     4  10  20  35  54  79 110 143 179 215 260 318
#     4   9  18  31  51  78 107 139 171 211 262 313
#     4   9  18  33  54  78 104 135 175 219 263 312
#     4   9  17  31  52  78 105 136 173 216 264 310
#     4  10  19  32  54  81 110 145 177 211 264 320
#     4  11  24  39  55  76 105 140 178 219 265 316
#     4  10  21  36  56  82 107 137 178 226 270 311
#
# _framework density 19.046802
#
# number of rings (size 3 to 8) (size 9 to 14) (size 15 to 20)
#    0.000    2.286    1.429    1.286    0.000    3.143 
#    0.000    4.286    0.000    1.714    0.000    0.000 
#    0.000    0.000    0.000    0.000    0.000    0.000 
#
# Total GULP energy -347175.584588 kJ/mol
# GULP energy per Si atom -12399.128021 kJ/mol
# Density = 1.900345 g / cm^3
# Si number density = 19.046802 Si / 1000 Ang^3
#
#
#
# Elastic Constant Matrix: (Units=GPa)
#
#
# Indices 1 2 3 4 5 6 
#
# 1 107.3044 40.4216 56.3750 0.0000 5.7702 0.0000
# 2 40.4216 51.0514 41.1801 0.0000 -0.7609 0.0000
# 3 56.3750 41.1801 143.2320 0.0000 4.7508 0.0000
# 4 0.0000 0.0000 0.0000 22.9713 0.0000 -3.0341
# 5 5.7702 -0.7609 4.7508 0.0000 26.0156 0.0000
# 6 0.0000 0.0000 0.0000 -3.0341 0.0000 28.7678
#
#
#
# Elastic Compliance Matrix: (Units=1/GPa)
#
#
# Indices 1 2 3 4 5 6 
#
# 1 0.014470 -0.009094 -0.002983 0.000000 -0.002931 0.000000
# 2 -0.009094 0.031332 -0.005560 0.000000 0.003949 0.000000
# 3 -0.002983 -0.005560 0.009797 0.000000 -0.001290 0.000000
# 4 0.000000 0.000000 0.000000 0.044148 0.000000 0.004656
# 5 -0.002931 0.003949 -0.001290 0.000000 0.039440 0.000000
# 6 0.000000 0.000000 0.000000 0.004656 0.000000 0.035252
#
#
# Mechanical properties :
#
#
# Convention : Reuss Voigt Hill
#
# Bulk Modulus (GPa) = 49.20134 64.17123 56.68629
# Shear Modulus (GPa) = 23.09586 26.45835 24.77710
#
# Velocity S-wave (km/s) = 3.48600 3.73114 3.61065
# Velocity P-wave (km/s) = 6.48774 7.23369 6.87085
#
# Compressibility (1/GPa) = 0.02032465
#
# Stress axis : x y z
#
# Youngs Moduli (GPa) = 69.10784 31.91581 102.06985
#
# Poissons Ratio (x) = 0.29025 0.30452
# Poissons Ratio (y) = 0.62849 0.56749
# Poissons Ratio (z) = 0.20618 0.17745
#
# Static dielectric constant tensor:
#      x y z
#    x 3.480710 0.000000 0.186320 
#    y 0.000000 3.315020 0.000000 
#    z 0.186320 0.000000 3.728350 
# 
# 
# High freq. dielectric constant tensor:
#      x y z
#    x 1.732500 0.000000 0.014790 
#    y 0.000000 1.717010 0.000000 
#    z 0.014790 0.000000 1.754180 
# 
# From -- ./inp_files/237908.got.cif
#   From: 2010.06.25/outbox.cif.g09.slc.cpg/sg12_119_cif.got.tgz:237908.got - 2010.06.28 00:19:55.
