data_PCOD8088091
_publ_section_title
;
Structure prediction by ZEFSAII (Michael W. Deem and Ramdas Pophale) SiO2 
 PCOD8088091
Probable space group: C 2/M
;
_chemical_formula_sum "Si O2"
_cell_formula_units_Z 64
_cell_length_a 18.627291
_cell_length_b 9.494310
_cell_length_c 32.064762
_cell_angle_alpha 90.000000
_cell_angle_beta 141.425699
_cell_angle_gamma 90.000000
_cell_volume 3535.882159
_symmetry_space_group_name_H-M "C 2/M"
_symmetry_group_IT_number 12
_symmetry_cell_setting 'monoclinic'
loop_
_space_group_symop_operation_xyz
x,y,z
-x,y,-z
-x,-y,-z
x,-y,z
1/2+x,1/2+y,z
1/2-x,1/2+y,-z
1/2-x,1/2-y,-z
1/2+x,1/2-y,z
loop_
_atom_site_type_symbol
_atom_site_label
_atom_site_fract_x
_atom_site_fract_y
_atom_site_fract_z
Si Si1 0.298264 0.837526 0.983146
Si Si2 0.162632 0.660244 0.305248
Si Si3 0.925887 0.164383 0.427453
Si Si4 0.564827 0.160848 0.107647
Si Si5 0.921824 0.340610 0.347172
Si Si6 0.649998 0.339500 0.222427
Si Si7 0.767421 0.836224 0.138165
Si Si8 0.460109 0.162124 0.273133
O O1 0.236340 0.790597 0.912094
O O2 0.272691 0.000000 0.981528
O O3 0.250000 0.750000 0.000000
O O4 0.432938 0.813188 0.035889
O O5 0.157565 0.500000 0.286407
O O6 0.292972 0.701371 0.376267
O O7 0.109526 0.760194 0.245724
O O8 0.086515 0.681269 0.311603
O O9 0.969309 0.242984 0.405664
O O10 0.000000 0.219963 0.500000
O O11 0.946393 0.000000 0.429400
O O12 0.593142 0.266731 0.157340
O O13 0.644290 0.195184 0.103815
O O14 0.585340 0.000000 0.131820
O O15 0.959449 0.500000 0.374275
O O16 0.785873 0.327775 0.280414
O O17 0.973411 0.286462 0.326839
O O18 0.606893 0.500000 0.205151
O O19 0.866808 0.750238 0.205775
O O20 0.798012 0.000000 0.156034
O O21 0.418645 0.000000 0.253371
#
# Coordination Sequence:
#
# PCOD8088091 Si02
#       8
#     8   8   8   8   8   8   8   8
#     4  10  23  40  55  76 105 138 177 222 272 322
#     4   9  19  34  53  76 107 144 177 212 262 314
#     4   9  18  34  56  80 106 140 182 219 252 303
#     4  10  20  36  57  76 101 138 178 216 265 324
#     4   9  18  33  52  77 107 138 171 212 261 312
#     4  10  19  32  52  78 106 134 173 221 261 307
#     4  10  21  37  57  78 102 138 181 222 264 316
#     4  10  20  35  54  78 109 140 174 218 268 319
#
# _framework density 18.100151
#
# number of rings (size 3 to 8) (size 9 to 14) (size 15 to 20)
#    0.000    2.375    1.250    0.750    1.750    4.250 
#    0.000    0.625    0.000    2.250    0.000    0.000 
#    0.000    0.000    0.000    0.000    0.000    0.000 
#
# Total GULP energy -396821.795065 kJ/mol
# GULP energy per Si atom -12400.681096 kJ/mol
# Density = 1.805895 g / cm^3
# Si number density = 18.100151 Si / 1000 Ang^3
#
#
#
# Elastic Constant Matrix: (Units=GPa)
#
#
# Indices 1 2 3 4 5 6 
#
# 1 128.5175 54.0551 61.1111 0.0000 -23.7147 0.0000
# 2 54.0551 80.7942 61.8861 -0.0001 -17.8723 0.0000
# 3 61.1111 61.8861 108.8669 0.0000 -30.3460 0.0000
# 4 0.0000 -0.0001 0.0000 28.0481 0.0000 -7.7043
# 5 -23.7147 -17.8723 -30.3460 0.0000 29.0391 0.0000
# 6 0.0000 0.0000 0.0000 -7.7043 0.0000 24.9738
#
#
#
# Elastic Compliance Matrix: (Units=1/GPa)
#
#
# Indices 1 2 3 4 5 6 
#
# 1 0.011900 -0.004989 -0.002809 0.000000 0.003712 0.000000
# 2 -0.004989 0.024023 -0.011105 0.000000 -0.000893 0.000000
# 3 -0.002809 -0.011105 0.020503 0.000000 0.012297 0.000000
# 4 0.000000 0.000000 0.000000 0.038954 0.000000 0.012017
# 5 0.003712 -0.000893 0.012297 0.000000 0.049768 0.000000
# 6 0.000000 0.000000 0.000000 0.012017 0.000000 0.043749
#
#
# Mechanical properties :
#
#
# Convention : Reuss Voigt Hill
#
# Bulk Modulus (GPa) = 53.70505 74.69813 64.20159
# Shear Modulus (GPa) = 21.46755 25.82063 23.64409
#
# Velocity S-wave (km/s) = 3.44763 3.78106 3.61819
# Velocity P-wave (km/s) = 6.75157 7.77308 7.28026
#
# Compressibility (1/GPa) = 0.01862022
#
# Stress axis : x y z
#
# Youngs Moduli (GPa) = 84.03234 41.62665 48.77388
#
# Poissons Ratio (x) = 0.20766 0.13703
# Poissons Ratio (y) = 0.41921 0.54162
# Poissons Ratio (z) = 0.23609 0.46225
#
# Static dielectric constant tensor:
#      x y z
#    x 3.473070 0.000000 -0.104070 
#    y 0.000000 3.411100 0.000000 
#    z -0.104070 0.000000 3.264460 
# 
# 
# High freq. dielectric constant tensor:
#      x y z
#    x 1.707580 0.000000 -0.008420 
#    y 0.000000 1.698820 0.000000 
#    z -0.008420 0.000000 1.689100 
# 
# From -- ./inp_files/378301.got.cif
#   From: 2010.06.25/outbox.cif.g09.slc.cpg/sg12_190_cif.got.tgz:378301.got - 2010.06.28 00:19:55.
