data_PCOD8088367
_publ_section_title
;
Structure prediction by ZEFSAII (Michael W. Deem and Ramdas Pophale) SiO2 
 PCOD8088367
Probable space group: C 2/M
;
_chemical_formula_sum "Si O2"
_cell_formula_units_Z 64
_cell_length_a 28.076492
_cell_length_b 9.251833
_cell_length_c 13.020719
_cell_angle_alpha 90.000000
_cell_angle_beta 93.438372
_cell_angle_gamma 90.000000
_cell_volume 3376.160709
_symmetry_space_group_name_H-M "C 2/M"
_symmetry_group_IT_number 12
_symmetry_cell_setting 'monoclinic'
loop_
_space_group_symop_operation_xyz
x,y,z
-x,y,-z
-x,-y,-z
x,-y,z
1/2+x,1/2+y,z
1/2-x,1/2+y,-z
1/2-x,1/2-y,-z
1/2+x,1/2-y,z
loop_
_atom_site_type_symbol
_atom_site_label
_atom_site_fract_x
_atom_site_fract_y
_atom_site_fract_z
Si Si1 0.195726 0.835209 0.722787
Si Si2 0.101378 0.168859 0.004678
Si Si3 0.221246 0.334750 0.411430
Si Si4 0.204938 0.167154 0.952067
Si Si5 0.110945 0.331229 0.620555
Si Si6 0.614516 0.170435 0.393974
Si Si7 0.553700 0.168557 0.811742
Si Si8 0.057293 0.329867 0.191879
O O1 0.250245 0.822006 0.691776
O O2 0.193097 0.772820 0.837275
O O3 0.161379 0.744353 0.645508
O O4 0.177692 0.000000 0.717377
O O5 0.158475 0.191916 0.016595
O O6 0.081191 0.235747 0.897592
O O7 0.088188 0.000000 0.004873
O O8 0.078832 0.247362 0.098410
O O9 0.217268 0.500000 0.447998
O O10 0.250000 0.250000 0.500000
O O11 0.168409 0.268780 0.388828
O O12 0.219163 0.000000 0.947140
O O13 0.250000 0.250000 0.000000
O O14 0.121484 0.500000 0.625734
O O15 0.093345 0.286700 0.503525
O O16 0.071777 0.287494 0.700240
O O17 0.581422 0.232990 0.298866
O O18 0.614919 0.000000 0.380486
O O19 0.498267 0.205613 0.809111
O O20 0.563293 0.000000 0.836174
O O21 0.066422 0.500000 0.178093
#
# Coordination Sequence:
#
# PCOD8088367 Si02
#       8
#     8   8   8   8   8   8   8   8
#     4  10  20  35  54  79 111 146 184 226 276 334
#     4  11  23  40  60  84 114 149 189 233 282 339
#     4  10  19  32  53  79 107 142 181 218 265 327
#     4  10  23  39  56  82 113 146 185 227 277 334
#     4  10  19  34  58  84 112 146 188 231 276 333
#     4   9  19  35  55  82 114 147 182 227 281 331
#     4  10  21  37  60  88 110 142 192 239 284 336
#     4  10  22  39  59  83 114 149 188 236 287 337
#
# _framework density 18.956444000000001
#
# number of rings (size 3 to 8) (size 9 to 14) (size 15 to 20)
#    0.000    2.000    2.500    0.750    1.750    4.000 
#    0.000    3.750    0.000    0.000    0.000    2.625 
#    0.000    0.000    0.000    0.000    0.000    0.000 
#
# Total GULP energy -396793.312452 kJ/mol
# GULP energy per Si atom -12399.791014 kJ/mol
# Density = 1.891330 g / cm^3
# Si number density = 18.956444 Si / 1000 Ang^3
#
#
#
# Elastic Constant Matrix: (Units=GPa)
#
#
# Indices 1 2 3 4 5 6 
#
# 1 117.4348 43.5031 56.7888 0.0000 -4.9992 0.0000
# 2 43.5031 52.0406 40.4945 0.0000 -0.2735 0.0000
# 3 56.7888 40.4945 121.5570 0.0000 -14.6788 0.0000
# 4 0.0000 0.0000 0.0000 14.0646 0.0000 3.2410
# 5 -4.9992 -0.2735 -14.6788 0.0000 33.8290 0.0000
# 6 0.0000 0.0000 0.0000 3.2410 0.0000 26.2932
#
#
#
# Elastic Compliance Matrix: (Units=1/GPa)
#
#
# Indices 1 2 3 4 5 6 
#
# 1 0.013300 -0.008537 -0.003314 0.000000 0.000458 0.000000
# 2 -0.008537 0.031874 -0.007125 0.000000 -0.004095 0.000000
# 3 -0.003314 -0.007125 0.012750 0.000000 0.004985 0.000000
# 4 0.000000 0.000000 0.000000 0.073179 0.000000 -0.009020
# 5 0.000458 -0.004095 0.004985 0.000000 0.031758 0.000000
# 6 0.000000 0.000000 0.000000 -0.009020 0.000000 0.039144
#
#
# Mechanical properties :
#
#
# Convention : Reuss Voigt Hill
#
# Bulk Modulus (GPa) = 50.06662 63.62279 56.84470
# Shear Modulus (GPa) = 20.27446 24.85377 22.56412
#
# Velocity S-wave (km/s) = 3.27391 3.62484 3.45384
# Velocity P-wave (km/s) = 6.38436 7.15225 6.77919
#
# Compressibility (1/GPa) = 0.01997339
#
# Stress axis : x y z
#
# Youngs Moduli (GPa) = 75.18825 31.37308 78.42869
#
# Poissons Ratio (x) = 0.26782 0.25993
# Poissons Ratio (y) = 0.64186 0.55879
# Poissons Ratio (z) = 0.24919 0.22353
#
# Static dielectric constant tensor:
#      x y z
#    x 3.612790 0.000000 -0.109810 
#    y 0.000000 3.318180 0.000000 
#    z -0.109810 0.000000 3.770400 
# 
# 
# High freq. dielectric constant tensor:
#      x y z
#    x 1.741680 0.000000 -0.011340 
#    y 0.000000 1.715240 0.000000 
#    z -0.011340 0.000000 1.747870 
# 
# From -- ./inp_files/238747.got.cif
#   From: 2010.06.25/outbox.cif.g09.slc.cpg/sg12_120_cif.got.tgz:238747.got - 2010.06.28 00:19:55.
