data_PCOD8088390
_publ_section_title
;
Structure prediction by ZEFSAII (Michael W. Deem and Ramdas Pophale) SiO2 
 PCOD8088390
Probable space group: C 2/M
;
_chemical_formula_sum "Si O2"
_cell_formula_units_Z 56
_cell_length_a 19.866552
_cell_length_b 8.734006
_cell_length_c 24.468107
_cell_angle_alpha 90.000000
_cell_angle_beta 134.788978
_cell_angle_gamma 90.000000
_cell_volume 3013.110090
_symmetry_space_group_name_H-M "C 2/M"
_symmetry_group_IT_number 12
_symmetry_cell_setting 'monoclinic'
loop_
_space_group_symop_operation_xyz
x,y,z
-x,y,-z
-x,-y,-z
x,-y,z
1/2+x,1/2+y,z
1/2-x,1/2+y,-z
1/2-x,1/2-y,-z
1/2+x,1/2-y,z
loop_
_atom_site_type_symbol
_atom_site_label
_atom_site_fract_x
_atom_site_fract_y
_atom_site_fract_z
Si Si1 0.587098 0.674287 0.793577
Si Si2 0.436368 0.673343 0.799643
Si Si3 0.529348 0.682355 0.958926
Si Si4 0.435604 0.181000 0.630972
Si Si5 0.208313 0.816935 0.369417
Si Si6 0.260335 0.680478 0.946803
Si Si7 0.576951 0.181458 0.500547
O O1 0.599906 0.500000 0.781271
O O2 0.531719 0.681241 0.818870
O O3 0.531302 0.766077 0.715176
O O4 0.688347 0.751393 0.861108
O O5 0.406018 0.500000 0.793644
O O6 0.461737 0.752850 0.872216
O O7 0.349224 0.749599 0.716298
O O8 0.519343 0.500000 0.951304
O O9 0.500000 0.752231 0.000000
O O10 0.636907 0.731629 0.013831
O O11 0.341211 0.253761 0.603911
O O12 0.446050 0.235331 0.574111
O O13 0.424875 0.000000 0.628757
O O14 0.316437 0.760592 0.424888
O O15 0.200104 0.000000 0.368124
O O16 0.246004 0.500000 0.941574
O O17 0.250000 0.750000 0.000000
O O18 0.500000 0.249759 0.500000
O O19 0.574501 0.000000 0.503201
#
# Coordination Sequence:
#
# PCOD8088390 Si02
#       7
#     8   8   8   8   8   8   8
#     4  10  19  34  54  77 105 135 174 220 264 311
#     4   8  14  27  47  72  97 128 170 210 252 298
#     4   9  17  30  47  73 106 135 173 217 250 296
#     4  10  19  32  53  80 107 132 171 220 261 309
#     4   9  17  31  54  77 100 137 177 212 258 312
#     4  11  20  32  53  80 107 138 177 217 264 309
#     4   9  18  33  51  77 110 139 172 215 259 310
#
# _framework density 18.585448
#
# number of rings (size 3 to 8) (size 9 to 14) (size 15 to 20)
#    0.000    2.571    1.429    2.571    0.000    0.000 
#    2.571    0.714    0.000    5.571    0.000    0.000 
#    0.000    0.000    0.000    0.000    0.000    0.000 
#
# Total GULP energy -347027.496936 kJ/mol
# GULP energy per Si atom -12393.839176 kJ/mol
# Density = 1.854315 g / cm^3
# Si number density = 18.585448 Si / 1000 Ang^3
#
#
#
# Elastic Constant Matrix: (Units=GPa)
#
#
# Indices 1 2 3 4 5 6 
#
# 1 142.2357 25.7221 92.3308 0.0000 -3.6978 0.0000
# 2 25.7221 39.2431 24.3848 0.0000 1.7722 0.0000
# 3 92.3308 24.3848 164.4967 0.0000 -0.7257 0.0000
# 4 0.0000 0.0000 0.0000 22.9630 0.0000 0.7669
# 5 -3.6978 1.7722 -0.7257 0.0000 29.2084 0.0000
# 6 0.0000 0.0000 0.0000 0.7669 0.0000 18.5135
#
#
#
# Elastic Compliance Matrix: (Units=1/GPa)
#
#
# Indices 1 2 3 4 5 6 
#
# 1 0.011653 -0.004019 -0.005938 0.000000 0.001572 0.000000
# 2 -0.004019 0.029549 -0.002135 0.000000 -0.002355 0.000000
# 3 -0.005938 -0.002135 0.009727 0.000000 -0.000381 0.000000
# 4 0.000000 0.000000 0.000000 0.043609 0.000000 -0.001806
# 5 0.001572 -0.002355 -0.000381 0.000000 0.034569 0.000000
# 6 0.000000 0.000000 0.000000 -0.001806 0.000000 0.054090
#
#
# Mechanical properties :
#
#
# Convention : Reuss Voigt Hill
#
# Bulk Modulus (GPa) = 37.38979 70.09453 53.74216
# Shear Modulus (GPa) = 23.11654 27.70615 25.41135
#
# Velocity S-wave (km/s) = 3.53058 3.86520 3.70167
# Velocity P-wave (km/s) = 6.06477 7.59713 6.87378
#
# Compressibility (1/GPa) = 0.02674527
#
# Stress axis : x y z
#
# Youngs Moduli (GPa) = 85.81625 33.84157 102.80842
#
# Poissons Ratio (x) = 0.13602 0.61047
# Poissons Ratio (y) = 0.34491 0.21948
# Poissons Ratio (z) = 0.50957 0.07225
#
# Static dielectric constant tensor:
#      x y z
#    x 3.380730 0.000000 -0.045280 
#    y 0.000000 3.092980 0.000000 
#    z -0.045280 0.000000 3.767460 
# 
# 
# High freq. dielectric constant tensor:
#      x y z
#    x 1.704060 0.000000 0.001760 
#    y 0.000000 1.682910 0.000000 
#    z 0.001760 0.000000 1.743440 
# 
# From -- ./inp_files/342477.got.cif
#   From: 2010.06.25/outbox.cif.g09.slc.cpg/sg12_172_cif.got.tgz:342477.got - 2010.06.28 00:19:55.
