data_PCOD8088260
_publ_section_title
;
Structure prediction by ZEFSAII (Michael W. Deem and Ramdas Pophale) SiO2 
 PCOD8088260
Probable space group: C 2/M
;
_chemical_formula_sum "Si O2"
_cell_formula_units_Z 56
_cell_length_a 14.497160
_cell_length_b 9.427103
_cell_length_c 21.368458
_cell_angle_alpha 90.000000
_cell_angle_beta 88.383737
_cell_angle_gamma 90.000000
_cell_volume 2919.184532
_symmetry_space_group_name_H-M "C 2/M"
_symmetry_group_IT_number 12
_symmetry_cell_setting 'monoclinic'
loop_
_space_group_symop_operation_xyz
x,y,z
-x,y,-z
-x,-y,-z
x,-y,z
1/2+x,1/2+y,z
1/2-x,1/2+y,-z
1/2-x,1/2-y,-z
1/2+x,1/2-y,z
loop_
_atom_site_type_symbol
_atom_site_label
_atom_site_fract_x
_atom_site_fract_y
_atom_site_fract_z
Si Si1 0.365017 0.839639 0.052166
Si Si2 0.908261 0.839382 0.799875
Si Si3 0.744211 0.164246 0.409639
Si Si4 0.353774 0.659973 0.936868
Si Si5 0.894115 0.834075 0.507597
Si Si6 0.110096 0.161401 0.827712
Si Si7 0.768654 0.334075 0.732103
O O1 0.255436 0.838294 0.055881
O O2 0.403732 0.757973 0.111432
O O3 0.403327 0.000000 0.051272
O O4 0.399382 0.760331 0.988672
O O5 0.882267 0.778799 0.868866
O O6 0.863312 0.745276 0.746549
O O7 0.017788 0.832550 0.788090
O O8 0.871196 0.000000 0.794423
O O9 0.838618 0.200545 0.444751
O O10 0.656552 0.252972 0.435228
O O11 0.762478 0.204480 0.337348
O O12 0.718347 0.000000 0.418463
O O13 0.392294 0.500000 0.944644
O O14 0.000000 0.781028 0.500000
O O15 0.892002 0.000000 0.523641
O O16 0.190918 0.219954 0.781823
O O17 0.130360 0.000000 0.849232
O O18 0.785798 0.500000 0.739073
#
# Coordination Sequence:
#
# PCOD8088260 Si02
#       7
#     8   8   8   8   8   8   8
#     4  10  19  32  53  77 102 134 175 222 272 326
#     4  10  21  37  56  78 103 138 182 225 267 321
#     4   9  19  35  54  80 114 146 178 215 262 311
#     4   9  18  33  52  74 101 134 174 221 274 325
#     4   9  18  34  58  86 113 143 180 220 257 302
#     4  10  21  36  55  77 104 139 177 219 273 323
#     4  10  21  37  55  77 109 145 177 218 265 313
#
# _framework density 19.183439
#
# number of rings (size 3 to 8) (size 9 to 14) (size 15 to 20)
#    0.000    2.429    1.429    0.429    0.000    4.286 
#    0.000    5.714    0.000    0.000    0.000    0.000 
#    0.000    0.000    0.000    0.000    0.000    0.000 
#
# Total GULP energy -347249.683174 kJ/mol
# GULP energy per Si atom -12401.774399 kJ/mol
# Density = 1.913978 g / cm^3
# Si number density = 19.183439 Si / 1000 Ang^3
#
#
#
# Elastic Constant Matrix: (Units=GPa)
#
#
# Indices 1 2 3 4 5 6 
#
# 1 78.3609 31.0827 32.2657 0.0000 9.2978 0.0000
# 2 31.0827 67.9765 45.9429 0.0000 9.7367 0.0000
# 3 32.2657 45.9429 104.1177 0.0000 13.7747 0.0000
# 4 0.0000 0.0000 0.0000 31.5241 0.0000 3.0731
# 5 9.2978 9.7367 13.7747 0.0000 17.9919 0.0000
# 6 0.0000 0.0000 0.0000 3.0731 0.0000 26.6221
#
#
#
# Elastic Compliance Matrix: (Units=1/GPa)
#
#
# Indices 1 2 3 4 5 6 
#
# 1 0.016251 -0.005445 -0.002128 0.000000 -0.003822 0.000000
# 2 -0.005445 0.023158 -0.008062 0.000000 -0.003546 0.000000
# 3 -0.002128 -0.008062 0.014575 0.000000 -0.005696 0.000000
# 4 0.000000 0.000000 0.000000 0.032083 0.000000 -0.003703
# 5 -0.003822 -0.003546 -0.005696 0.000000 0.063836 0.000000
# 6 0.000000 0.000000 0.000000 -0.003703 0.000000 0.037990
#
#
# Mechanical properties :
#
#
# Convention : Reuss Voigt Hill
#
# Bulk Modulus (GPa) = 44.02632 52.11529 48.07080
# Shear Modulus (GPa) = 22.05234 24.63854 23.34544
#
# Velocity S-wave (km/s) = 3.39418 3.58769 3.49228
# Velocity P-wave (km/s) = 6.19359 6.66242 6.43228
#
# Compressibility (1/GPa) = 0.02271369
#
# Stress axis : x y z
#
# Youngs Moduli (GPa) = 61.53457 43.18254 68.61159
#
# Poissons Ratio (x) = 0.23515 0.14598
# Poissons Ratio (y) = 0.33508 0.55313
# Poissons Ratio (z) = 0.13092 0.34813
#
# Static dielectric constant tensor:
#      x y z
#    x 3.434670 0.000000 -0.001710 
#    y 0.000000 3.530000 0.000000 
#    z -0.001710 0.000000 3.464600 
# 
# 
# High freq. dielectric constant tensor:
#      x y z
#    x 1.744300 0.000000 0.001700 
#    y 0.000000 1.740020 0.000000 
#    z 0.001700 0.000000 1.738640 
# 
# From -- ./inp_files/309058.got.cif
#   From: 2010.06.25/outbox.cif.g09.slc.cpg/sg12_155_cif.got.tgz:309058.got - 2010.06.28 00:19:55.
