data_PCOD8088060
_publ_section_title
;
Structure prediction by ZEFSAII (Michael W. Deem and Ramdas Pophale) SiO2 
 PCOD8088060
Probable space group: C 2/M
;
_chemical_formula_sum "Si O2"
_cell_formula_units_Z 56
_cell_length_a 17.125123
_cell_length_b 15.300522
_cell_length_c 12.552597
_cell_angle_alpha 90.000000
_cell_angle_beta 114.817743
_cell_angle_gamma 90.000000
_cell_volume 2985.319164
_symmetry_space_group_name_H-M "C 2/M"
_symmetry_group_IT_number 12
_symmetry_cell_setting 'monoclinic'
loop_
_space_group_symop_operation_xyz
x,y,z
-x,y,-z
-x,-y,-z
x,-y,z
1/2+x,1/2+y,z
1/2-x,1/2+y,-z
1/2-x,1/2-y,-z
1/2+x,1/2-y,z
loop_
_atom_site_type_symbol
_atom_site_label
_atom_site_fract_x
_atom_site_fract_y
_atom_site_fract_z
Si Si1 0.087996 0.232618 0.507517
Si Si2 0.030226 0.401514 0.353696
Si Si3 0.793697 0.901406 0.524251
Si Si4 0.590392 0.900859 0.013296
Si Si5 0.241136 0.308308 0.700479
Si Si6 0.655675 0.099019 0.830577
Si Si7 0.660284 0.143703 0.265212
O O1 0.069138 0.329885 0.454403
O O2 0.126974 0.166208 0.442517
O O3 0.158543 0.244357 0.640333
O O4 0.000000 0.189711 0.500000
O O5 0.058532 0.500000 0.405079
O O6 0.065702 0.378768 0.256356
O O7 0.927517 0.395844 0.293447
O O8 0.744243 0.877500 0.605029
O O9 0.729378 0.896182 0.386972
O O10 0.829232 0.000000 0.552722
O O11 0.661690 0.898503 0.148329
O O12 0.568953 0.000000 0.967043
O O13 0.500000 0.855892 0.000000
O O14 0.632903 0.856495 0.932030
O O15 0.233227 0.352969 0.811986
O O16 0.325778 0.247620 0.742817
O O17 0.686438 0.000000 0.865849
#
# Coordination Sequence:
#
# PCOD8088060 Si02
#       7
#     8   8   8   8   8   8   8
#     4  11  21  35  52  77 108 139 178 218 255 315
#     4  11  19  31  54  80 108 138 169 212 266 315
#     4  11  22  36  54  76 106 143 177 215 264 309
#     4  10  19  32  52  77 106 136 172 216 259 314
#     4  11  21  34  52  76 110 140 169 219 262 312
#     4  10  21  33  51  81 107 136 175 213 264 314
#     4  11  20  34  53  78 107 139 175 212 264 315
#
# _framework density 18.758464
#
# number of rings (size 3 to 8) (size 9 to 14) (size 15 to 20)
#    0.000    1.286    5.714    2.571    0.000    1.714 
#    0.000    0.000    0.000    0.000    0.000    0.000 
#    0.000    2.571    0.000    0.000    0.000    0.000 
#
# Total GULP energy -346999.780941 kJ/mol
# GULP energy per Si atom -12392.849319 kJ/mol
# Density = 1.871577 g / cm^3
# Si number density = 18.758464 Si / 1000 Ang^3
#
#
#
# Elastic Constant Matrix: (Units=GPa)
#
#
# Indices 1 2 3 4 5 6 
#
# 1 83.4140 35.0585 27.3147 0.0000 -25.5475 0.0000
# 2 35.0585 84.1002 17.5149 0.0000 -10.8731 0.0000
# 3 27.3147 17.5149 79.8184 0.0000 -25.5440 0.0000
# 4 0.0000 0.0000 0.0000 21.5211 0.0000 -4.7108
# 5 -25.5475 -10.8731 -25.5440 0.0000 28.7328 0.0000
# 6 0.0000 0.0000 0.0000 -4.7108 0.0000 22.7578
#
#
#
# Elastic Compliance Matrix: (Units=1/GPa)
#
#
# Indices 1 2 3 4 5 6 
#
# 1 0.019026 -0.005970 -0.000713 0.000000 0.014024 0.000000
# 2 -0.005970 0.014546 -0.001518 0.000000 -0.001153 0.000000
# 3 -0.000713 -0.001518 0.017776 0.000000 0.014595 0.000000
# 4 0.000000 0.000000 0.000000 0.048671 0.000000 0.010075
# 5 0.014024 -0.001153 0.014595 0.000000 0.059812 0.000000
# 6 0.000000 0.000000 0.000000 0.010075 0.000000 0.046026
#
#
# Mechanical properties :
#
#
# Convention : Reuss Voigt Hill
#
# Bulk Modulus (GPa) = 28.61435 45.23431 36.92433
# Shear Modulus (GPa) = 21.37585 25.76530 23.57057
#
# Velocity S-wave (km/s) = 3.37936 3.71014 3.54860
# Velocity P-wave (km/s) = 5.52394 6.52073 6.04292
#
# Compressibility (1/GPa) = 0.03494750
#
# Stress axis : x y z
#
# Youngs Moduli (GPa) = 52.55958 68.74631 56.25438
#
# Poissons Ratio (x) = 0.41039 0.04010
# Poissons Ratio (y) = 0.31376 0.08539
# Poissons Ratio (z) = 0.03747 0.10436
#
# Static dielectric constant tensor:
#      x y z
#    x 3.636540 0.000000 -0.304940 
#    y 0.000000 3.373450 0.000000 
#    z -0.304940 0.000000 3.260180 
# 
# 
# High freq. dielectric constant tensor:
#      x y z
#    x 1.720790 0.000000 -0.025420 
#    y 0.000000 1.706780 0.000000 
#    z -0.025420 0.000000 1.712320 
# 
# From -- ./inp_files/155956.got.cif
#   From: 2010.06.25/outbox.cif.g09.slc.cpg/sg12_78_cif.got.tgz:155956.got - 2010.06.28 00:19:55.
