data_PCOD8088344
_publ_section_title
;
Structure prediction by ZEFSAII (Michael W. Deem and Ramdas Pophale) SiO2 
 PCOD8088344
Probable space group: C 2/M
;
_chemical_formula_sum "Si O2"
_cell_formula_units_Z 64
_cell_length_a 25.763624
_cell_length_b 9.339379
_cell_length_c 14.355113
_cell_angle_alpha 90.000000
_cell_angle_beta 77.627780
_cell_angle_gamma 90.000000
_cell_volume 3373.857004
_symmetry_space_group_name_H-M "C 2/M"
_symmetry_group_IT_number 12
_symmetry_cell_setting 'monoclinic'
loop_
_space_group_symop_operation_xyz
x,y,z
-x,y,-z
-x,-y,-z
x,-y,z
1/2+x,1/2+y,z
1/2-x,1/2+y,-z
1/2-x,1/2-y,-z
1/2+x,1/2-y,z
loop_
_atom_site_type_symbol
_atom_site_label
_atom_site_fract_x
_atom_site_fract_y
_atom_site_fract_z
Si Si1 0.682018 0.659049 0.299530
Si Si2 0.245071 0.333457 0.138707
Si Si3 0.801033 0.842303 0.489853
Si Si4 0.497589 0.166439 0.269994
Si Si5 0.101818 0.667730 0.584384
Si Si6 0.166204 0.666619 0.000715
Si Si7 0.913973 0.335994 0.622225
Si Si8 0.957322 0.670334 0.938778
O O1 0.680932 0.500000 0.254676
O O2 0.730465 0.750863 0.239114
O O3 0.686606 0.646024 0.407281
O O4 0.627107 0.740952 0.303126
O O5 0.255691 0.500000 0.154278
O O6 0.300088 0.264200 0.082653
O O7 0.194337 0.312096 0.090083
O O8 0.750000 0.750000 0.500000
O O9 0.846497 0.760914 0.415331
O O10 0.793402 0.000000 0.449158
O O11 0.438995 0.220579 0.320194
O O12 0.530465 0.196265 0.350666
O O13 0.521721 0.237734 0.167326
O O14 0.494890 0.000000 0.249302
O O15 0.115033 0.500000 0.589185
O O16 0.080086 0.701136 0.488947
O O17 0.169699 0.500000 0.969384
O O18 0.104340 0.719787 0.022898
O O19 0.895811 0.500000 0.642184
O O20 0.956740 0.500000 0.936627
O O21 0.000000 0.724323 0.000000
#
# Coordination Sequence:
#
# PCOD8088344 Si02
#       8
#     8   8   8   8   8   8   8   8
#     4  10  20  33  50  76 105 133 167 210 258 310
#     4  10  19  32  53  79 104 133 170 216 270 320
#     4  10  21  37  54  72 100 136 171 209 253 303
#     4   9  16  28  48  74 101 133 173 209 247 301
#     4   9  17  30  50  76 104 131 165 210 255 300
#     4   9  18  33  52  75 105 136 171 219 266 311
#     4   9  16  28  49  75 104 135 166 206 254 302
#     4   9  17  30  48  71 101 137 174 213 254 298
#
# _framework density 18.969386
#
# number of rings (size 3 to 8) (size 9 to 14) (size 15 to 20)
#    0.000    2.625    0.000    2.250    0.000    5.500 
#    2.250    0.625    0.000    4.125    0.000    0.000 
#    0.000    0.000    0.000    0.000    0.000    0.000 
#
# Total GULP energy -396550.967697 kJ/mol
# GULP energy per Si atom -12392.217741 kJ/mol
# Density = 1.892621 g / cm^3
# Si number density = 18.969386 Si / 1000 Ang^3
#
#
#
# Elastic Constant Matrix: (Units=GPa)
#
#
# Indices 1 2 3 4 5 6 
#
# 1 127.4744 44.4676 45.6428 0.0000 -35.2349 0.0000
# 2 44.4676 90.5608 35.5394 0.0000 -25.0547 0.0000
# 3 45.6428 35.5394 74.7731 0.0000 -33.3587 0.0000
# 4 0.0000 0.0000 0.0000 21.7942 0.0000 -7.5020
# 5 -35.2349 -25.0547 -33.3587 0.0000 29.3453 0.0000
# 6 0.0000 0.0000 0.0000 -7.5020 0.0000 24.6055
#
#
#
# Elastic Compliance Matrix: (Units=1/GPa)
#
#
# Indices 1 2 3 4 5 6 
#
# 1 0.012239 -0.002403 -0.001396 0.000000 0.011057 0.000000
# 2 -0.002403 0.015217 -0.002550 0.000000 0.007208 0.000000
# 3 -0.001396 -0.002550 0.027836 0.000000 0.027789 0.000000
# 4 0.000000 0.000000 0.000000 0.051264 0.000000 0.015630
# 5 0.011057 0.007208 0.027789 0.000000 0.085097 0.000000
# 6 0.000000 0.000000 0.000000 0.015630 0.000000 0.045407
#
#
# Mechanical properties :
#
#
# Convention : Reuss Voigt Hill
#
# Bulk Modulus (GPa) = 23.47741 60.45644 41.96692
# Shear Modulus (GPa) = 18.94260 26.29290 22.61775
#
# Velocity S-wave (km/s) = 3.16347 3.72704 3.45676
# Velocity P-wave (km/s) = 5.07413 7.10357 6.17282
#
# Compressibility (1/GPa) = 0.04259414
#
# Stress axis : x y z
#
# Youngs Moduli (GPa) = 81.70633 65.71528 35.92524
#
# Poissons Ratio (x) = 0.15790 0.05015
# Poissons Ratio (y) = 0.19632 0.09161
# Poissons Ratio (z) = 0.11406 0.16758
#
# Static dielectric constant tensor:
#      x y z
#    x 3.079900 0.000000 -0.037220 
#    y 0.000000 3.485410 0.000000 
#    z -0.037220 0.000000 3.462080 
# 
# 
# High freq. dielectric constant tensor:
#      x y z
#    x 1.732520 0.000000 -0.018080 
#    y 0.000000 1.710310 0.000000 
#    z -0.018080 0.000000 1.732960 
# 
# From -- ./inp_files/243748.got.cif
#   From: 2010.06.25/outbox.cif.g09.slc.cpg/sg12_122_cif.got.tgz:243748.got - 2010.06.28 00:19:55.
