data_PCOD8088403
_publ_section_title
;
Structure prediction by ZEFSAII (Michael W. Deem and Ramdas Pophale) SiO2 
 PCOD8088403
Probable space group: C 2/M
;
_chemical_formula_sum "Si O2"
_cell_formula_units_Z 64
_cell_length_a 21.187893
_cell_length_b 22.842764
_cell_length_c 9.026047
_cell_angle_alpha 90.000000
_cell_angle_beta 130.799802
_cell_angle_gamma 90.000000
_cell_volume 3306.955516
_symmetry_space_group_name_H-M "C 2/M"
_symmetry_group_IT_number 12
_symmetry_cell_setting 'monoclinic'
loop_
_space_group_symop_operation_xyz
x,y,z
-x,y,-z
-x,-y,-z
x,-y,z
1/2+x,1/2+y,z
1/2-x,1/2+y,-z
1/2-x,1/2-y,-z
1/2+x,1/2-y,z
loop_
_atom_site_type_symbol
_atom_site_label
_atom_site_fract_x
_atom_site_fract_y
_atom_site_fract_z
Si Si1 0.861586 0.135862 0.526001
Si Si2 0.839290 0.734699 0.404074
Si Si3 0.501607 0.776514 0.825964
Si Si4 0.583942 0.158020 0.717791
Si Si5 0.209361 0.144125 0.276122
Si Si6 0.547138 0.349371 0.835998
Si Si7 0.127611 0.065666 0.738708
Si Si8 0.793113 0.565353 0.180867
O O1 0.839635 0.194929 0.400336
O O2 0.795991 0.129922 0.558426
O O3 0.853328 0.081728 0.401871
O O4 0.953437 0.133987 0.742287
O O5 0.862221 0.710028 0.276391
O O6 0.748347 0.709101 0.311193
O O7 0.906628 0.713617 0.629298
O O8 0.561117 0.827836 0.854307
O O9 0.542005 0.720253 0.805234
O O10 0.500000 0.771878 0.000000
O O11 0.500000 0.148550 0.500000
O O12 0.633909 0.097631 0.795777
O O13 0.273407 0.097524 0.305225
O O14 0.117272 0.137323 0.065461
O O15 0.565143 0.386146 0.713387
O O16 0.088706 0.000000 0.686714
O O17 0.213194 0.066602 0.956120
O O18 0.822576 0.500000 0.262695
#
# Coordination Sequence:
#
# PCOD8088403 Si02
#       8
#     8   8   8   8   8   8   8   8
#     4  11  20  32  53  78 103 131 168 213 255 294
#     4   9  19  34  50  76 108 136 163 200 250 308
#     4  10  19  32  53  80 108 130 160 206 253 300
#     4   9  18  33  54  78 103 134 167 200 248 306
#     4  10  20  34  53  75 103 134 170 208 250 300
#     4  10  20  35  52  73 102 138 169 203 250 302
#     4  10  22  37  52  72 100 135 175 215 253 294
#     4   9  20  38  54  71 100 136 173 211 248 295
#
# _framework density 19.353148999999998
#
# number of rings (size 3 to 8) (size 9 to 14) (size 15 to 20)
#    0.000    2.250    0.000    3.375    0.000    5.750 
#    0.000    3.750    0.000    6.000    0.000    0.000 
#    0.000    0.000    0.000    0.000    0.000    0.000 
#
# Total GULP energy -396629.392142 kJ/mol
# GULP energy per Si atom -12394.668504 kJ/mol
# Density = 1.930910 g / cm^3
# Si number density = 19.353149 Si / 1000 Ang^3
#
#
#
# Elastic Constant Matrix: (Units=GPa)
#
#
# Indices 1 2 3 4 5 6 
#
# 1 105.5893 60.3668 28.5184 0.0000 -10.5082 0.0000
# 2 60.3668 121.5700 29.7427 0.0000 -2.7384 0.0000
# 3 28.5184 29.7427 37.8586 0.0000 -13.4050 0.0000
# 4 0.0000 0.0000 0.0000 21.8247 0.0000 2.7865
# 5 -10.5082 -2.7384 -13.4050 0.0000 19.6202 0.0000
# 6 0.0000 0.0000 0.0000 2.7865 0.0000 22.5524
#
#
#
# Elastic Compliance Matrix: (Units=1/GPa)
#
#
# Indices 1 2 3 4 5 6 
#
# 1 0.014575 -0.005912 -0.005095 0.000000 0.003500 0.000000
# 2 -0.005912 0.013023 -0.008251 0.000000 -0.006986 0.000000
# 3 -0.005095 -0.008251 0.046645 0.000000 0.027988 0.000000
# 4 0.000000 0.000000 0.000000 0.046554 0.000000 -0.005752
# 5 0.003500 -0.006986 0.027988 0.000000 0.070989 0.000000
# 6 0.000000 0.000000 0.000000 -0.005752 0.000000 0.045052
#
#
# Mechanical properties :
#
#
# Convention : Reuss Voigt Hill
#
# Bulk Modulus (GPa) = 27.99139 55.80820 41.89979
# Shear Modulus (GPa) = 17.40562 22.55881 19.98221
#
# Velocity S-wave (km/s) = 3.00220 3.41785 3.21675
# Velocity P-wave (km/s) = 5.14903 6.66896 5.95766
#
# Compressibility (1/GPa) = 0.03572527
#
# Stress axis : x y z
#
# Youngs Moduli (GPa) = 68.61017 76.78904 21.43859
#
# Poissons Ratio (x) = 0.45397 0.10924
# Poissons Ratio (y) = 0.40562 0.17690
# Poissons Ratio (z) = 0.34960 0.63361
#
# Static dielectric constant tensor:
#      x y z
#    x 3.642830 0.000000 0.104860 
#    y 0.000000 3.606040 0.000000 
#    z 0.104860 0.000000 3.370180 
# 
# 
# High freq. dielectric constant tensor:
#      x y z
#    x 1.756460 0.000000 0.004980 
#    y 0.000000 1.735430 0.000000 
#    z 0.004980 0.000000 1.742390 
# 
# From -- ./inp_files/90676.got.cif
#   From: 2010.06.25/outbox.cif.g09.slc.cpg/sg12_46_cif.got.tgz:90676.got - 2010.06.28 00:19:55.
