data_PCOD8088334
_publ_section_title
;
Structure prediction by ZEFSAII (Michael W. Deem and Ramdas Pophale) SiO2 
 PCOD8088334
Probable space group: C 2/M
;
_chemical_formula_sum "Si O2"
_cell_formula_units_Z 64
_cell_length_a 28.261454
_cell_length_b 8.932390
_cell_length_c 14.157532
_cell_angle_alpha 90.000000
_cell_angle_beta 86.377820
_cell_angle_gamma 90.000000
_cell_volume 3566.820818
_symmetry_space_group_name_H-M "C 2/M"
_symmetry_group_IT_number 12
_symmetry_cell_setting 'monoclinic'
loop_
_space_group_symop_operation_xyz
x,y,z
-x,y,-z
-x,-y,-z
x,-y,z
1/2+x,1/2+y,z
1/2-x,1/2+y,-z
1/2-x,1/2-y,-z
1/2+x,1/2-y,z
loop_
_atom_site_type_symbol
_atom_site_label
_atom_site_fract_x
_atom_site_fract_y
_atom_site_fract_z
Si Si1 0.488571 0.677128 0.395368
Si Si2 0.156505 0.328193 0.444291
Si Si3 0.851729 0.172575 0.832412
Si Si4 0.609554 0.174688 0.645374
Si Si5 0.701475 0.325242 0.977246
Si Si6 0.320220 0.322821 0.230214
Si Si7 0.772554 0.826346 0.690209
Si Si8 0.422452 0.174341 0.695907
O O1 0.500000 0.731848 0.500000
O O2 0.485079 0.500000 0.389909
O O3 0.439745 0.746458 0.367916
O O4 0.529111 0.734436 0.319702
O O5 0.170509 0.500000 0.423674
O O6 0.145603 0.296667 0.554513
O O7 0.200277 0.224074 0.408167
O O8 0.109965 0.286183 0.390065
O O9 0.805247 0.208193 0.776341
O O10 0.895691 0.274330 0.794552
O O11 0.866384 0.000000 0.818127
O O12 0.839583 0.213327 0.941969
O O13 0.632558 0.246150 0.735487
O O14 0.600270 0.000000 0.662115
O O15 0.712031 0.500000 0.974517
O O16 0.684147 0.268855 0.877547
O O17 0.750000 0.250000 0.000000
O O18 0.324979 0.500000 0.238378
O O19 0.274981 0.268656 0.294891
O O20 0.759027 0.000000 0.683523
O O21 0.434366 0.000000 0.701056
#
# Coordination Sequence:
#
# PCOD8088334 Si02
#       8
#     8   8   8   8   8   8   8   8
#     4  11  22  36  58  85 112 143 181 225 273 324
#     4   9  19  34  52  76 108 145 184 224 267 319
#     4   9  18  33  53  81 112 141 179 226 274 324
#     4  11  23  39  57  78 109 148 187 228 272 322
#     4  10  20  35  57  82 110 144 183 228 275 324
#     4  11  23  37  54  79 112 148 185 227 276 328
#     4  10  19  32  53  78 108 146 185 225 268 321
#     4  10  19  33  55  83 112 142 179 224 272 322
#
# _framework density 17.943151
#
# number of rings (size 3 to 8) (size 9 to 14) (size 15 to 20)
#    0.000    1.875    2.500    1.875    0.000    4.000 
#    0.000    0.000    0.000    0.750    0.000    5.250 
#    0.000    0.000    0.000    0.000    0.000    0.000 
#
# Total GULP energy -396937.026741 kJ/mol
# GULP energy per Si atom -12404.282086 kJ/mol
# Density = 1.790231 g / cm^3
# Si number density = 17.943151 Si / 1000 Ang^3
#
#
#
# Elastic Constant Matrix: (Units=GPa)
#
#
# Indices 1 2 3 4 5 6 
#
# 1 106.9891 51.5617 58.4856 0.0000 3.5344 0.0000
# 2 51.5617 75.4213 43.5732 0.0000 1.0377 0.0000
# 3 58.4856 43.5732 100.6415 0.0000 5.1313 0.0000
# 4 0.0000 0.0000 0.0000 24.6890 0.0000 -1.9731
# 5 3.5344 1.0377 5.1313 0.0000 21.5375 0.0000
# 6 0.0000 0.0000 0.0000 -1.9731 0.0000 35.6609
#
#
#
# Elastic Compliance Matrix: (Units=1/GPa)
#
#
# Indices 1 2 3 4 5 6 
#
# 1 0.016456 -0.007653 -0.006206 0.000000 -0.000853 0.000000
# 2 -0.007653 0.021261 -0.004828 0.000000 0.001382 0.000000
# 3 -0.006206 -0.004828 0.015761 0.000000 -0.002504 0.000000
# 4 0.000000 0.000000 0.000000 0.040684 0.000000 0.002251
# 5 -0.000853 0.001382 -0.002504 0.000000 0.047101 0.000000
# 6 0.000000 0.000000 0.000000 0.002251 0.000000 0.028166
#
#
# Mechanical properties :
#
#
# Convention : Reuss Voigt Hill
#
# Bulk Modulus (GPa) = 62.09869 65.58812 63.84340
# Shear Modulus (GPa) = 23.56599 25.00624 24.28612
#
# Velocity S-wave (km/s) = 3.62798 3.73720 3.68299
# Velocity P-wave (km/s) = 7.22726 7.43336 7.33103
#
# Compressibility (1/GPa) = 0.01610340
#
# Stress axis : x y z
#
# Youngs Moduli (GPa) = 60.76979 47.03435 63.44824
#
# Poissons Ratio (x) = 0.35994 0.39376
# Poissons Ratio (y) = 0.46505 0.30635
# Poissons Ratio (z) = 0.37714 0.22710
#
# Static dielectric constant tensor:
#      x y z
#    x 3.188450 0.000000 -0.098670 
#    y 0.000000 3.349920 0.000000 
#    z -0.098670 0.000000 3.407590 
# 
# 
# High freq. dielectric constant tensor:
#      x y z
#    x 1.683960 0.000000 -0.011370 
#    y 0.000000 1.703510 0.000000 
#    z -0.011370 0.000000 1.683980 
# 
# From -- ./inp_files/238803.got.cif
#   From: 2010.06.25/outbox.cif.g09.slc.cpg/sg12_120_cif.got.tgz:238803.got - 2010.06.28 00:19:55.
