data_PCOD8088855
_publ_section_title
;
Structure prediction by ZEFSAII (Michael W. Deem and Ramdas Pophale) SiO2 
 PCOD8088855
Probable space group: C 2/M
;
_chemical_formula_sum "Si O2"
_cell_formula_units_Z 64
_cell_length_a 18.662238
_cell_length_b 16.233037
_cell_length_c 22.166991
_cell_angle_alpha 90.000000
_cell_angle_beta 149.880799
_cell_angle_gamma 90.000000
_cell_volume 3369.779293
_symmetry_space_group_name_H-M "C 2/M"
_symmetry_group_IT_number 12
_symmetry_cell_setting 'monoclinic'
loop_
_space_group_symop_operation_xyz
x,y,z
-x,y,-z
-x,-y,-z
x,-y,z
1/2+x,1/2+y,z
1/2-x,1/2+y,-z
1/2-x,1/2-y,-z
1/2+x,1/2-y,z
loop_
_atom_site_type_symbol
_atom_site_label
_atom_site_fract_x
_atom_site_fract_y
_atom_site_fract_z
Si Si1 0.480719 0.093675 0.051921
Si Si2 0.982789 0.125369 0.891302
Si Si3 0.770597 0.907168 0.843627
Si Si4 0.616336 0.747411 0.689665
Si Si5 0.663454 0.785210 0.249554
Si Si6 0.407617 0.411382 0.706855
Si Si7 0.163089 0.096078 0.809498
Si Si8 0.715183 0.233360 0.543998
O O1 0.595626 0.128115 0.182622
O O2 0.527240 0.000000 0.079792
O O3 0.500000 0.136334 0.000000
O O4 0.316958 0.104051 0.954291
O O5 0.874000 0.092573 0.861827
O O6 0.960437 0.221205 0.859563
O O7 0.955887 0.075765 0.810667
O O8 0.142670 0.110377 0.031600
O O9 0.658827 0.831749 0.755785
O O10 0.701079 0.000000 0.796868
O O11 0.691432 0.741406 0.679183
O O12 0.658560 0.661506 0.752102
O O13 0.447999 0.752527 0.558915
O O14 0.693347 0.789964 0.343138
O O15 0.367700 0.500000 0.650862
O O16 0.541002 0.374739 0.766771
O O17 0.263872 0.359001 0.595123
O O18 0.142898 0.000000 0.773091
O O19 0.750000 0.250000 0.500000
#
# Coordination Sequence:
#
# PCOD8088855 Si02
#       8
#     8   8   8   8   8   8   8   8
#     4  10  19  34  59  88 120 147 183 240 296 352
#     4   9  18  33  56  84 114 145 183 233 288 353
#     4  10  19  32  55  85 116 146 181 231 292 345
#     4  11  21  37  58  82 116 148 193 241 279 338
#     4  10  21  36  59  85 111 153 194 234 293 343
#     4  10  20  37  59  80 110 151 193 235 287 346
#     4  10  20  35  59  87 113 149 188 232 293 354
#     4  11  23  41  56  78 112 154 199 241 279 330
#
# _framework density 18.992342000000001
#
# number of rings (size 3 to 8) (size 9 to 14) (size 15 to 20)
#    0.000    1.875    2.500    2.625    1.750    0.500 
#    2.250    3.125    0.000    6.000    0.000    0.000 
#    0.000    0.000    0.000    0.000    0.000    0.000 
#
# Total GULP energy -396550.781194 kJ/mol
# GULP energy per Si atom -12392.211912 kJ/mol
# Density = 1.894911 g / cm^3
# Si number density = 18.992342 Si / 1000 Ang^3
#
#
#
# Elastic Constant Matrix: (Units=GPa)
#
#
# Indices 1 2 3 4 5 6 
#
# 1 62.6592 27.4931 34.5917 -0.0036 -13.8390 -0.0012
# 2 27.4931 96.2320 53.8405 0.0006 -5.4727 -0.0017
# 3 34.5917 53.8405 102.1315 -0.0017 -11.7418 -0.0018
# 4 -0.0036 0.0006 -0.0017 20.7741 0.0006 5.7184
# 5 -13.8390 -5.4727 -11.7418 0.0006 35.2643 -0.0007
# 6 -0.0012 -0.0017 -0.0018 5.7184 -0.0007 19.7804
#
#
#
# Elastic Compliance Matrix: (Units=1/GPa)
#
#
# Indices 1 2 3 4 5 6 
#
# 1 0.021388 -0.002985 -0.004948 0.000003 0.006283 0.000000
# 2 -0.002985 0.015158 -0.007117 -0.000002 -0.001189 0.000001
# 3 -0.004948 -0.007117 0.015461 0.000000 0.002101 0.000000
# 4 0.000003 -0.000002 0.000000 0.052299 0.000000 -0.015119
# 5 0.006283 -0.001189 0.002101 0.000000 0.031338 0.000002
# 6 0.000000 0.000001 0.000000 -0.015119 0.000002 0.054926
#
#
# Mechanical properties :
#
#
# Convention : Reuss Voigt Hill
#
# Bulk Modulus (GPa) = 45.64616 54.76370 50.20493
# Shear Modulus (GPa) = 21.93246 24.83692 23.38469
#
# Velocity S-wave (km/s) = 3.40193 3.62018 3.51275
# Velocity P-wave (km/s) = 6.28625 6.80966 6.55319
#
# Compressibility (1/GPa) = 0.02190765
#
# Stress axis : x y z
#
# Youngs Moduli (GPa) = 46.75429 65.96995 64.68020
#
# Poissons Ratio (x) = 0.19690 0.32007
# Poissons Ratio (y) = 0.13955 0.46031
# Poissons Ratio (z) = 0.23136 0.46949
#
# Static dielectric constant tensor:
#      x y z
#    x 3.445900 0.000000 -0.032080 
#    y 0.000000 3.585060 -0.000010 
#    z -0.032080 -0.000010 3.438400 
# 
# 
# High freq. dielectric constant tensor:
#      x y z
#    x 1.727370 0.000000 -0.000770 
#    y 0.000000 1.744190 0.000000 
#    z -0.000770 0.000000 1.726240 
# 
# From -- ./inp_files/317386.got.cif
#   From: 2010.06.25/outbox.cif.g09.slc.cpg/sg12_159_cif.got.tgz:317386.got - 2010.06.28 00:19:55.
