data_PCOD8088758
_publ_section_title
;
Structure prediction by ZEFSAII (Michael W. Deem and Ramdas Pophale) SiO2 
 PCOD8088758
Probable space group: C 2/M
;
_chemical_formula_sum "Si O2"
_cell_formula_units_Z 56
_cell_length_a 20.093832
_cell_length_b 8.973875
_cell_length_c 18.427179
_cell_angle_alpha 90.000000
_cell_angle_beta 82.449567
_cell_angle_gamma 90.000000
_cell_volume 3293.970495
_symmetry_space_group_name_H-M "C 2/M"
_symmetry_group_IT_number 12
_symmetry_cell_setting 'monoclinic'
loop_
_space_group_symop_operation_xyz
x,y,z
-x,y,-z
-x,-y,-z
x,-y,z
1/2+x,1/2+y,z
1/2-x,1/2+y,-z
1/2-x,1/2-y,-z
1/2+x,1/2-y,z
loop_
_atom_site_type_symbol
_atom_site_label
_atom_site_fract_x
_atom_site_fract_y
_atom_site_fract_z
Si Si1 0.972373 0.675009 0.711579
Si Si2 0.820157 0.674980 0.475760
Si Si3 0.724355 0.676844 0.788837
Si Si4 0.747533 0.331019 0.076378
Si Si5 0.353895 0.668495 0.793459
Si Si6 0.627485 0.174471 0.689859
Si Si7 0.939837 0.677169 0.556681
O O1 0.961298 0.500000 0.720148
O O2 0.926933 0.756092 0.778493
O O3 0.946813 0.736028 0.637523
O O4 0.049762 0.716359 0.712075
O O5 0.810092 0.500000 0.481278
O O6 0.750000 0.750000 0.500000
O O7 0.850831 0.720879 0.393990
O O8 0.869956 0.730728 0.531971
O O9 0.726827 0.500000 0.792050
O O10 0.705927 0.744094 0.871288
O O11 0.797940 0.740044 0.754332
O O12 0.668879 0.727879 0.740100
O O13 0.773951 0.500000 0.063969
O O14 0.670903 0.329586 0.118690
O O15 0.750000 0.250000 0.000000
O O16 0.357090 0.500000 0.763291
O O17 0.640325 0.000000 0.702097
O O18 0.945639 0.500000 0.555209
O O19 0.000000 0.744581 0.500000
#
# Coordination Sequence:
#
# PCOD8088758 Si02
#       7
#     8   8   8   8   8   8   8
#     4  10  19  32  55  78 102 140 184 223 267 326
#     4  10  21  34  50  72 101 133 174 225 274 322
#     4  10  20  34  54  78 105 139 180 217 257 313
#     4   9  18  33  56  85 114 142 171 212 261 310
#     4   9  20  35  52  79 111 138 170 218 268 311
#     4  10  20  35  51  73 107 142 176 222 274 320
#     4   9  16  32  53  73  96 131 179 223 266 317
#
# _framework density 17.000758999999999
#
# number of rings (size 3 to 8) (size 9 to 14) (size 15 to 20)
#    0.857    1.571    1.429    1.714    2.000    1.143 
#    0.000    0.000    0.000    1.714    0.000    6.000 
#    0.000    0.000    0.000    0.000    0.000    0.000 
#
# Total GULP energy -347026.260371 kJ/mol
# GULP energy per Si atom -12393.795013 kJ/mol
# Density = 1.696206 g / cm^3
# Si number density = 17.000759 Si / 1000 Ang^3
#
#
#
# Elastic Constant Matrix: (Units=GPa)
#
#
# Indices 1 2 3 4 5 6 
#
# 1 112.2962 53.7746 35.4972 0.0000 -12.0234 0.0000
# 2 53.7746 96.9315 44.3086 0.0000 0.1139 0.0000
# 3 35.4972 44.3086 64.1394 0.0000 -9.0552 0.0000
# 4 0.0000 0.0000 0.0000 24.6083 0.0000 0.3273
# 5 -12.0234 0.1139 -9.0552 0.0000 19.7625 0.0000
# 6 0.0000 0.0000 0.0000 0.3273 0.0000 29.4064
#
#
#
# Elastic Compliance Matrix: (Units=1/GPa)
#
#
# Indices 1 2 3 4 5 6 
#
# 1 0.013450 -0.006642 -0.001812 0.000000 0.007391 0.000000
# 2 -0.006642 0.018874 -0.010636 0.000000 -0.009023 0.000000
# 3 -0.001812 -0.010636 0.025440 0.000000 0.010616 0.000000
# 4 0.000000 0.000000 0.000000 0.040643 0.000000 -0.000452
# 5 0.007391 -0.009023 0.010616 0.000000 0.060014 0.000000
# 6 0.000000 0.000000 0.000000 -0.000452 0.000000 0.034011
#
#
# Mechanical properties :
#
#
# Convention : Reuss Voigt Hill
#
# Bulk Modulus (GPa) = 51.06309 60.05865 55.56087
# Shear Modulus (GPa) = 21.08464 24.07456 22.57960
#
# Velocity S-wave (km/s) = 3.52549 3.76718 3.64834
# Velocity P-wave (km/s) = 6.83177 7.37061 7.10630
#
# Compressibility (1/GPa) = 0.01958362
#
# Stress axis : x y z
#
# Youngs Moduli (GPa) = 74.35153 52.98298 39.30769
#
# Poissons Ratio (x) = 0.35191 0.07121
# Poissons Ratio (y) = 0.49384 0.41810
# Poissons Ratio (z) = 0.13470 0.56355
#
# Static dielectric constant tensor:
#      x y z
#    x 3.099490 0.000000 -0.024040 
#    y 0.000000 3.032850 0.000000 
#    z -0.024040 0.000000 3.080040 
# 
# 
# High freq. dielectric constant tensor:
#      x y z
#    x 1.647440 0.000000 -0.003970 
#    y 0.000000 1.648230 0.000000 
#    z -0.003970 0.000000 1.642840 
# 
# From -- ./inp_files/318824.got.cif
#   From: 2010.06.25/outbox.cif.g09.slc.cpg/sg12_160_cif.got.tgz:318824.got - 2010.06.28 00:19:55.
