data_PCOD8088210
_publ_section_title
;
Structure prediction by ZEFSAII (Michael W. Deem and Ramdas Pophale) SiO2 
 PCOD8088210
Probable space group: C 2/M
;
_chemical_formula_sum "Si O2"
_cell_formula_units_Z 40
_cell_length_a 20.526023
_cell_length_b 15.902065
_cell_length_c 13.835050
_cell_angle_alpha 90.000000
_cell_angle_beta 153.093773
_cell_angle_gamma 90.000000
_cell_volume 2043.562888
_symmetry_space_group_name_H-M "C 2/M"
_symmetry_group_IT_number 12
_symmetry_cell_setting 'monoclinic'
loop_
_space_group_symop_operation_xyz
x,y,z
-x,y,-z
-x,-y,-z
x,-y,z
1/2+x,1/2+y,z
1/2-x,1/2+y,-z
1/2-x,1/2-y,-z
1/2+x,1/2-y,z
loop_
_atom_site_type_symbol
_atom_site_label
_atom_site_fract_x
_atom_site_fract_y
_atom_site_fract_z
Si Si1 0.348227 0.149169 0.277588
Si Si2 0.559486 0.654168 0.977713
Si Si3 0.258231 0.191319 0.782193
Si Si4 0.918032 0.097543 0.601354
Si Si5 0.727576 0.595594 0.928327
O O1 0.500000 0.102339 0.500000
O O2 0.362988 0.244298 0.337598
O O3 0.317744 0.152333 0.122761
O O4 0.209184 0.105482 0.146366
O O5 0.593891 0.754499 0.034066
O O6 0.442455 0.637388 0.739611
O O7 0.500000 0.618142 0.000000
O O8 0.788067 0.149368 0.380213
O O9 0.277188 0.118180 0.886242
O O10 0.057006 0.108078 0.716871
O O11 0.874448 0.000000 0.554289
O O12 0.771295 0.500000 0.006630
#
# Coordination Sequence:
#
# PCOD8088210 Si02
#       5
#     8   8   8   8   8
#     4   9  19  32  56  81 107 140 183 228 267 324
#     4   9  22  37  55  81 112 148 183 224 272 327
#     4  10  20  31  58  80 110 138 182 225 275 317
#     4  10  20  35  57  84 111 142 186 230 272 323
#     4  10  19  32  52  82 116 142 177 229 283 324
#
# _framework density 19.573656
#
# number of rings (size 3 to 8) (size 9 to 14) (size 15 to 20)
#    1.200    1.200    0.000    3.000    2.800    3.200 
#    0.000    0.000    0.000    4.800    0.000    0.000 
#    0.000    0.000    0.000    0.000    0.000    0.000 
#
# Total GULP energy -247793.686983 kJ/mol
# GULP energy per Si atom -12389.684349 kJ/mol
# Density = 1.952911 g / cm^3
# Si number density = 19.573656 Si / 1000 Ang^3
#
#
#
# Elastic Constant Matrix: (Units=GPa)
#
#
# Indices 1 2 3 4 5 6 
#
# 1 121.4093 23.2298 51.7835 0.0000 -29.6798 0.0000
# 2 23.2298 78.5941 33.7384 0.0000 -21.5323 0.0000
# 3 51.7835 33.7384 79.6921 0.0000 -28.7668 0.0000
# 4 0.0000 0.0000 0.0000 22.4252 0.0000 -3.8118
# 5 -29.6798 -21.5323 -28.7668 0.0000 31.9287 0.0000
# 6 0.0000 0.0000 0.0000 -3.8118 0.0000 10.0107
#
#
#
# Elastic Compliance Matrix: (Units=1/GPa)
#
#
# Indices 1 2 3 4 5 6 
#
# 1 0.012201 0.000701 -0.005869 0.000000 0.006527 0.000000
# 2 0.000701 0.016638 -0.004763 0.000000 0.007581 0.000000
# 3 -0.005869 -0.004763 0.022600 0.000000 0.011694 0.000000
# 4 0.000000 0.000000 0.000000 0.047679 0.000000 0.018155
# 5 0.006527 0.007581 0.011694 0.000000 0.053035 0.000000
# 6 0.000000 0.000000 0.000000 0.018155 0.000000 0.106805
#
#
# Mechanical properties :
#
#
# Convention : Reuss Voigt Hill
#
# Bulk Modulus (GPa) = 31.66849 55.24432 43.45641
# Shear Modulus (GPa) = 17.28038 24.26920 20.77479
#
# Velocity S-wave (km/s) = 2.97448 3.52503 3.26139
# Velocity P-wave (km/s) = 5.29254 6.69723 6.03589
#
# Compressibility (1/GPa) = 0.03157712
#
# Stress axis : x y z
#
# Youngs Moduli (GPa) = 81.95832 60.10380 44.24842
#
# Poissons Ratio (x) = -0.04216 0.25970
# Poissons Ratio (y) = -0.05748 0.21076
# Poissons Ratio (z) = 0.48103 0.28628
#
# Static dielectric constant tensor:
#      x y z
#    x 3.268050 0.000000 -0.160200 
#    y 0.000000 3.323750 0.000000 
#    z -0.160200 0.000000 3.328880 
# 
# 
# High freq. dielectric constant tensor:
#      x y z
#    x 1.745750 0.000000 -0.024940 
#    y 0.000000 1.746960 0.000000 
#    z -0.024940 0.000000 1.741870 
# 
# From -- ./inp_files/234772.got.cif
#   From: 2010.06.25/outbox.cif.g09.slc.cpg/sg12_118_cif.got.tgz:234772.got - 2010.06.28 00:19:55.
