data_PCOD8088072
_publ_section_title
;
Structure prediction by ZEFSAII (Michael W. Deem and Ramdas Pophale) SiO2 
 PCOD8088072
Probable space group: C 2/M
;
_chemical_formula_sum "Si O2"
_cell_formula_units_Z 64
_cell_length_a 29.613959
_cell_length_b 9.005026
_cell_length_c 19.318413
_cell_angle_alpha 90.000000
_cell_angle_beta 40.013706
_cell_angle_gamma 90.000000
_cell_volume 3312.410601
_symmetry_space_group_name_H-M "C 2/M"
_symmetry_group_IT_number 12
_symmetry_cell_setting 'monoclinic'
loop_
_space_group_symop_operation_xyz
x,y,z
-x,y,-z
-x,-y,-z
x,-y,z
1/2+x,1/2+y,z
1/2-x,1/2+y,-z
1/2-x,1/2-y,-z
1/2+x,1/2-y,z
loop_
_atom_site_type_symbol
_atom_site_label
_atom_site_fract_x
_atom_site_fract_y
_atom_site_fract_z
Si Si1 0.105557 0.828362 0.614317
Si Si2 0.625646 0.330963 0.967746
Si Si3 0.554632 0.322600 0.186451
Si Si4 0.712797 0.671194 0.373559
Si Si5 0.782840 0.667764 0.776459
Si Si6 0.578447 0.333134 0.883084
Si Si7 0.318565 0.177011 0.884010
Si Si8 0.840858 0.325039 0.317411
O O1 0.139128 0.803184 0.499390
O O2 0.155137 0.743161 0.610735
O O3 0.025167 0.771210 0.705074
O O4 0.106681 0.000000 0.634850
O O5 0.601694 0.500000 0.983457
O O6 0.704903 0.316085 0.899681
O O7 0.620682 0.256909 0.897638
O O8 0.573820 0.265522 0.086580
O O9 0.564470 0.500000 0.182442
O O10 0.608404 0.240657 0.173626
O O11 0.729613 0.500000 0.342725
O O12 0.704473 0.738010 0.307082
O O13 0.775305 0.737789 0.348634
O O14 0.799045 0.500000 0.735032
O O15 0.826772 0.716248 0.792330
O O16 0.604307 0.500000 0.833726
O O17 0.588666 0.227919 0.804834
O O18 0.500000 0.335087 0.000000
O O19 0.313246 0.000000 0.901583
O O20 0.250000 0.250000 0.000000
O O21 0.837049 0.500000 0.330245
#
# Coordination Sequence:
#
# PCOD8088072 Si02
#       8
#     8   8   8   8   8   8   8   8
#     4  10  22  40  61  82 111 152 196 238 282 338
#     4   9  16  30  52  78 108 140 182 227 271 332
#     4  10  20  38  61  85 113 147 190 240 287 337
#     4  10  22  39  58  85 115 148 194 241 282 329
#     4  10  20  36  58  83 111 146 186 228 276 337
#     4  10  19  32  52  77 108 150 193 229 275 337
#     4  11  22  37  59  88 120 151 188 232 283 345
#     4  11  22  35  54  83 118 149 188 239 286 337
#
# _framework density 19.321276000000001
#
# number of rings (size 3 to 8) (size 9 to 14) (size 15 to 20)
#    0.000    1.875    2.500    1.875    0.000    4.750 
#    0.000    1.250    0.000    3.750    0.000    0.000 
#    0.000    0.000    0.000    0.000    0.000    0.000 
#
# Total GULP energy -396579.655715 kJ/mol
# GULP energy per Si atom -12393.114241 kJ/mol
# Density = 1.927730 g / cm^3
# Si number density = 19.321276 Si / 1000 Ang^3
#
#
#
# Elastic Constant Matrix: (Units=GPa)
#
#
# Indices 1 2 3 4 5 6 
#
# 1 103.3793 38.6851 44.7623 -0.0017 11.8925 0.0051
# 2 38.6851 57.4915 35.3041 -0.0009 8.5620 -0.0031
# 3 44.7623 35.3041 106.2203 -0.0261 11.5101 -0.0064
# 4 -0.0017 -0.0009 -0.0261 2.3990 -0.0015 5.1350
# 5 11.8925 8.5620 11.5101 -0.0015 27.8536 0.0016
# 6 0.0051 -0.0031 -0.0064 5.1350 0.0016 33.0424
#
#
#
# Elastic Compliance Matrix: (Units=1/GPa)
#
#
# Indices 1 2 3 4 5 6 
#
# 1 0.014020 -0.007040 -0.003302 -0.000034 -0.002457 0.000002
# 2 -0.007040 0.025800 -0.005312 -0.000091 -0.002729 0.000017
# 3 -0.003302 -0.005312 0.012816 0.000191 -0.002253 -0.000027
# 4 -0.000034 -0.000091 0.000191 0.624610 0.000003 -0.097068
# 5 -0.002457 -0.002729 -0.002253 0.000003 0.038721 -0.000003
# 6 0.000002 0.000017 -0.000027 -0.097068 -0.000003 0.045349
#
#
# Mechanical properties :
#
#
# Convention : Reuss Voigt Hill
#
# Bulk Modulus (GPa) = 46.89030 56.06601 51.47815
# Shear Modulus (GPa) = 6.25208 22.54830 14.40019
#
# Velocity S-wave (km/s) = 1.80080 3.41987 2.73298
# Velocity P-wave (km/s) = 5.35213 6.68392 6.05475
#
# Compressibility (1/GPa) = 0.02132637
#
# Stress axis : x y z
#
# Youngs Moduli (GPa) = 71.32659 38.75989 78.02897
#
# Poissons Ratio (x) = 0.27288 0.25765
# Poissons Ratio (y) = 0.50215 0.41453
# Poissons Ratio (z) = 0.23552 0.20591
#
# Static dielectric constant tensor:
#      x y z
#    x 3.904700 0.000020 0.073500 
#    y 0.000020 3.341100 0.000050 
#    z 0.073500 0.000050 3.527670 
# 
# 
# High freq. dielectric constant tensor:
#      x y z
#    x 1.756750 0.000000 0.009090 
#    y 0.000000 1.727930 0.000000 
#    z 0.009090 0.000000 1.752450 
# 
# From -- ./inp_files/295520.got.cif
#   From: 2010.06.25/outbox.cif.g09.slc.cpg/sg12_148_cif.got.tgz:295520.got - 2010.06.28 00:19:55.
