data_PCOD8088989
_publ_section_title
;
Structure prediction by ZEFSAII (Michael W. Deem and Ramdas Pophale) SiO2 
 PCOD8088989
Probable space group: C 2/M
;
_chemical_formula_sum "Si O2"
_cell_formula_units_Z 48
_cell_length_a 20.466887
_cell_length_b 8.732761
_cell_length_c 21.107176
_cell_angle_alpha 90.000000
_cell_angle_beta 138.146727
_cell_angle_gamma 90.000000
_cell_volume 2517.132139
_symmetry_space_group_name_H-M "C 2/M"
_symmetry_group_IT_number 12
_symmetry_cell_setting 'monoclinic'
loop_
_space_group_symop_operation_xyz
x,y,z
-x,y,-z
-x,-y,-z
x,-y,z
1/2+x,1/2+y,z
1/2-x,1/2+y,-z
1/2-x,1/2-y,-z
1/2+x,1/2-y,z
loop_
_atom_site_type_symbol
_atom_site_label
_atom_site_fract_x
_atom_site_fract_y
_atom_site_fract_z
Si Si1 0.222735 0.818215 0.790015
Si Si2 0.259639 0.821637 0.675117
Si Si3 0.014335 0.321836 0.189427
Si Si4 0.921036 0.317858 0.992415
Si Si5 0.671846 0.820166 0.491088
Si Si6 0.979652 0.180337 0.297056
O O1 0.230800 0.760582 0.723670
O O2 0.313884 0.753530 0.896830
O O3 0.122618 0.758681 0.748527
O O4 0.227618 0.000000 0.794112
O O5 0.373414 0.789901 0.746069
O O6 0.194874 0.726445 0.579321
O O7 0.234835 0.000000 0.648817
O O8 0.997837 0.500000 0.193440
O O9 0.982443 0.219701 0.225259
O O10 0.947963 0.266159 0.082814
O O11 0.924061 0.500000 0.990363
O O12 0.000000 0.250097 0.000000
O O13 0.750000 0.750000 0.500000
O O14 0.564054 0.764545 0.396405
O O15 0.677182 0.000000 0.486649
O O16 0.992041 0.000000 0.315250
#
# Coordination Sequence:
#
# PCOD8088989 Si02
#       6
#     8   8   8   8   8   8
#     4   9  19  35  56  85 119 154 192 234 280 333
#     4  10  19  35  60  87 113 147 193 237 278 331
#     4  10  19  32  58  88 113 146 192 239 281 331
#     4   9  15  29  56  88 114 144 192 240 277 326
#     4  12  24  39  60  85 112 147 191 236 286 343
#     4  11  23  38  56  82 120 156 188 233 285 339
#
# _framework density 19.069320999999999
#
# number of rings (size 3 to 8) (size 9 to 14) (size 15 to 20)
#    0.000    1.833    3.333    2.000    0.000    1.333 
#    0.000    5.000    0.000    2.500    0.000    0.000 
#    0.000    0.000    0.000    0.000    0.000    0.000 
#
# Total GULP energy -297654.011555 kJ/mol
# GULP energy per Si atom -12402.250481 kJ/mol
# Density = 1.902592 g / cm^3
# Si number density = 19.069321 Si / 1000 Ang^3
#
#
#
# Elastic Constant Matrix: (Units=GPa)
#
#
# Indices 1 2 3 4 5 6 
#
# 1 131.4064 45.8330 75.1034 0.0000 8.7170 0.0000
# 2 45.8330 64.2551 51.2371 0.0000 -1.1143 0.0000
# 3 75.1034 51.2371 183.6210 0.0000 2.9699 0.0000
# 4 0.0000 0.0000 0.0000 24.6541 0.0000 -6.5560
# 5 8.7170 -1.1143 2.9699 0.0000 32.1412 0.0000
# 6 0.0000 0.0000 0.0000 -6.5560 0.0000 22.6140
#
#
#
# Elastic Compliance Matrix: (Units=1/GPa)
#
#
# Indices 1 2 3 4 5 6 
#
# 1 0.011620 -0.005906 -0.003055 0.000000 -0.003074 0.000000
# 2 -0.005906 0.023065 -0.004066 0.000000 0.002777 0.000000
# 3 -0.003055 -0.004066 0.007831 0.000000 -0.000036 0.000000
# 4 0.000000 0.000000 0.000000 0.043949 0.000000 0.012741
# 5 -0.003074 0.002777 -0.000036 0.000000 0.032046 0.000000
# 6 0.000000 0.000000 0.000000 0.012741 0.000000 0.047914
#
#
# Mechanical properties :
#
#
# Convention : Reuss Voigt Hill
#
# Bulk Modulus (GPa) = 60.74070 80.40328 70.57199
# Shear Modulus (GPa) = 25.25691 29.68910 27.47300
#
# Velocity S-wave (km/s) = 3.64329 3.95004 3.79976
# Velocity P-wave (km/s) = 7.04413 7.94097 7.50596
#
# Compressibility (1/GPa) = 0.01646343
#
# Stress axis : x y z
#
# Youngs Moduli (GPa) = 86.06053 43.35489 127.70438
#
# Poissons Ratio (x) = 0.25603 0.39014
# Poissons Ratio (y) = 0.50823 0.51919
# Poissons Ratio (z) = 0.26292 0.17626
#
# Static dielectric constant tensor:
#      x y z
#    x 3.634940 0.000000 -0.032300 
#    y 0.000000 3.135460 0.000000 
#    z -0.032300 0.000000 3.859570 
# 
# 
# High freq. dielectric constant tensor:
#      x y z
#    x 1.744080 0.000000 -0.004760 
#    y 0.000000 1.705620 0.000000 
#    z -0.004760 0.000000 1.760470 
# 
# From -- ./inp_files/230401.got.cif
#   From: 2010.06.25/outbox.cif.g09.slc.cpg/sg12_116_cif.got.tgz:230401.got - 2010.06.28 00:19:55.
