data_PCOD8088604
_publ_section_title
;
Structure prediction by ZEFSAII (Michael W. Deem and Ramdas Pophale) SiO2 
 PCOD8088604
Probable space group: C 2/M
;
_chemical_formula_sum "Si O2"
_cell_formula_units_Z 64
_cell_length_a 26.058578
_cell_length_b 14.307390
_cell_length_c 10.344098
_cell_angle_alpha 90.000000
_cell_angle_beta 119.984557
_cell_angle_gamma 90.000000
_cell_volume 3340.426711
_symmetry_space_group_name_H-M "C 2/M"
_symmetry_group_IT_number 12
_symmetry_cell_setting 'monoclinic'
loop_
_space_group_symop_operation_xyz
x,y,z
-x,y,-z
-x,-y,-z
x,-y,z
1/2+x,1/2+y,z
1/2-x,1/2+y,-z
1/2-x,1/2-y,-z
1/2+x,1/2-y,z
loop_
_atom_site_type_symbol
_atom_site_label
_atom_site_fract_x
_atom_site_fract_y
_atom_site_fract_z
Si Si1 0.431458 0.603922 0.951238
Si Si2 0.469011 0.891508 0.329758
Si Si3 0.214899 0.748447 0.655977
Si Si4 0.741577 0.897543 0.117056
Si Si5 0.835294 0.608124 0.223158
Si Si6 0.663101 0.714204 0.323212
Si Si7 0.134292 0.398655 0.170823
Si Si8 0.039434 0.710444 0.921896
O O1 0.410368 0.500000 0.972071
O O2 0.386853 0.637558 0.779289
O O3 0.500000 0.594297 0.000000
O O4 0.429156 0.686765 0.056940
O O5 0.500000 0.860495 0.500000
O O6 0.400075 0.867507 0.253461
O O7 0.495510 0.823948 0.249765
O O8 0.481868 0.000000 0.314821
O O9 0.212506 0.820331 0.774357
O O10 0.177656 0.660312 0.658665
O O11 0.280407 0.710139 0.701874
O O12 0.183884 0.800880 0.496323
O O13 0.696261 0.906950 0.177886
O O14 0.771229 0.000000 0.133132
O O15 0.711650 0.863300 0.946582
O O16 0.830811 0.500000 0.251593
O O17 0.635162 0.818605 0.281307
O O18 0.118095 0.500000 0.212057
O O19 0.086871 0.371659 0.001981
O O20 0.000000 0.718029 0.000000
#
# Coordination Sequence:
#
# PCOD8088604 Si02
#       8
#     8   8   8   8   8   8   8   8
#     4   9  19  36  57  79 107 145 188 233 275 323
#     4  10  21  36  54  81 116 149 180 222 280 341
#     4  10  20  34  53  77 110 142 174 227 282 330
#     4   9  17  32  52  72  97 137 181 215 262 321
#     4  10  20  34  53  75 105 145 183 216 265 332
#     4   9  20  34  51  81 110 137 178 228 283 330
#     4   9  16  29  49  71 102 137 169 210 266 328
#     4  10  19  32  54  80 105 139 188 230 273 325
#
# _framework density 19.159227999999999
#
# number of rings (size 3 to 8) (size 9 to 14) (size 15 to 20)
#    0.000    2.500    1.250    0.750    0.000    5.500 
#    0.000    3.750    0.000    0.375    0.000    0.000 
#    0.000    0.000    0.000    0.000    0.000    0.000 
#
# Total GULP energy -396443.931829 kJ/mol
# GULP energy per Si atom -12388.872870 kJ/mol
# Density = 1.911562 g / cm^3
# Si number density = 19.159228 Si / 1000 Ang^3
#
#
#
# Elastic Constant Matrix: (Units=GPa)
#
#
# Indices 1 2 3 4 5 6 
#
# 1 36.1288 25.9267 24.8362 0.0000 2.5395 0.0000
# 2 25.9267 121.3575 50.4956 0.0000 -1.7049 0.0000
# 3 24.8362 50.4956 111.2417 0.0000 -0.9792 0.0000
# 4 0.0000 0.0000 0.0000 3.9354 0.0000 -22.7560
# 5 2.5395 -1.7049 -0.9792 0.0000 23.1916 0.0000
# 6 0.0000 0.0000 0.0000 -22.7560 0.0000 -3.4260
#
#
#
# Elastic Compliance Matrix: (Units=1/GPa)
#
#
# Indices 1 2 3 4 5 6 
#
# 1 0.035679 -0.005369 -0.005568 0.000000 -0.004537 0.000000
# 2 -0.005369 0.010974 -0.003772 0.000000 0.001235 0.000000
# 3 -0.005568 -0.003772 0.011952 0.000000 0.000837 0.000000
# 4 0.000000 0.000000 0.000000 0.006448 0.000000 -0.042829
# 5 -0.004537 0.001235 0.000837 0.000000 0.043742 0.000000
# 6 0.000000 0.000000 0.000000 -0.042829 0.000000 -0.007407
#
#
# Mechanical properties :
#
#
# Convention : Reuss Voigt Hill
#
# Bulk Modulus (GPa) = 34.26303 52.36055 43.31179
# Shear Modulus (GPa) = 35.57827 15.90483 25.74155
#
# Velocity S-wave (km/s) = 4.31394 2.88434 3.66944
# Velocity P-wave (km/s) = 6.53725 6.20331 6.37247
#
# Compressibility (1/GPa) = 0.02918598
#
# Stress axis : x y z
#
# Youngs Moduli (GPa) = 28.02804 91.12527 83.66703
#
# Poissons Ratio (x) = 0.48926 0.46590
# Poissons Ratio (y) = 0.15049 0.31557
# Poissons Ratio (z) = 0.15607 0.34370
#
# Static dielectric constant tensor:
#      x y z
#    x 3.246720 0.000000 0.226310 
#    y 0.000000 4.130740 0.000000 
#    z 0.226310 0.000000 3.475070 
# 
# 
# High freq. dielectric constant tensor:
#      x y z
#    x 1.714780 0.000000 0.015170 
#    y 0.000000 1.748240 0.000000 
#    z 0.015170 0.000000 1.736700 
# 
# From -- ./inp_files/104642.got.cif
#   From: 2010.06.25/outbox.cif.g09.slc.cpg/sg12_53_cif.got.tgz:104642.got - 2010.06.28 00:19:55.
