data_PCOD8088405
_publ_section_title
;
Structure prediction by ZEFSAII (Michael W. Deem and Ramdas Pophale) SiO2 
 PCOD8088405
Probable space group: C 2/M
;
_chemical_formula_sum "Si O2"
_cell_formula_units_Z 56
_cell_length_a 16.955186
_cell_length_b 16.330159
_cell_length_c 19.500458
_cell_angle_alpha 90.000000
_cell_angle_beta 146.552596
_cell_angle_gamma 90.000000
_cell_volume 2975.941251
_symmetry_space_group_name_H-M "C 2/M"
_symmetry_group_IT_number 12
_symmetry_cell_setting 'monoclinic'
loop_
_space_group_symop_operation_xyz
x,y,z
-x,y,-z
-x,-y,-z
x,-y,z
1/2+x,1/2+y,z
1/2-x,1/2+y,-z
1/2-x,1/2-y,-z
1/2+x,1/2-y,z
loop_
_atom_site_type_symbol
_atom_site_label
_atom_site_fract_x
_atom_site_fract_y
_atom_site_fract_z
Si Si1 0.642626 0.093068 0.456802
Si Si2 0.655245 0.406771 0.134327
Si Si3 0.673524 0.342624 0.296090
Si Si4 0.338881 0.307971 0.368267
Si Si5 0.887047 0.406184 0.722417
Si Si6 0.587427 0.759478 0.859492
Si Si7 0.389880 0.210271 0.274644
O O1 0.786221 0.106555 0.606206
O O2 0.674971 0.108245 0.399634
O O3 0.523126 0.156072 0.398432
O O4 0.588308 0.000000 0.428207
O O5 0.676427 0.500000 0.127606
O O6 0.688285 0.397860 0.239215
O O7 0.762556 0.353146 0.167078
O O8 0.500000 0.374994 0.000000
O O9 0.784626 0.267053 0.375513
O O10 0.510526 0.310770 0.178254
O O11 0.500000 0.334719 0.500000
O O12 0.235374 0.384328 0.310473
O O13 0.334164 0.279913 0.285910
O O14 0.933271 0.500000 0.767371
O O15 0.027149 0.349664 0.835640
O O16 0.572188 0.744214 0.767596
O O17 0.750000 0.750000 0.000000
#
# Coordination Sequence:
#
# PCOD8088405 Si02
#       7
#     8   8   8   8   8   8   8
#     4  10  19  33  53  80 110 140 172 218 277 323
#     4  10  20  33  49  73 107 143 176 214 261 316
#     4  10  20  33  52  78 109 138 177 221 266 320
#     4  10  19  32  53  80 108 139 173 214 267 317
#     4   9  21  37  56  79 110 143 177 220 270 323
#     4  10  21  37  59  79 102 141 186 223 265 311
#     4  10  20  33  54  80 106 136 177 223 266 316
#
# _framework density 18.817575999999999
#
# number of rings (size 3 to 8) (size 9 to 14) (size 15 to 20)
#    0.000    2.143    1.429    1.714    2.000    2.571 
#    0.000    3.571    0.000    1.714    0.000    0.000 
#    0.000    0.000    0.000    0.000    0.000    0.000 
#
# Total GULP energy -347124.818083 kJ/mol
# GULP energy per Si atom -12397.314932 kJ/mol
# Density = 1.877475 g / cm^3
# Si number density = 18.817576 Si / 1000 Ang^3
#
#
#
# Elastic Constant Matrix: (Units=GPa)
#
#
# Indices 1 2 3 4 5 6 
#
# 1 79.5065 25.6249 14.1391 -0.0001 12.6894 -0.0001
# 2 25.6249 57.7989 21.5785 0.0024 2.5606 0.0000
# 3 14.1391 21.5785 90.9350 -0.0041 15.3303 -0.0025
# 4 -0.0001 0.0024 -0.0041 20.5704 -0.0016 1.9633
# 5 12.6894 2.5606 15.3303 -0.0016 27.1070 -0.0006
# 6 -0.0001 0.0000 -0.0025 1.9633 -0.0006 19.0097
#
#
#
# Elastic Compliance Matrix: (Units=1/GPa)
#
#
# Indices 1 2 3 4 5 6 
#
# 1 0.015831 -0.006835 0.000333 0.000000 -0.006953 0.000000
# 2 -0.006835 0.021951 -0.004793 -0.000003 0.003837 0.000000
# 3 0.000333 -0.004793 0.013301 0.000003 -0.007225 0.000001
# 4 0.000000 -0.000003 0.000003 0.049098 0.000001 -0.005071
# 5 -0.006953 0.003837 -0.007225 0.000001 0.043869 0.000000
# 6 0.000000 0.000000 0.000001 -0.005071 0.000000 0.053129
#
#
# Mechanical properties :
#
#
# Convention : Reuss Voigt Hill
#
# Bulk Modulus (GPa) = 35.09721 38.99170 37.04445
# Shear Modulus (GPa) = 21.80875 24.46394 23.13635
#
# Velocity S-wave (km/s) = 3.40804 3.60954 3.51024
# Velocity P-wave (km/s) = 5.84620 6.17557 6.01314
#
# Compressibility (1/GPa) = 0.02849230
#
# Stress axis : x y z
#
# Youngs Moduli (GPa) = 63.16705 45.55612 75.18499
#
# Poissons Ratio (x) = 0.31136 -0.02501
# Poissons Ratio (y) = 0.43173 0.36036
# Poissons Ratio (z) = -0.02101 0.21835
#
# Static dielectric constant tensor:
#      x y z
#    x 3.500230 0.000000 0.096420 
#    y 0.000000 3.344250 0.000000 
#    z 0.096420 0.000000 3.303770 
# 
# 
# High freq. dielectric constant tensor:
#      x y z
#    x 1.732010 0.000000 0.007240 
#    y 0.000000 1.715450 0.000000 
#    z 0.007240 0.000000 1.720350 
# 
# From -- ./inp_files/311770.got.cif
#   From: 2010.06.25/outbox.cif.g09.slc.cpg/sg12_156_cif.got.tgz:311770.got - 2010.06.28 00:19:55.
