data_PCOD8088204
_publ_section_title
;
Structure prediction by ZEFSAII (Michael W. Deem and Ramdas Pophale) SiO2 
 PCOD8088204
Probable space group: C 2/M
;
_chemical_formula_sum "Si O2"
_cell_formula_units_Z 64
_cell_length_a 18.044992
_cell_length_b 31.853326
_cell_length_c 11.726184
_cell_angle_alpha 90.000000
_cell_angle_beta 31.078805
_cell_angle_gamma 90.000000
_cell_volume 3479.365888
_symmetry_space_group_name_H-M "C 2/M"
_symmetry_group_IT_number 12
_symmetry_cell_setting 'monoclinic'
loop_
_space_group_symop_operation_xyz
x,y,z
-x,y,-z
-x,-y,-z
x,-y,z
1/2+x,1/2+y,z
1/2-x,1/2+y,-z
1/2-x,1/2-y,-z
1/2+x,1/2-y,z
loop_
_atom_site_type_symbol
_atom_site_label
_atom_site_fract_x
_atom_site_fract_y
_atom_site_fract_z
Si Si1 0.126404 0.305175 0.606832
Si Si2 0.665681 0.587813 0.005816
Si Si3 0.719569 0.280872 0.381602
Si Si4 0.956593 0.842087 0.680742
Si Si5 0.700316 0.214542 0.978014
Si Si6 0.577741 0.455243 0.778809
Si Si7 0.450116 0.952553 0.695038
Si Si8 0.205758 0.395234 0.410287
O O1 0.165903 0.306052 0.690004
O O2 0.204550 0.265463 0.450422
O O3 0.183374 0.347348 0.473886
O O4 0.960812 0.300770 0.793386
O O5 0.793651 0.568852 0.913401
O O6 0.729054 0.604877 0.802821
O O7 0.565931 0.622627 0.196059
O O8 0.549582 0.551179 0.143491
O O9 0.569704 0.306651 0.573861
O O10 0.782623 0.271464 0.174636
O O11 0.797925 0.824715 0.875426
O O12 0.000000 0.860785 0.500000
O O13 0.750000 0.250000 0.000000
O O14 0.654956 0.500000 0.649568
O O15 0.688867 0.416749 0.636506
O O16 0.500000 0.458994 0.000000
O O17 0.500000 0.955971 0.500000
O O18 0.559927 0.922033 0.614801
O O19 0.448340 0.000000 0.749336
#
# Coordination Sequence:
#
# PCOD8088204 Si02
#       8
#     8   8   8   8   8   8   8   8
#     4  11  22  37  56  80 113 139 183 230 274 326
#     4  10  19  32  52  82 106 141 181 223 273 321
#     4  10  23  39  54  78 108 150 182 224 278 323
#     4  10  21  38  54  76 108 144 186 224 270 320
#     4  11  22  38  57  78 102 147 189 224 268 327
#     4   9  17  31  51  76 108 140 170 208 269 335
#     4   9  17  31  49  76 113 143 173 217 277 339
#     4  10  20  31  51  83 108 140 178 224 272 326
#
# _framework density 18.394155999999999
#
# number of rings (size 3 to 8) (size 9 to 14) (size 15 to 20)
#    0.000    2.000    1.250    2.625    1.750    3.000 
#    0.000    1.250    0.000    1.500    0.000    0.000 
#    0.000   10.000    0.000    0.000    0.000    0.000 
#
# Total GULP energy -396537.077496 kJ/mol
# GULP energy per Si atom -12391.783672 kJ/mol
# Density = 1.835229 g / cm^3
# Si number density = 18.394156 Si / 1000 Ang^3
#
#
#
# Elastic Constant Matrix: (Units=GPa)
#
#
# Indices 1 2 3 4 5 6 
#
# 1 91.2148 42.7488 34.9484 0.0009 -12.7858 0.0012
# 2 42.7488 129.8592 51.3676 0.0003 -3.2033 0.0000
# 3 34.9484 51.3676 66.7921 0.0006 -14.1312 0.0012
# 4 0.0009 0.0003 0.0006 33.1768 -0.0008 10.8461
# 5 -12.7858 -3.2033 -14.1312 -0.0008 34.0461 -0.0016
# 6 0.0012 0.0000 0.0012 10.8461 -0.0016 39.7931
#
#
#
# Elastic Compliance Matrix: (Units=1/GPa)
#
#
# Indices 1 2 3 4 5 6 
#
# 1 0.014567 -0.002833 -0.004761 0.000000 0.003228 0.000000
# 2 -0.002833 0.011855 -0.008358 0.000000 -0.003418 0.000000
# 3 -0.004761 -0.008358 0.025594 0.000000 0.008049 0.000000
# 4 0.000000 0.000000 0.000000 0.033090 0.000000 -0.009019
# 5 0.003228 -0.003418 0.008049 0.000000 0.033603 0.000001
# 6 0.000000 0.000000 0.000000 -0.009019 0.000001 0.027588
#
#
# Mechanical properties :
#
#
# Convention : Reuss Voigt Hill
#
# Bulk Modulus (GPa) = 49.71949 60.66619 55.19284
# Shear Modulus (GPa) = 27.04091 31.98996 29.51543
#
# Velocity S-wave (km/s) = 3.83832 4.17482 4.01010
# Velocity P-wave (km/s) = 6.83611 7.50278 7.17719
#
# Compressibility (1/GPa) = 0.02011284
#
# Stress axis : x y z
#
# Youngs Moduli (GPa) = 68.64733 84.35241 39.07213
#
# Poissons Ratio (x) = 0.23894 0.18601
# Poissons Ratio (y) = 0.19445 0.32657
# Poissons Ratio (z) = 0.32681 0.70503
#
# Static dielectric constant tensor:
#      x y z
#    x 4.740290 0.000050 -0.677060 
#    y 0.000050 3.536720 -0.000010 
#    z -0.677060 -0.000010 3.235890 
# 
# 
# High freq. dielectric constant tensor:
#      x y z
#    x 1.713920 0.000000 -0.029060 
#    y 0.000000 1.717100 0.000000 
#    z -0.029060 0.000000 1.695830 
# 
# From -- ./inp_files/161175.got.cif
#   From: 2010.06.25/outbox.cif.g09.slc.cpg/sg12_81_cif.got.tgz:161175.got - 2010.06.28 00:19:55.
