data_PCOD8088468
_publ_section_title
;
Structure prediction by ZEFSAII (Michael W. Deem and Ramdas Pophale) SiO2 
 PCOD8088468
Probable space group: C 2/M
;
_chemical_formula_sum "Si O2"
_cell_formula_units_Z 48
_cell_length_a 23.116359
_cell_length_b 12.580213
_cell_length_c 9.916830
_cell_angle_alpha 90.000000
_cell_angle_beta 117.800652
_cell_angle_gamma 90.000000
_cell_volume 2551.028334
_symmetry_space_group_name_H-M "C 2/M"
_symmetry_group_IT_number 12
_symmetry_cell_setting 'monoclinic'
loop_
_space_group_symop_operation_xyz
x,y,z
-x,y,-z
-x,-y,-z
x,-y,z
1/2+x,1/2+y,z
1/2-x,1/2+y,-z
1/2-x,1/2-y,-z
1/2+x,1/2-y,z
loop_
_atom_site_type_symbol
_atom_site_label
_atom_site_fract_x
_atom_site_fract_y
_atom_site_fract_z
Si Si1 0.493843 0.878515 0.648590
Si Si2 0.222817 0.261264 0.792513
Si Si3 0.943749 0.247671 0.042475
Si Si4 0.167018 0.621363 0.197196
Si Si5 0.657899 0.881963 0.488912
Si Si6 0.331751 0.622445 0.047717
O O1 0.500000 0.839585 0.500000
O O2 0.531409 0.799950 0.790834
O O3 0.419126 0.873432 0.608989
O O4 0.520866 0.000000 0.690981
O O5 0.277043 0.171745 0.831918
O O6 0.185904 0.293843 0.618006
O O7 0.168519 0.207867 0.830054
O O8 0.262071 0.362581 0.895035
O O9 0.895331 0.149477 0.025400
O O10 0.904199 0.334210 0.914298
O O11 0.000000 0.206996 0.000000
O O12 0.164461 0.500000 0.155532
O O13 0.186893 0.641124 0.373530
O O14 0.677715 0.000000 0.560553
O O15 0.337383 0.500000 0.101079
#
# Coordination Sequence:
#
# PCOD8088468 Si02
#       6
#     8   8   8   8   8   8
#     4  10  20  33  53  83 115 148 184 226 276 326
#     4  10  20  36  57  80 109 144 182 226 279 333
#     4  11  21  36  58  82 110 151 187 227 271 327
#     4  10  20  33  55  85 113 144 180 224 275 327
#     4  10  19  32  53  81 113 144 178 225 274 325
#     4  10  22  38  57  80 107 143 186 232 276 325
#
# _framework density 18.815942
#
# number of rings (size 3 to 8) (size 9 to 14) (size 15 to 20)
#    0.000    1.833    1.667    3.000    0.000    1.000 
#    0.000    5.000    0.000    6.500    0.000    0.000 
#    0.000    0.000    0.000    0.000    0.000    0.000 
#
# Total GULP energy -297513.513640 kJ/mol
# GULP energy per Si atom -12396.396402 kJ/mol
# Density = 1.877312 g / cm^3
# Si number density = 18.815942 Si / 1000 Ang^3
#
#
#
# Elastic Constant Matrix: (Units=GPa)
#
#
# Indices 1 2 3 4 5 6 
#
# 1 84.1043 28.9674 24.9920 0.0000 -12.9135 0.0000
# 2 28.9674 79.4211 39.9156 0.0000 2.5525 0.0000
# 3 24.9920 39.9156 62.8985 0.0000 11.0609 0.0000
# 4 0.0000 0.0000 0.0000 18.9274 0.0000 0.8933
# 5 -12.9135 2.5525 11.0609 0.0000 21.0778 0.0000
# 6 0.0000 0.0000 0.0000 0.8933 0.0000 13.3009
#
#
#
# Elastic Compliance Matrix: (Units=1/GPa)
#
#
# Indices 1 2 3 4 5 6 
#
# 1 0.017554 -0.003000 -0.007740 0.000000 0.015180 0.000000
# 2 -0.003000 0.019364 -0.011414 0.000000 0.001807 0.000000
# 3 -0.007740 -0.011414 0.029534 0.000000 -0.018858 0.000000
# 4 0.000000 0.000000 0.000000 0.053002 0.000000 -0.003560
# 5 0.015180 0.001807 -0.018858 0.000000 0.066421 0.000000
# 6 0.000000 0.000000 0.000000 -0.003560 0.000000 0.075422
#
#
# Mechanical properties :
#
#
# Convention : Reuss Voigt Hill
#
# Bulk Modulus (GPa) = 45.16177 46.01932 45.59054
# Shear Modulus (GPa) = 15.97515 19.49780 17.73648
#
# Velocity S-wave (km/s) = 2.91696 3.22256 3.07356
# Velocity P-wave (km/s) = 5.94969 6.19332 6.07273
#
# Compressibility (1/GPa) = 0.02214262
#
# Stress axis : x y z
#
# Youngs Moduli (GPa) = 56.96642 51.64280 33.85946
#
# Poissons Ratio (x) = 0.15494 0.26209
# Poissons Ratio (y) = 0.17091 0.38647
# Poissons Ratio (z) = 0.44095 0.58945
#
# Static dielectric constant tensor:
#      x y z
#    x 3.481130 0.000000 -0.136190 
#    y 0.000000 3.203430 0.000000 
#    z -0.136190 0.000000 3.486780 
# 
# 
# High freq. dielectric constant tensor:
#      x y z
#    x 1.739540 0.000000 -0.011370 
#    y 0.000000 1.710680 0.000000 
#    z -0.011370 0.000000 1.734320 
# 
# From -- ./inp_files/94903.got.cif
#   From: 2010.06.25/outbox.cif.g09.slc.cpg/sg12_48_cif.got.tgz:94903.got - 2010.06.28 00:19:55.
