data_PCOD8088212
_publ_section_title
;
Structure prediction by ZEFSAII (Michael W. Deem and Ramdas Pophale) SiO2 
 PCOD8088212
Probable space group: C 2/M
;
_chemical_formula_sum "Si O2"
_cell_formula_units_Z 56
_cell_length_a 26.583497
_cell_length_b 8.536937
_cell_length_c 14.483099
_cell_angle_alpha 90.000000
_cell_angle_beta 122.798181
_cell_angle_gamma 90.000000
_cell_volume 2762.846158
_symmetry_space_group_name_H-M "C 2/M"
_symmetry_group_IT_number 12
_symmetry_cell_setting 'monoclinic'
loop_
_space_group_symop_operation_xyz
x,y,z
-x,y,-z
-x,-y,-z
x,-y,z
1/2+x,1/2+y,z
1/2-x,1/2+y,-z
1/2-x,1/2-y,-z
1/2+x,1/2-y,z
loop_
_atom_site_type_symbol
_atom_site_label
_atom_site_fract_x
_atom_site_fract_y
_atom_site_fract_z
Si Si1 0.212965 0.816339 0.298124
Si Si2 0.881289 0.818817 0.092685
Si Si3 0.775446 0.681401 0.880496
Si Si4 0.112206 0.315566 0.322306
Si Si5 0.646602 0.816856 0.752440
Si Si6 0.347076 0.815561 0.443342
Si Si7 0.007729 0.316619 0.900894
O O1 0.193883 0.723839 0.186800
O O2 0.167160 0.775704 0.332786
O O3 0.279081 0.758422 0.394083
O O4 0.211314 0.000000 0.275067
O O5 0.893476 0.774827 0.212048
O O6 0.937754 0.779996 0.085828
O O7 0.866081 0.000000 0.066923
O O8 0.823726 0.717925 0.006942
O O9 0.757527 0.500000 0.867044
O O10 0.716930 0.786113 0.838273
O O11 0.123396 0.500000 0.322145
O O12 0.110713 0.264913 0.429154
O O13 0.050972 0.264066 0.213360
O O14 0.628972 0.752615 0.632037
O O15 0.633175 0.000000 0.749452
O O16 0.345519 0.000000 0.433019
O O17 0.020888 0.500000 0.901994
O O18 0.000000 0.271414 0.000000
#
# Coordination Sequence:
#
# PCOD8088212 Si02
#       7
#     8   8   8   8   8   8   8
#     4  10  19  32  52  82 117 148 182 224 275 330
#     4  12  24  38  57  81 110 145 184 224 274 330
#     4  11  21  35  56  83 114 146 182 223 273 328
#     4  10  19  34  56  80 109 147 190 231 276 326
#     4  10  20  37  58  82 113 144 181 227 274 325
#     4   8  17  33  54  81 111 145 184 227 272 324
#     4  10  22  39  58  81 109 143 184 228 273 324
#
# _framework density 20.268953
#
# number of rings (size 3 to 8) (size 9 to 14) (size 15 to 20)
#    0.000    1.857    0.000    6.000    0.000    2.000 
#    0.000    4.286    0.000    4.286    0.000    0.000 
#    0.000    0.000    0.000    0.000    0.000    0.000 
#
# Total GULP energy -347213.062171 kJ/mol
# GULP energy per Si atom -12400.466506 kJ/mol
# Density = 2.022282 g / cm^3
# Si number density = 20.268953 Si / 1000 Ang^3
#
#
#
# Elastic Constant Matrix: (Units=GPa)
#
#
# Indices 1 2 3 4 5 6 
#
# 1 88.3620 18.6742 46.7203 0.0000 -23.6404 0.0000
# 2 18.6742 61.9002 22.1983 0.0000 -4.9772 0.0000
# 3 46.7203 22.1983 139.6801 0.0000 -17.8894 0.0000
# 4 0.0000 0.0000 0.0000 19.0044 0.0000 -4.0107
# 5 -23.6404 -4.9772 -17.8894 0.0000 28.9406 0.0000
# 6 0.0000 0.0000 0.0000 -4.0107 0.0000 33.8819
#
#
#
# Elastic Compliance Matrix: (Units=1/GPa)
#
#
# Indices 1 2 3 4 5 6 
#
# 1 0.016842 -0.002846 -0.003781 0.000000 0.010931 0.000000
# 2 -0.002846 0.017663 -0.001915 0.000000 -0.000471 0.000000
# 3 -0.003781 -0.001915 0.009003 0.000000 0.002147 0.000000
# 4 0.000000 0.000000 0.000000 0.053968 0.000000 0.006388
# 5 0.010931 -0.000471 0.002147 0.000000 0.044729 0.000000
# 6 0.000000 0.000000 0.000000 0.006388 0.000000 0.030270
#
#
# Mechanical properties :
#
#
# Convention : Reuss Voigt Hill
#
# Bulk Modulus (GPa) = 37.84580 51.68090 44.76335
# Shear Modulus (GPa) = 25.20565 29.85535 27.53050
#
# Velocity S-wave (km/s) = 3.53024 3.84208 3.68946
# Velocity P-wave (km/s) = 5.94383 6.72570 6.34682
#
# Compressibility (1/GPa) = 0.02642301
#
# Stress axis : x y z
#
# Youngs Moduli (GPa) = 59.37437 56.61661 111.06993
#
# Poissons Ratio (x) = 0.16114 0.41997
# Poissons Ratio (y) = 0.16899 0.21274
# Poissons Ratio (z) = 0.22450 0.10844
#
# Static dielectric constant tensor:
#      x y z
#    x 3.563600 0.000000 -0.311710 
#    y 0.000000 3.450210 0.000000 
#    z -0.311710 0.000000 4.026250 
# 
# 
# High freq. dielectric constant tensor:
#      x y z
#    x 1.780200 0.000000 -0.024260 
#    y 0.000000 1.777290 0.000000 
#    z -0.024260 0.000000 1.795950 
# 
# From -- ./inp_files/239035.got.cif
#   From: 2010.06.25/outbox.cif.g09.slc.cpg/sg12_120_cif.got.tgz:239035.got - 2010.06.28 00:19:55.
