data_PCOD8088866
_publ_section_title
;
Structure prediction by ZEFSAII (Michael W. Deem and Ramdas Pophale) SiO2 
 PCOD8088866
Probable space group: C 2/M
;
_chemical_formula_sum "Si O2"
_cell_formula_units_Z 40
_cell_length_a 17.704923
_cell_length_b 19.893327
_cell_length_c 8.010094
_cell_angle_alpha 90.000000
_cell_angle_beta 46.253490
_cell_angle_gamma 90.000000
_cell_volume 2038.076448
_symmetry_space_group_name_H-M "C 2/M"
_symmetry_group_IT_number 12
_symmetry_cell_setting 'monoclinic'
loop_
_space_group_symop_operation_xyz
x,y,z
-x,y,-z
-x,-y,-z
x,-y,z
1/2+x,1/2+y,z
1/2-x,1/2+y,-z
1/2-x,1/2-y,-z
1/2+x,1/2-y,z
loop_
_atom_site_type_symbol
_atom_site_label
_atom_site_fract_x
_atom_site_fract_y
_atom_site_fract_z
Si Si1 0.895023 0.578435 0.239251
Si Si2 0.788137 0.174995 0.966359
Si Si3 0.619531 0.077782 0.367503
Si Si4 0.724079 0.338319 0.375511
Si Si5 0.117843 0.213841 0.849294
O O1 0.912523 0.500000 0.229175
O O2 0.872681 0.607575 0.457592
O O3 0.794174 0.594611 0.281790
O O4 0.000000 0.610753 0.000000
O O5 0.836907 0.156761 0.709190
O O6 0.750000 0.250000 0.000000
O O7 0.691244 0.124636 0.143273
O O8 0.869955 0.171364 0.995635
O O9 0.500000 0.085010 0.500000
O O10 0.656408 0.000000 0.296058
O O11 0.805512 0.276738 0.260548
O O12 0.643607 0.333722 0.651461
O O13 0.000000 0.238602 0.000000
#
# Coordination Sequence:
#
# PCOD8088866 Si02
#       5
#     8   8   8   8   8
#     4  10  19  32  55  86 116 150 187 229 293 357
#     4  10  21  38  54  85 118 152 196 234 289 350
#     4  10  20  35  58  88 122 154 190 245 302 353
#     4  10  20  36  56  80 113 148 189 236 288 339
#     4  10  21  37  56  80 114 151 191 237 288 338
#
# _framework density 19.626349999999999
#
# number of rings (size 3 to 8) (size 9 to 14) (size 15 to 20)
#    0.000    2.000    2.000    1.800    0.000    4.800 
#    0.000    0.000    0.000    2.400    0.000    2.800 
#    0.000    0.000    0.000    0.000    0.000    0.000 
#
# Total GULP energy -247837.810603 kJ/mol
# GULP energy per Si atom -12391.890530 kJ/mol
# Density = 1.958168 g / cm^3
# Si number density = 19.626350 Si / 1000 Ang^3
#
#
#
# Elastic Constant Matrix: (Units=GPa)
#
#
# Indices 1 2 3 4 5 6 
#
# 1 123.7067 11.0147 49.0614 0.0000 34.1407 0.0000
# 2 11.0147 48.0989 23.2148 0.0000 3.2975 0.0000
# 3 49.0614 23.2148 80.4045 0.0000 27.0939 0.0000
# 4 0.0000 0.0000 0.0000 21.4397 0.0000 -0.8040
# 5 34.1407 3.2975 27.0939 0.0000 43.2168 0.0000
# 6 0.0000 0.0000 0.0000 -0.8040 0.0000 26.1459
#
#
#
# Elastic Compliance Matrix: (Units=1/GPa)
#
#
# Indices 1 2 3 4 5 6 
#
# 1 0.011812 0.000235 -0.005230 0.000000 -0.006071 0.000000
# 2 0.000235 0.024517 -0.008278 0.000000 0.003133 0.000000
# 3 -0.005230 -0.008278 0.020810 0.000000 -0.008283 0.000000
# 4 0.000000 0.000000 0.000000 0.046696 0.000000 0.001436
# 5 -0.006071 0.003133 -0.008283 0.000000 0.032889 0.000000
# 6 0.000000 0.000000 0.000000 0.001436 0.000000 0.038291
#
#
# Mechanical properties :
#
#
# Convention : Reuss Voigt Hill
#
# Bulk Modulus (GPa) = 32.68659 46.53242 39.60950
# Shear Modulus (GPa) = 23.61183 29.42175 26.51679
#
# Velocity S-wave (km/s) = 3.47229 3.87601 3.67969
# Velocity P-wave (km/s) = 5.72419 6.61755 6.18701
#
# Compressibility (1/GPa) = 0.03059359
#
# Stress axis : x y z
#
# Youngs Moduli (GPa) = 84.65804 40.78768 48.05492
#
# Poissons Ratio (x) = -0.00960 0.25132
# Poissons Ratio (y) = -0.01993 0.39780
# Poissons Ratio (z) = 0.44276 0.33765
#
# Static dielectric constant tensor:
#      x y z
#    x 4.278710 0.000000 0.608810 
#    y 0.000000 3.381360 0.000000 
#    z 0.608810 0.000000 3.713330 
# 
# 
# High freq. dielectric constant tensor:
#      x y z
#    x 1.768350 0.000000 0.034520 
#    y 0.000000 1.742320 0.000000 
#    z 0.034520 0.000000 1.754830 
# 
# From -- ./inp_files/48895.got.cif
#   From: 2010.06.25/outbox.cif.g09.slc.cpg/sg12_25_cif.got.tgz:48895.got - 2010.06.28 00:19:55.
