data_PCOD8088219
_publ_section_title
;
Structure prediction by ZEFSAII (Michael W. Deem and Ramdas Pophale) SiO2 
 PCOD8088219
Probable space group: C 2/M
;
_chemical_formula_sum "Si O2"
_cell_formula_units_Z 48
_cell_length_a 15.139778
_cell_length_b 19.196996
_cell_length_c 12.055507
_cell_angle_alpha 90.000000
_cell_angle_beta 42.340037
_cell_angle_gamma 90.000000
_cell_volume 2359.905873
_symmetry_space_group_name_H-M "C 2/M"
_symmetry_group_IT_number 12
_symmetry_cell_setting 'monoclinic'
loop_
_space_group_symop_operation_xyz
x,y,z
-x,y,-z
-x,-y,-z
x,-y,z
1/2+x,1/2+y,z
1/2-x,1/2+y,-z
1/2-x,1/2-y,-z
1/2+x,1/2-y,z
loop_
_atom_site_type_symbol
_atom_site_label
_atom_site_fract_x
_atom_site_fract_y
_atom_site_fract_z
Si Si1 0.082624 0.580502 0.319744
Si Si2 0.702735 0.616477 0.344251
Si Si3 0.529347 0.077449 0.813330
Si Si4 0.844277 0.697258 0.052257
Si Si5 0.322229 0.657544 0.003363
Si Si6 0.967153 0.077968 0.696203
O O1 0.117557 0.500000 0.306334
O O2 0.220793 0.620714 0.181071
O O3 0.000000 0.610458 0.500000
O O4 0.991994 0.592165 0.296534
O O5 0.816721 0.575335 0.302618
O O6 0.760927 0.689657 0.244089
O O7 0.582165 0.627546 0.540761
O O8 0.654361 0.575803 0.277874
O O9 0.471765 0.000000 0.896551
O O10 0.458436 0.138725 0.948702
O O11 0.894276 0.777498 0.998825
O O12 0.751264 0.685984 0.035215
O O13 0.428833 0.603566 0.855346
O O14 0.022794 0.000000 0.655892
#
# Coordination Sequence:
#
# PCOD8088219 Si02
#       6
#     8   8   8   8   8   8
#     4   9  18  34  58  85 105 137 190 234 268 316
#     4  10  19  32  52  83 116 143 178 227 277 337
#     4  10  19  32  55  82 111 140 177 235 283 317
#     4   9  19  33  49  76 109 143 182 214 269 333
#     4   9  18  35  51  74 108 148 179 219 264 325
#     4  10  19  32  55  84 114 146 181 221 274 339
#
# _framework density 20.339794999999999
#
# number of rings (size 3 to 8) (size 9 to 14) (size 15 to 20)
#    0.000    2.500    0.000    3.000    0.000    6.000 
#   12.000    0.833    3.667    0.000    0.000    4.667 
#    0.000    0.000    0.000    0.000    0.000    0.000 
#
# Total GULP energy -297343.544370 kJ/mol
# GULP energy per Si atom -12389.314349 kJ/mol
# Density = 2.029350 g / cm^3
# Si number density = 20.339795 Si / 1000 Ang^3
#
#
#
# Elastic Constant Matrix: (Units=GPa)
#
#
# Indices 1 2 3 4 5 6 
#
# 1 53.2909 35.0805 36.5722 0.0018 -9.0685 -0.0029
# 2 35.0805 107.4992 72.0554 0.0004 1.7353 -0.0011
# 3 36.5722 72.0554 177.7124 0.0008 11.9151 -0.0015
# 4 0.0018 0.0004 0.0008 23.3036 -0.0008 6.5412
# 5 -9.0685 1.7353 11.9151 -0.0008 26.3290 0.0014
# 6 -0.0029 -0.0011 -0.0015 6.5412 0.0014 -12.4889
#
#
#
# Elastic Compliance Matrix: (Units=1/GPa)
#
#
# Indices 1 2 3 4 5 6 
#
# 1 0.027776 -0.006722 -0.003776 0.000000 0.011719 -0.000004
# 2 -0.006722 0.014462 -0.004395 0.000000 -0.001280 0.000001
# 3 -0.003776 -0.004395 0.008512 0.000000 -0.004863 0.000000
# 4 0.000000 0.000000 0.000000 0.037412 0.000000 0.019595
# 5 0.011719 -0.001280 -0.004863 0.000000 0.044302 0.000003
# 6 -0.000004 0.000001 0.000000 0.019595 0.000003 -0.069808
#
#
# Mechanical properties :
#
#
# Convention : Reuss Voigt Hill
#
# Bulk Modulus (GPa) = 47.70069 69.54652 58.62360
# Shear Modulus (GPa) = 50.28633 20.41504 35.35068
#
# Velocity S-wave (km/s) = 4.97763 3.17156 4.17346
# Velocity P-wave (km/s) = 7.51921 6.90495 7.21862
#
# Compressibility (1/GPa) = 0.02096406
#
# Stress axis : x y z
#
# Youngs Moduli (GPa) = 36.00268 69.14442 117.47870
#
# Poissons Ratio (x) = 0.46480 0.44363
# Poissons Ratio (y) = 0.24201 0.51630
# Poissons Ratio (z) = 0.13595 0.30388
#
# Static dielectric constant tensor:
#      x y z
#    x 3.496830 0.000000 0.110670 
#    y 0.000000 3.869700 0.000000 
#    z 0.110670 0.000000 3.761630 
# 
# 
# High freq. dielectric constant tensor:
#      x y z
#    x 1.768560 0.000000 0.002720 
#    y 0.000000 1.780200 0.000000 
#    z 0.002720 0.000000 1.793370 
# 
# From -- ./inp_files/147937.got.cif
#   From: 2010.06.25/outbox.cif.g09.slc.cpg/sg12_74_cif.got.tgz:147937.got - 2010.06.28 00:19:55.
