data_PCOD8088053
_publ_section_title
;
Structure prediction by ZEFSAII (Michael W. Deem and Ramdas Pophale) SiO2 
 PCOD8088053
Probable space group: C 2/M
;
_chemical_formula_sum "Si O2"
_cell_formula_units_Z 64
_cell_length_a 26.629695
_cell_length_b 12.891432
_cell_length_c 15.664484
_cell_angle_alpha 90.000000
_cell_angle_beta 142.430731
_cell_angle_gamma 90.000000
_cell_volume 3278.792844
_symmetry_space_group_name_H-M "C 2/M"
_symmetry_group_IT_number 12
_symmetry_cell_setting 'monoclinic'
loop_
_space_group_symop_operation_xyz
x,y,z
-x,y,-z
-x,-y,-z
x,-y,z
1/2+x,1/2+y,z
1/2-x,1/2+y,-z
1/2-x,1/2-y,-z
1/2+x,1/2-y,z
loop_
_atom_site_type_symbol
_atom_site_label
_atom_site_fract_x
_atom_site_fract_y
_atom_site_fract_z
Si Si1 0.800167 0.234029 0.775025
Si Si2 0.399472 0.617311 0.771998
Si Si3 0.883904 0.119895 0.134200
Si Si4 0.188129 0.217309 0.488688
Si Si5 0.220940 0.618418 0.822675
Si Si6 0.446373 0.215785 0.346195
Si Si7 0.457134 0.249226 0.083465
Si Si8 0.950079 0.620656 0.662850
O O1 0.830556 0.145499 0.749541
O O2 0.742778 0.316434 0.645135
O O3 0.743276 0.186200 0.771031
O O4 0.879411 0.290131 0.923211
O O5 0.428263 0.500000 0.825640
O O6 0.367337 0.627880 0.629631
O O7 0.475777 0.696058 0.887214
O O8 0.913335 0.179276 0.258277
O O9 0.931169 0.162132 0.115307
O O10 0.906797 0.000000 0.177188
O O11 0.786037 0.136112 0.987553
O O12 0.250000 0.250000 0.500000
O O13 0.133789 0.314838 0.445452
O O14 0.223003 0.500000 0.795471
O O15 0.130623 0.645204 0.733097
O O16 0.500000 0.248635 0.500000
O O17 0.502529 0.147175 0.359947
O O18 0.492837 0.148509 0.178905
O O19 0.927926 0.500000 0.635779
#
# Coordination Sequence:
#
# PCOD8088053 Si02
#       8
#     8   8   8   8   8   8   8   8
#     4  10  19  33  53  76 106 138 174 220 263 306
#     4  10  19  32  52  77 105 136 170 211 263 315
#     4   9  19  36  55  75 104 142 178 216 265 316
#     4   9  20  35  52  75 104 136 170 209 253 306
#     4  10  20  34  53  77 105 138 178 221 265 312
#     4  11  22  34  53  81 109 137 174 222 265 309
#     4   9  19  34  54  80 106 133 173 221 262 308
#     4  10  21  38  57  77 106 143 176 211 263 319
#
# _framework density 19.519379000000001
#
# number of rings (size 3 to 8) (size 9 to 14) (size 15 to 20)
#    0.000    2.250    0.000    2.625    0.000    6.750 
#    0.000    0.625    0.000   12.000    0.000    0.000 
#    0.000    0.000    0.000    0.000    0.000    0.000 
#
# Total GULP energy -396658.352812 kJ/mol
# GULP energy per Si atom -12395.573525 kJ/mol
# Density = 1.947495 g / cm^3
# Si number density = 19.519379 Si / 1000 Ang^3
#
#
#
# Elastic Constant Matrix: (Units=GPa)
#
#
# Indices 1 2 3 4 5 6 
#
# 1 103.5076 12.3865 26.0801 0.0000 11.9191 0.0000
# 2 12.3865 38.2434 11.0177 0.0000 -3.9536 0.0000
# 3 26.0801 11.0177 128.6669 0.0000 -5.1404 0.0000
# 4 0.0000 0.0000 0.0000 17.2095 0.0000 2.0679
# 5 11.9191 -3.9536 -5.1404 0.0000 31.3958 0.0000
# 6 0.0000 0.0000 0.0000 2.0679 0.0000 19.4804
#
#
#
# Elastic Compliance Matrix: (Units=1/GPa)
#
#
# Indices 1 2 3 4 5 6 
#
# 1 0.011213 -0.003529 -0.002173 0.000000 -0.005057 0.000000
# 2 -0.003529 0.028208 -0.001515 0.000000 0.004644 0.000000
# 3 -0.002173 -0.001515 0.008423 0.000000 0.002013 0.000000
# 4 0.000000 0.000000 0.000000 0.058858 0.000000 -0.006248
# 5 -0.005057 0.004644 0.002013 0.000000 0.034686 0.000000
# 6 0.000000 0.000000 0.000000 -0.006248 0.000000 0.051997
#
#
# Mechanical properties :
#
#
# Convention : Reuss Voigt Hill
#
# Bulk Modulus (GPa) = 29.93001 41.04295 35.48648
# Shear Modulus (GPa) = 22.83594 28.34606 25.59100
#
# Velocity S-wave (km/s) = 3.42411 3.81491 3.62478
# Velocity P-wave (km/s) = 5.56772 6.36216 5.97815
#
# Compressibility (1/GPa) = 0.03341129
#
# Stress axis : x y z
#
# Youngs Moduli (GPa) = 89.18084 35.45141 118.72905
#
# Poissons Ratio (x) = 0.12509 0.25797
# Poissons Ratio (y) = 0.31469 0.17983
# Poissons Ratio (z) = 0.19377 0.05370
#
# Static dielectric constant tensor:
#      x y z
#    x 3.562170 0.000000 -0.074090 
#    y 0.000000 3.195120 0.000000 
#    z -0.074090 0.000000 3.998190 
# 
# 
# High freq. dielectric constant tensor:
#      x y z
#    x 1.769830 0.000000 0.007270 
#    y 0.000000 1.717700 0.000000 
#    z 0.007270 0.000000 1.781340 
# 
# From -- ./inp_files/245963.got.cif
#   From: 2010.06.25/outbox.cif.g09.slc.cpg/sg12_123_cif.got.tgz:245963.got - 2010.06.28 00:19:55.
