data_PCOD8088677
_publ_section_title
;
Structure prediction by ZEFSAII (Michael W. Deem and Ramdas Pophale) SiO2 
 PCOD8088677
Probable space group: C 2/M
;
_chemical_formula_sum "Si O2"
_cell_formula_units_Z 48
_cell_length_a 28.330841
_cell_length_b 8.657506
_cell_length_c 17.456675
_cell_angle_alpha 90.000000
_cell_angle_beta 35.971092
_cell_angle_gamma 90.000000
_cell_volume 2514.957952
_symmetry_space_group_name_H-M "C 2/M"
_symmetry_group_IT_number 12
_symmetry_cell_setting 'monoclinic'
loop_
_space_group_symop_operation_xyz
x,y,z
-x,y,-z
-x,-y,-z
x,-y,z
1/2+x,1/2+y,z
1/2-x,1/2+y,-z
1/2-x,1/2-y,-z
1/2+x,1/2-y,z
loop_
_atom_site_type_symbol
_atom_site_label
_atom_site_fract_x
_atom_site_fract_y
_atom_site_fract_z
Si Si1 0.411876 0.682042 0.622559
Si Si2 0.373276 0.319212 0.506337
Si Si3 0.458324 0.183845 0.131324
Si Si4 0.838335 0.183714 0.875555
Si Si5 0.981949 0.317274 0.781305
Si Si6 0.219876 0.681223 0.617087
O O1 0.500000 0.755819 0.500000
O O2 0.418548 0.500000 0.625148
O O3 0.366843 0.726355 0.603754
O O4 0.367988 0.749781 0.754634
O O5 0.392348 0.500000 0.469954
O O6 0.443120 0.228716 0.370513
O O7 0.284943 0.271781 0.594844
O O8 0.501888 0.239397 0.152463
O O9 0.367450 0.249365 0.248048
O O10 0.458902 0.000000 0.128164
O O11 0.500000 0.251325 0.000000
O O12 0.898953 0.241280 0.861979
O O13 0.835238 0.000000 0.882431
O O14 0.750000 0.250000 0.000000
O O15 0.971961 0.500000 0.791434
O O16 0.212842 0.500000 0.616558
O O17 0.250000 0.750000 0.500000
#
# Coordination Sequence:
#
# PCOD8088677 Si02
#       6
#     8   8   8   8   8   8
#     4   9  17  33  57  83 108 144 191 231 269 328
#     4  10  19  33  57  84 110 148 194 237 281 333
#     4   9  19  35  55  81 113 149 192 236 276 333
#     4  11  23  40  61  85 117 150 189 233 281 341
#     4  11  21  35  58  85 113 148 188 236 294 339
#     4  10  19  32  54  82 109 141 183 232 279 325
#
# _framework density 19.085806999999999
#
# number of rings (size 3 to 8) (size 9 to 14) (size 15 to 20)
#    0.000    2.000    3.333    1.000    0.000    1.333 
#    0.000    7.500    0.000    6.500    0.000    0.000 
#    0.000    0.000    0.000    0.000    0.000    0.000 
#
# Total GULP energy -297507.451672 kJ/mol
# GULP energy per Si atom -12396.143820 kJ/mol
# Density = 1.904237 g / cm^3
# Si number density = 19.085807 Si / 1000 Ang^3
#
#
#
# Elastic Constant Matrix: (Units=GPa)
#
#
# Indices 1 2 3 4 5 6 
#
# 1 191.3644 34.3358 100.1876 0.0033 -10.3410 -0.0021
# 2 34.3358 36.8277 25.7003 -0.0035 -7.5591 0.0029
# 3 100.1876 25.7003 174.3727 -0.0102 -9.0739 -0.0012
# 4 0.0033 -0.0035 -0.0102 26.4657 -0.0004 -1.4841
# 5 -10.3410 -7.5591 -9.0739 -0.0004 37.0213 -0.0003
# 6 -0.0021 0.0029 -0.0012 -1.4841 -0.0003 25.1296
#
#
#
# Elastic Compliance Matrix: (Units=1/GPa)
#
#
# Indices 1 2 3 4 5 6 
#
# 1 0.008187 -0.004786 -0.003981 -0.000003 0.000334 0.000001
# 2 -0.004786 0.034067 -0.002004 0.000004 0.005128 -0.000004
# 3 -0.003981 -0.002004 0.008345 0.000004 0.000524 0.000001
# 4 -0.000003 0.000004 0.000004 0.037910 0.000001 0.002239
# 5 0.000334 0.005128 0.000524 0.000001 0.028280 0.000000
# 6 0.000001 -0.000004 0.000001 0.002239 0.000000 0.039926
#
#
# Mechanical properties :
#
#
# Convention : Reuss Voigt Hill
#
# Bulk Modulus (GPa) = 34.41664 80.33468 57.37566
# Shear Modulus (GPa) = 26.60388 33.87939 30.24164
#
# Velocity S-wave (km/s) = 3.73756 4.21778 3.98491
# Velocity P-wave (km/s) = 6.05785 8.11802 7.16239
#
# Compressibility (1/GPa) = 0.02905571
#
# Stress axis : x y z
#
# Youngs Moduli (GPa) = 122.15086 29.35401 119.83506
#
# Poissons Ratio (x) = 0.14049 0.47705
# Poissons Ratio (y) = 0.58462 0.24019
# Poissons Ratio (z) = 0.48627 0.05883
#
# Static dielectric constant tensor:
#      x y z
#    x 3.857830 -0.000020 0.003550 
#    y -0.000020 3.205560 0.000020 
#    z 0.003550 0.000020 3.699210 
# 
# 
# High freq. dielectric constant tensor:
#      x y z
#    x 1.763040 0.000000 -0.002150 
#    y 0.000000 1.708730 0.000000 
#    z -0.002150 0.000000 1.744020 
# 
# From -- ./inp_files/274580.got.cif
#   From: 2010.06.25/outbox.cif.g09.slc.cpg/sg12_138_cif.got.tgz:274580.got - 2010.06.28 00:19:55.
