data_PCOD8088293
_publ_section_title
;
Structure prediction by ZEFSAII (Michael W. Deem and Ramdas Pophale) SiO2 
 PCOD8088293
Probable space group: C 2/M
;
_chemical_formula_sum "Si O2"
_cell_formula_units_Z 56
_cell_length_a 28.807043
_cell_length_b 14.081362
_cell_length_c 9.131252
_cell_angle_alpha 90.000000
_cell_angle_beta 126.828679
_cell_angle_gamma 90.000000
_cell_volume 2964.816426
_symmetry_space_group_name_H-M "C 2/M"
_symmetry_group_IT_number 12
_symmetry_cell_setting 'monoclinic'
loop_
_space_group_symop_operation_xyz
x,y,z
-x,y,-z
-x,-y,-z
x,-y,z
1/2+x,1/2+y,z
1/2-x,1/2+y,-z
1/2-x,1/2-y,-z
1/2+x,1/2-y,z
loop_
_atom_site_type_symbol
_atom_site_label
_atom_site_fract_x
_atom_site_fract_y
_atom_site_fract_z
Si Si1 0.281829 0.609022 0.876870
Si Si2 0.395043 0.723792 0.107449
Si Si3 0.665240 0.108923 0.497926
Si Si4 0.154827 0.609167 0.135842
Si Si5 0.615813 0.275744 0.569160
Si Si6 0.994450 0.107143 0.663105
Si Si7 0.228932 0.109632 0.810491
O O1 0.300496 0.500000 0.900112
O O2 0.230611 0.635200 0.668858
O O3 0.338473 0.668456 0.944260
O O4 0.258923 0.632579 0.996546
O O5 0.394440 0.741399 0.279253
O O6 0.451062 0.663381 0.166074
O O7 0.396212 0.825496 0.027532
O O8 0.660280 0.127271 0.317313
O O9 0.618785 0.174082 0.494582
O O10 0.651252 0.000000 0.512968
O O11 0.139832 0.500000 0.071745
O O12 0.214652 0.640474 0.172158
O O13 0.563633 0.336969 0.401733
O O14 0.674832 0.331669 0.648193
O O15 0.000000 0.101663 0.500000
O O16 0.992551 0.000000 0.723673
O O17 0.213687 0.000000 0.757077
#
# Coordination Sequence:
#
# PCOD8088293 Si02
#       7
#     8   8   8   8   8   8   8
#     4   9  17  30  50  77 106 133 163 202 249 301
#     4  10  19  32  53  78 102 132 168 205 248 296
#     4  10  21  35  50  71 101 136 171 208 252 298
#     4  10  21  35  50  71 101 136 171 208 252 298
#     4  10  19  32  53  78 102 132 168 205 248 296
#     4   9  18  34  56  81 106 130 161 203 248 297
#     4   9  17  30  50  77 106 133 163 202 249 301
#
# _framework density 18.888186000000001
#
# number of rings (size 3 to 8) (size 9 to 14) (size 15 to 20)
#    0.000    2.429    0.000    2.571    0.000    9.714 
#    0.000    1.429    0.000    7.714    0.000    0.000 
#    0.000    0.000    0.000    0.000    0.000    0.000 
#
# Total GULP energy -347255.155554 kJ/mol
# GULP energy per Si atom -12401.969841 kJ/mol
# Density = 1.884520 g / cm^3
# Si number density = 18.888186 Si / 1000 Ang^3
#
#
#
# Elastic Constant Matrix: (Units=GPa)
#
#
# Indices 1 2 3 4 5 6 
#
# 1 40.2531 55.8871 51.3653 0.0000 15.5523 0.0000
# 2 55.8871 132.0130 77.6783 0.0000 22.2826 0.0000
# 3 51.3653 77.6783 81.9860 0.0000 13.9626 0.0000
# 4 0.0000 0.0000 0.0000 32.6122 0.0000 4.9133
# 5 15.5523 22.2826 13.9626 0.0000 17.7144 0.0000
# 6 0.0000 0.0000 0.0000 4.9133 0.0000 29.0031
#
#
#
# Elastic Compliance Matrix: (Units=1/GPa)
#
#
# Indices 1 2 3 4 5 6 
#
# 1 0.205779 -0.012422 -0.102854 0.000000 -0.083967 0.000000
# 2 -0.012422 0.019592 -0.009749 0.000000 -0.006054 0.000000
# 3 -0.102854 -0.009749 0.079013 0.000000 0.040285 0.000000
# 4 0.000000 0.000000 0.000000 0.031466 0.000000 -0.005331
# 5 -0.083967 -0.006054 0.040285 0.000000 0.106032 0.000000
# 6 0.000000 0.000000 0.000000 -0.005331 0.000000 0.035382
#
#
# Mechanical properties :
#
#
# Convention : Reuss Voigt Hill
#
# Bulk Modulus (GPa) = 18.40477 69.34595 43.87536
# Shear Modulus (GPa) = 6.70757 20.48736 13.59747
#
# Velocity S-wave (km/s) = 1.88651 3.29700 2.68599
# Velocity P-wave (km/s) = 3.80926 7.16151 5.73575
#
# Compressibility (1/GPa) = 0.05433374
#
# Stress axis : x y z
#
# Youngs Moduli (GPa) = 4.85959 51.04020 12.65622
#
# Poissons Ratio (x) = 0.63403 1.30174
# Poissons Ratio (y) = 0.06037 0.12339
# Poissons Ratio (z) = 0.49983 0.49760
#
# Static dielectric constant tensor:
#      x y z
#    x 3.247880 0.000000 0.103680 
#    y 0.000000 3.723200 0.000000 
#    z 0.103680 0.000000 3.335240 
# 
# 
# High freq. dielectric constant tensor:
#      x y z
#    x 1.706720 0.000000 0.005700 
#    y 0.000000 1.753120 0.000000 
#    z 0.005700 0.000000 1.716720 
# 
# From -- ./inp_files/96740.got.cif
#   From: 2010.06.25/outbox.cif.g09.slc.cpg/sg12_49_cif.got.tgz:96740.got - 2010.06.28 00:19:55.
