data_PCOD8088544
_publ_section_title
;
Structure prediction by ZEFSAII (Michael W. Deem and Ramdas Pophale) SiO2 
 PCOD8088544
Probable space group: C 2/M
;
_chemical_formula_sum "Si O2"
_cell_formula_units_Z 56
_cell_length_a 31.666150
_cell_length_b 10.459836
_cell_length_c 9.263523
_cell_angle_alpha 90.000000
_cell_angle_beta 71.408864
_cell_angle_gamma 90.000000
_cell_volume 2908.179165
_symmetry_space_group_name_H-M "C 2/M"
_symmetry_group_IT_number 12
_symmetry_cell_setting 'monoclinic'
loop_
_space_group_symop_operation_xyz
x,y,z
-x,y,-z
-x,-y,-z
x,-y,z
1/2+x,1/2+y,z
1/2-x,1/2+y,-z
1/2-x,1/2-y,-z
1/2+x,1/2-y,z
loop_
_atom_site_type_symbol
_atom_site_label
_atom_site_fract_x
_atom_site_fract_y
_atom_site_fract_z
Si Si1 0.480206 0.857093 0.863536
Si Si2 0.878688 0.356828 0.036591
Si Si3 0.474292 0.645100 0.379833
Si Si4 0.659954 0.650014 0.716307
Si Si5 0.820404 0.759828 0.869211
Si Si6 0.123770 0.851973 0.452617
Si Si7 0.235986 0.861299 0.831550
O O1 0.501414 0.743811 0.749805
O O2 0.491034 0.000000 0.789971
O O3 0.500000 0.845597 0.000000
O O4 0.427384 0.835659 0.918704
O O5 0.874238 0.500000 0.108805
O O6 0.872600 0.247147 0.163950
O O7 0.842132 0.348930 0.947259
O O8 0.500000 0.639926 0.500000
O O9 0.472761 0.500000 0.315086
O O10 0.425007 0.703195 0.459203
O O11 0.647472 0.500000 0.761529
O O12 0.656822 0.680031 0.549453
O O13 0.710665 0.679471 0.711614
O O14 0.858414 0.802026 0.718579
O O15 0.777652 0.726571 0.819176
O O16 0.801522 0.865913 0.000432
O O17 0.117832 0.000000 0.436390
O O18 0.256839 0.000000 0.790386
#
# Coordination Sequence:
#
# PCOD8088544 Si02
#       7
#     8   8   8   8   8   8   8
#     4  10  21  36  54  77 106 140 177 216 259 309
#     4  10  20  35  54  78 107 138 176 218 258 306
#     4  10  21  36  54  78 107 137 174 219 261 307
#     4   9  19  35  55  78 106 139 174 214 259 309
#     4  10  19  32  54  76 102 137 172 211 260 309
#     4  10  20  35  54  78 106 136 174 217 261 309
#     4   9  18  33  51  74 102 133 173 215 254 303
#
# _framework density 19.256035000000001
#
# number of rings (size 3 to 8) (size 9 to 14) (size 15 to 20)
#    0.000    2.286    0.000    2.571    0.000    2.286 
#    0.000    3.571    0.000    0.000    0.000    0.000 
#    0.000    0.000    0.000    0.000    0.000    0.000 
#
# Total GULP energy -346920.865059 kJ/mol
# GULP energy per Si atom -12390.030895 kJ/mol
# Density = 1.921221 g / cm^3
# Si number density = 19.256035 Si / 1000 Ang^3
#
#
#
# Elastic Constant Matrix: (Units=GPa)
#
#
# Indices 1 2 3 4 5 6 
#
# 1 87.7035 20.0551 11.5636 0.0000 4.1430 0.0000
# 2 20.0551 51.6266 17.9401 0.0000 -8.1762 0.0000
# 3 11.5636 17.9401 50.2723 0.0000 -2.6079 0.0000
# 4 0.0000 0.0000 0.0000 15.3658 0.0000 3.1058
# 5 4.1430 -8.1762 -2.6079 0.0000 27.2190 0.0000
# 6 0.0000 0.0000 0.0000 3.1058 0.0000 22.3861
#
#
#
# Elastic Compliance Matrix: (Units=1/GPa)
#
#
# Indices 1 2 3 4 5 6 
#
# 1 0.012923 -0.005134 -0.001329 0.000000 -0.003637 0.000000
# 2 -0.005134 0.025142 -0.007396 0.000000 0.007625 0.000000
# 3 -0.001329 -0.007396 0.022845 0.000000 0.000170 0.000000
# 4 0.000000 0.000000 0.000000 0.066957 0.000000 -0.009290
# 5 -0.003637 0.007625 0.000170 0.000000 0.039599 0.000000
# 6 0.000000 0.000000 0.000000 -0.009290 0.000000 0.045959
#
#
# Mechanical properties :
#
#
# Convention : Reuss Voigt Hill
#
# Bulk Modulus (GPa) = 30.12716 32.08000 31.10358
# Shear Modulus (GPa) = 19.82490 22.33043 21.07767
#
# Velocity S-wave (km/s) = 3.21213 3.40907 3.31206
# Velocity P-wave (km/s) = 5.42555 5.67376 5.55104
#
# Compressibility (1/GPa) = 0.03319264
#
# Stress axis : x y z
#
# Youngs Moduli (GPa) = 77.38070 39.77433 43.77264
#
# Poissons Ratio (x) = 0.20421 0.05817
# Poissons Ratio (y) = 0.39729 0.32372
# Poissons Ratio (z) = 0.10284 0.29415
#
# Static dielectric constant tensor:
#      x y z
#    x 3.781500 0.000000 0.004140 
#    y 0.000000 3.560180 0.000000 
#    z 0.004140 0.000000 3.396640 
# 
# 
# High freq. dielectric constant tensor:
#      x y z
#    x 1.772000 0.000000 0.007970 
#    y 0.000000 1.742300 0.000000 
#    z 0.007970 0.000000 1.726460 
# 
# From -- ./inp_files/110084.got.cif
#   From: 2010.06.25/outbox.cif.g09.slc.cpg/sg12_56_cif.got.tgz:110084.got - 2010.06.28 00:19:55.
