data_PCOD8088264
_publ_section_title
;
Structure prediction by ZEFSAII (Michael W. Deem and Ramdas Pophale) SiO2 
 PCOD8088264
Probable space group: C 2/M
;
_chemical_formula_sum "Si O2"
_cell_formula_units_Z 56
_cell_length_a 19.202042
_cell_length_b 8.819534
_cell_length_c 26.838870
_cell_angle_alpha 90.000000
_cell_angle_beta 39.322315
_cell_angle_gamma 90.000000
_cell_volume 2880.240795
_symmetry_space_group_name_H-M "C 2/M"
_symmetry_group_IT_number 12
_symmetry_cell_setting 'monoclinic'
loop_
_space_group_symop_operation_xyz
x,y,z
-x,y,-z
-x,-y,-z
x,-y,z
1/2+x,1/2+y,z
1/2-x,1/2+y,-z
1/2-x,1/2-y,-z
1/2+x,1/2-y,z
loop_
_atom_site_type_symbol
_atom_site_label
_atom_site_fract_x
_atom_site_fract_y
_atom_site_fract_z
Si Si1 0.157668 0.172748 0.698863
Si Si2 0.661040 0.821014 0.272706
Si Si3 0.058424 0.175250 0.233331
Si Si4 0.277658 0.178345 0.931384
Si Si5 0.072617 0.673961 0.006122
Si Si6 0.603497 0.176934 0.414466
Si Si7 0.125494 0.327331 0.817217
O O1 0.285285 0.208938 0.614859
O O2 0.120832 0.284862 0.762398
O O3 0.074264 0.194887 0.698877
O O4 0.151133 0.000000 0.722833
O O5 0.590313 0.749693 0.267751
O O6 0.615823 0.760143 0.351184
O O7 0.788615 0.772687 0.198357
O O8 0.652484 0.000000 0.272474
O O9 0.114387 0.252794 0.154270
O O10 0.092732 0.000000 0.215012
O O11 0.294018 0.000000 0.928787
O O12 0.250000 0.250000 0.000000
O O13 0.176718 0.215644 0.950523
O O14 0.112981 0.500000 0.978215
O O15 0.998826 0.696456 0.095851
O O16 0.000000 0.724597 0.000000
O O17 0.500000 0.255015 0.500000
O O18 0.580297 0.000000 0.422660
O O19 0.163029 0.500000 0.803522
#
# Coordination Sequence:
#
# PCOD8088264 Si02
#       7
#     8   8   8   8   8   8   8
#     4   9  19  34  54  78 103 138 179 217 261 316
#     4  10  20  34  55  82 110 143 183 222 266 321
#     4  11  22  37  55  77 110 145 181 226 272 319
#     4  12  25  39  56  78 107 144 186 229 275 324
#     4  10  21  36  53  75 104 138 178 225 276 323
#     4   8  15  32  58  84 109 139 177 218 261 316
#     4  10  19  32  53  77 103 138 178 222 270 320
#
# _framework density 19.442819
#
# number of rings (size 3 to 8) (size 9 to 14) (size 15 to 20)
#    0.000    2.000    0.000    5.143    0.000    6.000 
#    0.000    0.714    0.000   10.714    0.000    0.000 
#    0.000    0.000    0.000    0.000    0.000    0.000 
#
# Total GULP energy -347132.411376 kJ/mol
# GULP energy per Si atom -12397.586121 kJ/mol
# Density = 1.939857 g / cm^3
# Si number density = 19.442819 Si / 1000 Ang^3
#
#
#
# Elastic Constant Matrix: (Units=GPa)
#
#
# Indices 1 2 3 4 5 6 
#
# 1 111.4469 34.1889 34.7008 0.0000 -13.8896 -0.0003
# 2 34.1889 89.6049 33.8238 0.0000 -5.2985 -0.0007
# 3 34.7008 33.8238 83.0746 0.0001 -13.1054 -0.0001
# 4 0.0000 0.0000 0.0001 17.9726 0.0000 0.9499
# 5 -13.8896 -5.2985 -13.1054 0.0000 25.8603 0.0001
# 6 -0.0003 -0.0007 -0.0001 0.9499 0.0001 33.8665
#
#
#
# Elastic Compliance Matrix: (Units=1/GPa)
#
#
# Indices 1 2 3 4 5 6 
#
# 1 0.011279 -0.002986 -0.002866 0.000000 0.003994 0.000000
# 2 -0.002986 0.013977 -0.004614 0.000000 -0.001078 0.000000
# 3 -0.002866 -0.004614 0.016000 0.000000 0.005624 0.000000
# 4 0.000000 0.000000 0.000000 0.055723 0.000000 -0.001563
# 5 0.003994 -0.001078 0.005624 0.000000 0.043444 0.000000
# 6 0.000000 0.000000 0.000000 -0.001563 0.000000 0.029572
#
#
# Mechanical properties :
#
#
# Convention : Reuss Voigt Hill
#
# Bulk Modulus (GPa) = 49.19772 54.39483 51.79627
# Shear Modulus (GPa) = 25.29093 27.63405 26.46249
#
# Velocity S-wave (km/s) = 3.61055 3.77410 3.69323
# Velocity P-wave (km/s) = 6.53760 6.85779 6.69961
#
# Compressibility (1/GPa) = 0.02032615
#
# Stress axis : x y z
#
# Youngs Moduli (GPa) = 88.66201 71.54559 62.49979
#
# Poissons Ratio (x) = 0.21361 0.17910
# Poissons Ratio (y) = 0.26471 0.28836
# Poissons Ratio (z) = 0.25407 0.33009
#
# Static dielectric constant tensor:
#      x y z
#    x 3.627480 0.000000 -0.138400 
#    y 0.000000 3.455310 0.000000 
#    z -0.138400 0.000000 3.722100 
# 
# 
# High freq. dielectric constant tensor:
#      x y z
#    x 1.764240 0.000000 -0.012770 
#    y 0.000000 1.746990 0.000000 
#    z -0.012770 0.000000 1.741590 
# 
# From -- ./inp_files/362926.got.cif
#   From: 2010.06.25/outbox.cif.g09.slc.cpg/sg12_182_cif.got.tgz:362926.got - 2010.06.28 00:19:55.
