data_PCOD8088375
_publ_section_title
;
Structure prediction by ZEFSAII (Michael W. Deem and Ramdas Pophale) SiO2 
 PCOD8088375
Probable space group: C 2/M
;
_chemical_formula_sum "Si O2"
_cell_formula_units_Z 48
_cell_length_a 22.546327
_cell_length_b 9.165831
_cell_length_c 12.458658
_cell_angle_alpha 90.000000
_cell_angle_beta 110.194246
_cell_angle_gamma 90.000000
_cell_volume 2416.384292
_symmetry_space_group_name_H-M "C 2/M"
_symmetry_group_IT_number 12
_symmetry_cell_setting 'monoclinic'
loop_
_space_group_symop_operation_xyz
x,y,z
-x,y,-z
-x,-y,-z
x,-y,z
1/2+x,1/2+y,z
1/2-x,1/2+y,-z
1/2-x,1/2-y,-z
1/2+x,1/2-y,z
loop_
_atom_site_type_symbol
_atom_site_label
_atom_site_fract_x
_atom_site_fract_y
_atom_site_fract_z
Si Si1 0.573226 0.662392 0.570286
Si Si2 0.410581 0.834069 0.624004
Si Si3 0.223047 0.665699 0.382449
Si Si4 0.240715 0.330485 0.155702
Si Si5 0.050562 0.328282 0.764837
Si Si6 0.848289 0.830248 0.053964
O O1 0.500000 0.649767 0.500000
O O2 0.601705 0.500000 0.609502
O O3 0.607050 0.733696 0.488860
O O4 0.583552 0.764685 0.678886
O O5 0.353264 0.817600 0.671749
O O6 0.476139 0.787626 0.722181
O O7 0.417920 0.000000 0.586739
O O8 0.242787 0.500000 0.413989
O O9 0.250000 0.750000 0.500000
O O10 0.251037 0.719927 0.285783
O O11 0.220828 0.500000 0.137904
O O12 0.304732 0.300966 0.130878
O O13 0.184062 0.235529 0.071587
O O14 0.062504 0.500000 0.777215
O O15 0.084832 0.250962 0.886612
O O16 0.860823 0.000000 0.042751
#
# Coordination Sequence:
#
# PCOD8088375 Si02
#       6
#     8   8   8   8   8   8
#     4   9  17  29  47  73 106 141 177 221 268 313
#     4   9  19  35  52  76 109 145 184 223 268 328
#     4  10  22  39  58  81 110 146 186 226 270 327
#     4   9  20  39  58  79 109 143 182 227 273 324
#     4  10  19  32  53  79 109 144 181 223 274 326
#     4  10  20  35  58  85 110 138 181 231 277 325
#
# _framework density 19.86439
#
# number of rings (size 3 to 8) (size 9 to 14) (size 15 to 20)
#    0.000    2.500    0.000    1.500    2.333    4.667 
#    0.000    0.833    0.000    5.000    0.000    0.000 
#    0.000    0.000    0.000    0.000    0.000    0.000 
#
# Total GULP energy -297580.602605 kJ/mol
# GULP energy per Si atom -12399.191775 kJ/mol
# Density = 1.981918 g / cm^3
# Si number density = 19.864390 Si / 1000 Ang^3
#
#
#
# Elastic Constant Matrix: (Units=GPa)
#
#
# Indices 1 2 3 4 5 6 
#
# 1 50.9925 24.8079 33.6755 0.0000 3.2605 0.0000
# 2 24.8079 99.0127 53.9070 0.0000 10.6483 0.0000
# 3 33.6755 53.9070 120.3882 0.0000 5.7900 0.0000
# 4 0.0000 0.0000 0.0000 37.4300 0.0000 5.2559
# 5 3.2605 10.6483 5.7900 0.0000 32.3779 0.0000
# 6 0.0000 0.0000 0.0000 5.2559 0.0000 21.9209
#
#
#
# Elastic Compliance Matrix: (Units=1/GPa)
#
#
# Indices 1 2 3 4 5 6 
#
# 1 0.024816 -0.003174 -0.005498 0.000000 -0.000472 0.000000
# 2 -0.003174 0.014132 -0.005278 0.000000 -0.003384 0.000000
# 3 -0.005498 -0.005278 0.012202 0.000000 0.000107 0.000000
# 4 0.000000 0.000000 0.000000 0.027647 0.000000 -0.006629
# 5 -0.000472 -0.003384 0.000107 0.000000 0.032027 0.000000
# 6 0.000000 0.000000 0.000000 -0.006629 0.000000 0.047208
#
#
# Mechanical properties :
#
#
# Convention : Reuss Voigt Hill
#
# Bulk Modulus (GPa) = 43.00658 55.01936 49.01297
# Shear Modulus (GPa) = 25.81570 28.87930 27.34750
#
# Velocity S-wave (km/s) = 3.60890 3.81704 3.71443
# Velocity P-wave (km/s) = 6.25001 6.86906 6.56684
#
# Compressibility (1/GPa) = 0.02325225
#
# Stress axis : x y z
#
# Youngs Moduli (GPa) = 40.29728 70.76056 81.95167
#
# Poissons Ratio (x) = 0.22457 0.45055
# Poissons Ratio (y) = 0.12789 0.43250
# Poissons Ratio (z) = 0.22154 0.37344
#
# Static dielectric constant tensor:
#      x y z
#    x 3.614030 0.000000 0.089000 
#    y 0.000000 3.706140 0.000000 
#    z 0.089000 0.000000 3.516400 
# 
# 
# High freq. dielectric constant tensor:
#      x y z
#    x 1.764680 0.000000 0.015780 
#    y 0.000000 1.776870 0.000000 
#    z 0.015780 0.000000 1.761950 
# 
# From -- ./inp_files/173054.got.cif
#   From: 2010.06.25/outbox.cif.g09.slc.cpg/sg12_87_cif.got.tgz:173054.got - 2010.06.28 00:19:55.
