data_PCOD8088287
_publ_section_title
;
Structure prediction by ZEFSAII (Michael W. Deem and Ramdas Pophale) SiO2 
 PCOD8088287
Probable space group: C 2/M
;
_chemical_formula_sum "Si O2"
_cell_formula_units_Z 36
_cell_length_a 5.098402
_cell_length_b 13.963627
_cell_length_c 24.558858
_cell_angle_alpha 90.000000
_cell_angle_beta 78.311011
_cell_angle_gamma 90.000000
_cell_volume 1712.140027
_symmetry_space_group_name_H-M "C 2/M"
_symmetry_group_IT_number 12
_symmetry_cell_setting 'monoclinic'
loop_
_space_group_symop_operation_xyz
x,y,z
-x,y,-z
-x,-y,-z
x,-y,z
1/2+x,1/2+y,z
1/2-x,1/2+y,-z
1/2-x,1/2-y,-z
1/2+x,1/2-y,z
loop_
_atom_site_type_symbol
_atom_site_label
_atom_site_fract_x
_atom_site_fract_y
_atom_site_fract_z
Si Si1 0.886808 0.816142 0.884241
Si Si2 0.212569 0.000000 0.038451
Si Si3 0.778207 0.110344 0.471007
Si Si4 0.423162 0.309919 0.763212
Si Si5 0.658455 0.687559 0.646921
O O1 0.652307 0.737058 0.894172
O O2 0.928746 0.861847 0.821757
O O3 0.819630 0.904357 0.925280
O O4 0.500000 0.000000 0.000000
O O5 0.000000 0.000000 0.000000
O O6 0.500000 0.160568 0.500000
O O7 0.845650 0.118160 0.404467
O O8 0.000000 0.160545 0.500000
O O9 0.762514 0.000000 0.487555
O O10 0.617162 0.216808 0.761821
O O11 0.548997 0.367918 0.706171
O O12 0.460712 0.777074 0.644125
#
# Coordination Sequence:
#
# PCOD8088287 Si02
#       5
#     8   4   8   8   8
#     4  10  21  40  63  85 120 161 192 238 298 339
#     4  12  26  40  60  94 124 152 204 244 272 346
#     4  10  21  35  48  67 102 139 171 212 265 324
#     4   8  16  32  54  78 105 137 174 221 275 327
#     4  10  19  32  53  78 101 128 174 226 267 316
#
# _framework density 21.026316000000001
#
# number of rings (size 3 to 8) (size 9 to 14) (size 15 to 20)
#    0.000    2.222    0.000    2.667    0.000    5.333 
#    2.000    0.000    0.000    0.000    0.000    0.000 
#    0.000    0.000    0.000    0.000    0.000    0.000 
#
# Total GULP energy -223006.315577 kJ/mol
# GULP energy per Si atom -12389.239754 kJ/mol
# Density = 2.097846 g / cm^3
# Si number density = 21.026316 Si / 1000 Ang^3
#
#
#
# Elastic Constant Matrix: (Units=GPa)
#
#
# Indices 1 2 3 4 5 6 
#
# 1 140.6416 16.3760 53.1185 0.0000 -1.2628 0.0000
# 2 16.3760 46.4677 46.7906 0.0000 -0.8865 0.0000
# 3 53.1185 46.7906 206.0590 0.0000 1.1229 0.0000
# 4 0.0000 0.0000 0.0000 -4.2968 0.0000 -4.4939
# 5 -1.2628 -0.8865 1.1229 0.0000 35.9299 0.0000
# 6 0.0000 0.0000 0.0000 -4.4939 0.0000 7.5222
#
#
#
# Elastic Compliance Matrix: (Units=1/GPa)
#
#
# Indices 1 2 3 4 5 6 
#
# 1 0.007913 -0.000943 -0.001828 0.000000 0.000312 0.000000
# 2 -0.000943 0.028040 -0.006129 0.000000 0.000850 0.000000
# 3 -0.001828 -0.006129 0.006718 0.000000 -0.000425 0.000000
# 4 0.000000 0.000000 0.000000 -0.143235 0.000000 -0.085571
# 5 0.000312 0.000850 -0.000425 0.000000 0.027877 0.000000
# 6 0.000000 0.000000 0.000000 -0.085571 0.000000 0.081819
#
#
# Mechanical properties :
#
#
# Convention : Reuss Voigt Hill
#
# Bulk Modulus (GPa) = 40.20344 69.52650 54.86497
# Shear Modulus (GPa) = 141.95891 26.28994 84.12442
#
# Velocity S-wave (km/s) = 8.22566 3.53984 6.33214
# Velocity P-wave (km/s) = 10.45836 7.06014 8.92252
#
# Compressibility (1/GPa) = 0.02487350
#
# Stress axis : x y z
#
# Youngs Moduli (GPa) = 126.37352 35.66322 148.85164
#
# Poissons Ratio (x) = 0.03361 0.27203
# Poissons Ratio (y) = 0.11911 0.91229
# Poissons Ratio (z) = 0.23095 0.21857
#
# Static dielectric constant tensor:
#      x y z
#    x 4.238360 0.000000 -0.007320 
#    y 0.000000 3.095260 0.000000 
#    z -0.007320 0.000000 4.358400 
# 
# 
# High freq. dielectric constant tensor:
#      x y z
#    x 1.851860 0.000000 0.000840 
#    y 0.000000 1.757430 0.000000 
#    z 0.000840 0.000000 1.854460 
# 
# From -- ./inp_files/330814.got.cif
#   From: 2010.06.25/outbox.cif.g09.slc.cpg/sg12_166_cif.got.tgz:330814.got - 2010.06.28 00:19:55.
