data_PCOD8088664
_publ_section_title
;
Structure prediction by ZEFSAII (Michael W. Deem and Ramdas Pophale) SiO2 
 PCOD8088664
Probable space group: C 2/M
;
_chemical_formula_sum "Si O2"
_cell_formula_units_Z 64
_cell_length_a 24.424969
_cell_length_b 9.150604
_cell_length_c 16.202624
_cell_angle_alpha 90.000000
_cell_angle_beta 88.203109
_cell_angle_gamma 90.000000
_cell_volume 3619.557876
_symmetry_space_group_name_H-M "C 2/M"
_symmetry_group_IT_number 12
_symmetry_cell_setting 'monoclinic'
loop_
_space_group_symop_operation_xyz
x,y,z
-x,y,-z
-x,-y,-z
x,-y,z
1/2+x,1/2+y,z
1/2-x,1/2+y,-z
1/2-x,1/2-y,-z
1/2+x,1/2-y,z
loop_
_atom_site_type_symbol
_atom_site_label
_atom_site_fract_x
_atom_site_fract_y
_atom_site_fract_z
Si Si1 0.008466 0.172946 0.865040
Si Si2 0.431662 0.827612 0.275434
Si Si3 0.200043 0.828621 0.960656
Si Si4 0.323327 0.331275 0.224227
Si Si5 0.942012 0.671257 0.464709
Si Si6 0.247262 0.832547 0.618532
Si Si7 0.417221 0.672631 0.988936
Si Si8 0.835437 0.171136 0.520979
O O1 0.018886 0.256694 0.779215
O O2 0.948938 0.220239 0.904103
O O3 0.011953 0.000000 0.849118
O O4 0.053219 0.228734 0.929387
O O5 0.373779 0.768150 0.247551
O O6 0.441241 0.782036 0.369331
O O7 0.432923 0.000000 0.263417
O O8 0.197380 0.786259 0.864846
O O9 0.207560 0.000000 0.972142
O O10 0.250000 0.750000 0.000000
O O11 0.145077 0.771221 0.009076
O O12 0.342936 0.500000 0.225783
O O13 0.272236 0.304800 0.287396
O O14 0.931332 0.500000 0.476109
O O15 0.894736 0.755008 0.516519
O O16 0.000000 0.718431 0.500000
O O17 0.196795 0.789373 0.561406
O O18 0.300288 0.733098 0.599380
O O19 0.264093 0.000000 0.602227
O O20 0.419316 0.500000 0.995518
O O21 0.843498 0.000000 0.532985
#
# Coordination Sequence:
#
# PCOD8088664 Si02
#       8
#     8   8   8   8   8   8   8   8
#     4   9  16  31  55  78 101 134 173 215 260 309
#     4  11  21  32  52  82 108 132 172 225 269 305
#     4  10  20  35  54  77 107 141 177 213 257 313
#     4  10  19  35  57  78 103 141 182 216 256 314
#     4  10  22  39  55  73 106 149 181 211 265 328
#     4   9  18  32  53  80 108 138 174 216 266 318
#     4   8  15  30  54  77  99 136 178 209 248 309
#     4  10  19  32  54  82 108 136 174 221 268 310
#
# _framework density 17.681716000000002
#
# number of rings (size 3 to 8) (size 9 to 14) (size 15 to 20)
#    0.000    2.375    2.500    1.500    0.000    2.250 
#    0.000    3.125    0.000    4.500    0.000    0.000 
#    0.000    0.000    0.000    0.000    0.000    0.000 
#
# Total GULP energy -396789.811421 kJ/mol
# GULP energy per Si atom -12399.681607 kJ/mol
# Density = 1.764147 g / cm^3
# Si number density = 17.681716 Si / 1000 Ang^3
#
#
#
# Elastic Constant Matrix: (Units=GPa)
#
#
# Indices 1 2 3 4 5 6 
#
# 1 152.0506 51.8695 72.3096 0.0000 -12.9009 0.0000
# 2 51.8695 55.2868 41.4440 0.0000 -6.1516 0.0000
# 3 72.3096 41.4440 104.4499 0.0000 -12.0285 0.0000
# 4 0.0000 0.0000 0.0000 25.7163 0.0000 -3.5011
# 5 -12.9009 -6.1516 -12.0285 0.0000 28.6842 0.0000
# 6 0.0000 0.0000 0.0000 -3.5011 0.0000 30.4851
#
#
#
# Elastic Compliance Matrix: (Units=1/GPa)
#
#
# Indices 1 2 3 4 5 6 
#
# 1 0.011410 -0.006753 -0.005039 0.000000 0.001571 0.000000
# 2 -0.006753 0.029788 -0.007101 0.000000 0.000373 0.000000
# 3 -0.005039 -0.007101 0.016227 0.000000 0.003016 0.000000
# 4 0.000000 0.000000 0.000000 0.039503 0.000000 0.004537
# 5 0.001571 0.000373 0.003016 0.000000 0.036913 0.000000
# 6 0.000000 0.000000 0.000000 0.004537 0.000000 0.033324
#
#
# Mechanical properties :
#
#
# Convention : Reuss Voigt Hill
#
# Bulk Modulus (GPa) = 50.91889 71.44816 61.18353
# Shear Modulus (GPa) = 23.64094 26.72141 25.18117
#
# Velocity S-wave (km/s) = 3.66051 3.89169 3.77787
# Velocity P-wave (km/s) = 6.83562 7.79034 7.32854
#
# Compressibility (1/GPa) = 0.01963908
#
# Stress axis : x y z
#
# Youngs Moduli (GPa) = 87.64407 33.57079 61.62504
#
# Poissons Ratio (x) = 0.22670 0.31051
# Poissons Ratio (y) = 0.59184 0.43763
# Poissons Ratio (z) = 0.44161 0.23840
#
# Static dielectric constant tensor:
#      x y z
#    x 3.408970 0.000000 -0.282070 
#    y 0.000000 3.112340 0.000000 
#    z -0.282070 0.000000 3.359890 
# 
# 
# High freq. dielectric constant tensor:
#      x y z
#    x 1.679520 0.000000 -0.024770 
#    y 0.000000 1.669470 0.000000 
#    z -0.024770 0.000000 1.678030 
# 
# From -- ./inp_files/287661.got.cif
#   From: 2010.06.25/outbox.cif.g09.slc.cpg/sg12_144_cif.got.tgz:287661.got - 2010.06.28 00:19:55.
