data_PCOD8088041
_publ_section_title
;
Structure prediction by ZEFSAII (Michael W. Deem and Ramdas Pophale) SiO2 
 PCOD8088041
Probable space group: C 2/M
;
_chemical_formula_sum "Si O2"
_cell_formula_units_Z 56
_cell_length_a 19.054227
_cell_length_b 8.807466
_cell_length_c 27.389562
_cell_angle_alpha 90.000000
_cell_angle_beta 41.864314
_cell_angle_gamma 90.000000
_cell_volume 3067.561814
_symmetry_space_group_name_H-M "C 2/M"
_symmetry_group_IT_number 12
_symmetry_cell_setting 'monoclinic'
loop_
_space_group_symop_operation_xyz
x,y,z
-x,y,-z
-x,-y,-z
x,-y,z
1/2+x,1/2+y,z
1/2-x,1/2+y,-z
1/2-x,1/2-y,-z
1/2+x,1/2-y,z
loop_
_atom_site_type_symbol
_atom_site_label
_atom_site_fract_x
_atom_site_fract_y
_atom_site_fract_z
Si Si1 0.435646 0.679665 0.640785
Si Si2 0.905914 0.175183 0.940479
Si Si3 0.934625 0.678801 0.079053
Si Si4 0.124752 0.830894 0.430555
Si Si5 0.197945 0.179197 0.196065
Si Si6 0.810866 0.323420 0.899010
Si Si7 0.337982 0.820049 0.490159
O O1 0.458780 0.500000 0.625644
O O2 0.361957 0.728354 0.632391
O O3 0.371780 0.725586 0.721769
O O4 0.546956 0.764800 0.585812
O O5 0.879416 0.223970 0.899825
O O6 0.008620 0.269682 0.901191
O O7 0.934471 0.000000 0.926489
O O8 0.811484 0.213162 0.027075
O O9 0.934673 0.500000 0.075067
O O10 0.816103 0.738934 0.142881
O O11 0.000000 0.750687 0.000000
O O12 0.179818 0.727345 0.443546
O O13 0.000000 0.834032 0.500000
O O14 0.171906 0.000000 0.412582
O O15 0.153882 0.269903 0.172603
O O16 0.193957 0.000000 0.187997
O O17 0.835362 0.500000 0.894197
O O18 0.250000 0.750000 0.500000
O O19 0.330443 0.000000 0.490304
#
# Coordination Sequence:
#
# PCOD8088041 Si02
#       7
#     8   8   8   8   8   8   8
#     4   9  19  36  56  79 109 143 176 213 264 321
#     4  10  20  33  51  73  99 133 177 226 273 319
#     4  10  19  32  52  77 104 135 175 221 268 319
#     4   8  15  31  54  78 106 139 174 211 254 308
#     4  10  20  35  55  78 107 142 176 216 269 323
#     4  10  20  33  51  74 101 135 176 222 271 322
#     4  11  21  34  56  84 111 141 179 219 260 307
#
# _framework density 18.255541000000001
#
# number of rings (size 3 to 8) (size 9 to 14) (size 15 to 20)
#    0.000    2.286    1.429    3.000    0.000    5.143 
#    0.000    1.429    0.000    5.143    0.000    0.000 
#    0.000    0.000    0.000    0.000    0.000    0.000 
#
# Total GULP energy -347095.512302 kJ/mol
# GULP energy per Si atom -12396.268296 kJ/mol
# Density = 1.821399 g / cm^3
# Si number density = 18.255541 Si / 1000 Ang^3
#
#
#
# Elastic Constant Matrix: (Units=GPa)
#
#
# Indices 1 2 3 4 5 6 
#
# 1 101.1464 27.0544 51.1594 0.0000 11.9760 -0.0008
# 2 27.0544 41.5884 32.5279 0.0000 2.3667 -0.0015
# 3 51.1594 32.5279 103.2271 0.0000 20.6221 -0.0001
# 4 0.0000 0.0000 0.0000 21.7946 0.0000 4.2068
# 5 11.9760 2.3667 20.6221 0.0000 28.4428 0.0000
# 6 -0.0008 -0.0015 -0.0001 4.2068 0.0000 34.4104
#
#
#
# Elastic Compliance Matrix: (Units=1/GPa)
#
#
# Indices 1 2 3 4 5 6 
#
# 1 0.013977 -0.005124 -0.004937 0.000000 -0.001879 0.000000
# 2 -0.005124 0.034519 -0.009583 0.000000 0.006233 0.000001
# 3 -0.004937 -0.009583 0.017049 0.000000 -0.009485 -0.000001
# 4 0.000000 0.000000 0.000000 0.046992 0.000000 -0.005745
# 5 -0.001879 0.006233 -0.009485 0.000000 0.042308 0.000000
# 6 0.000000 0.000001 -0.000001 -0.005745 0.000000 0.029763
#
#
# Mechanical properties :
#
#
# Convention : Reuss Voigt Hill
#
# Bulk Modulus (GPa) = 38.08572 51.93836 45.01204
# Shear Modulus (GPa) = 21.49176 25.94425 23.71800
#
# Velocity S-wave (km/s) = 3.43486 3.77393 3.60838
# Velocity P-wave (km/s) = 6.05301 6.89221 6.48620
#
# Compressibility (1/GPa) = 0.02625656
#
# Stress axis : x y z
#
# Youngs Moduli (GPa) = 71.54735 28.96948 58.65582
#
# Poissons Ratio (x) = 0.14844 0.28957
# Poissons Ratio (y) = 0.36661 0.56210
# Poissons Ratio (z) = 0.35322 0.27762
#
# Static dielectric constant tensor:
#      x y z
#    x 3.499160 0.000000 0.266420 
#    y 0.000000 3.243330 0.000000 
#    z 0.266420 0.000000 3.401570 
# 
# 
# High freq. dielectric constant tensor:
#      x y z
#    x 1.713160 0.000000 0.019920 
#    y 0.000000 1.702130 0.000000 
#    z 0.019920 0.000000 1.683580 
# 
# From -- ./inp_files/313300.got.cif
#   From: 2010.06.25/outbox.cif.g09.slc.cpg/sg12_157_cif.got.tgz:313300.got - 2010.06.28 00:19:55.
