data_PCOD8088000
_publ_section_title
;
Structure prediction by ZEFSAII (Michael W. Deem and Ramdas Pophale) SiO2 
 PCOD8088000
Probable space group: C 2/M
;
_chemical_formula_sum "Si O2"
_cell_formula_units_Z 64
_cell_length_a 26.918567
_cell_length_b 20.472801
_cell_length_c 12.191235
_cell_angle_alpha 90.000000
_cell_angle_beta 28.616765
_cell_angle_gamma 90.000000
_cell_volume 3217.851061
_symmetry_space_group_name_H-M "C 2/M"
_symmetry_group_IT_number 12
_symmetry_cell_setting 'monoclinic'
loop_
_space_group_symop_operation_xyz
x,y,z
-x,y,-z
-x,-y,-z
x,-y,z
1/2+x,1/2+y,z
1/2-x,1/2+y,-z
1/2-x,1/2-y,-z
1/2+x,1/2-y,z
loop_
_atom_site_type_symbol
_atom_site_label
_atom_site_fract_x
_atom_site_fract_y
_atom_site_fract_z
Si Si1 0.621558 0.075089 0.248095
Si Si2 0.882053 0.816932 0.210240
Si Si3 0.740369 0.924296 0.400782
Si Si4 0.248790 0.351621 0.182032
Si Si5 0.568322 0.722095 0.126213
Si Si6 0.837235 0.224580 0.531559
Si Si7 0.489571 0.929675 0.145786
Si Si8 0.851766 0.355979 0.023484
O O1 0.500000 0.087257 0.500000
O O2 0.683325 0.124786 0.206020
O O3 0.650255 0.000000 0.218444
O O4 0.656354 0.091228 0.057307
O O5 0.810295 0.881753 0.347888
O O6 0.842618 0.770867 0.387386
O O7 0.877480 0.778682 0.102211
O O8 0.000000 0.840231 0.000000
O O9 0.777282 0.913123 0.204520
O O10 0.622503 0.896725 0.621644
O O11 0.746614 0.000000 0.424469
O O12 0.188862 0.294315 0.365089
O O13 0.362543 0.323841 0.927559
O O14 0.449744 0.700416 0.355995
O O15 0.579886 0.794962 0.150675
O O16 0.761012 0.166909 0.718116
O O17 0.492083 0.000000 0.203900
O O18 0.500000 0.944040 0.000000
O O19 0.584858 0.885841 0.998386
#
# Coordination Sequence:
#
# PCOD8088000 Si02
#       8
#     8   8   8   8   8   8   8   8
#     4  11  23  40  61  82 108 142 183 233 282 330
#     4   9  19  35  54  81 116 151 185 222 270 328
#     4  10  19  32  52  76 104 142 187 229 269 322
#     4  10  21  36  56  79 106 143 186 230 278 325
#     4   9  20  35  55  84 114 145 181 223 272 328
#     4  10  20  36  57  83 116 147 181 226 275 331
#     4  10  20  32  48  75 109 140 173 216 268 328
#     4  11  22  35  57  83 109 143 182 226 278 329
#
# _framework density 19.889050000000001
#
# number of rings (size 3 to 8) (size 9 to 14) (size 15 to 20)
#    0.000    2.000    0.000    3.750    0.000   11.250 
#    0.000    2.500    0.000    8.250    0.000    0.000 
#    0.000    0.000    0.000    0.000    0.000    0.000 
#
# Total GULP energy -396555.311375 kJ/mol
# GULP energy per Si atom -12392.353480 kJ/mol
# Density = 1.984378 g / cm^3
# Si number density = 19.889050 Si / 1000 Ang^3
#
#
#
# Elastic Constant Matrix: (Units=GPa)
#
#
# Indices 1 2 3 4 5 6 
#
# 1 107.8965 49.2244 34.9538 0.0000 -18.2197 0.0000
# 2 49.2244 88.6462 37.5256 0.0000 -13.2393 0.0000
# 3 34.9538 37.5256 85.6758 0.0000 -16.5096 0.0000
# 4 0.0000 0.0000 0.0000 28.1848 0.0000 -10.9874
# 5 -18.2197 -13.2393 -16.5096 0.0000 28.8006 0.0000
# 6 0.0000 0.0000 0.0000 -10.9874 0.0000 43.0730
#
#
#
# Elastic Compliance Matrix: (Units=1/GPa)
#
#
# Indices 1 2 3 4 5 6 
#
# 1 0.013383 -0.005902 -0.001986 0.000000 0.004615 0.000000
# 2 -0.005902 0.016727 -0.004672 0.000000 0.001277 0.000000
# 3 -0.001986 -0.004672 0.015595 0.000000 0.005536 0.000000
# 4 0.000000 0.000000 0.000000 0.039398 0.000000 0.010050
# 5 0.004615 0.001277 0.005536 0.000000 0.041402 0.000000
# 6 0.000000 0.000000 0.000000 0.010050 0.000000 0.025780
#
#
# Mechanical properties :
#
#
# Convention : Reuss Voigt Hill
#
# Bulk Modulus (GPa) = 48.57794 58.40287 53.49040
# Shear Modulus (GPa) = 27.13469 30.71265 28.92367
#
# Velocity S-wave (km/s) = 3.69765 3.93389 3.81760
# Velocity P-wave (km/s) = 6.53511 7.07546 6.81065
#
# Compressibility (1/GPa) = 0.02058548
#
# Stress axis : x y z
#
# Youngs Moduli (GPa) = 74.72029 59.78514 64.12215
#
# Poissons Ratio (x) = 0.35283 0.12734
# Poissons Ratio (y) = 0.44097 0.29960
# Poissons Ratio (z) = 0.14838 0.27933
#
# Static dielectric constant tensor:
#      x y z
#    x 3.613700 0.000000 -0.131520 
#    y 0.000000 3.708840 0.000000 
#    z -0.131520 0.000000 2.556820 
# 
# 
# High freq. dielectric constant tensor:
#      x y z
#    x 1.775130 0.000000 -0.020660 
#    y 0.000000 1.770010 0.000000 
#    z -0.020660 0.000000 1.766840 
# 
# From -- ./inp_files/184682.got.cif
#   From: 2010.06.25/outbox.cif.g09.slc.cpg/sg12_93_cif.got.tgz:184682.got - 2010.06.28 00:19:55.
