data_PCOD8088697
_publ_section_title
;
Structure prediction by ZEFSAII (Michael W. Deem and Ramdas Pophale) SiO2 
 PCOD8088697
Probable space group: C 2/M
;
_chemical_formula_sum "Si O2"
_cell_formula_units_Z 64
_cell_length_a 15.544339
_cell_length_b 8.926921
_cell_length_c 25.257447
_cell_angle_alpha 90.000000
_cell_angle_beta 71.215549
_cell_angle_gamma 90.000000
_cell_volume 3318.123951
_symmetry_space_group_name_H-M "C 2/M"
_symmetry_group_IT_number 12
_symmetry_cell_setting 'monoclinic'
loop_
_space_group_symop_operation_xyz
x,y,z
-x,y,-z
-x,-y,-z
x,-y,z
1/2+x,1/2+y,z
1/2-x,1/2+y,-z
1/2-x,1/2-y,-z
1/2+x,1/2-y,z
loop_
_atom_site_type_symbol
_atom_site_label
_atom_site_fract_x
_atom_site_fract_y
_atom_site_fract_z
Si Si1 0.041810 0.676116 0.935121
Si Si2 0.286484 0.328010 0.752627
Si Si3 0.608197 0.823363 0.627533
Si Si4 0.968702 0.673236 0.741093
Si Si5 0.294410 0.673610 0.631090
Si Si6 0.520814 0.822002 0.437566
Si Si7 0.418959 0.827135 0.865709
Si Si8 0.275335 0.677978 0.134173
O O1 0.057100 0.500000 0.923193
O O2 0.138857 0.756292 0.913472
O O3 0.972559 0.744850 0.904757
O O4 0.000000 0.712977 0.000000
O O5 0.276580 0.500000 0.771677
O O6 0.390572 0.279118 0.734765
O O7 0.256537 0.303549 0.698031
O O8 0.224198 0.231424 0.804766
O O9 0.559089 0.778452 0.692207
O O10 0.712654 0.769145 0.609109
O O11 0.555533 0.755301 0.587226
O O12 0.607577 0.000000 0.622398
O O13 0.941914 0.500000 0.735213
O O14 0.981548 0.697933 0.801378
O O15 0.319120 0.500000 0.616457
O O16 0.380907 0.773202 0.601609
O O17 0.500000 0.757599 0.500000
O O18 0.518786 0.000000 0.438029
O O19 0.317444 0.761052 0.875845
O O20 0.405630 0.000000 0.881437
O O21 0.279028 0.500000 0.132651
#
# Coordination Sequence:
#
# PCOD8088697 Si02
#       8
#     8   8   8   8   8   8   8   8
#     4  10  21  37  57  81 109 142 181 225 269 315
#     4  10  19  32  54  82 112 138 174 224 272 316
#     4   9  18  33  54  79 107 143 179 211 266 329
#     4   9  16  31  56  77 104 145 179 211 261 326
#     4  10  21  35  55  82 109 143 180 218 268 326
#     4  10  21  38  58  78 106 144 184 225 264 310
#     4   8  17  33  54  78 106 142 179 211 263 328
#     4  10  21  37  56  79 108 146 183 218 266 322
#
# _framework density 19.288008999999999
#
# number of rings (size 3 to 8) (size 9 to 14) (size 15 to 20)
#    0.000    2.500    1.250    1.500    1.750    2.000 
#    0.000    4.375    0.000    0.000    0.000    0.000 
#    0.000    0.000    0.000    0.000    0.000    0.000 
#
# Total GULP energy -396667.863030 kJ/mol
# GULP energy per Si atom -12395.870720 kJ/mol
# Density = 1.924411 g / cm^3
# Si number density = 19.288009 Si / 1000 Ang^3
#
#
#
# Elastic Constant Matrix: (Units=GPa)
#
#
# Indices 1 2 3 4 5 6 
#
# 1 107.4245 16.3662 45.6443 0.0000 18.6867 0.0000
# 2 16.3662 32.9889 25.3021 0.0000 1.6649 0.0000
# 3 45.6443 25.3021 97.4682 0.0000 15.1915 0.0000
# 4 0.0000 0.0000 0.0000 22.0878 0.0000 -6.9634
# 5 18.6867 1.6649 15.1915 0.0000 27.6319 0.0000
# 6 0.0000 0.0000 0.0000 -6.9634 0.0000 21.2427
#
#
#
# Elastic Compliance Matrix: (Units=1/GPa)
#
#
# Indices 1 2 3 4 5 6 
#
# 1 0.012568 -0.002666 -0.004259 0.000000 -0.005997 0.000000
# 2 -0.002666 0.038711 -0.009535 0.000000 0.004713 0.000000
# 3 -0.004259 -0.009535 0.015521 0.000000 -0.005079 0.000000
# 4 0.000000 0.000000 0.000000 0.050492 0.000000 0.016551
# 5 -0.005997 0.004713 -0.005079 0.000000 0.042754 0.000000
# 6 0.000000 0.000000 0.000000 0.016551 0.000000 0.052501
#
#
# Mechanical properties :
#
#
# Convention : Reuss Voigt Hill
#
# Bulk Modulus (GPa) = 29.51572 45.83408 37.67490
# Shear Modulus (GPa) = 19.47346 24.23042 21.85194
#
# Velocity S-wave (km/s) = 3.18089 3.54820 3.36955
# Velocity P-wave (km/s) = 5.36904 6.37188 5.89184
#
# Compressibility (1/GPa) = 0.03388025
#
# Stress axis : x y z
#
# Youngs Moduli (GPa) = 79.56876 25.83216 64.42913
#
# Poissons Ratio (x) = 0.06887 0.27438
# Poissons Ratio (y) = 0.21213 0.61435
# Poissons Ratio (z) = 0.33886 0.24632
#
# Static dielectric constant tensor:
#      x y z
#    x 3.816550 0.000000 0.246290 
#    y 0.000000 3.215030 0.000000 
#    z 0.246290 0.000000 3.671750 
# 
# 
# High freq. dielectric constant tensor:
#      x y z
#    x 1.755220 0.000000 0.003590 
#    y 0.000000 1.716960 0.000000 
#    z 0.003590 0.000000 1.751220 
# 
# From -- ./inp_files/359749.got.cif
#   From: 2010.06.25/outbox.cif.g09.slc.cpg/sg12_180_cif.got.tgz:359749.got - 2010.06.28 00:19:55.
