data_PCOD8088423
_publ_section_title
;
Structure prediction by ZEFSAII (Michael W. Deem and Ramdas Pophale) SiO2 
 PCOD8088423
Probable space group: C 2/M
;
_chemical_formula_sum "Si O2"
_cell_formula_units_Z 64
_cell_length_a 30.378573
_cell_length_b 9.173431
_cell_length_c 24.213096
_cell_angle_alpha 90.000000
_cell_angle_beta 29.158771
_cell_angle_gamma 90.000000
_cell_volume 3287.643785
_symmetry_space_group_name_H-M "C 2/M"
_symmetry_group_IT_number 12
_symmetry_cell_setting 'monoclinic'
loop_
_space_group_symop_operation_xyz
x,y,z
-x,y,-z
-x,-y,-z
x,-y,z
1/2+x,1/2+y,z
1/2-x,1/2+y,-z
1/2-x,1/2-y,-z
1/2+x,1/2-y,z
loop_
_atom_site_type_symbol
_atom_site_label
_atom_site_fract_x
_atom_site_fract_y
_atom_site_fract_z
Si Si1 0.678289 0.172564 0.738192
Si Si2 0.483386 0.662737 0.457838
Si Si3 0.640082 0.826256 0.492248
Si Si4 0.187385 0.840726 0.205717
Si Si5 0.841350 0.668487 0.116795
Si Si6 0.322336 0.830918 0.886099
Si Si7 0.501026 0.828079 0.864646
Si Si8 0.009234 0.672533 0.731059
O O1 0.761956 0.254614 0.618639
O O2 0.658343 0.234620 0.821751
O O3 0.592449 0.213213 0.795541
O O4 0.698331 0.000000 0.716949
O O5 0.500000 0.731025 0.500000
O O6 0.438574 0.500000 0.510657
O O7 0.421021 0.769849 0.491228
O O8 0.581201 0.647470 0.325367
O O9 0.596050 0.778358 0.599475
O O10 0.646934 0.000000 0.479853
O O11 0.240184 0.805026 0.204489
O O12 0.205870 0.707474 0.145034
O O13 0.223513 0.000000 0.144796
O O14 0.866446 0.500000 0.095699
O O15 0.916393 0.737676 0.992771
O O16 0.421255 0.772583 0.794358
O O17 0.314483 0.000000 0.905019
O O18 0.250000 0.750000 0.000000
O O19 0.507435 0.761186 0.795343
O O20 0.488005 0.000000 0.873827
O O21 0.009336 0.500000 0.735127
#
# Coordination Sequence:
#
# PCOD8088423 Si02
#       8
#     8   8   8   8   8   8   8   8
#     4  10  20  35  58  86 110 140 188 241 287 333
#     4  10  20  35  56  82 112 145 184 232 277 321
#     4  11  22  37  55  78 113 155 191 227 277 340
#     4  10  19  32  53  80 110 143 178 218 273 330
#     4   9  17  32  56  86 115 140 178 233 289 339
#     4  11  21  35  54  78 111 146 184 226 270 326
#     4   9  17  32  57  84 108 141 187 237 287 335
#     4   9  19  35  54  78 111 147 185 231 279 331
#
# _framework density 19.466829000000001
#
# number of rings (size 3 to 8) (size 9 to 14) (size 15 to 20)
#    0.000    2.125    1.250    2.625    0.000    6.250 
#    0.000    1.875    0.000    6.000    0.000    0.000 
#    0.000    0.000    0.000    0.000    0.000    0.000 
#
# Total GULP energy -396572.474947 kJ/mol
# GULP energy per Si atom -12392.889842 kJ/mol
# Density = 1.942252 g / cm^3
# Si number density = 19.466829 Si / 1000 Ang^3
#
#
#
# Elastic Constant Matrix: (Units=GPa)
#
#
# Indices 1 2 3 4 5 6 
#
# 1 108.2343 28.8267 30.6840 -0.0057 9.1856 0.0057
# 2 28.8267 44.1128 29.3284 -0.0319 -2.4419 0.0343
# 3 30.6840 29.3284 102.1506 -0.0183 6.2140 0.0161
# 4 -0.0057 -0.0319 -0.0183 27.3293 0.0040 1.0409
# 5 9.1856 -2.4419 6.2140 0.0040 38.8916 -0.0043
# 6 0.0057 0.0343 0.0161 1.0409 -0.0043 10.1457
#
#
#
# Elastic Compliance Matrix: (Units=1/GPa)
#
#
# Indices 1 2 3 4 5 6 
#
# 1 0.011720 -0.006927 -0.001350 -0.000007 -0.002987 0.000018
# 2 -0.006927 0.032480 -0.007541 0.000034 0.004880 -0.000095
# 3 -0.001350 -0.007541 0.012491 -0.000001 -0.002150 0.000006
# 4 -0.000007 0.000034 -0.000001 0.036734 0.000000 -0.003769
# 5 -0.002987 0.004880 -0.002150 0.000000 0.027068 0.000000
# 6 0.000018 -0.000095 0.000006 -0.003769 0.000000 0.098951
#
#
# Mechanical properties :
#
#
# Convention : Reuss Voigt Hill
#
# Bulk Modulus (GPa) = 39.91284 48.01953 43.96618
# Shear Modulus (GPa) = 19.27284 26.31723 22.79503
#
# Velocity S-wave (km/s) = 3.14990 3.68081 3.42565
# Velocity P-wave (km/s) = 5.81177 6.54105 6.18717
#
# Compressibility (1/GPa) = 0.02505459
#
# Stress axis : x y z
#
# Youngs Moduli (GPa) = 85.32188 30.78839 80.05734
#
# Poissons Ratio (x) = 0.21326 0.10809
# Poissons Ratio (y) = 0.59100 0.60375
# Poissons Ratio (z) = 0.11519 0.23219
#
# Static dielectric constant tensor:
#      x y z
#    x 3.596360 0.000000 0.065850 
#    y 0.000000 3.140790 0.000010 
#    z 0.065850 0.000010 3.709070 
# 
# 
# High freq. dielectric constant tensor:
#      x y z
#    x 1.766320 0.000000 0.003640 
#    y 0.000000 1.707850 0.000000 
#    z 0.003640 0.000000 1.771560 
# 
# From -- ./inp_files/243871.got.cif
#   From: 2010.06.25/outbox.cif.g09.slc.cpg/sg12_122_cif.got.tgz:243871.got - 2010.06.28 00:19:55.
