data_PCOD8088020
_publ_section_title
;
Structure prediction by ZEFSAII (Michael W. Deem and Ramdas Pophale) SiO2 
 PCOD8088020
Probable space group: C 2/M
;
_chemical_formula_sum "Si O2"
_cell_formula_units_Z 64
_cell_length_a 28.095112
_cell_length_b 8.619035
_cell_length_c 14.579688
_cell_angle_alpha 90.000000
_cell_angle_beta 75.414098
_cell_angle_gamma 90.000000
_cell_volume 3416.727319
_symmetry_space_group_name_H-M "C 2/M"
_symmetry_group_IT_number 12
_symmetry_cell_setting 'monoclinic'
loop_
_space_group_symop_operation_xyz
x,y,z
-x,y,-z
-x,-y,-z
x,-y,z
1/2+x,1/2+y,z
1/2-x,1/2+y,-z
1/2-x,1/2-y,-z
1/2+x,1/2-y,z
loop_
_atom_site_type_symbol
_atom_site_label
_atom_site_fract_x
_atom_site_fract_y
_atom_site_fract_z
Si Si1 0.383815 0.184905 0.605604
Si Si2 0.316305 0.682415 0.782977
Si Si3 0.412370 0.185027 0.393991
Si Si4 0.640858 0.317152 0.050878
Si Si5 0.985213 0.331557 0.611766
Si Si6 0.709952 0.682507 0.855076
Si Si7 0.126321 0.316930 0.780910
Si Si8 0.943761 0.816523 0.038174
O O1 0.335073 0.244398 0.679046
O O2 0.384127 0.243243 0.499514
O O3 0.431895 0.253962 0.637333
O O4 0.385571 0.000000 0.606865
O O5 0.322252 0.500000 0.773562
O O6 0.347949 0.751355 0.853606
O O7 0.259836 0.723585 0.823122
O O8 0.468552 0.255790 0.362093
O O9 0.382808 0.237860 0.319016
O O10 0.417823 0.000000 0.395082
O O11 0.644701 0.500000 0.054035
O O12 0.682868 0.258871 0.960426
O O13 0.586981 0.268665 0.038658
O O14 0.978251 0.500000 0.662205
O O15 0.000000 0.356411 0.500000
O O16 0.720759 0.500000 0.849874
O O17 0.674812 0.724606 0.787217
O O18 0.135388 0.500000 0.784033
O O19 0.078908 0.271186 0.863934
O O20 0.939471 0.000000 0.057630
O O21 0.000000 0.762870 0.000000
#
# Coordination Sequence:
#
# PCOD8088020 Si02
#       8
#     8   8   8   8   8   8   8   8
#     4   9  17  31  50  73 101 133 168 201 238 291
#     4  11  21  33  50  74 102 127 157 206 260 294
#     4   8  15  29  50  74 101 133 167 203 242 288
#     4   8  17  33  52  73  98 129 163 199 241 292
#     4   7  11  23  45  69  92 123 162 197 227 269
#     4  10  20  37  56  72  93 126 168 205 246 305
#     4  10  19  32  52  77 102 129 165 209 253 290
#     4   9  18  34  53  74 105 142 172 197 233 288
#
# _framework density 18.731373999999999
#
# number of rings (size 3 to 8) (size 9 to 14) (size 15 to 20)
#    0.000    3.000    0.000    3.750    0.000    1.250 
#    0.000    7.500    0.000    4.125    0.000    0.000 
#    0.000    0.000    0.000    0.000    0.000    0.000 
#
# Total GULP energy -396492.959469 kJ/mol
# GULP energy per Si atom -12390.404983 kJ/mol
# Density = 1.868874 g / cm^3
# Si number density = 18.731374 Si / 1000 Ang^3
#
#
#
# Elastic Constant Matrix: (Units=GPa)
#
#
# Indices 1 2 3 4 5 6 
#
# 1 107.3335 5.1760 61.4513 0.0000 0.7199 0.0000
# 2 5.1760 21.2273 15.1698 0.0000 2.4908 0.0000
# 3 61.4513 15.1698 102.2762 0.0000 11.9326 0.0000
# 4 0.0000 0.0000 0.0000 20.3554 0.0000 0.5601
# 5 0.7199 2.4908 11.9326 0.0000 30.4240 0.0000
# 6 0.0000 0.0000 0.0000 0.5601 0.0000 14.0374
#
#
#
# Elastic Compliance Matrix: (Units=1/GPa)
#
#
# Indices 1 2 3 4 5 6 
#
# 1 0.014657 0.002921 -0.009611 0.000000 0.003184 0.000000
# 2 0.002921 0.053327 -0.009586 0.000000 -0.000675 0.000000
# 3 -0.009611 -0.009586 0.017664 0.000000 -0.005916 0.000000
# 4 0.000000 0.000000 0.000000 0.049181 0.000000 -0.001962
# 5 0.003184 -0.000675 -0.005916 0.000000 0.035169 0.000000
# 6 0.000000 0.000000 0.000000 -0.001962 0.000000 0.071316
#
#
# Mechanical properties :
#
#
# Convention : Reuss Voigt Hill
#
# Bulk Modulus (GPa) = 18.83381 43.82567 31.32974
# Shear Modulus (GPa) = 17.14881 22.89935 20.02408
#
# Velocity S-wave (km/s) = 3.02903 3.50024 3.27312
# Velocity P-wave (km/s) = 4.72333 6.30740 5.57194
#
# Compressibility (1/GPa) = 0.05309599
#
# Stress axis : x y z
#
# Youngs Moduli (GPa) = 68.22548 18.75238 56.61142
#
# Poissons Ratio (x) = -0.05478 0.54411
# Poissons Ratio (y) = -0.19929 0.54267
# Poissons Ratio (z) = 0.65574 0.17976
#
# Static dielectric constant tensor:
#      x y z
#    x 3.724510 0.000000 0.135700 
#    y 0.000000 3.037060 0.000000 
#    z 0.135700 0.000000 3.501500 
# 
# 
# High freq. dielectric constant tensor:
#      x y z
#    x 1.734750 0.000000 0.003680 
#    y 0.000000 1.690840 0.000000 
#    z 0.003680 0.000000 1.715670 
# 
# From -- ./inp_files/243811.got.cif
#   From: 2010.06.25/outbox.cif.g09.slc.cpg/sg12_122_cif.got.tgz:243811.got - 2010.06.28 00:19:55.
