data_PCOD8088160
_publ_section_title
;
Structure prediction by ZEFSAII (Michael W. Deem and Ramdas Pophale) SiO2 
 PCOD8088160
Probable space group: C 2/M
;
_chemical_formula_sum "Si O2"
_cell_formula_units_Z 56
_cell_length_a 20.621040
_cell_length_b 8.775383
_cell_length_c 17.646878
_cell_angle_alpha 90.000000
_cell_angle_beta 108.205495
_cell_angle_gamma 90.000000
_cell_volume 3033.483661
_symmetry_space_group_name_H-M "C 2/M"
_symmetry_group_IT_number 12
_symmetry_cell_setting 'monoclinic'
loop_
_space_group_symop_operation_xyz
x,y,z
-x,y,-z
-x,-y,-z
x,-y,z
1/2+x,1/2+y,z
1/2-x,1/2+y,-z
1/2-x,1/2-y,-z
1/2+x,1/2-y,z
loop_
_atom_site_type_symbol
_atom_site_label
_atom_site_fract_x
_atom_site_fract_y
_atom_site_fract_z
Si Si1 0.171690 0.320691 0.653676
Si Si2 0.065842 0.319042 0.742266
Si Si3 0.809527 0.325047 0.755003
Si Si4 0.202844 0.323602 0.081436
Si Si5 0.913603 0.678779 0.663414
Si Si6 0.157125 0.320559 0.906759
Si Si7 0.177934 0.179636 0.496208
O O1 0.166807 0.500000 0.637555
O O2 0.115941 0.263412 0.693868
O O3 0.247244 0.282765 0.710122
O O4 0.154908 0.234225 0.570218
O O5 0.062972 0.500000 0.742791
O O6 0.094423 0.255400 0.833570
O O7 0.989952 0.255816 0.701136
O O8 0.786067 0.500000 0.735185
O O9 0.832743 0.294814 0.850457
O O10 0.874251 0.286683 0.727006
O O11 0.221119 0.500000 0.076166
O O12 0.272819 0.232106 0.105552
O O13 0.153396 0.269197 0.994024
O O14 0.912437 0.500000 0.643258
O O15 0.880020 0.770361 0.583060
O O16 0.155381 0.500000 0.899038
O O17 0.250000 0.250000 0.500000
O O18 0.186431 0.000000 0.498453
#
# Coordination Sequence:
#
# PCOD8088160 Si02
#       7
#     8   8   8   8   8   8   8
#     4  11  21  35  58  82 107 141 184 225 265 317
#     4   9  19  35  55  80 109 147 185 221 267 322
#     4  10  19  32  52  80 109 141 181 226 271 317
#     4   9  17  28  48  79 109 137 178 229 273 311
#     4  10  21  38  57  77 109 147 183 221 270 325
#     4   9  16  30  50  75 107 142 180 222 268 320
#     4  12  24  39  58  83 110 138 178 224 273 322
#
# _framework density 18.460623999999999
#
# number of rings (size 3 to 8) (size 9 to 14) (size 15 to 20)
#    0.000    2.000    2.857    1.714    0.000    0.571 
#    0.000    5.714    0.000    4.286    0.000    0.000 
#    0.000    6.857    0.000    0.000    0.000    0.000 
#
# Total GULP energy -347136.218814 kJ/mol
# GULP energy per Si atom -12397.722100 kJ/mol
# Density = 1.841861 g / cm^3
# Si number density = 18.460624 Si / 1000 Ang^3
#
#
#
# Elastic Constant Matrix: (Units=GPa)
#
#
# Indices 1 2 3 4 5 6 
#
# 1 116.7483 31.5036 77.7403 0.0000 5.3418 0.0000
# 2 31.5036 53.7502 42.7365 0.0000 0.1837 0.0000
# 3 77.7403 42.7365 181.5402 0.0000 -1.3263 0.0000
# 4 0.0000 0.0000 0.0000 24.2250 0.0000 0.5998
# 5 5.3418 0.1837 -1.3263 0.0000 33.5708 0.0000
# 6 0.0000 0.0000 0.0000 0.5998 0.0000 20.4612
#
#
#
# Elastic Compliance Matrix: (Units=1/GPa)
#
#
# Indices 1 2 3 4 5 6 
#
# 1 0.012742 -0.003826 -0.004572 0.000000 -0.002187 0.000000
# 2 -0.003826 0.024041 -0.004019 0.000000 0.000318 0.000000
# 3 -0.004572 -0.004019 0.008420 0.000000 0.001082 0.000000
# 4 0.000000 0.000000 0.000000 0.041310 0.000000 -0.001211
# 5 -0.002187 0.000318 0.001082 0.000000 0.030177 0.000000
# 6 0.000000 0.000000 0.000000 -0.001211 0.000000 0.048909
#
#
# Mechanical properties :
#
#
# Convention : Reuss Voigt Hill
#
# Bulk Modulus (GPa) = 49.09068 72.88880 60.98974
# Shear Modulus (GPa) = 25.35212 28.98862 27.17037
#
# Velocity S-wave (km/s) = 3.70984 3.96699 3.84057
# Velocity P-wave (km/s) = 6.70823 7.78150 7.26472
#
# Compressibility (1/GPa) = 0.02037046
#
# Stress axis : x y z
#
# Youngs Moduli (GPa) = 78.47940 41.59518 118.76156
#
# Poissons Ratio (x) = 0.15913 0.54297
# Poissons Ratio (y) = 0.30024 0.47730
# Poissons Ratio (z) = 0.35880 0.16717
#
# Static dielectric constant tensor:
#      x y z
#    x 3.419040 0.000000 -0.031130 
#    y 0.000000 3.255090 0.000000 
#    z -0.031130 0.000000 3.946840 
# 
# 
# High freq. dielectric constant tensor:
#      x y z
#    x 1.695780 0.000000 -0.010970 
#    y 0.000000 1.699050 0.000000 
#    z -0.010970 0.000000 1.737390 
# 
# From -- ./inp_files/281721.got.cif
#   From: 2010.06.25/outbox.cif.g09.slc.cpg/sg12_141_cif.got.tgz:281721.got - 2010.06.28 00:19:55.
