data_PCOD8088770
_publ_section_title
;
Structure prediction by ZEFSAII (Michael W. Deem and Ramdas Pophale) SiO2 
 PCOD8088770
Probable space group: C 2/M
;
_chemical_formula_sum "Si O2"
_cell_formula_units_Z 64
_cell_length_a 30.687639
_cell_length_b 8.895943
_cell_length_c 20.006868
_cell_angle_alpha 90.000000
_cell_angle_beta 142.827900
_cell_angle_gamma 90.000000
_cell_volume 3300.071342
_symmetry_space_group_name_H-M "C 2/M"
_symmetry_group_IT_number 12
_symmetry_cell_setting 'monoclinic'
loop_
_space_group_symop_operation_xyz
x,y,z
-x,y,-z
-x,-y,-z
x,-y,z
1/2+x,1/2+y,z
1/2-x,1/2+y,-z
1/2-x,1/2-y,-z
1/2+x,1/2-y,z
loop_
_atom_site_type_symbol
_atom_site_label
_atom_site_fract_x
_atom_site_fract_y
_atom_site_fract_z
Si Si1 0.920415 0.173232 0.792658
Si Si2 0.582862 0.323397 0.588276
Si Si3 0.682313 0.674176 0.452853
Si Si4 0.327811 0.321404 0.800056
Si Si5 0.822659 0.175919 0.169244
Si Si6 0.159271 0.324331 0.946451
Si Si7 0.421730 0.321263 0.037119
Si Si8 0.831304 0.321433 0.422655
O O1 0.886049 0.193876 0.678313
O O2 0.870814 0.249199 0.789323
O O3 0.000292 0.243776 0.888915
O O4 0.928170 0.000000 0.821752
O O5 0.500000 0.278897 0.500000
O O6 0.591132 0.500000 0.586316
O O7 0.633440 0.270772 0.711732
O O8 0.606841 0.238846 0.550547
O O9 0.700433 0.500000 0.488187
O O10 0.750000 0.750000 0.500000
O O11 0.658833 0.755290 0.491748
O O12 0.328666 0.500000 0.796316
O O13 0.245808 0.264140 0.699230
O O14 0.364474 0.263984 0.912553
O O15 0.853215 0.264965 0.143403
O O16 0.834068 0.000000 0.170089
O O17 0.738088 0.216197 0.072731
O O18 0.145874 0.500000 0.929981
O O19 0.098923 0.245859 0.917064
O O20 0.423043 0.500000 0.044886
O O21 0.835995 0.500000 0.432667
#
# Coordination Sequence:
#
# PCOD8088770 Si02
#       8
#     8   8   8   8   8   8   8   8
#     4   9  18  33  54  80 108 140 183 230 270 316
#     4  10  22  40  60  83 112 146 187 235 282 331
#     4  11  21  37  59  82 112 147 189 235 277 325
#     4   9  17  32  55  82 108 138 183 230 270 320
#     4   9  19  37  59  79 104 141 184 224 270 329
#     4  10  20  34  54  80 111 141 174 224 275 327
#     4  10  19  32  55  81 107 142 181 223 272 327
#     4  11  22  37  59  86 115 147 187 231 278 337
#
# _framework density 19.393519000000001
#
# number of rings (size 3 to 8) (size 9 to 14) (size 15 to 20)
#    0.000    2.125    1.250    2.250    0.000    3.750 
#    0.000    6.875    0.000    0.750    0.000    0.000 
#    0.000    0.000    0.000    0.000    0.000    0.000 
#
# Total GULP energy -396835.600602 kJ/mol
# GULP energy per Si atom -12401.112519 kJ/mol
# Density = 1.934938 g / cm^3
# Si number density = 19.393519 Si / 1000 Ang^3
#
#
#
# Elastic Constant Matrix: (Units=GPa)
#
#
# Indices 1 2 3 4 5 6 
#
# 1 155.8137 47.5342 45.4447 0.0000 -6.3688 0.0000
# 2 47.5342 52.1021 23.7517 0.0000 -5.8886 0.0000
# 3 45.4447 23.7517 56.8167 0.0000 -7.6882 0.0000
# 4 0.0000 0.0000 0.0000 23.2020 0.0000 -3.2499
# 5 -6.3688 -5.8886 -7.6882 0.0000 29.5121 0.0000
# 6 0.0000 0.0000 0.0000 -3.2499 0.0000 31.0480
#
#
#
# Elastic Compliance Matrix: (Units=1/GPa)
#
#
# Indices 1 2 3 4 5 6 
#
# 1 0.009993 -0.006798 -0.005227 0.000000 -0.000562 0.000000
# 2 -0.006798 0.028478 -0.006113 0.000000 0.002623 0.000000
# 3 -0.005227 -0.006113 0.024897 0.000000 0.004138 0.000000
# 4 0.000000 0.000000 0.000000 0.043741 0.000000 0.004579
# 5 -0.000562 0.002623 0.004138 0.000000 0.035365 0.000000
# 6 0.000000 0.000000 0.000000 0.004579 0.000000 0.032687
#
#
# Mechanical properties :
#
#
# Convention : Reuss Voigt Hill
#
# Bulk Modulus (GPa) = 36.91096 55.35486 46.13291
# Shear Modulus (GPa) = 22.67899 26.61920 24.64910
#
# Velocity S-wave (km/s) = 3.42337 3.70886 3.56897
# Velocity P-wave (km/s) = 5.89067 6.85170 6.38928
#
# Compressibility (1/GPa) = 0.02709222
#
# Stress axis : x y z
#
# Youngs Moduli (GPa) = 100.06620 35.11487 40.16544
#
# Poissons Ratio (x) = 0.23870 0.20996
# Poissons Ratio (y) = 0.68022 0.24553
# Poissons Ratio (z) = 0.52309 0.21465
#
# Static dielectric constant tensor:
#      x y z
#    x 3.620150 0.000000 0.032760 
#    y 0.000000 3.272220 0.000000 
#    z 0.032760 0.000000 3.693830 
# 
# 
# High freq. dielectric constant tensor:
#      x y z
#    x 1.765910 0.000000 -0.003370 
#    y 0.000000 1.727780 0.000000 
#    z -0.003370 0.000000 1.760090 
# 
# From -- ./inp_files/295759.got.cif
#   From: 2010.06.25/outbox.cif.g09.slc.cpg/sg12_148_cif.got.tgz:295759.got - 2010.06.28 00:19:55.
