data_PCOD8088104
_publ_section_title
;
Structure prediction by ZEFSAII (Michael W. Deem and Ramdas Pophale) SiO2 
 PCOD8088104
Probable space group: C 2/M
;
_chemical_formula_sum "Si O2"
_cell_formula_units_Z 64
_cell_length_a 28.603173
_cell_length_b 9.271952
_cell_length_c 14.030135
_cell_angle_alpha 90.000000
_cell_angle_beta 118.574483
_cell_angle_gamma 90.000000
_cell_volume 3267.674055
_symmetry_space_group_name_H-M "C 2/M"
_symmetry_group_IT_number 12
_symmetry_cell_setting 'monoclinic'
loop_
_space_group_symop_operation_xyz
x,y,z
-x,y,-z
-x,-y,-z
x,-y,z
1/2+x,1/2+y,z
1/2-x,1/2+y,-z
1/2-x,1/2-y,-z
1/2+x,1/2-y,z
loop_
_atom_site_type_symbol
_atom_site_label
_atom_site_fract_x
_atom_site_fract_y
_atom_site_fract_z
Si Si1 0.293719 0.671950 0.605875
Si Si2 0.382508 0.159360 0.977319
Si Si3 0.087013 0.168117 0.327634
Si Si4 0.043519 0.663072 0.115640
Si Si5 0.789367 0.831930 0.108987
Si Si6 0.407397 0.329837 0.175594
Si Si7 0.496720 0.670104 0.602706
Si Si8 0.276601 0.165057 0.782250
O O1 0.286850 0.500000 0.593436
O O2 0.250000 0.750000 0.500000
O O3 0.351751 0.720071 0.621724
O O4 0.284418 0.722440 0.704843
O O5 0.400744 0.169920 0.885294
O O6 0.320047 0.191570 0.908140
O O7 0.393512 0.000000 0.029294
O O8 0.414214 0.269298 0.075361
O O9 0.048052 0.242056 0.213871
O O10 0.060886 0.205352 0.405174
O O11 0.084178 0.000000 0.303233
O O12 0.028173 0.500000 0.130617
O O13 0.000000 0.726082 0.000000
O O14 0.849945 0.777066 0.156984
O O15 0.777066 0.805917 0.209841
O O16 0.784545 0.000000 0.078624
O O17 0.750000 0.750000 0.000000
O O18 0.411742 0.500000 0.173956
O O19 0.454216 0.266274 0.287778
O O20 0.500000 0.738681 0.500000
O O21 0.504433 0.500000 0.602909
O O22 0.278844 0.000000 0.745039
#
# Coordination Sequence:
#
# PCOD8088104 Si02
#       8
#     8   8   8   8   8   8   8   8
#     4  11  24  40  60  86 114 148 189 234 283 336
#     4  10  19  32  52  78 112 151 181 220 280 333
#     4  10  21  37  59  85 110 142 184 231 280 327
#     4  10  20  33  52  80 113 151 188 222 273 335
#     4  10  20  33  52  80 114 151 188 229 280 334
#     4  10  20  33  55  85 111 144 190 236 279 328
#     4   9  19  37  59  82 109 142 184 233 280 327
#     4  10  20  36  56  79 112 153 189 228 279 331
#
# _framework density 19.585796999999999
#
# number of rings (size 3 to 8) (size 9 to 14) (size 15 to 20)
#    0.000    2.000    2.500    1.125    0.000    3.250 
#    0.000    3.750    0.000    1.500    0.000    0.000 
#    0.000    0.000    0.000    0.000    0.000    0.000 
#
# Total GULP energy -396659.119874 kJ/mol
# GULP energy per Si atom -12395.597496 kJ/mol
# Density = 1.954122 g / cm^3
# Si number density = 19.585797 Si / 1000 Ang^3
#
#
#
# Elastic Constant Matrix: (Units=GPa)
#
#
# Indices 1 2 3 4 5 6 
#
# 1 101.1934 30.7987 52.7918 0.0000 -3.8677 0.0000
# 2 30.7987 44.4825 38.8895 0.0000 -1.3737 0.0000
# 3 52.7918 38.8895 112.0348 0.0000 -6.8779 0.0000
# 4 0.0000 0.0000 0.0000 29.6729 0.0000 -2.1450
# 5 -3.8677 -1.3737 -6.8779 0.0000 30.4783 0.0000
# 6 0.0000 0.0000 0.0000 -2.1450 0.0000 21.1189
#
#
#
# Elastic Compliance Matrix: (Units=1/GPa)
#
#
# Indices 1 2 3 4 5 6 
#
# 1 0.014033 -0.005665 -0.004616 0.000000 0.000484 0.000000
# 2 -0.005665 0.034598 -0.009419 0.000000 -0.001285 0.000000
# 3 -0.004616 -0.009419 0.014510 0.000000 0.002264 0.000000
# 4 0.000000 0.000000 0.000000 0.033950 0.000000 0.003448
# 5 0.000484 -0.001285 0.002264 0.000000 0.033325 0.000000
# 6 0.000000 0.000000 0.000000 0.003448 0.000000 0.047701
#
#
# Mechanical properties :
#
#
# Convention : Reuss Voigt Hill
#
# Bulk Modulus (GPa) = 42.12378 55.85231 48.98804
# Shear Modulus (GPa) = 22.17965 25.26939 23.72452
#
# Velocity S-wave (km/s) = 3.36882 3.59582 3.48417
# Velocity P-wave (km/s) = 6.05689 6.76894 6.42279
#
# Compressibility (1/GPa) = 0.02373956
#
# Stress axis : x y z
#
# Youngs Moduli (GPa) = 71.25996 28.90301 68.92005
#
# Poissons Ratio (x) = 0.16375 0.31815
# Poissons Ratio (y) = 0.40372 0.64916
# Poissons Ratio (z) = 0.32895 0.27224
#
# Static dielectric constant tensor:
#      x y z
#    x 3.968290 0.000000 0.028820 
#    y 0.000000 3.350120 0.000000 
#    z 0.028820 0.000000 3.491330 
# 
# 
# High freq. dielectric constant tensor:
#      x y z
#    x 1.783780 0.000000 0.001010 
#    y 0.000000 1.737150 0.000000 
#    z 0.001010 0.000000 1.750090 
# 
# From -- ./inp_files/249149.got.cif
#   From: 2010.06.25/outbox.cif.g09.slc.cpg/sg12_125_cif.got.tgz:249149.got - 2010.06.28 00:19:55.
