data_PCOD8088499
_publ_section_title
;
Structure prediction by ZEFSAII (Michael W. Deem and Ramdas Pophale) SiO2 
 PCOD8088499
Probable space group: C 2/M
;
_chemical_formula_sum "Si O2"
_cell_formula_units_Z 64
_cell_length_a 30.474714
_cell_length_b 9.313260
_cell_length_c 22.141770
_cell_angle_alpha 90.000000
_cell_angle_beta 32.386385
_cell_angle_gamma 90.000000
_cell_volume 3366.010519
_symmetry_space_group_name_H-M "C 2/M"
_symmetry_group_IT_number 12
_symmetry_cell_setting 'monoclinic'
loop_
_space_group_symop_operation_xyz
x,y,z
-x,y,-z
-x,-y,-z
x,-y,z
1/2+x,1/2+y,z
1/2-x,1/2+y,-z
1/2-x,1/2-y,-z
1/2+x,1/2-y,z
loop_
_atom_site_type_symbol
_atom_site_label
_atom_site_fract_x
_atom_site_fract_y
_atom_site_fract_z
Si Si1 0.689879 0.664467 0.233424
Si Si2 0.476943 0.831493 0.285070
Si Si3 0.938854 0.167070 0.711042
Si Si4 0.659561 0.666401 0.890526
Si Si5 0.499125 0.170288 0.880285
Si Si6 0.820955 0.664775 0.538279
Si Si7 0.855505 0.837356 0.232512
Si Si8 0.901747 0.837383 0.542004
O O1 0.722382 0.500000 0.196492
O O2 0.650142 0.702536 0.214370
O O3 0.763438 0.771281 0.162358
O O4 0.614985 0.682255 0.367694
O O5 0.546557 0.755573 0.244607
O O6 0.488096 0.782339 0.203584
O O7 0.384869 0.783665 0.412331
O O8 0.490056 0.000000 0.276934
O O9 0.006990 0.211945 0.582117
O O10 0.944738 0.000000 0.720563
O O11 0.649521 0.500000 0.919838
O O12 0.670986 0.685962 0.805909
O O13 0.580499 0.753763 0.002165
O O14 0.576428 0.222862 0.829008
O O15 0.491190 0.000000 0.896990
O O16 0.837429 0.500000 0.533766
O O17 0.725505 0.688863 0.631618
O O18 0.834745 0.746758 0.584385
O O19 0.888859 0.000000 0.202956
O O20 0.888236 0.000000 0.537322
#
# Coordination Sequence:
#
# PCOD8088499 Si02
#       8
#     8   8   8   8   8   8   8   8
#     4  10  19  32  53  82 115 146 179 222 271 321
#     4   9  20  38  57  79 111 147 185 226 267 318
#     4   9  18  32  53  82 113 147 183 219 265 322
#     4  11  23  39  58  82 111 143 183 226 272 327
#     4  11  24  40  58  80 106 143 188 231 275 321
#     4   9  17  33  55  80 113 147 175 217 271 322
#     4  10  21  37  58  84 112 140 176 223 276 332
#     4   9  16  28  49  79 115 148 177 214 264 322
#
# _framework density 19.013605999999999
#
# number of rings (size 3 to 8) (size 9 to 14) (size 15 to 20)
#    0.000    2.250    1.250    1.500    0.000    6.500 
#    0.000    0.625    0.000    3.750    0.000    0.000 
#    0.000    0.000    0.000    0.000    0.000    0.000 
#
# Total GULP energy -396706.852257 kJ/mol
# GULP energy per Si atom -12397.089133 kJ/mol
# Density = 1.897033 g / cm^3
# Si number density = 19.013606 Si / 1000 Ang^3
#
#
#
# Elastic Constant Matrix: (Units=GPa)
#
#
# Indices 1 2 3 4 5 6 
#
# 1 83.0732 44.8257 43.9033 0.0031 -16.3210 -0.0052
# 2 44.8257 78.2440 56.9629 0.0061 -10.9740 -0.0092
# 3 43.9033 56.9629 131.4115 -0.0198 -12.3938 -0.0092
# 4 0.0031 0.0061 -0.0198 24.2200 -0.0126 -3.9260
# 5 -16.3210 -10.9740 -12.3938 -0.0126 26.1619 0.0062
# 6 -0.0052 -0.0092 -0.0092 -3.9260 0.0062 33.1735
#
#
#
# Elastic Compliance Matrix: (Units=1/GPa)
#
#
# Indices 1 2 3 4 5 6 
#
# 1 0.019122 -0.008433 -0.002032 0.000002 0.007429 -0.000001
# 2 -0.008433 0.022841 -0.006988 -0.000010 0.001009 0.000002
# 3 -0.002032 -0.006988 0.011433 0.000012 0.001217 0.000002
# 4 0.000002 -0.000010 0.000012 0.042096 0.000022 0.004982
# 5 0.007429 0.001009 0.001217 0.000022 0.043858 -0.000004
# 6 -0.000001 0.000002 0.000002 0.004982 -0.000004 0.030734
#
#
# Mechanical properties :
#
#
# Convention : Reuss Voigt Hill
#
# Bulk Modulus (GPa) = 54.08960 64.90140 59.49550
# Shear Modulus (GPa) = 23.67950 26.51352 25.09651
#
# Velocity S-wave (km/s) = 3.53285 3.73828 3.63702
# Velocity P-wave (km/s) = 6.71945 7.26920 6.99972
#
# Compressibility (1/GPa) = 0.01848784
#
# Stress axis : x y z
#
# Youngs Moduli (GPa) = 52.29686 43.78075 87.46955
#
# Poissons Ratio (x) = 0.36922 0.17775
# Poissons Ratio (y) = 0.44104 0.61126
# Poissons Ratio (z) = 0.10627 0.30595
#
# Static dielectric constant tensor:
#      x y z
#    x 3.434280 -0.000010 -0.017590 
#    y -0.000010 3.460770 0.000030 
#    z -0.017590 0.000030 3.593580 
# 
# 
# High freq. dielectric constant tensor:
#      x y z
#    x 1.728270 0.000000 -0.006840 
#    y 0.000000 1.737250 0.000000 
#    z -0.006840 0.000000 1.736050 
# 
# From -- ./inp_files/353281.got.cif
#   From: 2010.06.25/outbox.cif.g09.slc.cpg/sg12_177_cif.got.tgz:353281.got - 2010.06.28 00:19:55.
