data_PCOD8088645
_publ_section_title
;
Structure prediction by ZEFSAII (Michael W. Deem and Ramdas Pophale) SiO2 
 PCOD8088645
Probable space group: C 2/M
;
_chemical_formula_sum "Si O2"
_cell_formula_units_Z 64
_cell_length_a 19.879932
_cell_length_b 18.066549
_cell_length_c 25.825193
_cell_angle_alpha 90.000000
_cell_angle_beta 20.894039
_cell_angle_gamma 90.000000
_cell_volume 3307.993926
_symmetry_space_group_name_H-M "C 2/M"
_symmetry_group_IT_number 12
_symmetry_cell_setting 'monoclinic'
loop_
_space_group_symop_operation_xyz
x,y,z
-x,y,-z
-x,-y,-z
x,-y,z
1/2+x,1/2+y,z
1/2-x,1/2+y,-z
1/2-x,1/2-y,-z
1/2+x,1/2-y,z
loop_
_atom_site_type_symbol
_atom_site_label
_atom_site_fract_x
_atom_site_fract_y
_atom_site_fract_z
Si Si1 0.103099 0.583675 0.375765
Si Si2 0.942196 0.202570 0.805301
Si Si3 0.852523 0.082612 0.474158
Si Si4 0.023872 0.299832 0.120858
Si Si5 0.191380 0.364533 0.489650
Si Si6 0.614996 0.698450 0.868069
Si Si7 0.211225 0.915805 0.362900
Si Si8 0.552466 0.728865 0.314202
O O1 0.167457 0.500000 0.340422
O O2 0.289862 0.629258 0.228852
O O3 0.000000 0.618479 0.500000
O O4 0.952653 0.584680 0.437779
O O5 0.012470 0.259602 0.798424
O O6 0.099753 0.137632 0.686504
O O7 0.920188 0.244814 0.766312
O O8 0.737707 0.167756 0.967046
O O9 0.695702 0.099445 0.543445
O O10 0.755635 0.088718 0.599613
O O11 0.018210 0.142253 0.349106
O O12 0.937352 0.000000 0.405651
O O13 0.011040 0.241271 0.083066
O O14 0.869958 0.364224 0.222633
O O15 0.121951 0.279343 0.541464
O O16 0.766560 0.754739 0.781902
O O17 0.500000 0.667379 0.000000
O O18 0.000000 0.887952 0.500000
O O19 0.237788 0.000000 0.323465
#
# Coordination Sequence:
#
# PCOD8088645 Si02
#       8
#     8   8   8   8   8   8   8   8
#     4  10  22  39  60  86 115 146 186 231 279 335
#     4  10  20  33  54  82 111 144 179 228 273 327
#     4  10  19  32  54  81 110 140 182 233 279 327
#     4  11  21  35  56  81 114 146 186 226 278 328
#     4  10  19  34  58  83 109 143 187 227 275 329
#     4  11  22  38  60  83 114 147 187 234 279 333
#     4  10  21  37  56  80 110 146 189 235 277 326
#     4  10  19  35  56  82 109 144 187 231 279 328
#
# _framework density 19.347073000000002
#
# number of rings (size 3 to 8) (size 9 to 14) (size 15 to 20)
#    0.000    1.750    1.250    4.875    0.000    2.750 
#    0.000    3.125    0.000    3.750    0.000    0.000 
#    0.000    0.000    0.000    0.000    0.000    0.000 
#
# Total GULP energy -396746.543069 kJ/mol
# GULP energy per Si atom -12398.329471 kJ/mol
# Density = 1.930304 g / cm^3
# Si number density = 19.347073 Si / 1000 Ang^3
#
#
#
# Elastic Constant Matrix: (Units=GPa)
#
#
# Indices 1 2 3 4 5 6 
#
# 1 74.0235 21.0041 18.9947 -0.0114 4.0573 -0.0140
# 2 21.0041 94.1611 45.9187 -0.0317 5.1214 0.0355
# 3 18.9947 45.9187 104.4775 -0.0783 3.8024 0.0751
# 4 -0.0114 -0.0317 -0.0783 19.6896 0.0198 4.0992
# 5 4.0573 5.1214 3.8024 0.0198 30.6473 -0.0263
# 6 -0.0140 0.0355 0.0751 4.0992 -0.0263 22.8128
#
#
#
# Elastic Compliance Matrix: (Units=1/GPa)
#
#
# Indices 1 2 3 4 5 6 
#
# 1 0.014673 -0.002448 -0.001543 -0.000004 -0.001342 0.000017
# 2 -0.002448 0.013997 -0.005659 0.000001 -0.001313 -0.000006
# 3 -0.001543 -0.005659 0.012353 0.000048 -0.000383 -0.000042
# 4 -0.000004 0.000001 0.000048 0.052762 -0.000048 -0.009481
# 5 -0.001342 -0.001313 -0.000383 -0.000048 0.033074 0.000049
# 6 0.000017 -0.000006 -0.000042 -0.009481 0.000049 0.045539
#
#
# Mechanical properties :
#
#
# Convention : Reuss Voigt Hill
#
# Bulk Modulus (GPa) = 46.03200 49.38857 47.71029
# Shear Modulus (GPa) = 25.13321 27.07957 26.10639
#
# Velocity S-wave (km/s) = 3.60817 3.74528 3.67736
# Velocity P-wave (km/s) = 6.41895 6.65477 6.53792
#
# Compressibility (1/GPa) = 0.02172402
#
# Stress axis : x y z
#
# Youngs Moduli (GPa) = 68.15120 71.44285 80.95063
#
# Poissons Ratio (x) = 0.17486 0.12492
# Poissons Ratio (y) = 0.16681 0.45811
# Poissons Ratio (z) = 0.10517 0.40430
#
# Static dielectric constant tensor:
#      x y z
#    x 3.761610 -0.000090 0.029380 
#    y -0.000090 3.317050 0.000570 
#    z 0.029380 0.000570 3.465840 
# 
# 
# High freq. dielectric constant tensor:
#      x y z
#    x 1.775200 0.000000 0.000640 
#    y 0.000000 1.730520 0.000050 
#    z 0.000640 0.000050 1.741700 
# 
# From -- ./inp_files/366797.got.cif
#   From: 2010.06.25/outbox.cif.g09.slc.cpg/sg12_184_cif.got.tgz:366797.got - 2010.06.28 00:19:55.
