data_PCOD8088932
_publ_section_title
;
Structure prediction by ZEFSAII (Michael W. Deem and Ramdas Pophale) SiO2 
 PCOD8088932
Probable space group: C 2/M
;
_chemical_formula_sum "Si O2"
_cell_formula_units_Z 56
_cell_length_a 9.295989
_cell_length_b 18.228021
_cell_length_c 27.580571
_cell_angle_alpha 90.000000
_cell_angle_beta 141.026721
_cell_angle_gamma 90.000000
_cell_volume 2939.408468
_symmetry_space_group_name_H-M "C 2/M"
_symmetry_group_IT_number 12
_symmetry_cell_setting 'monoclinic'
loop_
_space_group_symop_operation_xyz
x,y,z
-x,y,-z
-x,-y,-z
x,-y,z
1/2+x,1/2+y,z
1/2-x,1/2+y,-z
1/2-x,1/2-y,-z
1/2+x,1/2-y,z
loop_
_atom_site_type_symbol
_atom_site_label
_atom_site_fract_x
_atom_site_fract_y
_atom_site_fract_z
Si Si1 0.270091 0.083159 0.339829
Si Si2 0.366008 0.668808 0.080824
Si Si3 0.660222 0.335630 0.752474
Si Si4 0.491616 0.784811 0.553341
Si Si5 0.873114 0.298197 0.705713
Si Si6 0.450066 0.180857 0.911663
Si Si7 0.724521 0.083094 0.771475
O O1 0.471096 0.139825 0.406711
O O2 0.213704 0.091939 0.268600
O O3 0.036781 0.103703 0.307704
O O4 0.343300 0.000000 0.372253
O O5 0.486631 0.738520 0.089471
O O6 0.246619 0.689935 0.099848
O O7 0.558719 0.607613 0.139818
O O8 0.172379 0.639707 0.992277
O O9 0.757468 0.307298 0.727513
O O10 0.558345 0.266393 0.755434
O O11 0.858524 0.365211 0.840824
O O12 0.500000 0.807357 0.500000
O O13 0.250000 0.750000 0.500000
O O14 0.681473 0.723823 0.616084
O O15 0.992355 0.373507 0.721918
O O16 0.669396 0.000000 0.770891
#
# Coordination Sequence:
#
# PCOD8088932 Si02
#       7
#     8   8   8   8   8   8   8
#     4  10  22  39  60  85 116 153 190 233 293 350
#     4  10  20  34  53  87 115 148 196 239 297 336
#     4  11  19  35  60  86 115 150 193 244 282 336
#     4  11  22  39  61  88 114 145 186 239 291 347
#     4  11  22  36  61  87 114 148 196 238 288 349
#     4  10  19  32  56  86 114 146 191 248 287 331
#     4  11  22  39  57  80 118 160 198 240 287 342
#
# _framework density 19.051452000000001
#
# number of rings (size 3 to 8) (size 9 to 14) (size 15 to 20)
#    0.000    1.429    2.857    5.143    0.000    0.857 
#    0.000    2.857    0.000    3.429    0.000    0.000 
#    0.000    0.000    0.000    0.000    0.000    0.000 
#
# Total GULP energy -347145.506415 kJ/mol
# GULP energy per Si atom -12398.053801 kJ/mol
# Density = 1.900809 g / cm^3
# Si number density = 19.051452 Si / 1000 Ang^3
#
#
#
# Elastic Constant Matrix: (Units=GPa)
#
#
# Indices 1 2 3 4 5 6 
#
# 1 79.9521 38.9507 28.3147 0.0001 5.0338 0.0000
# 2 38.9507 125.8475 59.3397 0.0000 12.4024 0.0000
# 3 28.3147 59.3397 127.8011 0.0003 2.6627 0.0004
# 4 0.0001 0.0000 0.0003 24.8637 0.0001 -3.5666
# 5 5.0338 12.4024 2.6627 0.0001 31.0033 0.0001
# 6 0.0000 0.0000 0.0004 -3.5666 0.0001 12.7521
#
#
#
# Elastic Compliance Matrix: (Units=1/GPa)
#
#
# Indices 1 2 3 4 5 6 
#
# 1 0.014964 -0.003842 -0.001516 0.000000 -0.000763 0.000000
# 2 -0.003842 0.011594 -0.004457 0.000000 -0.003632 0.000000
# 3 -0.001516 -0.004457 0.010206 0.000000 0.001152 0.000000
# 4 0.000000 0.000000 0.000000 0.041900 0.000000 0.011719
# 5 -0.000763 -0.003632 0.001152 0.000000 0.033732 0.000000
# 6 0.000000 0.000000 0.000000 0.011719 0.000000 0.081696
#
#
# Mechanical properties :
#
#
# Convention : Reuss Voigt Hill
#
# Bulk Modulus (GPa) = 58.35626 65.20121 61.77874
# Shear Modulus (GPa) = 22.78604 27.52353 25.15479
#
# Velocity S-wave (km/s) = 3.46211 3.80504 3.63762
# Velocity P-wave (km/s) = 6.83220 7.32137 7.08101
#
# Compressibility (1/GPa) = 0.01713612
#
# Stress axis : x y z
#
# Youngs Moduli (GPa) = 66.82797 86.24836 97.98407
#
# Poissons Ratio (x) = 0.33133 0.14851
# Poissons Ratio (y) = 0.25672 0.43668
# Poissons Ratio (z) = 0.10129 0.38438
#
# Static dielectric constant tensor:
#      x y z
#    x 3.533660 0.000000 0.059850 
#    y 0.000000 3.283320 0.000000 
#    z 0.059850 0.000000 3.879750 
# 
# 
# High freq. dielectric constant tensor:
#      x y z
#    x 1.744370 0.000000 0.000490 
#    y 0.000000 1.707890 0.000000 
#    z 0.000490 0.000000 1.759170 
# 
# From -- ./inp_files/356638.got.cif
#   From: 2010.06.25/outbox.cif.g09.slc.cpg/sg12_179_cif.got.tgz:356638.got - 2010.06.28 00:19:55.
