data_PCOD8088431
_publ_section_title
;
Structure prediction by ZEFSAII (Michael W. Deem and Ramdas Pophale) SiO2 
 PCOD8088431
Probable space group: C 2/M
;
_chemical_formula_sum "Si O2"
_cell_formula_units_Z 60
_cell_length_a 5.105330
_cell_length_b 32.094259
_cell_length_c 20.366139
_cell_angle_alpha 90.000000
_cell_angle_beta 73.680870
_cell_angle_gamma 90.000000
_cell_volume 3202.584431
_symmetry_space_group_name_H-M "C 2/M"
_symmetry_group_IT_number 12
_symmetry_cell_setting 'monoclinic'
loop_
_space_group_symop_operation_xyz
x,y,z
-x,y,-z
-x,-y,-z
x,-y,z
1/2+x,1/2+y,z
1/2-x,1/2+y,-z
1/2-x,1/2-y,-z
1/2+x,1/2-y,z
loop_
_atom_site_type_symbol
_atom_site_label
_atom_site_fract_x
_atom_site_fract_y
_atom_site_fract_z
Si Si1 0.694316 0.851924 0.545977
Si Si2 0.543851 0.129095 0.179259
Si Si3 0.414526 0.577307 0.851602
Si Si4 0.065125 0.277491 0.204814
Si Si5 0.697166 0.500000 0.047108
Si Si6 0.653981 0.093110 0.674037
Si Si7 0.633369 0.774620 0.637255
Si Si8 0.884442 0.046503 0.297177
O O1 0.500000 0.863837 0.500000
O O2 0.656721 0.886346 0.603510
O O3 0.600174 0.808772 0.583942
O O4 0.000000 0.849275 0.500000
O O5 0.335244 0.109425 0.141323
O O6 0.583866 0.178694 0.164148
O O7 0.429907 0.124272 0.261458
O O8 0.826985 0.105379 0.147725
O O9 0.351446 0.542821 0.910366
O O10 0.465058 0.550948 0.782689
O O11 0.352653 0.253479 0.184680
O O12 0.984742 0.289416 0.284796
O O13 0.500000 0.500000 0.000000
O O14 0.000000 0.500000 0.000000
O O15 0.434598 0.056124 0.687223
O O16 0.960553 0.076394 0.662766
O O17 0.451985 0.736109 0.623869
O O18 0.915045 0.000000 0.321076
#
# Coordination Sequence:
#
# PCOD8088431 Si02
#       8
#     8   8   8   8   4   8   8   8
#     4  12  24  37  53  70  99 136 183 227 275 352
#     4  10  19  35  57  79 115 147 191 245 273 333
#     4  10  21  35  56  88 117 154 195 221 260 315
#     4  10  19  32  53  80 113 146 179 233 305 350
#     4  12  24  40  60  90 140 172 186 210 262 322
#     4  10  21  35  53  78 101 135 175 227 298 321
#     4  10  21  35  50  71 101 135 179 221 272 343
#     4  10  19  35  60  81 105 128 178 233 261 329
#
# _framework density 18.734867999999999
#
# number of rings (size 3 to 8) (size 9 to 14) (size 15 to 20)
#    0.000    1.600    2.000    3.600    0.000    1.600 
#    0.000    0.000    0.000    8.000    0.000    0.000 
#    0.000   37.333    0.000    0.000    0.000    0.000 
#
# Total GULP energy -371986.063060 kJ/mol
# GULP energy per Si atom -12399.535435 kJ/mol
# Density = 1.869223 g / cm^3
# Si number density = 18.734868 Si / 1000 Ang^3
#
#
#
# Elastic Constant Matrix: (Units=GPa)
#
#
# Indices 1 2 3 4 5 6 
#
# 1 54.1320 6.6979 -31.4486 0.0000 20.8523 0.0000
# 2 6.6979 108.2810 16.1734 0.0000 10.0983 0.0000
# 3 -31.4486 16.1734 19.6846 0.0000 20.3828 0.0000
# 4 0.0000 0.0000 0.0000 29.4794 0.0000 11.7128
# 5 20.8523 10.0983 20.3828 0.0000 22.8651 0.0000
# 6 0.0000 0.0000 0.0000 11.7128 0.0000 16.6069
#
#
#
# Elastic Compliance Matrix: (Units=1/GPa)
#
#
# Indices 1 2 3 4 5 6 
#
# 1 -0.000416 0.001395 -0.020347 0.000000 0.017901 0.000000
# 2 0.001395 0.009631 0.000496 0.000000 -0.005968 0.000000
# 3 -0.020347 0.000496 -0.014304 0.000000 0.031088 0.000000
# 4 0.000000 0.000000 0.000000 0.047129 0.000000 -0.033240
# 5 0.017901 -0.005968 0.031088 0.000000 0.002332 0.000000
# 6 0.000000 0.000000 0.000000 -0.033240 0.000000 0.083660
#
#
# Mechanical properties :
#
#
# Convention : Reuss Voigt Hill
#
# Bulk Modulus (GPa) = -23.80932 18.32697 -2.74118
# Shear Modulus (GPa) = 33.12493 26.50194 29.81344
#
# Velocity S-wave (km/s) = 4.20943 3.76517 3.99348
# Velocity P-wave (km/s) = 3.29993 5.35775 4.44944
#
# Compressibility (1/GPa) = -0.04200035
#
# Stress axis : x y z
#
# Youngs Moduli (GPa) = -2404.30619 103.82648 -69.90949
#
# Poissons Ratio (x) = -0.14488 -1.42246
# Poissons Ratio (y) = 3.35498 0.03467
# Poissons Ratio (z) = -48.92065 -0.05148
#
# Static dielectric constant tensor:
#      x y z
#    x 3.629830 0.000000 0.037250 
#    y 0.000000 3.400130 0.000000 
#    z 0.037250 0.000000 3.139300 
# 
# 
# High freq. dielectric constant tensor:
#      x y z
#    x 1.749220 0.000000 0.004540 
#    y 0.000000 1.730630 0.000000 
#    z 0.004540 0.000000 1.688530 
# 
# From -- ./inp_files/253996.got.cif
#   From: 2010.06.25/outbox.cif.g09.slc.cpg/sg12_127_cif.got.tgz:253996.got - 2010.06.28 00:19:55.
