data_PCOD8088591
_publ_section_title
;
Structure prediction by ZEFSAII (Michael W. Deem and Ramdas Pophale) SiO2 
 PCOD8088591
Probable space group: C 2/M
;
_chemical_formula_sum "Si O2"
_cell_formula_units_Z 56
_cell_length_a 17.299955
_cell_length_b 14.253458
_cell_length_c 18.448243
_cell_angle_alpha 90.000000
_cell_angle_beta 47.832317
_cell_angle_gamma 90.000000
_cell_volume 3371.676365
_symmetry_space_group_name_H-M "C 2/M"
_symmetry_group_IT_number 12
_symmetry_cell_setting 'monoclinic'
loop_
_space_group_symop_operation_xyz
x,y,z
-x,y,-z
-x,-y,-z
x,-y,z
1/2+x,1/2+y,z
1/2-x,1/2+y,-z
1/2-x,1/2-y,-z
1/2+x,1/2-y,z
loop_
_atom_site_type_symbol
_atom_site_label
_atom_site_fract_x
_atom_site_fract_y
_atom_site_fract_z
Si Si1 0.619904 0.104492 0.903792
Si Si2 0.919483 0.389427 0.492763
Si Si3 0.785211 0.893153 0.297279
Si Si4 0.936074 0.273947 0.191750
Si Si5 0.270366 0.105950 0.831759
Si Si6 0.006245 0.389204 0.708314
Si Si7 0.166693 0.745251 0.989013
O O1 0.631095 0.169714 0.825908
O O2 0.682148 0.150170 0.932249
O O3 0.665278 0.000000 0.860770
O O4 0.500000 0.096783 0.000000
O O5 0.938581 0.500000 0.479780
O O6 0.801280 0.364825 0.588854
O O7 0.000000 0.344233 0.500000
O O8 0.942995 0.350199 0.397824
O O9 0.882613 0.824517 0.244499
O O10 0.731309 0.882943 0.253288
O O11 0.824132 0.000000 0.284864
O O12 0.936730 0.338169 0.262042
O O13 0.050965 0.248847 0.092539
O O14 0.384226 0.136807 0.787488
O O15 0.181679 0.167735 0.925360
O O16 0.246526 0.000000 0.870134
O O17 0.022795 0.500000 0.706795
O O18 0.250000 0.750000 0.000000
#
# Coordination Sequence:
#
# PCOD8088591 Si02
#       7
#     8   8   8   8   8   8   8
#     4   9  19  34  50  70  98 132 167 209 256 291
#     4   9  16  30  53  79 102 127 167 215 260 303
#     4  10  20  34  53  76 105 138 166 206 262 312
#     4  11  21  33  52  73 109 137 168 210 251 311
#     4  10  19  33  53  75 101 133 173 213 253 297
#     4  10  19  32  54  80 101 129 171 219 259 295
#     4  11  21  34  50  74 102 136 177 211 245 303
#
# _framework density 16.608948000000002
#
# number of rings (size 3 to 8) (size 9 to 14) (size 15 to 20)
#    0.000    2.000    4.286    0.429    0.000    2.286 
#    0.000    1.429    0.000    0.000    0.000    0.000 
#    0.000    2.857    0.000    0.000    0.000    0.000 
#
# Total GULP energy -347185.739828 kJ/mol
# GULP energy per Si atom -12399.490708 kJ/mol
# Density = 1.657115 g / cm^3
# Si number density = 16.608948 Si / 1000 Ang^3
#
#
#
# Elastic Constant Matrix: (Units=GPa)
#
#
# Indices 1 2 3 4 5 6 
#
# 1 92.2909 44.6073 38.3524 0.0000 8.6587 0.0000
# 2 44.6073 92.5001 53.3415 0.0000 -2.7709 0.0000
# 3 38.3524 53.3415 102.2634 0.0000 11.8814 0.0000
# 4 0.0000 0.0000 0.0000 22.4719 0.0000 4.2981
# 5 8.6587 -2.7709 11.8814 0.0000 20.5291 0.0000
# 6 0.0000 0.0000 0.0000 4.2981 0.0000 24.3859
#
#
#
# Elastic Compliance Matrix: (Units=1/GPa)
#
#
# Indices 1 2 3 4 5 6 
#
# 1 0.015311 -0.006727 -0.001477 0.000000 -0.006511 0.000000
# 2 -0.006727 0.019491 -0.008876 0.000000 0.010605 0.000000
# 3 -0.001477 -0.008876 0.016113 0.000000 -0.009900 0.000000
# 4 0.000000 0.000000 0.000000 0.046053 0.000000 -0.008117
# 5 -0.006511 0.010605 -0.009900 0.000000 0.058619 0.000000
# 6 0.000000 0.000000 0.000000 -0.008117 0.000000 0.042438
#
#
# Mechanical properties :
#
#
# Convention : Reuss Voigt Hill
#
# Bulk Modulus (GPa) = 59.68332 62.18408 60.93370
# Shear Modulus (GPa) = 21.02878 23.52759 22.27818
#
# Velocity S-wave (km/s) = 3.56211 3.76781 3.66640
# Velocity P-wave (km/s) = 7.27534 7.51331 7.39528
#
# Compressibility (1/GPa) = 0.01675510
#
# Stress axis : x y z
#
# Youngs Moduli (GPa) = 65.31090 51.30567 62.06327
#
# Poissons Ratio (x) = 0.34514 0.09166
# Poissons Ratio (y) = 0.43936 0.55087
# Poissons Ratio (z) = 0.09645 0.45539
#
# Static dielectric constant tensor:
#      x y z
#    x 3.047830 0.000000 0.186040 
#    y 0.000000 3.137140 0.000000 
#    z 0.186040 0.000000 3.207310 
# 
# 
# High freq. dielectric constant tensor:
#      x y z
#    x 1.632090 0.000000 0.016290 
#    y 0.000000 1.624850 0.000000 
#    z 0.016290 0.000000 1.637760 
# 
# From -- ./inp_files/214194.got.cif
#   From: 2010.06.25/outbox.cif.g09.slc.cpg/sg12_108_cif.got.tgz:214194.got - 2010.06.28 00:19:55.
