data_PCOD8088472
_publ_section_title
;
Structure prediction by ZEFSAII (Michael W. Deem and Ramdas Pophale) SiO2 
 PCOD8088472
Probable space group: C 2/M
;
_chemical_formula_sum "Si O2"
_cell_formula_units_Z 56
_cell_length_a 20.191813
_cell_length_b 8.860663
_cell_length_c 15.777322
_cell_angle_alpha 90.000000
_cell_angle_beta 106.925454
_cell_angle_gamma 90.000000
_cell_volume 2700.495702
_symmetry_space_group_name_H-M "C 2/M"
_symmetry_group_IT_number 12
_symmetry_cell_setting 'monoclinic'
loop_
_space_group_symop_operation_xyz
x,y,z
-x,y,-z
-x,-y,-z
x,-y,z
1/2+x,1/2+y,z
1/2-x,1/2+y,-z
1/2-x,1/2-y,-z
1/2+x,1/2-y,z
loop_
_atom_site_type_symbol
_atom_site_label
_atom_site_fract_x
_atom_site_fract_y
_atom_site_fract_z
Si Si1 0.613750 0.676527 0.274735
Si Si2 0.226129 0.173168 0.871060
Si Si3 0.742630 0.177965 0.588399
Si Si4 0.127718 0.823045 0.088895
Si Si5 0.104975 0.322611 0.916634
Si Si6 0.480141 0.177126 0.278472
Si Si7 0.637833 0.672288 0.669453
O O1 0.601923 0.500000 0.284659
O O2 0.690770 0.724420 0.330879
O O3 0.601312 0.722468 0.172318
O O4 0.558939 0.765945 0.312177
O O5 0.293273 0.274337 0.889552
O O6 0.178272 0.241370 0.926966
O O7 0.186655 0.187026 0.768214
O O8 0.245014 0.000000 0.899351
O O9 0.750000 0.250000 0.500000
O O10 0.672947 0.240391 0.604962
O O11 0.735899 0.000000 0.577237
O O12 0.121272 0.000000 0.071342
O O13 0.081232 0.737176 0.000544
O O14 0.116611 0.500000 0.922414
O O15 0.049677 0.275726 0.824841
O O16 0.436464 0.254512 0.337091
O O17 0.476921 0.000000 0.291957
O O18 0.625967 0.500000 0.637982
#
# Coordination Sequence:
#
# PCOD8088472 Si02
#       7
#     8   8   8   8   8   8   8
#     4  10  23  41  61  86 120 158 195 243 299 354
#     4  10  19  32  53  81 113 152 198 246 293 346
#     4  11  23  42  67  96 125 152 190 240 296 356
#     4  11  21  34  53  79 114 156 200 247 296 345
#     4  10  21  35  51  78 115 157 201 247 293 341
#     4  10  22  39  61  86 120 162 203 246 292 348
#     4  10  20  37  63  91 120 157 198 241 295 354
#
# _framework density 20.736934000000002
#
# number of rings (size 3 to 8) (size 9 to 14) (size 15 to 20)
#    0.000    1.714    1.429    3.000    0.000    5.714 
#    0.000    3.571    0.000    4.286    0.000    0.000 
#    0.000    0.000    0.000    0.000    0.000    0.000 
#
# Total GULP energy -347291.550435 kJ/mol
# GULP energy per Si atom -12403.269658 kJ/mol
# Density = 2.068974 g / cm^3
# Si number density = 20.736934 Si / 1000 Ang^3
#
#
#
# Elastic Constant Matrix: (Units=GPa)
#
#
# Indices 1 2 3 4 5 6 
#
# 1 88.4868 37.7705 34.2816 0.0000 -25.3056 0.0000
# 2 37.7705 80.0847 51.5895 0.0000 -13.7209 0.0000
# 3 34.2816 51.5895 79.6349 0.0000 -29.7298 0.0000
# 4 0.0000 0.0000 0.0000 34.2200 0.0000 -5.3967
# 5 -25.3056 -13.7209 -29.7298 0.0000 23.7236 0.0000
# 6 0.0000 0.0000 0.0000 -5.3967 0.0000 33.8951
#
#
#
# Elastic Compliance Matrix: (Units=1/GPa)
#
#
# Indices 1 2 3 4 5 6 
#
# 1 0.019485 -0.009272 0.006344 0.000000 0.023372 0.000000
# 2 -0.009272 0.027020 -0.021367 0.000000 -0.021040 0.000000
# 3 0.006344 -0.021367 0.040554 0.000000 0.045231 0.000000
# 4 0.000000 0.000000 0.000000 0.029975 0.000000 0.004773
# 5 0.023372 -0.021040 0.045231 0.000000 0.111595 0.000000
# 6 0.000000 0.000000 0.000000 0.004773 0.000000 0.030263
#
#
# Mechanical properties :
#
#
# Convention : Reuss Voigt Hill
#
# Bulk Modulus (GPa) = 25.99559 55.05439 40.52499
# Shear Modulus (GPa) = 15.61009 26.67207 21.14108
#
# Velocity S-wave (km/s) = 2.74664 3.59027 3.19641
# Velocity P-wave (km/s) = 4.75624 6.61765 5.76260
#
# Compressibility (1/GPa) = 0.03846807
#
# Stress axis : x y z
#
# Youngs Moduli (GPa) = 51.32123 37.01016 24.65834
#
# Poissons Ratio (x) = 0.34317 -0.15644
# Poissons Ratio (y) = 0.47587 0.52688
# Poissons Ratio (z) = -0.32559 0.79081
#
# Static dielectric constant tensor:
#      x y z
#    x 3.671840 0.000000 -0.099610 
#    y 0.000000 3.758450 0.000000 
#    z -0.099610 0.000000 3.691540 
# 
# 
# High freq. dielectric constant tensor:
#      x y z
#    x 1.805760 0.000000 -0.011750 
#    y 0.000000 1.818920 0.000000 
#    z -0.011750 0.000000 1.803100 
# 
# From -- ./inp_files/231054.got.cif
#   From: 2010.06.25/outbox.cif.g09.slc.cpg/sg12_116_cif.got.tgz:231054.got - 2010.06.28 00:19:55.
