data_PCOD8088560
_publ_section_title
;
Structure prediction by ZEFSAII (Michael W. Deem and Ramdas Pophale) SiO2 
 PCOD8088560
Probable space group: C 2/M
;
_chemical_formula_sum "Si O2"
_cell_formula_units_Z 48
_cell_length_a 13.468973
_cell_length_b 13.283171
_cell_length_c 27.417568
_cell_angle_alpha 90.000000
_cell_angle_beta 149.821728
_cell_angle_gamma 90.000000
_cell_volume 2465.853571
_symmetry_space_group_name_H-M "C 2/M"
_symmetry_group_IT_number 12
_symmetry_cell_setting 'monoclinic'
loop_
_space_group_symop_operation_xyz
x,y,z
-x,y,-z
-x,-y,-z
x,-y,z
1/2+x,1/2+y,z
1/2-x,1/2+y,-z
1/2-x,1/2-y,-z
1/2+x,1/2-y,z
loop_
_atom_site_type_symbol
_atom_site_label
_atom_site_fract_x
_atom_site_fract_y
_atom_site_fract_z
Si Si1 0.711131 0.244636 0.686927
Si Si2 0.850726 0.616688 0.826109
Si Si3 0.903857 0.111711 0.511329
Si Si4 0.171712 0.610177 0.035267
Si Si5 0.574408 0.715852 0.783204
Si Si6 0.953177 0.383991 0.300915
O O1 0.842741 0.325562 0.771796
O O2 0.508464 0.300500 0.586466
O O3 0.670196 0.149654 0.704177
O O4 0.838669 0.206805 0.694268
O O5 0.852244 0.500000 0.814881
O O6 0.656947 0.637771 0.777903
O O7 0.059329 0.650164 0.939219
O O8 0.677831 0.142242 0.408759
O O9 0.000000 0.104764 0.500000
O O10 0.921416 0.000000 0.543733
O O11 0.276103 0.500000 0.070715
O O12 0.319658 0.694658 0.119587
O O13 0.000000 0.589052 0.000000
O O14 0.615613 0.826009 0.777481
O O15 0.914271 0.500000 0.273867
#
# Coordination Sequence:
#
# PCOD8088560 Si02
#       6
#     8   8   8   8   8   8
#     4  11  21  33  56  82 106 136 174 218 262 311
#     4   9  19  35  55  80 106 135 177 219 257 305
#     4  10  19  35  58  78 102 137 177 215 258 311
#     4   8  15  31  54  77 104 137 172 215 260 303
#     4  10  19  32  54  78 103 138 175 213 257 308
#     4  10  22  37  52  76 110 143 172 212 262 311
#
# _framework density 19.465876000000002
#
# number of rings (size 3 to 8) (size 9 to 14) (size 15 to 20)
#    0.000    2.333    1.667    2.500    0.000    2.667 
#    0.000    0.000    0.000   14.000    0.000    0.000 
#    0.000    0.000    0.000    0.000    0.000    0.000 
#
# Total GULP energy -297349.187100 kJ/mol
# GULP energy per Si atom -12389.549462 kJ/mol
# Density = 1.942157 g / cm^3
# Si number density = 19.465876 Si / 1000 Ang^3
#
#
#
# Elastic Constant Matrix: (Units=GPa)
#
#
# Indices 1 2 3 4 5 6 
#
# 1 60.8459 18.7354 3.2717 0.0001 7.7844 0.0000
# 2 18.7354 97.7294 54.2256 0.0000 -1.8449 0.0000
# 3 3.2717 54.2256 74.7028 0.0001 -9.8758 -0.0002
# 4 0.0001 0.0000 0.0001 59.9683 0.0001 -16.7456
# 5 7.7844 -1.8449 -9.8758 0.0001 25.4242 0.0000
# 6 0.0000 0.0000 -0.0002 -16.7456 0.0000 27.5616
#
#
#
# Elastic Compliance Matrix: (Units=1/GPa)
#
#
# Indices 1 2 3 4 5 6 
#
# 1 0.018449 -0.004692 0.001904 0.000000 -0.005250 0.000000
# 2 -0.004692 0.018678 -0.013686 0.000000 -0.002524 0.000000
# 3 0.001904 -0.013686 0.024276 0.000000 0.007854 0.000000
# 4 0.000000 0.000000 0.000000 0.020083 0.000000 0.012202
# 5 -0.005250 -0.002524 0.007854 0.000000 0.043807 0.000000
# 6 0.000000 0.000000 0.000000 0.012202 0.000000 0.043696
#
#
# Mechanical properties :
#
#
# Convention : Reuss Voigt Hill
#
# Bulk Modulus (GPa) = 35.14455 42.86037 39.00246
# Shear Modulus (GPa) = 23.64921 33.06050 28.35486
#
# Velocity S-wave (km/s) = 3.48933 4.12561 3.82074
# Velocity P-wave (km/s) = 5.85897 6.69031 6.28839
#
# Compressibility (1/GPa) = 0.02845391
#
# Stress axis : x y z
#
# Youngs Moduli (GPa) = 54.20328 53.53810 41.19280
#
# Poissons Ratio (x) = 0.25123 -0.07844
# Poissons Ratio (y) = 0.25435 0.56379
# Poissons Ratio (z) = -0.10321 0.73275
#
# Static dielectric constant tensor:
#      x y z
#    x 3.727050 0.000000 0.443980 
#    y 0.000000 3.589800 0.000000 
#    z 0.443980 0.000000 4.545790 
# 
# 
# High freq. dielectric constant tensor:
#      x y z
#    x 1.745170 0.000000 -0.002570 
#    y 0.000000 1.751330 0.000000 
#    z -0.002570 0.000000 1.748700 
# 
# From -- ./inp_files/245847.got.cif
#   From: 2010.06.25/outbox.cif.g09.slc.cpg/sg12_123_cif.got.tgz:245847.got - 2010.06.28 00:19:55.
