data_PCOD8088132
_publ_section_title
;
Structure prediction by ZEFSAII (Michael W. Deem and Ramdas Pophale) SiO2 
 PCOD8088132
Probable space group: C 2/M
;
_chemical_formula_sum "Si O2"
_cell_formula_units_Z 40
_cell_length_a 24.234493
_cell_length_b 8.501689
_cell_length_c 21.446831
_cell_angle_alpha 90.000000
_cell_angle_beta 149.990806
_cell_angle_gamma 90.000000
_cell_volume 2210.003541
_symmetry_space_group_name_H-M "C 2/M"
_symmetry_group_IT_number 12
_symmetry_cell_setting 'monoclinic'
loop_
_space_group_symop_operation_xyz
x,y,z
-x,y,-z
-x,-y,-z
x,-y,z
1/2+x,1/2+y,z
1/2-x,1/2+y,-z
1/2-x,1/2-y,-z
1/2+x,1/2-y,z
loop_
_atom_site_type_symbol
_atom_site_label
_atom_site_fract_x
_atom_site_fract_y
_atom_site_fract_z
Si Si1 0.661994 0.317072 0.660518
Si Si2 0.385867 0.682802 0.919026
Si Si3 0.400366 0.315864 0.191318
Si Si4 0.846209 0.682745 0.011210
Si Si5 0.489593 0.815580 0.585530
O O1 0.639403 0.500000 0.650807
O O2 0.790985 0.281818 0.791846
O O3 0.617694 0.268171 0.549054
O O4 0.597403 0.218709 0.649632
O O5 0.362646 0.500000 0.885133
O O6 0.500000 0.736473 0.000000
O O7 0.391570 0.717782 0.997969
O O8 0.414092 0.500000 0.194066
O O9 0.415664 0.229283 0.140279
O O10 0.494216 0.252101 0.329359
O O11 0.281642 0.273632 0.104077
O O12 0.861491 0.500000 0.011459
O O13 0.468494 0.000000 0.568083
#
# Coordination Sequence:
#
# PCOD8088132 Si02
#       5
#     8   8   8   8   8
#     4  11  21  34  52  77 108 141 180 221 267 319
#     4  11  23  38  56  78 108 145 183 223 265 315
#     4  10  19  32  52  79 111 142 173 219 270 321
#     4  10  20  33  52  78 108 142 179 220 266 318
#     4  11  20  32  53  79 110 142 174 219 271 322
#
# _framework density 18.099518
#
# number of rings (size 3 to 8) (size 9 to 14) (size 15 to 20)
#    0.000    1.400    2.000    6.600    0.000    3.200 
#    0.000    0.000    0.000    1.200    0.000    0.000 
#    0.000    0.000    0.000    0.000    0.000    0.000 
#
# Total GULP energy -248104.843800 kJ/mol
# GULP energy per Si atom -12405.242190 kJ/mol
# Density = 1.805832 g / cm^3
# Si number density = 18.099518 Si / 1000 Ang^3
#
#
#
# Elastic Constant Matrix: (Units=GPa)
#
#
# Indices 1 2 3 4 5 6 
#
# 1 72.3401 16.8425 48.4489 0.0000 -8.3234 0.0000
# 2 16.8425 56.5202 17.2705 0.0000 1.1496 0.0000
# 3 48.4489 17.2705 119.3752 0.0000 -23.0264 0.0000
# 4 0.0000 0.0000 0.0000 32.6453 0.0000 -7.7879
# 5 -8.3234 1.1496 -23.0264 0.0000 30.7657 0.0000
# 6 0.0000 0.0000 0.0000 -7.7879 0.0000 23.2148
#
#
#
# Elastic Compliance Matrix: (Units=1/GPa)
#
#
# Indices 1 2 3 4 5 6 
#
# 1 0.019652 -0.003564 -0.007490 0.000000 -0.000156 0.000000
# 2 -0.003564 0.019423 -0.001974 0.000000 -0.003168 0.000000
# 3 -0.007490 -0.001974 0.013237 0.000000 0.007954 0.000000
# 4 0.000000 0.000000 0.000000 0.033297 0.000000 0.011170
# 5 -0.000156 -0.003168 0.007954 0.000000 0.038533 0.000000
# 6 0.000000 0.000000 0.000000 0.011170 0.000000 0.046823
#
#
# Mechanical properties :
#
#
# Convention : Reuss Voigt Hill
#
# Bulk Modulus (GPa) = 38.08997 45.92880 42.00938
# Shear Modulus (GPa) = 24.29849 28.37008 26.33428
#
# Velocity S-wave (km/s) = 3.66798 3.96340 3.81855
# Velocity P-wave (km/s) = 6.24734 6.80996 6.53470
#
# Compressibility (1/GPa) = 0.02625363
#
# Stress axis : x y z
#
# Youngs Moduli (GPa) = 50.88545 51.48640 75.54634
#
# Poissons Ratio (x) = 0.18351 0.56587
# Poissons Ratio (y) = 0.18136 0.14916
# Poissons Ratio (z) = 0.38115 0.10166
#
# Static dielectric constant tensor:
#      x y z
#    x 3.088320 0.000000 -0.276940 
#    y 0.000000 3.391360 0.000000 
#    z -0.276940 0.000000 3.485230 
# 
# 
# High freq. dielectric constant tensor:
#      x y z
#    x 1.663970 0.000000 -0.031910 
#    y 0.000000 1.719620 0.000000 
#    z -0.031910 0.000000 1.701490 
# 
# From -- ./inp_files/171857.got.cif
#   From: 2010.06.25/outbox.cif.g09.slc.cpg/sg12_86_cif.got.tgz:171857.got - 2010.06.28 00:19:55.
