data_PCOD8088042
_publ_section_title
;
Structure prediction by ZEFSAII (Michael W. Deem and Ramdas Pophale) SiO2 
 PCOD8088042
Probable space group: C 2/M
;
_chemical_formula_sum "Si O2"
_cell_formula_units_Z 56
_cell_length_a 18.135208
_cell_length_b 8.873224
_cell_length_c 18.817776
_cell_angle_alpha 90.000000
_cell_angle_beta 104.201831
_cell_angle_gamma 90.000000
_cell_volume 2935.567700
_symmetry_space_group_name_H-M "C 2/M"
_symmetry_group_IT_number 12
_symmetry_cell_setting 'monoclinic'
loop_
_space_group_symop_operation_xyz
x,y,z
-x,y,-z
-x,-y,-z
x,-y,z
1/2+x,1/2+y,z
1/2-x,1/2+y,-z
1/2-x,1/2-y,-z
1/2+x,1/2-y,z
loop_
_atom_site_type_symbol
_atom_site_label
_atom_site_fract_x
_atom_site_fract_y
_atom_site_fract_z
Si Si1 0.700896 0.678607 0.150597
Si Si2 0.827618 0.323261 0.993701
Si Si3 0.869057 0.323654 0.153682
Si Si4 0.508645 0.820922 0.708892
Si Si5 0.777460 0.177325 0.434132
Si Si6 0.657303 0.821767 0.287399
Si Si7 0.567088 0.825473 0.571149
O O1 0.696306 0.500000 0.146670
O O2 0.647477 0.745216 0.074359
O O3 0.787056 0.739942 0.159506
O O4 0.669760 0.737365 0.216994
O O5 0.816930 0.500000 0.978452
O O6 0.750000 0.250000 0.000000
O O7 0.885418 0.292519 0.073497
O O8 0.866920 0.500000 0.168076
O O9 0.936606 0.251997 0.216757
O O10 0.423027 0.764164 0.700614
O O11 0.538782 0.763505 0.640257
O O12 0.508974 0.000000 0.710343
O O13 0.750000 0.250000 0.500000
O O14 0.722100 0.228989 0.357604
O O15 0.862064 0.227782 0.436448
O O16 0.774436 0.000000 0.443378
O O17 0.657986 0.000000 0.274168
O O18 0.500000 0.801112 0.500000
O O19 0.591697 0.000000 0.580903
#
# Coordination Sequence:
#
# PCOD8088042 Si02
#       7
#     8   8   8   8   8   8   8
#     4  10  19  32  52  77 104 136 175 218 267 321
#     4   9  16  28  48  75 104 133 172 220 268 319
#     4   8  15  28  49  75  98 128 173 218 259 308
#     4   9  17  32  53  75 102 136 176 220 264 315
#     4  11  23  38  57  83 113 144 180 221 269 323
#     4  10  21  36  54  77 105 138 176 219 265 314
#     4  10  20  36  59  84 110 143 181 221 269 323
#
# _framework density 19.076377000000001
#
# number of rings (size 3 to 8) (size 9 to 14) (size 15 to 20)
#    0.000    2.429    0.000    3.857    0.000    4.857 
#    0.000    1.429    0.000   10.286    0.000    0.000 
#    0.000    0.000    0.000    0.000    0.000    0.000 
#
# Total GULP energy -347105.254137 kJ/mol
# GULP energy per Si atom -12396.616219 kJ/mol
# Density = 1.903296 g / cm^3
# Si number density = 19.076377 Si / 1000 Ang^3
#
#
#
# Elastic Constant Matrix: (Units=GPa)
#
#
# Indices 1 2 3 4 5 6 
#
# 1 103.2903 27.4453 60.8438 0.0000 -11.7672 0.0000
# 2 27.4453 50.3241 48.1537 0.0000 -8.8511 0.0000
# 3 60.8438 48.1537 173.4393 0.0000 -16.1786 0.0000
# 4 0.0000 0.0000 0.0000 27.1032 0.0000 -7.9114
# 5 -11.7672 -8.8511 -16.1786 0.0000 31.7881 0.0000
# 6 0.0000 0.0000 0.0000 -7.9114 0.0000 23.0651
#
#
#
# Elastic Compliance Matrix: (Units=1/GPa)
#
#
# Indices 1 2 3 4 5 6 
#
# 1 0.012797 -0.003408 -0.003349 0.000000 0.002084 0.000000
# 2 -0.003408 0.028435 -0.006381 0.000000 0.003408 0.000000
# 3 -0.003349 -0.006381 0.008851 0.000000 0.001488 0.000000
# 4 0.000000 0.000000 0.000000 0.041001 0.000000 0.014063
# 5 0.002084 0.003408 0.001488 0.000000 0.033936 0.000000
# 6 0.000000 0.000000 0.000000 0.014063 0.000000 0.048179
#
#
# Mechanical properties :
#
#
# Convention : Reuss Voigt Hill
#
# Bulk Modulus (GPa) = 42.00453 66.65993 54.33223
# Shear Modulus (GPa) = 24.10659 29.09868 26.60263
#
# Velocity S-wave (km/s) = 3.55870 3.90985 3.73840
# Velocity P-wave (km/s) = 6.24121 7.44326 6.86858
#
# Compressibility (1/GPa) = 0.02380696
#
# Stress axis : x y z
#
# Youngs Moduli (GPa) = 78.14326 35.16732 112.98257
#
# Poissons Ratio (x) = 0.11987 0.37833
# Poissons Ratio (y) = 0.26635 0.72096
# Poissons Ratio (z) = 0.26167 0.22441
#
# Static dielectric constant tensor:
#      x y z
#    x 3.544640 0.000000 0.089320 
#    y 0.000000 3.358740 0.000000 
#    z 0.089320 0.000000 4.070940 
# 
# 
# High freq. dielectric constant tensor:
#      x y z
#    x 1.725220 0.000000 -0.002700 
#    y 0.000000 1.715480 0.000000 
#    z -0.002700 0.000000 1.768080 
# 
# From -- ./inp_files/275515.got.cif
#   From: 2010.06.25/outbox.cif.g09.slc.cpg/sg12_138_cif.got.tgz:275515.got - 2010.06.28 00:19:55.
