data_PCOD8088716
_publ_section_title
;
Structure prediction by ZEFSAII (Michael W. Deem and Ramdas Pophale) SiO2 
 PCOD8088716
Probable space group: C 2/M
;
_chemical_formula_sum "Si O2"
_cell_formula_units_Z 64
_cell_length_a 23.103388
_cell_length_b 8.906712
_cell_length_c 20.814196
_cell_angle_alpha 90.000000
_cell_angle_beta 51.751491
_cell_angle_gamma 90.000000
_cell_volume 3363.617404
_symmetry_space_group_name_H-M "C 2/M"
_symmetry_group_IT_number 12
_symmetry_cell_setting 'monoclinic'
loop_
_space_group_symop_operation_xyz
x,y,z
-x,y,-z
-x,-y,-z
x,-y,z
1/2+x,1/2+y,z
1/2-x,1/2+y,-z
1/2-x,1/2-y,-z
1/2+x,1/2-y,z
loop_
_atom_site_type_symbol
_atom_site_label
_atom_site_fract_x
_atom_site_fract_y
_atom_site_fract_z
Si Si1 0.509468 0.677557 0.317064
Si Si2 0.953929 0.176798 0.093579
Si Si3 0.343271 0.820730 0.757808
Si Si4 0.686007 0.829638 0.080430
Si Si5 0.221459 0.825737 0.613425
Si Si6 0.522546 0.173826 0.170381
Si Si7 0.708897 0.323356 0.766345
Si Si8 0.135256 0.672730 0.561170
O O1 0.516125 0.500000 0.309567
O O2 0.577922 0.744863 0.310537
O O3 0.502427 0.741408 0.249719
O O4 0.436253 0.727552 0.405637
O O5 0.867294 0.217448 0.144512
O O6 0.979935 0.257473 0.139931
O O7 0.965736 0.000000 0.094788
O O8 0.000000 0.234446 0.000000
O O9 0.320546 0.763570 0.843821
O O10 0.279988 0.756851 0.754209
O O11 0.352804 0.000000 0.748026
O O12 0.609245 0.808506 0.095741
O O13 0.710146 0.000000 0.069154
O O14 0.750000 0.750000 0.000000
O O15 0.208586 0.762932 0.693867
O O16 0.170694 0.724901 0.603616
O O17 0.307154 0.804740 0.536391
O O18 0.197849 0.000000 0.622429
O O19 0.501082 0.000000 0.193897
O O20 0.719267 0.500000 0.757216
O O21 0.111843 0.500000 0.584221
#
# Coordination Sequence:
#
# PCOD8088716 Si02
#       8
#     8   8   8   8   8   8   8   8
#     4  11  21  35  56  80 106 138 178 226 275 327
#     4  10  21  34  54  83 112 145 182 220 267 325
#     4   9  19  36  55  75 103 141 181 222 268 319
#     4   9  19  32  51  75  99 131 173 221 270 315
#     4   9  18  33  55  83 111 145 186 224 266 317
#     4  10  21  37  54  76 106 139 178 224 272 320
#     4   9  18  35  56  77 107 144 181 221 265 319
#     4  10  19  32  54  83 113 142 179 226 273 322
#
# _framework density 19.027135000000001
#
# number of rings (size 3 to 8) (size 9 to 14) (size 15 to 20)
#    0.000    2.375    0.000    3.375    1.750    4.250 
#    0.000    1.875    0.000    3.750    0.000    0.000 
#    0.000    0.000    0.000    0.000    0.000    0.000 
#
# Total GULP energy -396764.692202 kJ/mol
# GULP energy per Si atom -12398.896631 kJ/mol
# Density = 1.898383 g / cm^3
# Si number density = 19.027135 Si / 1000 Ang^3
#
#
#
# Elastic Constant Matrix: (Units=GPa)
#
#
# Indices 1 2 3 4 5 6 
#
# 1 103.1750 29.2906 41.7250 0.0002 -10.4237 -0.0003
# 2 29.2906 66.9688 25.8977 -0.0006 -9.4926 0.0008
# 3 41.7250 25.8977 94.0810 0.0002 -17.5826 -0.0003
# 4 0.0002 -0.0006 0.0002 25.7120 -0.0003 -4.3957
# 5 -10.4237 -9.4926 -17.5826 -0.0003 28.5237 0.0004
# 6 -0.0003 0.0008 -0.0003 -4.3957 0.0004 28.7063
#
#
#
# Elastic Compliance Matrix: (Units=1/GPa)
#
#
# Indices 1 2 3 4 5 6 
#
# 1 0.012609 -0.003703 -0.004455 0.000000 0.000629 0.000000
# 2 -0.003703 0.018042 -0.002775 0.000000 0.002941 -0.000001
# 3 -0.004455 -0.002775 0.014570 0.000000 0.006430 0.000000
# 4 0.000000 0.000000 0.000000 0.039938 0.000000 0.006116
# 5 0.000629 0.002941 0.006430 0.000000 0.040231 -0.000001
# 6 0.000000 -0.000001 0.000000 0.006116 -0.000001 0.035772
#
#
# Mechanical properties :
#
#
# Convention : Reuss Voigt Hill
#
# Bulk Modulus (GPa) = 42.81560 50.89458 46.85509
# Shear Modulus (GPa) = 26.20384 27.74249 26.97317
#
# Velocity S-wave (km/s) = 3.71507 3.82258 3.76921
# Velocity P-wave (km/s) = 6.39950 6.80363 6.60465
#
# Compressibility (1/GPa) = 0.02335597
#
# Stress axis : x y z
#
# Youngs Moduli (GPa) = 79.31019 55.42741 68.63206
#
# Poissons Ratio (x) = 0.20523 0.30576
# Poissons Ratio (y) = 0.29366 0.19042
# Poissons Ratio (z) = 0.35334 0.15379
#
# Static dielectric constant tensor:
#      x y z
#    x 3.606390 0.000000 -0.214580 
#    y 0.000000 3.336960 0.000010 
#    z -0.214580 0.000010 3.464380 
# 
# 
# High freq. dielectric constant tensor:
#      x y z
#    x 1.738730 0.000000 -0.017980 
#    y 0.000000 1.724290 0.000000 
#    z -0.017980 0.000000 1.739340 
# 
# From -- ./inp_files/324098.got.cif
#   From: 2010.06.25/outbox.cif.g09.slc.cpg/sg12_163_cif.got.tgz:324098.got - 2010.06.28 00:19:55.
