data_PCOD8088007
_publ_section_title
;
Structure prediction by ZEFSAII (Michael W. Deem and Ramdas Pophale) SiO2 
 PCOD8088007
Probable space group: C 2/M
;
_chemical_formula_sum "Si O2"
_cell_formula_units_Z 52
_cell_length_a 21.415894
_cell_length_b 13.066762
_cell_length_c 11.116947
_cell_angle_alpha 90.000000
_cell_angle_beta 115.373714
_cell_angle_gamma 90.000000
_cell_volume 2810.821424
_symmetry_space_group_name_H-M "C 2/M"
_symmetry_group_IT_number 12
_symmetry_cell_setting 'monoclinic'
loop_
_space_group_symop_operation_xyz
x,y,z
-x,y,-z
-x,-y,-z
x,-y,z
1/2+x,1/2+y,z
1/2-x,1/2+y,-z
1/2-x,1/2-y,-z
1/2+x,1/2-y,z
loop_
_atom_site_type_symbol
_atom_site_label
_atom_site_fract_x
_atom_site_fract_y
_atom_site_fract_z
Si Si1 0.000000 0.672664 0.000000
Si Si2 0.941385 0.384344 0.592906
Si Si3 0.172317 0.879809 0.912682
Si Si4 0.231873 0.746108 0.168861
Si Si5 0.645088 0.884185 0.710754
Si Si6 0.558633 0.763571 0.804890
Si Si7 0.365396 0.110752 0.762819
O O1 0.962957 0.739316 0.073262
O O2 0.059223 0.605891 0.111679
O O3 0.973869 0.500000 0.634330
O O4 0.916592 0.370071 0.436005
O O5 0.876397 0.373539 0.629232
O O6 0.994166 0.292508 0.666979
O O7 0.232427 0.849556 0.869194
O O8 0.095043 0.845701 0.803936
O O9 0.173959 0.000000 0.937485
O O10 0.185109 0.816608 0.045113
O O11 0.290103 0.816622 0.278121
O O12 0.182885 0.701615 0.231651
O O13 0.618173 0.848006 0.820526
O O14 0.670621 0.000000 0.741934
O O15 0.330543 0.000000 0.757392
#
# Coordination Sequence:
#
# PCOD8088007 Si02
#       7
#     4   8   8   8   8   8   8
#     4  10  19  34  49  78 104 132 171 208 263 312
#     4   9  19  34  54  80 106 134 172 216 259 302
#     4  10  20  35  52  76 107 138 174 210 254 312
#     4  10  20  34  52  78 104 140 171 212 257 303
#     4  10  20  34  54  79 105 137 175 212 256 304
#     4  10  19  33  55  76 107 134 167 217 261 303
#     4  10  19  32  52  76 107 136 168 214 260 304
#
# _framework density 18.499929999999999
#
# number of rings (size 3 to 8) (size 9 to 14) (size 15 to 20)
#    0.000    2.154    1.538    2.077    0.000    3.692 
#    0.000    0.385    0.000    8.308    0.000    0.000 
#    0.000    0.000    0.000    0.000    0.000    0.000 
#
# Total GULP energy -322175.735630 kJ/mol
# GULP energy per Si atom -12391.374447 kJ/mol
# Density = 1.845782 g / cm^3
# Si number density = 18.499930 Si / 1000 Ang^3
#
#
#
# Elastic Constant Matrix: (Units=GPa)
#
#
# Indices 1 2 3 4 5 6 
#
# 1 94.3212 53.4603 24.9841 0.0000 -7.7985 0.0000
# 2 53.4603 118.5877 24.8009 0.0000 1.7561 0.0000
# 3 24.9841 24.8009 48.8561 0.0000 -3.2813 0.0000
# 4 0.0000 0.0000 0.0000 19.9584 0.0000 3.3827
# 5 -7.7985 1.7561 -3.2813 0.0000 32.2179 0.0000
# 6 0.0000 0.0000 0.0000 3.3827 0.0000 26.0455
#
#
#
# Elastic Compliance Matrix: (Units=1/GPa)
#
#
# Indices 1 2 3 4 5 6 
#
# 1 0.015595 -0.006117 -0.004626 0.000000 0.003637 0.000000
# 2 -0.006117 0.011866 -0.003059 0.000000 -0.002439 0.000000
# 3 -0.004626 -0.003059 0.024490 0.000000 0.001541 0.000000
# 4 0.000000 0.000000 0.000000 0.051232 0.000000 -0.006654
# 5 0.003637 -0.002439 0.001541 0.000000 0.032209 0.000000
# 6 0.000000 0.000000 0.000000 -0.006654 0.000000 0.039259
#
#
# Mechanical properties :
#
#
# Convention : Reuss Voigt Hill
#
# Bulk Modulus (GPa) = 41.07160 52.02839 46.54999
# Shear Modulus (GPa) = 23.76763 26.21235 24.98999
#
# Velocity S-wave (km/s) = 3.58822 3.76824 3.67933
# Velocity P-wave (km/s) = 6.27823 6.86422 6.57775
#
# Compressibility (1/GPa) = 0.02434772
#
# Stress axis : x y z
#
# Youngs Moduli (GPa) = 64.12313 84.27414 40.83257
#
# Poissons Ratio (x) = 0.51549 0.18887
# Poissons Ratio (y) = 0.39223 0.12492
# Poissons Ratio (z) = 0.29661 0.25782
#
# Static dielectric constant tensor:
#      x y z
#    x 3.541420 0.000000 -0.011450 
#    y 0.000000 3.206490 0.000000 
#    z -0.011450 0.000000 3.360420 
# 
# 
# High freq. dielectric constant tensor:
#      x y z
#    x 1.727650 0.000000 -0.003930 
#    y 0.000000 1.691570 0.000000 
#    z -0.003930 0.000000 1.703330 
# 
# From -- ./inp_files/165772.got.cif
#   From: 2010.06.25/outbox.cif.g09.slc.cpg/sg12_83_cif.got.tgz:165772.got - 2010.06.28 00:19:55.
