data_PCOD8088340
_publ_section_title
;
Structure prediction by ZEFSAII (Michael W. Deem and Ramdas Pophale) SiO2 
 PCOD8088340
Probable space group: C 2/M
;
_chemical_formula_sum "Si O2"
_cell_formula_units_Z 56
_cell_length_a 18.528045
_cell_length_b 8.956292
_cell_length_c 23.030580
_cell_angle_alpha 90.000000
_cell_angle_beta 127.782541
_cell_angle_gamma 90.000000
_cell_volume 3020.491617
_symmetry_space_group_name_H-M "C 2/M"
_symmetry_group_IT_number 12
_symmetry_cell_setting 'monoclinic'
loop_
_space_group_symop_operation_xyz
x,y,z
-x,y,-z
-x,-y,-z
x,-y,z
1/2+x,1/2+y,z
1/2-x,1/2+y,-z
1/2-x,1/2-y,-z
1/2+x,1/2-y,z
loop_
_atom_site_type_symbol
_atom_site_label
_atom_site_fract_x
_atom_site_fract_y
_atom_site_fract_z
Si Si1 0.495275 0.674824 0.064878
Si Si2 0.626790 0.335569 0.224097
Si Si3 0.272765 0.175094 0.632799
Si Si4 0.057355 0.323251 0.360185
Si Si5 0.446992 0.331547 0.213066
Si Si6 0.843525 0.322757 0.065157
Si Si7 0.921375 0.173979 0.507606
O O1 0.471522 0.500000 0.063998
O O2 0.594131 0.712443 0.143221
O O3 0.418430 0.778439 0.054574
O O4 0.500000 0.714587 0.000000
O O5 0.670314 0.500000 0.244414
O O6 0.702916 0.229770 0.290103
O O7 0.535661 0.332543 0.216988
O O8 0.347943 0.230279 0.623228
O O9 0.173951 0.235628 0.565224
O O10 0.270398 0.000000 0.635181
O O11 0.047317 0.500000 0.352044
O O12 0.055264 0.269584 0.424789
O O13 0.970872 0.249813 0.285227
O O14 0.413222 0.500000 0.209143
O O15 0.368325 0.239887 0.141231
O O16 0.834594 0.500000 0.064256
O O17 0.750000 0.250000 0.000000
O O18 0.000000 0.202750 0.500000
O O19 0.914114 0.000000 0.521016
#
# Coordination Sequence:
#
# PCOD8088340 Si02
#       7
#     8   8   8   8   8   8   8
#     4   9  18  34  54  76 105 140 176 215 263 316
#     4   8  15  28  49  75  99 127 163 206 255 301
#     4   9  18  32  51  74  97 125 165 210 251 295
#     4  10  19  32  53  79 101 124 162 212 258 301
#     4   9  17  32  53  76 102 132 168 210 257 306
#     4  11  21  34  53  78 108 140 177 218 261 309
#     4  10  21  36  51  69  99 138 171 202 249 305
#
# _framework density 18.540028
#
# number of rings (size 3 to 8) (size 9 to 14) (size 15 to 20)
#    0.000    2.571    0.000    3.429    0.000    5.143 
#    0.000    1.429    0.000    3.429    0.000    0.000 
#    0.000    0.000    0.000    0.000    0.000    0.000 
#
# Total GULP energy -347138.130783 kJ/mol
# GULP energy per Si atom -12397.790385 kJ/mol
# Density = 1.849783 g / cm^3
# Si number density = 18.540028 Si / 1000 Ang^3
#
#
#
# Elastic Constant Matrix: (Units=GPa)
#
#
# Indices 1 2 3 4 5 6 
#
# 1 49.3385 36.4272 51.9723 0.0000 4.7148 0.0000
# 2 36.4272 96.4387 67.9759 0.0000 6.3501 0.0000
# 3 51.9723 67.9759 188.1218 0.0000 2.4433 0.0000
# 4 0.0000 0.0000 0.0000 38.9509 0.0000 0.6882
# 5 4.7148 6.3501 2.4433 0.0000 25.9855 0.0000
# 6 0.0000 0.0000 0.0000 0.6882 0.0000 19.2799
#
#
#
# Elastic Compliance Matrix: (Units=1/GPa)
#
#
# Indices 1 2 3 4 5 6 
#
# 1 0.032936 -0.007822 -0.006228 0.000000 -0.003479 0.000000
# 2 -0.007822 0.015997 -0.003591 0.000000 -0.002152 0.000000
# 3 -0.006228 -0.003591 0.008318 0.000000 0.001225 0.000000
# 4 0.000000 0.000000 0.000000 0.025690 0.000000 -0.000917
# 5 -0.003479 -0.002152 0.001225 0.000000 0.039525 0.000000
# 6 0.000000 0.000000 0.000000 -0.000917 0.000000 0.051900
#
#
# Mechanical properties :
#
#
# Convention : Reuss Voigt Hill
#
# Bulk Modulus (GPa) = 45.51917 71.84995 58.68456
# Shear Modulus (GPa) = 23.04467 28.67818 25.86142
#
# Velocity S-wave (km/s) = 3.52940 3.93724 3.73888
# Velocity P-wave (km/s) = 6.41982 7.71409 7.09652
#
# Compressibility (1/GPa) = 0.02196877
#
# Stress axis : x y z
#
# Youngs Moduli (GPa) = 30.36232 62.51175 120.22132
#
# Poissons Ratio (x) = 0.48896 0.74868
# Poissons Ratio (y) = 0.23749 0.43177
# Poissons Ratio (z) = 0.18908 0.22451
#
# Static dielectric constant tensor:
#      x y z
#    x 3.117380 0.000000 0.112980 
#    y 0.000000 3.432520 0.000000 
#    z 0.112980 0.000000 3.868540 
# 
# 
# High freq. dielectric constant tensor:
#      x y z
#    x 1.675200 0.000000 0.003730 
#    y 0.000000 1.719240 0.000000 
#    z 0.003730 0.000000 1.742170 
# 
# From -- ./inp_files/320216.got.cif
#   From: 2010.06.25/outbox.cif.g09.slc.cpg/sg12_161_cif.got.tgz:320216.got - 2010.06.28 00:19:55.
