data_PCOD8088700
_publ_section_title
;
Structure prediction by ZEFSAII (Michael W. Deem and Ramdas Pophale) SiO2 
 PCOD8088700
Probable space group: C 2/M
;
_chemical_formula_sum "Si O2"
_cell_formula_units_Z 40
_cell_length_a 15.129106
_cell_length_b 9.343723
_cell_length_c 26.432178
_cell_angle_alpha 90.000000
_cell_angle_beta 147.126877
_cell_angle_gamma 90.000000
_cell_volume 2028.104986
_symmetry_space_group_name_H-M "C 2/M"
_symmetry_group_IT_number 12
_symmetry_cell_setting 'monoclinic'
loop_
_space_group_symop_operation_xyz
x,y,z
-x,y,-z
-x,-y,-z
x,-y,z
1/2+x,1/2+y,z
1/2-x,1/2+y,-z
1/2-x,1/2-y,-z
1/2+x,1/2-y,z
loop_
_atom_site_type_symbol
_atom_site_label
_atom_site_fract_x
_atom_site_fract_y
_atom_site_fract_z
Si Si1 0.287494 0.336466 0.592632
Si Si2 0.324849 0.331065 0.896448
Si Si3 0.030434 0.836202 0.795910
Si Si4 0.713835 0.335406 0.237317
Si Si5 0.515769 0.335535 0.415267
O O1 0.229779 0.500000 0.570967
O O2 0.390575 0.283818 0.690151
O O3 0.401038 0.316532 0.598817
O O4 0.127539 0.238002 0.511796
O O5 0.305738 0.500000 0.892459
O O6 0.303716 0.280303 0.828431
O O7 0.190345 0.259212 0.867377
O O8 0.500000 0.279326 0.000000
O O9 0.961138 0.819540 0.819401
O O10 0.077087 0.000000 0.806100
O O11 0.772653 0.500000 0.266853
O O12 0.842327 0.241376 0.329899
O O13 0.490527 0.500000 0.418010
#
# Coordination Sequence:
#
# PCOD8088700 Si02
#       5
#     8   8   8   8   8
#     4   9  18  33  53  78 111 148 186 225 269 322
#     4  10  22  40  60  83 112 144 180 229 286 334
#     4  10  21  38  59  84 111 146 189 227 269 329
#     4  10  21  37  58  82 113 149 184 225 277 330
#     4  10  19  32  54  82 112 147 189 227 266 322
#
# _framework density 19.722846000000001
#
# number of rings (size 3 to 8) (size 9 to 14) (size 15 to 20)
#    0.000    2.200    2.000    0.600    0.000    4.400 
#    0.000    4.000    0.000    0.000    0.000    0.000 
#    0.000    0.000    0.000    0.000    0.000    0.000 
#
# Total GULP energy -248077.696320 kJ/mol
# GULP energy per Si atom -12403.884816 kJ/mol
# Density = 1.967796 g / cm^3
# Si number density = 19.722846 Si / 1000 Ang^3
#
#
#
# Elastic Constant Matrix: (Units=GPa)
#
#
# Indices 1 2 3 4 5 6 
#
# 1 50.0562 26.2957 31.1707 0.0000 17.7421 0.0000
# 2 26.2957 76.3210 55.1803 0.0001 14.9472 0.0000
# 3 31.1707 55.1803 120.8635 0.0002 18.6276 0.0000
# 4 0.0000 0.0001 0.0002 30.7260 0.0000 9.4076
# 5 17.7421 14.9472 18.6276 0.0000 19.3780 0.0000
# 6 0.0000 0.0000 0.0000 9.4076 0.0000 25.5386
#
#
#
# Elastic Compliance Matrix: (Units=1/GPa)
#
#
# Indices 1 2 3 4 5 6 
#
# 1 0.032400 -0.004675 -0.002589 0.000000 -0.023570 0.000000
# 2 -0.004675 0.021245 -0.007780 0.000000 -0.004628 0.000000
# 3 -0.002589 -0.007780 0.013152 0.000000 -0.004271 0.000000
# 4 0.000000 0.000000 0.000000 0.036683 0.000000 -0.013513
# 5 -0.023570 -0.004628 -0.004271 0.000000 0.080860 0.000000
# 6 0.000000 0.000000 0.000000 -0.013513 0.000000 0.044134
#
#
# Mechanical properties :
#
#
# Convention : Reuss Voigt Hill
#
# Bulk Modulus (GPa) = 27.24236 52.50380 39.87308
# Shear Modulus (GPa) = 18.46392 24.10146 21.28269
#
# Velocity S-wave (km/s) = 3.06301 3.49951 3.28851
# Velocity P-wave (km/s) = 5.13341 6.55800 5.88894
#
# Compressibility (1/GPa) = 0.03670754
#
# Stress axis : x y z
#
# Youngs Moduli (GPa) = 30.86435 47.06997 76.03501
#
# Poissons Ratio (x) = 0.22007 0.19684
# Poissons Ratio (y) = 0.14430 0.59159
# Poissons Ratio (z) = 0.07990 0.36623
#
# Static dielectric constant tensor:
#      x y z
#    x 3.533020 0.000000 -0.072750 
#    y 0.000000 3.500400 0.000000 
#    z -0.072750 0.000000 3.513790 
# 
# 
# High freq. dielectric constant tensor:
#      x y z
#    x 1.768860 0.000000 0.000210 
#    y 0.000000 1.760650 0.000000 
#    z 0.000210 0.000000 1.762190 
# 
# From -- ./inp_files/211169.got.cif
#   From: 2010.06.25/outbox.cif.g09.slc.cpg/sg12_106_cif.got.tgz:211169.got - 2010.06.28 00:19:55.
