data_PCOD8088685
_publ_section_title
;
Structure prediction by ZEFSAII (Michael W. Deem and Ramdas Pophale) SiO2 
 PCOD8088685
Probable space group: C 2/M
;
_chemical_formula_sum "Si O2"
_cell_formula_units_Z 56
_cell_length_a 19.180919
_cell_length_b 8.504823
_cell_length_c 20.741069
_cell_angle_alpha 90.000000
_cell_angle_beta 120.998611
_cell_angle_gamma 90.000000
_cell_volume 2900.265446
_symmetry_space_group_name_H-M "C 2/M"
_symmetry_group_IT_number 12
_symmetry_cell_setting 'monoclinic'
loop_
_space_group_symop_operation_xyz
x,y,z
-x,y,-z
-x,-y,-z
x,-y,z
1/2+x,1/2+y,z
1/2-x,1/2+y,-z
1/2-x,1/2-y,-z
1/2+x,1/2-y,z
loop_
_atom_site_type_symbol
_atom_site_label
_atom_site_fract_x
_atom_site_fract_y
_atom_site_fract_z
Si Si1 0.015884 0.816979 0.312160
Si Si2 0.029580 0.686639 0.584523
Si Si3 0.356210 0.824811 0.191193
Si Si4 0.293308 0.820384 0.294880
Si Si5 0.882560 0.184848 0.762926
Si Si6 0.836757 0.178842 0.053499
Si Si7 0.995276 0.316273 0.070884
O O1 0.085826 0.774460 0.293902
O O2 0.033460 0.772998 0.395451
O O3 0.943613 0.696156 0.264199
O O4 0.992125 0.000000 0.293951
O O5 0.026257 0.500000 0.594188
O O6 0.122704 0.753588 0.637287
O O7 0.000000 0.734935 0.500000
O O8 0.289489 0.805672 0.215332
O O9 0.347477 0.687550 0.135184
O O10 0.350061 0.000000 0.157357
O O11 0.208678 0.740426 0.278054
O O12 0.293398 0.000000 0.317806
O O13 0.940043 0.245272 0.848021
O O14 0.878016 0.000000 0.771987
O O15 0.904424 0.281366 0.050701
O O16 0.843157 0.000000 0.032873
O O17 0.750000 0.250000 0.000000
O O18 0.011767 0.500000 0.077652
O O19 0.000000 0.247804 0.000000
#
# Coordination Sequence:
#
# PCOD8088685 Si02
#       7
#     8   8   8   8   8   8   8
#     4  10  19  32  54  82 110 145 183 228 282 340
#     4   9  18  35  59  83 110 148 191 235 282 338
#     4  10  19  35  57  80 107 144 188 237 279 329
#     4   8  17  33  55  82 109 143 188 228 273 335
#     4  10  20  36  57  81 111 150 190 231 284 347
#     4  12  25  40  58  81 111 148 191 240 292 345
#     4  11  25  42  58  82 114 150 193 246 297 343
#
# _framework density 19.308578000000001
#
# number of rings (size 3 to 8) (size 9 to 14) (size 15 to 20)
#    0.000    2.000    1.429    3.429    2.000    2.000 
#    0.000    3.571    0.000    0.000    0.000    0.000 
#    0.000    0.000    0.000    0.000    0.000    0.000 
#
# Total GULP energy -346933.840382 kJ/mol
# GULP energy per Si atom -12390.494299 kJ/mol
# Density = 1.926463 g / cm^3
# Si number density = 19.308578 Si / 1000 Ang^3
#
#
#
# Elastic Constant Matrix: (Units=GPa)
#
#
# Indices 1 2 3 4 5 6 
#
# 1 159.5508 25.1004 71.0613 0.0000 -8.0730 0.0000
# 2 25.1004 40.6580 18.7987 0.0000 -8.3269 0.0000
# 3 71.0613 18.7987 115.1711 0.0000 -19.6485 0.0000
# 4 0.0000 0.0000 0.0000 26.7171 0.0000 -4.0466
# 5 -8.0730 -8.3269 -19.6485 0.0000 28.2980 0.0000
# 6 0.0000 0.0000 0.0000 -4.0466 0.0000 19.1324
#
#
#
# Elastic Compliance Matrix: (Units=1/GPa)
#
#
# Indices 1 2 3 4 5 6 
#
# 1 0.009139 -0.003585 -0.005432 0.000000 -0.002219 0.000000
# 2 -0.003585 0.028774 -0.001378 0.000000 0.006488 0.000000
# 3 -0.005432 -0.001378 0.013528 0.000000 0.007438 0.000000
# 4 0.000000 0.000000 0.000000 0.038668 0.000000 0.008179
# 5 -0.002219 0.006488 0.007438 0.000000 0.041779 0.000000
# 6 0.000000 0.000000 0.000000 0.008179 0.000000 0.053997
#
#
# Mechanical properties :
#
#
# Convention : Reuss Voigt Hill
#
# Bulk Modulus (GPa) = 32.62497 60.58896 46.60696
# Shear Modulus (GPa) = 23.05296 28.19079 25.62187
#
# Velocity S-wave (km/s) = 3.45907 3.82516 3.64671
# Velocity P-wave (km/s) = 5.73470 7.13838 6.47470
#
# Compressibility (1/GPa) = 0.03065137
#
# Stress axis : x y z
#
# Youngs Moduli (GPa) = 109.42577 34.75326 73.91925
#
# Poissons Ratio (x) = 0.12458 0.40154
# Poissons Ratio (y) = 0.39226 0.10187
# Poissons Ratio (z) = 0.59441 0.04789
#
# Static dielectric constant tensor:
#      x y z
#    x 3.194590 0.000000 0.746070 
#    y 0.000000 3.361050 0.000000 
#    z 0.746070 0.000000 2.332560 
# 
# 
# High freq. dielectric constant tensor:
#      x y z
#    x 1.758010 0.000000 -0.012740 
#    y 0.000000 1.736130 0.000000 
#    z -0.012740 0.000000 1.741510 
# 
# From -- ./inp_files/314402.got.cif
#   From: 2010.06.25/outbox.cif.g09.slc.cpg/sg12_158_cif.got.tgz:314402.got - 2010.06.28 00:19:55.
