data_PCOD8088018
_publ_section_title
;
Structure prediction by ZEFSAII (Michael W. Deem and Ramdas Pophale) SiO2 
 PCOD8088018
Probable space group: C 2/M
;
_chemical_formula_sum "Si O2"
_cell_formula_units_Z 48
_cell_length_a 20.671496
_cell_length_b 9.140399
_cell_length_c 14.911938
_cell_angle_alpha 90.000000
_cell_angle_beta 109.621489
_cell_angle_gamma 90.000000
_cell_volume 2653.936370
_symmetry_space_group_name_H-M "C 2/M"
_symmetry_group_IT_number 12
_symmetry_cell_setting 'monoclinic'
loop_
_space_group_symop_operation_xyz
x,y,z
-x,y,-z
-x,-y,-z
x,-y,z
1/2+x,1/2+y,z
1/2-x,1/2+y,-z
1/2-x,1/2-y,-z
1/2+x,1/2-y,z
loop_
_atom_site_type_symbol
_atom_site_label
_atom_site_fract_x
_atom_site_fract_y
_atom_site_fract_z
Si Si1 0.851450 0.829368 0.594124
Si Si2 0.061438 0.673503 0.223902
Si Si3 0.345762 0.173267 0.899665
Si Si4 0.798372 0.331354 0.406172
Si Si5 0.090790 0.326742 0.885914
Si Si6 0.295539 0.828624 0.200628
O O1 0.913049 0.748621 0.673297
O O2 0.846685 0.767701 0.491006
O O3 0.781314 0.794301 0.614218
O O4 0.867643 0.000000 0.597239
O O5 0.062929 0.500000 0.237896
O O6 0.109285 0.723261 0.163997
O O7 0.985153 0.733687 0.169139
O O8 0.271323 0.243204 0.860992
O O9 0.336963 0.000000 0.898260
O O10 0.383312 0.232589 0.006303
O O11 0.813432 0.500000 0.435879
O O12 0.815823 0.292118 0.312117
O O13 0.087511 0.500000 0.887865
O O14 0.141821 0.273776 0.831523
O O15 0.280610 0.000000 0.181782
#
# Coordination Sequence:
#
# PCOD8088018 Si02
#       6
#     8   8   8   8   8   8
#     4  10  19  32  52  77 102 128 166 214 257 298
#     4  10  19  33  53  76 104 137 172 207 247 298
#     4  10  19  32  53  78 103 134 174 212 247 292
#     4   9  18  32  51  75 100 129 167 209 253 302
#     4   9  19  34  52  75 104 139 173 206 246 298
#     4  10  19  34  54  76 104 134 169 211 253 299
#
# _framework density 18.086341999999998
#
# number of rings (size 3 to 8) (size 9 to 14) (size 15 to 20)
#    0.000    2.333    1.667    1.500    0.000    3.333 
#    0.000    2.500    0.000    7.000    0.000    0.000 
#    0.000    0.000    0.000    0.000    0.000    0.000 
#
# Total GULP energy -297663.322974 kJ/mol
# GULP energy per Si atom -12402.638457 kJ/mol
# Density = 1.804518 g / cm^3
# Si number density = 18.086342 Si / 1000 Ang^3
#
#
#
# Elastic Constant Matrix: (Units=GPa)
#
#
# Indices 1 2 3 4 5 6 
#
# 1 100.5407 26.8355 62.7348 0.0000 13.3927 0.0000
# 2 26.8355 37.3438 41.7705 0.0000 7.4271 0.0000
# 3 62.7348 41.7705 147.2458 0.0000 14.4775 0.0000
# 4 0.0000 0.0000 0.0000 25.8778 0.0000 6.1695
# 5 13.3927 7.4271 14.4775 0.0000 18.5920 0.0000
# 6 0.0000 0.0000 0.0000 6.1695 0.0000 21.7521
#
#
#
# Elastic Compliance Matrix: (Units=1/GPa)
#
#
# Indices 1 2 3 4 5 6 
#
# 1 0.014615 -0.004494 -0.004433 0.000000 -0.005281 0.000000
# 2 -0.004494 0.041620 -0.009286 0.000000 -0.006158 0.000000
# 3 -0.004433 -0.009286 0.011517 0.000000 -0.002066 0.000000
# 4 0.000000 0.000000 0.000000 0.041446 0.000000 -0.011755
# 5 -0.005281 -0.006158 -0.002066 0.000000 0.061659 0.000000
# 6 0.000000 0.000000 0.000000 -0.011755 0.000000 0.049307
#
#
# Mechanical properties :
#
#
# Convention : Reuss Voigt Hill
#
# Bulk Modulus (GPa) = 31.92269 60.86800 46.39534
# Shear Modulus (GPa) = 18.72433 23.49699 21.11066
#
# Velocity S-wave (km/s) = 3.22106 3.60829 3.42016
# Velocity P-wave (km/s) = 5.61445 7.14751 6.42686
#
# Compressibility (1/GPa) = 0.03132568
#
# Stress axis : x y z
#
# Youngs Moduli (GPa) = 68.42238 24.02712 86.82485
#
# Poissons Ratio (x) = 0.10798 0.38487
# Poissons Ratio (y) = 0.30749 0.80630
# Poissons Ratio (z) = 0.30330 0.22313
#
# Static dielectric constant tensor:
#      x y z
#    x 3.326150 0.000000 -0.035910 
#    y 0.000000 3.097970 0.000000 
#    z -0.035910 0.000000 3.505820 
# 
# 
# High freq. dielectric constant tensor:
#      x y z
#    x 1.688020 0.000000 0.000240 
#    y 0.000000 1.678280 0.000000 
#    z 0.000240 0.000000 1.716720 
# 
# From -- ./inp_files/229910.got.cif
#   From: 2010.06.25/outbox.cif.g09.slc.cpg/sg12_115_cif.got.tgz:229910.got - 2010.06.28 00:19:55.
