data_PCOD8088565
_publ_section_title
;
Structure prediction by ZEFSAII (Michael W. Deem and Ramdas Pophale) SiO2 
 PCOD8088565
Probable space group: C 2/M
;
_chemical_formula_sum "Si O2"
_cell_formula_units_Z 56
_cell_length_a 29.867884
_cell_length_b 8.996027
_cell_length_c 16.660552
_cell_angle_alpha 90.000000
_cell_angle_beta 46.281592
_cell_angle_gamma 90.000000
_cell_volume 3235.413354
_symmetry_space_group_name_H-M "C 2/M"
_symmetry_group_IT_number 12
_symmetry_cell_setting 'monoclinic'
loop_
_space_group_symop_operation_xyz
x,y,z
-x,y,-z
-x,-y,-z
x,-y,z
1/2+x,1/2+y,z
1/2-x,1/2+y,-z
1/2-x,1/2-y,-z
1/2+x,1/2-y,z
loop_
_atom_site_type_symbol
_atom_site_label
_atom_site_fract_x
_atom_site_fract_y
_atom_site_fract_z
Si Si1 0.343341 0.825618 0.911507
Si Si2 0.759265 0.327229 0.712428
Si Si3 0.119553 0.176052 0.867618
Si Si4 0.416724 0.326307 0.261161
Si Si5 0.781973 0.174220 0.844096
Si Si6 0.804664 0.673073 0.480908
Si Si7 0.441716 0.673673 0.894585
O O1 0.332072 0.751138 0.839405
O O2 0.406797 0.761775 0.868170
O O3 0.349761 0.000000 0.890811
O O4 0.287299 0.784849 0.041050
O O5 0.758290 0.500000 0.737483
O O6 0.689703 0.266012 0.786949
O O7 0.792180 0.235885 0.742212
O O8 0.797112 0.298110 0.584683
O O9 0.090025 0.234988 0.821362
O O10 0.117472 0.000000 0.869156
O O11 0.079837 0.235757 0.991893
O O12 0.399621 0.500000 0.285774
O O13 0.370998 0.238367 0.375780
O O14 0.485802 0.295882 0.206113
O O15 0.794203 0.000000 0.830440
O O16 0.801840 0.500000 0.463871
O O17 0.750000 0.750000 0.500000
O O18 0.425620 0.500000 0.906935
#
# Coordination Sequence:
#
# PCOD8088565 Si02
#       7
#     8   8   8   8   8   8   8
#     4  10  20  33  51  76 109 140 170 210 261 318
#     4  10  19  33  54  76 104 139 175 215 263 311
#     4   9  16  30  51  76 106 140 175 212 255 309
#     4  10  20  35  53  77 106 142 183 217 257 308
#     4  10  20  33  52  79 106 135 173 215 263 313
#     4  11  22  36  54  76 104 141 181 221 261 305
#     4  10  19  32  54  78 106 142 178 215 257 311
#
# _framework density 17.308453
#
# number of rings (size 3 to 8) (size 9 to 14) (size 15 to 20)
#    0.000    2.000    2.857    1.714    0.000    4.571 
#    0.000    0.714    0.000    2.571    0.000    6.000 
#    0.000    0.000    0.000    0.000    0.000    0.000 
#
# Total GULP energy -347289.770618 kJ/mol
# GULP energy per Si atom -12403.206094 kJ/mol
# Density = 1.726906 g / cm^3
# Si number density = 17.308453 Si / 1000 Ang^3
#
#
#
# Elastic Constant Matrix: (Units=GPa)
#
#
# Indices 1 2 3 4 5 6 
#
# 1 131.8596 61.4977 62.3161 0.0003 12.8335 0.0000
# 2 61.4977 79.4067 53.0746 0.0014 6.7183 -0.0005
# 3 62.3161 53.0746 98.6921 0.0006 -1.2612 -0.0002
# 4 0.0003 0.0014 0.0006 27.8259 -0.0002 1.4399
# 5 12.8335 6.7183 -1.2612 -0.0002 26.2658 0.0001
# 6 0.0000 -0.0005 -0.0002 1.4399 0.0001 30.9284
#
#
#
# Elastic Compliance Matrix: (Units=1/GPa)
#
#
# Indices 1 2 3 4 5 6 
#
# 1 0.013608 -0.006736 -0.005036 0.000000 -0.005168 0.000000
# 2 -0.006736 0.023834 -0.008606 -0.000001 -0.003218 0.000000
# 3 -0.005036 -0.008606 0.018011 0.000000 0.005527 0.000000
# 4 0.000000 -0.000001 0.000000 0.036025 0.000000 -0.001677
# 5 -0.005168 -0.003218 0.005527 0.000000 0.041686 0.000000
# 6 0.000000 0.000000 0.000000 -0.001677 0.000000 0.032411
#
#
# Mechanical properties :
#
#
# Convention : Reuss Voigt Hill
#
# Bulk Modulus (GPa) = 68.03468 73.74833 70.89151
# Shear Modulus (GPa) = 23.67089 25.87535 24.77312
#
# Velocity S-wave (km/s) = 3.70211 3.87066 3.78732
# Velocity P-wave (km/s) = 7.59386 7.91687 7.75704
#
# Compressibility (1/GPa) = 0.01469839
#
# Stress axis : x y z
#
# Youngs Moduli (GPa) = 73.48391 41.95651 55.52145
#
# Poissons Ratio (x) = 0.28261 0.27962
# Poissons Ratio (y) = 0.49497 0.47779
# Poissons Ratio (z) = 0.37009 0.36106
#
# Static dielectric constant tensor:
#      x y z
#    x 3.185240 0.000000 0.076530 
#    y 0.000000 3.092530 0.000000 
#    z 0.076530 0.000000 3.179920 
# 
# 
# High freq. dielectric constant tensor:
#      x y z
#    x 1.667830 0.000000 0.009870 
#    y 0.000000 1.658560 0.000000 
#    z 0.009870 0.000000 1.654370 
# 
# From -- ./inp_files/237378.got.cif
#   From: 2010.06.25/outbox.cif.g09.slc.cpg/sg12_119_cif.got.tgz:237378.got - 2010.06.28 00:19:55.
