data_PCOD8088554
_publ_section_title
;
Structure prediction by ZEFSAII (Michael W. Deem and Ramdas Pophale) SiO2 
 PCOD8088554
Probable space group: C 2/M
;
_chemical_formula_sum "Si O2"
_cell_formula_units_Z 48
_cell_length_a 22.785789
_cell_length_b 13.617669
_cell_length_c 12.647960
_cell_angle_alpha 90.000000
_cell_angle_beta 44.369145
_cell_angle_gamma 90.000000
_cell_volume 2744.337323
_symmetry_space_group_name_H-M "C 2/M"
_symmetry_group_IT_number 12
_symmetry_cell_setting 'monoclinic'
loop_
_space_group_symop_operation_xyz
x,y,z
-x,y,-z
-x,-y,-z
x,-y,z
1/2+x,1/2+y,z
1/2-x,1/2+y,-z
1/2-x,1/2-y,-z
1/2+x,1/2-y,z
loop_
_atom_site_type_symbol
_atom_site_label
_atom_site_fract_x
_atom_site_fract_y
_atom_site_fract_z
Si Si1 0.793876 0.889727 0.445720
Si Si2 0.774872 0.790440 0.133500
Si Si3 0.187565 0.386561 0.054554
Si Si4 0.497809 0.114150 0.625370
Si Si5 0.908610 0.111574 0.095295
Si Si6 0.661618 0.786506 0.481755
O O1 0.858981 0.882905 0.267505
O O2 0.704480 0.850474 0.519327
O O3 0.829788 0.827485 0.497587
O O4 0.782110 0.000000 0.502380
O O5 0.749096 0.862717 0.072227
O O6 0.864687 0.824376 0.061600
O O7 0.704322 0.801697 0.313478
O O8 0.784938 0.678526 0.081265
O O9 0.197642 0.500000 0.009883
O O10 0.092602 0.361360 0.209793
O O11 0.500000 0.143429 0.500000
O O12 0.565218 0.180464 0.600142
O O13 0.521512 0.000000 0.608983
O O14 0.915393 0.000000 0.045206
O O15 0.000000 0.156651 0.000000
#
# Coordination Sequence:
#
# PCOD8088554 Si02
#       6
#     8   8   8   8   8   8
#     4   9  19  33  51  75 101 132 169 207 251 299
#     4  10  20  34  53  75 101 135 168 208 251 301
#     4  10  21  35  52  77 104 135 170 207 255 303
#     4  10  19  32  54  78 101 129 169 217 255 296
#     4   9  18  32  51  74  98 129 167 208 249 292
#     4  10  19  33  54  77 101 134 169 210 253 299
#
# _framework density 17.490562000000001
#
# number of rings (size 3 to 8) (size 9 to 14) (size 15 to 20)
#    0.000    2.333    1.667    1.000    2.333    2.000 
#    0.000    0.000    0.000    1.000    0.000    0.000 
#    0.000    0.000    0.000    0.000    0.000    0.000 
#
# Total GULP energy -297640.727811 kJ/mol
# GULP energy per Si atom -12401.696992 kJ/mol
# Density = 1.745075 g / cm^3
# Si number density = 17.490562 Si / 1000 Ang^3
#
#
#
# Elastic Constant Matrix: (Units=GPa)
#
#
# Indices 1 2 3 4 5 6 
#
# 1 108.0349 43.1100 21.4018 0.0000 -18.0732 0.0000
# 2 43.1100 90.9450 9.9805 0.0000 -6.8565 0.0000
# 3 21.4018 9.9805 26.8115 0.0000 -13.7674 0.0000
# 4 0.0000 0.0000 0.0000 25.3488 0.0000 -1.1196
# 5 -18.0732 -6.8565 -13.7674 0.0000 29.0116 0.0000
# 6 0.0000 0.0000 0.0000 -1.1196 0.0000 24.2523
#
#
#
# Elastic Compliance Matrix: (Units=1/GPa)
#
#
# Indices 1 2 3 4 5 6 
#
# 1 0.013346 -0.005299 -0.006683 0.000000 0.003890 0.000000
# 2 -0.005299 0.013586 -0.001155 0.000000 -0.000639 0.000000
# 3 -0.006683 -0.001155 0.053924 0.000000 0.021153 0.000000
# 4 0.000000 0.000000 0.000000 0.039530 0.000000 0.001825
# 5 0.003890 -0.000639 0.021153 0.000000 0.046780 0.000000
# 6 0.000000 0.000000 0.000000 0.001825 0.000000 0.041318
#
#
# Mechanical properties :
#
#
# Convention : Reuss Voigt Hill
#
# Bulk Modulus (GPa) = 18.32137 41.64178 29.98157
# Shear Modulus (GPa) = 19.76664 25.80913 22.78788
#
# Velocity S-wave (km/s) = 3.36539 3.84553 3.61344
# Velocity P-wave (km/s) = 5.05953 6.60131 5.88116
#
# Compressibility (1/GPa) = 0.05458107
#
# Stress axis : x y z
#
# Youngs Moduli (GPa) = 74.93127 73.60331 18.54471
#
# Poissons Ratio (x) = 0.39006 0.12393
# Poissons Ratio (y) = 0.39709 0.02142
# Poissons Ratio (z) = 0.50074 0.08503
#
# Static dielectric constant tensor:
#      x y z
#    x 3.276130 0.000000 -0.105380 
#    y 0.000000 3.272190 0.000000 
#    z -0.105380 0.000000 3.094890 
# 
# 
# High freq. dielectric constant tensor:
#      x y z
#    x 1.680690 0.000000 -0.009230 
#    y 0.000000 1.672050 0.000000 
#    z -0.009230 0.000000 1.663850 
# 
# From -- ./inp_files/154198.got.cif
#   From: 2010.06.25/outbox.cif.g09.slc.cpg/sg12_78_cif.got.tgz:154198.got - 2010.06.28 00:19:55.
