data_PCOD8088187
_publ_section_title
;
Structure prediction by ZEFSAII (Michael W. Deem and Ramdas Pophale) SiO2 
 PCOD8088187
Probable space group: C 2/M
;
_chemical_formula_sum "Si O2"
_cell_formula_units_Z 64
_cell_length_a 23.617464
_cell_length_b 10.306169
_cell_length_c 28.586626
_cell_angle_alpha 90.000000
_cell_angle_beta 28.873429
_cell_angle_gamma 90.000000
_cell_volume 3359.923133
_symmetry_space_group_name_H-M "C 2/M"
_symmetry_group_IT_number 12
_symmetry_cell_setting 'monoclinic'
loop_
_space_group_symop_operation_xyz
x,y,z
-x,y,-z
-x,-y,-z
x,-y,z
1/2+x,1/2+y,z
1/2-x,1/2+y,-z
1/2-x,1/2-y,-z
1/2+x,1/2-y,z
loop_
_atom_site_type_symbol
_atom_site_label
_atom_site_fract_x
_atom_site_fract_y
_atom_site_fract_z
Si Si1 0.202401 0.349489 0.146167
Si Si2 0.921812 0.848584 0.929096
Si Si3 0.687031 0.352122 0.750124
Si Si4 0.797550 0.719055 0.356215
Si Si5 0.451678 0.142720 0.828614
Si Si6 0.950781 0.857468 0.424867
Si Si7 0.166791 0.142388 0.580197
Si Si8 0.639985 0.153632 0.293119
O O1 0.216317 0.500000 0.145393
O O2 0.094637 0.318726 0.189450
O O3 0.179039 0.290578 0.214366
O O4 0.325450 0.299225 0.035903
O O5 0.907922 0.756794 0.894130
O O6 0.049551 0.828363 0.859397
O O7 0.902114 0.000000 0.929008
O O8 0.712840 0.500000 0.719196
O O9 0.734455 0.272918 0.671606
O O10 0.756079 0.311366 0.746616
O O11 0.682494 0.651538 0.459787
O O12 0.850859 0.831536 0.351882
O O13 0.907889 0.622585 0.272459
O O14 0.399240 0.000000 0.880408
O O15 0.948949 0.850694 0.369078
O O16 0.027114 0.739086 0.390194
O O17 0.999470 0.000000 0.404895
O O18 0.250000 0.250000 0.500000
O O19 0.224471 0.000000 0.533445
O O20 0.607366 0.000000 0.317249
#
# Coordination Sequence:
#
# PCOD8088187 Si02
#       8
#     8   8   8   8   8   8   8   8
#     4   9  18  33  55  80 106 135 168 207 257 308
#     4   9  18  34  55  80 107 134 165 208 258 312
#     4   9  19  34  53  78 104 131 173 218 256 301
#     4  10  19  33  53  76 105 141 172 210 258 305
#     4  10  19  32  52  81 110 136 168 207 252 311
#     4  10  21  36  52  76 105 137 176 215 257 306
#     4   9  18  31  50  74 101 130 166 209 255 305
#     4  10  21  37  54  74 101 137 178 219 256 298
#
# _framework density 19.048054
#
# number of rings (size 3 to 8) (size 9 to 14) (size 15 to 20)
#    0.000    2.500    0.000    1.875    0.000    4.500 
#    0.000   11.250    0.000    0.000    0.000    4.375 
#    0.000    0.000    0.000    0.000    0.000    0.000 
#
# Total GULP energy -396471.464520 kJ/mol
# GULP energy per Si atom -12389.733266 kJ/mol
# Density = 1.900470 g / cm^3
# Si number density = 19.048054 Si / 1000 Ang^3
#
#
#
# Elastic Constant Matrix: (Units=GPa)
#
#
# Indices 1 2 3 4 5 6 
#
# 1 126.7486 44.8507 39.3607 0.0011 -0.2904 -0.0020
# 2 44.8507 92.6737 24.7666 0.0001 -1.9404 -0.0023
# 3 39.3607 24.7666 77.5930 -0.0021 0.6615 -0.0005
# 4 0.0011 0.0001 -0.0021 15.6182 -0.0001 -1.8739
# 5 -0.2904 -1.9404 0.6615 -0.0001 23.0297 0.0032
# 6 -0.0020 -0.0023 -0.0005 -1.8739 0.0032 25.6486
#
#
#
# Elastic Compliance Matrix: (Units=1/GPa)
#
#
# Indices 1 2 3 4 5 6 
#
# 1 0.010584 -0.004034 -0.004081 -0.000001 -0.000089 0.000000
# 2 -0.004034 0.013362 -0.002229 0.000000 0.001139 0.000001
# 3 -0.004081 -0.002229 0.015675 0.000002 -0.000689 0.000000
# 4 -0.000001 0.000000 0.000002 0.064594 0.000000 0.004719
# 5 -0.000089 0.001139 -0.000689 0.000000 0.043537 -0.000005
# 6 0.000000 0.000001 0.000000 0.004719 -0.000005 0.039333
#
#
# Mechanical properties :
#
#
# Convention : Reuss Voigt Hill
#
# Bulk Modulus (GPa) = 52.81141 57.21901 55.01521
# Shear Modulus (GPa) = 23.35545 25.39513 24.37529
#
# Velocity S-wave (km/s) = 3.50542 3.65528 3.58113
# Velocity P-wave (km/s) = 6.64601 6.92238 6.78560
#
# Compressibility (1/GPa) = 0.01893530
#
# Stress axis : x y z
#
# Youngs Moduli (GPa) = 94.48263 74.83865 63.79588
#
# Poissons Ratio (x) = 0.30187 0.26033
# Poissons Ratio (y) = 0.38110 0.14217
# Poissons Ratio (z) = 0.38556 0.16678
#
# Static dielectric constant tensor:
#      x y z
#    x 3.685300 0.000000 0.099210 
#    y 0.000000 3.401260 0.000000 
#    z 0.099210 0.000000 3.449510 
# 
# 
# High freq. dielectric constant tensor:
#      x y z
#    x 1.737720 0.000000 -0.000840 
#    y 0.000000 1.730380 0.000000 
#    z -0.000840 0.000000 1.727410 
# 
# From -- ./inp_files/382320.got.cif
#   From: 2010.06.25/outbox.cif.g09.slc.cpg/sg12_192_cif.got.tgz:382320.got - 2010.06.28 00:19:55.
