data_PCOD8088569
_publ_section_title
;
Structure prediction by ZEFSAII (Michael W. Deem and Ramdas Pophale) SiO2 
 PCOD8088569
Probable space group: C 2/M
;
_chemical_formula_sum "Si O2"
_cell_formula_units_Z 64
_cell_length_a 12.787034
_cell_length_b 13.357283
_cell_length_c 29.745896
_cell_angle_alpha 90.000000
_cell_angle_beta 139.922552
_cell_angle_gamma 90.000000
_cell_volume 3271.004592
_symmetry_space_group_name_H-M "C 2/M"
_symmetry_group_IT_number 12
_symmetry_cell_setting 'monoclinic'
loop_
_space_group_symop_operation_xyz
x,y,z
-x,y,-z
-x,-y,-z
x,-y,z
1/2+x,1/2+y,z
1/2-x,1/2+y,-z
1/2-x,1/2-y,-z
1/2+x,1/2-y,z
loop_
_atom_site_type_symbol
_atom_site_label
_atom_site_fract_x
_atom_site_fract_y
_atom_site_fract_z
Si Si1 0.851233 0.759931 0.379889
Si Si2 0.324776 0.616081 0.504072
Si Si3 0.494984 0.786562 0.834247
Si Si4 0.201871 0.798500 0.413307
Si Si5 0.631004 0.230660 0.711976
Si Si6 0.473925 0.884440 0.063424
Si Si7 0.975033 0.384227 0.736701
Si Si8 0.737027 0.615638 0.904582
O O1 0.829833 0.683857 0.414918
O O2 0.871123 0.694060 0.341120
O O3 0.690220 0.825655 0.324876
O O4 0.996318 0.836609 0.436955
O O5 0.326592 0.500000 0.489766
O O6 0.214512 0.681375 0.434130
O O7 0.254306 0.626245 0.531786
O O8 0.301429 0.783665 0.777534
O O9 0.568358 0.826833 0.904794
O O10 0.544923 0.858061 0.809147
O O11 0.570362 0.677810 0.848396
O O12 0.016665 0.812230 0.334168
O O13 0.603771 0.143858 0.739727
O O14 0.641749 0.848193 0.095223
O O15 0.493048 0.000000 0.081751
O O16 0.324357 0.866930 0.980846
O O17 0.938331 0.500000 0.721593
O O18 0.689854 0.500000 0.882684
#
# Coordination Sequence:
#
# PCOD8088569 Si02
#       8
#     8   8   8   8   8   8   8   8
#     4   9  18  34  54  72  96 132 171 211 251 296
#     4  10  19  32  54  78  98 128 170 212 254 298
#     4  11  19  32  54  77 100 134 172 204 247 301
#     4   9  19  34  50  74 107 131 161 212 256 294
#     4   9  20  34  49  70 102 136 164 200 250 299
#     4   9  18  34  54  77 103 129 164 210 255 295
#     4  10  20  33  50  75 105 133 166 210 255 297
#     4   9  19  34  52  75 103 134 168 207 247 294
#
# _framework density 19.565854999999999
#
# number of rings (size 3 to 8) (size 9 to 14) (size 15 to 20)
#    0.000    2.500    0.000    3.000    0.000    3.500 
#    0.000    1.250    0.000   19.500    0.000    7.875 
#    0.000    0.000    0.000    0.000    0.000    0.000 
#
# Total GULP energy -396562.540289 kJ/mol
# GULP energy per Si atom -12392.579384 kJ/mol
# Density = 1.952132 g / cm^3
# Si number density = 19.565855 Si / 1000 Ang^3
#
#
#
# Elastic Constant Matrix: (Units=GPa)
#
#
# Indices 1 2 3 4 5 6 
#
# 1 128.5262 26.0712 23.0427 0.0000 -17.5422 0.0000
# 2 26.0712 45.0009 14.3472 0.0000 5.8131 0.0000
# 3 23.0427 14.3472 45.1884 0.0000 -5.4122 0.0000
# 4 0.0000 0.0000 0.0000 16.9186 0.0000 -0.7412
# 5 -17.5422 5.8131 -5.4122 0.0000 24.9893 0.0000
# 6 0.0000 0.0000 0.0000 -0.7412 0.0000 22.3957
#
#
#
# Elastic Compliance Matrix: (Units=1/GPa)
#
#
# Indices 1 2 3 4 5 6 
#
# 1 0.010693 -0.006545 -0.002354 0.000000 0.008519 0.000000
# 2 -0.006545 0.030242 -0.007861 0.000000 -0.013332 0.000000
# 3 -0.002354 -0.007861 0.026535 0.000000 0.005923 0.000000
# 4 0.000000 0.000000 0.000000 0.059192 0.000000 0.001959
# 5 0.008519 -0.013332 0.005923 0.000000 0.050381 0.000000
# 6 0.000000 0.000000 0.000000 0.001959 0.000000 0.044716
#
#
# Mechanical properties :
#
#
# Convention : Reuss Voigt Hill
#
# Bulk Modulus (GPa) = 29.45530 38.40418 33.92974
# Shear Modulus (GPa) = 18.75486 23.21101 20.98294
#
# Velocity S-wave (km/s) = 3.09941 3.44801 3.27834
# Velocity P-wave (km/s) = 5.28162 5.96007 5.63108
#
# Compressibility (1/GPa) = 0.03394974
#
# Stress axis : x y z
#
# Youngs Moduli (GPa) = 93.51988 33.06661 37.68550
#
# Poissons Ratio (x) = 0.21641 0.08872
# Poissons Ratio (y) = 0.61206 0.29625
# Poissons Ratio (z) = 0.22018 0.25994
#
# Static dielectric constant tensor:
#      x y z
#    x 4.056860 0.000000 -0.203070 
#    y 0.000000 3.087010 0.000000 
#    z -0.203070 0.000000 3.587480 
# 
# 
# High freq. dielectric constant tensor:
#      x y z
#    x 1.782400 0.000000 -0.011510 
#    y 0.000000 1.713470 0.000000 
#    z -0.011510 0.000000 1.764740 
# 
# From -- ./inp_files/374105.got.cif
#   From: 2010.06.25/outbox.cif.g09.slc.cpg/sg12_188_cif.got.tgz:374105.got - 2010.06.28 00:19:55.
