data_PCOD8088321
_publ_section_title
;
Structure prediction by ZEFSAII (Michael W. Deem and Ramdas Pophale) SiO2 
 PCOD8088321
Probable space group: C 2/M
;
_chemical_formula_sum "Si O2"
_cell_formula_units_Z 56
_cell_length_a 12.189892
_cell_length_b 21.374968
_cell_length_c 12.023310
_cell_angle_alpha 90.000000
_cell_angle_beta 114.912646
_cell_angle_gamma 90.000000
_cell_volume 2841.274740
_symmetry_space_group_name_H-M "C 2/M"
_symmetry_group_IT_number 12
_symmetry_cell_setting 'monoclinic'
loop_
_space_group_symop_operation_xyz
x,y,z
-x,y,-z
-x,-y,-z
x,-y,z
1/2+x,1/2+y,z
1/2-x,1/2+y,-z
1/2-x,1/2-y,-z
1/2+x,1/2-y,z
loop_
_atom_site_type_symbol
_atom_site_label
_atom_site_fract_x
_atom_site_fract_y
_atom_site_fract_z
Si Si1 0.412858 0.359221 0.364997
Si Si2 0.706014 0.163165 0.435181
Si Si3 0.336083 0.159230 0.057512
Si Si4 0.453402 0.072358 0.758869
Si Si5 0.251391 0.568024 0.151282
Si Si6 0.623969 0.274510 0.082159
Si Si7 0.111069 0.212416 0.333745
O O1 0.500000 0.383108 0.500000
O O2 0.296754 0.325141 0.369343
O O3 0.366423 0.419656 0.279102
O O4 0.477552 0.313155 0.304754
O O5 0.623696 0.101331 0.378360
O O6 0.787954 0.160604 0.583289
O O7 0.622864 0.224430 0.411366
O O8 0.434387 0.118046 0.166373
O O9 0.248774 0.191082 0.109834
O O10 0.248507 0.115114 0.950138
O O11 0.390541 0.210312 0.995704
O O12 0.373853 0.072351 0.835501
O O13 0.491113 0.000000 0.746104
O O14 0.266880 0.500000 0.105707
O O15 0.623970 0.264980 0.213764
O O16 0.500000 0.312676 0.000000
#
# Coordination Sequence:
#
# PCOD8088321 Si02
#       7
#     8   8   8   8   8   8   8
#     4   9  18  33  53  79 107 135 173 221 270 319
#     4   9  19  34  55  83 109 135 174 222 272 323
#     4  11  22  35  54  80 110 141 178 221 266 317
#     4  10  20  36  58  82 109 141 179 225 273 319
#     4  10  19  32  53  78 104 136 175 219 265 314
#     4  11  22  35  55  80 108 142 177 218 268 320
#     4  10  19  34  55  79 109 141 174 219 272 323
#
# _framework density 19.709461999999998
#
# number of rings (size 3 to 8) (size 9 to 14) (size 15 to 20)
#    0.000    2.000    0.000    5.143    0.000    4.857 
#    0.000    4.286    0.000   10.286    0.000    0.000 
#    0.000    0.000    0.000    0.000    0.000    0.000 
#
# Total GULP energy -346919.761226 kJ/mol
# GULP energy per Si atom -12389.991472 kJ/mol
# Density = 1.966460 g / cm^3
# Si number density = 19.709462 Si / 1000 Ang^3
#
#
#
# Elastic Constant Matrix: (Units=GPa)
#
#
# Indices 1 2 3 4 5 6 
#
# 1 84.0234 40.0243 32.6056 0.0000 12.9991 0.0000
# 2 40.0243 99.6945 35.5586 0.0000 17.5696 0.0000
# 3 32.6056 35.5586 91.5772 0.0000 14.4071 0.0000
# 4 0.0000 0.0000 0.0000 29.5177 0.0000 5.4955
# 5 12.9991 17.5696 14.4071 0.0000 28.0652 0.0000
# 6 0.0000 0.0000 0.0000 5.4955 0.0000 18.3976
#
#
#
# Elastic Compliance Matrix: (Units=1/GPa)
#
#
# Indices 1 2 3 4 5 6 
#
# 1 0.015869 -0.004684 -0.003412 0.000000 -0.002666 0.000000
# 2 -0.004684 0.013832 -0.002918 0.000000 -0.004992 0.000000
# 3 -0.003412 -0.002918 0.013850 0.000000 -0.003703 0.000000
# 4 0.000000 0.000000 0.000000 0.035873 0.000000 -0.010716
# 5 -0.002666 -0.004992 -0.003703 0.000000 0.041892 0.000000
# 6 0.000000 0.000000 0.000000 -0.010716 0.000000 0.057556
#
#
# Mechanical properties :
#
#
# Convention : Reuss Voigt Hill
#
# Bulk Modulus (GPa) = 46.46096 54.63023 50.54560
# Shear Modulus (GPa) = 24.03000 26.33655 25.18327
#
# Velocity S-wave (km/s) = 3.49551 3.65943 3.57841
# Velocity P-wave (km/s) = 6.31787 6.75523 6.54021
#
# Compressibility (1/GPa) = 0.02152345
#
# Stress axis : x y z
#
# Youngs Moduli (GPa) = 63.01502 72.29866 72.20243
#
# Poissons Ratio (x) = 0.33866 0.24634
# Poissons Ratio (y) = 0.29517 0.21066
# Poissons Ratio (z) = 0.21500 0.21094
#
# Static dielectric constant tensor:
#      x y z
#    x 3.517700 0.000000 0.257500 
#    y 0.000000 3.555710 0.000000 
#    z 0.257500 0.000000 3.713280 
# 
# 
# High freq. dielectric constant tensor:
#      x y z
#    x 1.752870 0.000000 0.024980 
#    y 0.000000 1.747050 0.000000 
#    z 0.024980 0.000000 1.776160 
# 
# From -- ./inp_files/135487.got.cif
#   From: 2010.06.25/outbox.cif.g09.slc.cpg/sg12_68_cif.got.tgz:135487.got - 2010.06.28 00:19:55.
