data_PCOD8088995
_publ_section_title
;
Structure prediction by ZEFSAII (Michael W. Deem and Ramdas Pophale) SiO2 
 PCOD8088995
Probable space group: C 2/M
;
_chemical_formula_sum "Si O2"
_cell_formula_units_Z 60
_cell_length_a 9.758254
_cell_length_b 27.335587
_cell_length_c 12.256029
_cell_angle_alpha 90.000000
_cell_angle_beta 102.057514
_cell_angle_gamma 90.000000
_cell_volume 3197.141104
_symmetry_space_group_name_H-M "C 2/M"
_symmetry_group_IT_number 12
_symmetry_cell_setting 'monoclinic'
loop_
_space_group_symop_operation_xyz
x,y,z
-x,y,-z
-x,-y,-z
x,-y,z
1/2+x,1/2+y,z
1/2-x,1/2+y,-z
1/2-x,1/2-y,-z
1/2+x,1/2-y,z
loop_
_atom_site_type_symbol
_atom_site_label
_atom_site_fract_x
_atom_site_fract_y
_atom_site_fract_z
Si Si1 0.313083 0.900927 0.739191
Si Si2 0.699673 0.699376 0.626112
Si Si3 0.116406 0.207361 0.368910
Si Si4 0.868125 0.884389 0.764308
Si Si5 0.500000 0.589284 0.000000
Si Si6 0.394588 0.057305 0.210981
Si Si7 0.280743 0.054409 0.959014
Si Si8 0.455687 0.444528 0.374364
O O1 0.269439 0.846718 0.696886
O O2 0.467907 0.914588 0.724249
O O3 0.306337 0.905659 0.869645
O O4 0.211294 0.940399 0.665211
O O5 0.812564 0.742334 0.655701
O O6 0.672304 0.688402 0.494584
O O7 0.552313 0.713558 0.658724
O O8 0.168109 0.168614 0.287958
O O9 0.732863 0.918819 0.744661
O O10 0.981287 0.909504 0.705749
O O11 0.934405 0.876596 0.895059
O O12 0.380414 0.554445 0.029081
O O13 0.399723 0.000000 0.240519
O O14 0.381114 0.065508 0.078432
O O15 0.312838 0.000000 0.918009
O O16 0.500000 0.424762 0.500000
O O17 0.506151 0.500000 0.365561
#
# Coordination Sequence:
#
# PCOD8088995 Si02
#       8
#     8   8   8   8   4   8   8   8
#     4  12  21  36  59  85 118 155 198 243 296 347
#     4  10  22  38  64  88 109 145 198 246 306 359
#     4  10  21  41  62  87 112 144 193 255 301 356
#     4  11  21  38  61  84 123 153 198 247 293 351
#     4  10  19  32  58  90 116 154 198 242 295 346
#     4  10  23  37  55  88 126 164 201 237 287 348
#     4  10  19  33  56  85 120 158 200 241 284 346
#     4  11  22  36  57  84 115 154 195 238 292 351
#
# _framework density 18.766767999999999
#
# number of rings (size 3 to 8) (size 9 to 14) (size 15 to 20)
#    0.000    1.467    2.667    3.000    1.867    2.133 
#    0.000    2.000    2.933    7.200    0.000    0.000 
#    0.000    0.000    0.000    0.000    0.000    0.000 
#
# Total GULP energy -372046.719350 kJ/mol
# GULP energy per Si atom -12401.557312 kJ/mol
# Density = 1.872405 g / cm^3
# Si number density = 18.766768 Si / 1000 Ang^3
#
#
#
# Elastic Constant Matrix: (Units=GPa)
#
#
# Indices 1 2 3 4 5 6 
#
# 1 112.5884 56.0445 45.9142 0.0000 18.9685 0.0000
# 2 56.0445 125.4565 54.8159 0.0000 2.2119 0.0000
# 3 45.9142 54.8159 83.6844 0.0000 4.8930 0.0000
# 4 0.0000 0.0000 0.0000 32.5723 0.0000 -0.8054
# 5 18.9685 2.2119 4.8930 0.0000 27.7461 0.0000
# 6 0.0000 0.0000 0.0000 -0.8054 0.0000 31.5302
#
#
#
# Elastic Compliance Matrix: (Units=1/GPa)
#
#
# Indices 1 2 3 4 5 6 
#
# 1 0.014314 -0.004247 -0.004566 0.000000 -0.008642 0.000000
# 2 -0.004247 0.012431 -0.005986 0.000000 0.002968 0.000000
# 3 -0.004566 -0.005986 0.018355 0.000000 0.000362 0.000000
# 4 0.000000 0.000000 0.000000 0.030720 0.000000 0.000785
# 5 -0.008642 0.002968 0.000362 0.000000 0.041649 0.000000
# 6 0.000000 0.000000 0.000000 0.000785 0.000000 0.031736
#
#
# Mechanical properties :
#
#
# Convention : Reuss Voigt Hill
#
# Bulk Modulus (GPa) = 64.51090 70.58649 67.54869
# Shear Modulus (GPa) = 27.17805 29.36668 28.27237
#
# Velocity S-wave (km/s) = 3.80965 3.96008 3.88559
# Velocity P-wave (km/s) = 7.33491 7.65531 7.49682
#
# Compressibility (1/GPa) = 0.01550126
#
# Stress axis : x y z
#
# Youngs Moduli (GPa) = 69.86111 80.44145 54.48053
#
# Poissons Ratio (x) = 0.34163 0.24878
# Poissons Ratio (y) = 0.29669 0.32614
# Poissons Ratio (z) = 0.31902 0.48156
#
# Static dielectric constant tensor:
#      x y z
#    x 3.580720 0.000000 0.099190 
#    y 0.000000 3.269400 0.000000 
#    z 0.099190 0.000000 3.543770 
# 
# 
# High freq. dielectric constant tensor:
#      x y z
#    x 1.741830 0.000000 0.008000 
#    y 0.000000 1.712440 0.000000 
#    z 0.008000 0.000000 1.726870 
# 
# From -- ./inp_files/125783.got.cif
#   From: 2010.06.25/outbox.cif.g09.slc.cpg/sg12_63_cif.got.tgz:125783.got - 2010.06.28 00:19:55.
