data_PCOD8088236
_publ_section_title
;
Structure prediction by ZEFSAII (Michael W. Deem and Ramdas Pophale) SiO2 
 PCOD8088236
Probable space group: C 2/M
;
_chemical_formula_sum "Si O2"
_cell_formula_units_Z 56
_cell_length_a 18.974159
_cell_length_b 9.084779
_cell_length_c 17.978693
_cell_angle_alpha 90.000000
_cell_angle_beta 94.249379
_cell_angle_gamma 90.000000
_cell_volume 3090.576475
_symmetry_space_group_name_H-M "C 2/M"
_symmetry_group_IT_number 12
_symmetry_cell_setting 'monoclinic'
loop_
_space_group_symop_operation_xyz
x,y,z
-x,y,-z
-x,-y,-z
x,-y,z
1/2+x,1/2+y,z
1/2-x,1/2+y,-z
1/2-x,1/2-y,-z
1/2+x,1/2-y,z
loop_
_atom_site_type_symbol
_atom_site_label
_atom_site_fract_x
_atom_site_fract_y
_atom_site_fract_z
Si Si1 0.326645 0.675537 0.012267
Si Si2 0.046887 0.838119 0.076644
Si Si3 0.573546 0.171889 0.862809
Si Si4 0.983642 0.826722 0.581096
Si Si5 0.344902 0.830768 0.566016
Si Si6 0.713248 0.165491 0.597253
Si Si7 0.589236 0.833766 0.692583
O O1 0.318380 0.500000 0.021041
O O2 0.367806 0.739472 0.086576
O O3 0.250000 0.750000 0.000000
O O4 0.373854 0.712059 0.941982
O O5 0.007518 0.723934 0.128189
O O6 0.050625 0.000000 0.114913
O O7 0.000000 0.849836 0.000000
O O8 0.590250 0.205825 0.778861
O O9 0.579270 0.000000 0.882977
O O10 0.910091 0.760334 0.602879
O O11 0.000000 0.764302 0.500000
O O12 0.042114 0.780827 0.644576
O O13 0.977945 0.000000 0.579307
O O14 0.335643 0.796986 0.477706
O O15 0.276704 0.780414 0.607018
O O16 0.359060 0.000000 0.583553
O O17 0.669010 0.181411 0.669112
O O18 0.743390 0.000000 0.590147
O O19 0.561184 0.000000 0.676928
#
# Coordination Sequence:
#
# PCOD8088236 Si02
#       7
#     8   8   8   8   8   8   8
#     4  10  20  35  57  84 112 142 178 218 260 310
#     4   8  16  32  53  77 107 142 176 209 254 309
#     4  10  20  34  55  82 110 141 179 218 261 318
#     4  11  22  34  52  78 104 133 177 227 268 314
#     4  10  19  32  53  75  99 132 173 220 269 319
#     4   9  18  33  52  73 101 136 172 215 266 318
#     4  10  21  37  55  77 107 143 178 217 271 324
#
# _framework density 18.119596000000001
#
# number of rings (size 3 to 8) (size 9 to 14) (size 15 to 20)
#    0.000    2.286    1.429    2.571    0.000    6.000 
#    0.000    1.429    0.000    1.714    0.000    0.000 
#    0.000    0.000    0.000    0.000    0.000    0.000 
#
# Total GULP energy -347151.097815 kJ/mol
# GULP energy per Si atom -12398.253493 kJ/mol
# Density = 1.807836 g / cm^3
# Si number density = 18.119596 Si / 1000 Ang^3
#
#
#
# Elastic Constant Matrix: (Units=GPa)
#
#
# Indices 1 2 3 4 5 6 
#
# 1 119.0236 58.1879 47.4891 0.0000 -12.4629 0.0000
# 2 58.1879 96.4528 46.6827 0.0000 -4.4287 0.0000
# 3 47.4891 46.6827 85.9469 0.0000 -18.5389 0.0000
# 4 0.0000 0.0000 0.0000 22.9718 0.0000 -0.8396
# 5 -12.4629 -4.4287 -18.5389 0.0000 24.0870 0.0000
# 6 0.0000 0.0000 0.0000 -0.8396 0.0000 36.5565
#
#
#
# Elastic Compliance Matrix: (Units=1/GPa)
#
#
# Indices 1 2 3 4 5 6 
#
# 1 0.013011 -0.006180 -0.003148 0.000000 0.003173 0.000000
# 2 -0.006180 0.017321 -0.007190 0.000000 -0.005547 0.000000
# 3 -0.003148 -0.007190 0.019956 0.000000 0.012409 0.000000
# 4 0.000000 0.000000 0.000000 0.043568 0.000000 0.001001
# 5 0.003173 -0.005547 0.012409 0.000000 0.051689 0.000000
# 6 0.000000 0.000000 0.000000 0.001001 0.000000 0.027378
#
#
# Mechanical properties :
#
#
# Convention : Reuss Voigt Hill
#
# Bulk Modulus (GPa) = 57.96141 67.34918 62.65530
# Shear Modulus (GPa) = 23.61714 26.66065 25.13889
#
# Velocity S-wave (km/s) = 3.61418 3.84001 3.72881
# Velocity P-wave (km/s) = 7.03378 7.54393 7.29332
#
# Compressibility (1/GPa) = 0.01725286
#
# Stress axis : x y z
#
# Youngs Moduli (GPa) = 76.85628 57.73249 50.10937
#
# Poissons Ratio (x) = 0.35679 0.15775
# Poissons Ratio (y) = 0.47498 0.36028
# Poissons Ratio (z) = 0.24195 0.41509
#
# Static dielectric constant tensor:
#      x y z
#    x 3.487080 0.000000 -0.279710 
#    y 0.000000 3.434310 0.000000 
#    z -0.279710 0.000000 3.123620 
# 
# 
# High freq. dielectric constant tensor:
#      x y z
#    x 1.704390 0.000000 -0.018380 
#    y 0.000000 1.711300 0.000000 
#    z -0.018380 0.000000 1.671460 
# 
# From -- ./inp_files/280293.got.cif
#   From: 2010.06.25/outbox.cif.g09.slc.cpg/sg12_141_cif.got.tgz:280293.got - 2010.06.28 00:19:55.
