data_PCOD8088110
_publ_section_title
;
Structure prediction by ZEFSAII (Michael W. Deem and Ramdas Pophale) SiO2 
 PCOD8088110
Probable space group: C 2/M
;
_chemical_formula_sum "Si O2"
_cell_formula_units_Z 64
_cell_length_a 10.496770
_cell_length_b 18.496040
_cell_length_c 18.815836
_cell_angle_alpha 90.000000
_cell_angle_beta 82.194722
_cell_angle_gamma 90.000000
_cell_volume 3619.225212
_symmetry_space_group_name_H-M "C 2/M"
_symmetry_group_IT_number 12
_symmetry_cell_setting 'monoclinic'
loop_
_space_group_symop_operation_xyz
x,y,z
-x,y,-z
-x,-y,-z
x,-y,z
1/2+x,1/2+y,z
1/2-x,1/2+y,-z
1/2-x,1/2-y,-z
1/2+x,1/2-y,z
loop_
_atom_site_type_symbol
_atom_site_label
_atom_site_fract_x
_atom_site_fract_y
_atom_site_fract_z
Si Si1 0.122172 0.672706 0.958815
Si Si2 0.881499 0.337353 0.459404
Si Si3 0.056786 0.806120 0.203550
Si Si4 0.522551 0.582968 0.323438
Si Si5 0.894741 0.172911 0.962562
Si Si6 0.345333 0.805457 0.206424
Si Si7 0.109277 0.169321 0.548211
Si Si8 0.186580 0.417649 0.672995
O O1 0.256314 0.633231 0.969246
O O2 0.106877 0.675936 0.875780
O O3 0.122558 0.751886 0.994035
O O4 0.000000 0.628791 0.000000
O O5 0.893311 0.254266 0.434643
O O6 0.749307 0.353443 0.510410
O O7 0.888104 0.384819 0.388213
O O8 0.000000 0.360325 0.500000
O O9 0.030199 0.882058 0.244546
O O10 0.050453 0.816598 0.120014
O O11 0.197847 0.775541 0.215889
O O12 0.942591 0.751908 0.234400
O O13 0.479945 0.500000 0.317818
O O14 0.417525 0.625228 0.377974
O O15 0.660576 0.589443 0.351500
O O16 0.000000 0.126825 0.000000
O O17 0.354504 0.877705 0.251964
O O18 0.000000 0.148600 0.500000
O O19 0.143751 0.500000 0.685601
#
# Coordination Sequence:
#
# PCOD8088110 Si02
#       8
#     8   8   8   8   8   8   8   8
#     4   9  15  25  45  74 102 126 164 216 262 306
#     4  10  21  36  59  84 109 134 168 222 269 306
#     4  10  19  32  52  79 106 136 173 219 267 311
#     4  10  21  36  55  78 106 142 184 219 250 309
#     4   9  15  25  45  73 103 129 161 212 266 309
#     4  10  19  32  53  79 104 136 174 220 268 308
#     4  10  19  36  60  83 104 133 174 218 263 306
#     4  10  21  37  54  76 109 145 178 213 258 317
#
# _framework density 17.683343000000001
#
# number of rings (size 3 to 8) (size 9 to 14) (size 15 to 20)
#    0.000    2.250    3.750    0.750    0.000    1.000 
#    2.250    0.000    0.000    0.750    0.000    0.000 
#    0.000    0.000    0.000    0.000    0.000    0.000 
#
# Total GULP energy -396600.236168 kJ/mol
# GULP energy per Si atom -12393.757380 kJ/mol
# Density = 1.764310 g / cm^3
# Si number density = 17.683343 Si / 1000 Ang^3
#
#
#
# Elastic Constant Matrix: (Units=GPa)
#
#
# Indices 1 2 3 4 5 6 
#
# 1 132.9932 45.0531 51.8611 0.0000 2.0534 0.0000
# 2 45.0531 78.8254 60.9202 0.0000 0.0597 0.0000
# 3 51.8611 60.9202 126.2230 0.0000 1.7211 0.0000
# 4 0.0000 0.0000 0.0000 8.4308 0.0000 -0.9622
# 5 2.0534 0.0597 1.7211 0.0000 29.2008 0.0000
# 6 0.0000 0.0000 0.0000 -0.9622 0.0000 14.9420
#
#
#
# Elastic Compliance Matrix: (Units=1/GPa)
#
#
# Indices 1 2 3 4 5 6 
#
# 1 0.009664 -0.003924 -0.002069 0.000000 -0.000550 0.000000
# 2 -0.003924 0.021835 -0.008937 0.000000 0.000758 0.000000
# 3 -0.002069 -0.008937 0.013094 0.000000 -0.000608 0.000000
# 4 0.000000 0.000000 0.000000 0.119491 0.000000 0.007695
# 5 -0.000550 0.000758 -0.000608 0.000000 0.034319 0.000000
# 6 0.000000 0.000000 0.000000 0.007695 0.000000 0.067421
#
#
# Mechanical properties :
#
#
# Convention : Reuss Voigt Hill
#
# Bulk Modulus (GPa) = 67.87194 72.63449 70.25322
# Shear Modulus (GPa) = 16.63373 22.52853 19.58113
#
# Velocity S-wave (km/s) = 3.07032 3.57318 3.33125
# Velocity P-wave (km/s) = 7.14383 7.62809 7.38993
#
# Compressibility (1/GPa) = 0.01473363
#
# Stress axis : x y z
#
# Youngs Moduli (GPa) = 103.47877 45.79805 76.36987
#
# Poissons Ratio (x) = 0.17970 0.15803
# Poissons Ratio (y) = 0.40602 0.68249
# Poissons Ratio (z) = 0.21413 0.40928
#
# Static dielectric constant tensor:
#      x y z
#    x 4.240910 0.000000 0.008160 
#    y 0.000000 2.930860 0.000000 
#    z 0.008160 0.000000 3.260980 
# 
# 
# High freq. dielectric constant tensor:
#      x y z
#    x 1.696770 0.000000 -0.000730 
#    y 0.000000 1.633840 0.000000 
#    z -0.000730 0.000000 1.694340 
# 
# From -- ./inp_files/263872.got.cif
#   From: 2010.06.25/outbox.cif.g09.slc.cpg/sg12_132_cif.got.tgz:263872.got - 2010.06.28 00:19:55.
