data_PCOD8088551
_publ_section_title
;
Structure prediction by ZEFSAII (Michael W. Deem and Ramdas Pophale) SiO2 
 PCOD8088551
Probable space group: C 2/M
;
_chemical_formula_sum "Si O2"
_cell_formula_units_Z 64
_cell_length_a 18.820769
_cell_length_b 8.832870
_cell_length_c 34.933202
_cell_angle_alpha 90.000000
_cell_angle_beta 143.263314
_cell_angle_gamma 90.000000
_cell_volume 3473.595783
_symmetry_space_group_name_H-M "C 2/M"
_symmetry_group_IT_number 12
_symmetry_cell_setting 'monoclinic'
loop_
_space_group_symop_operation_xyz
x,y,z
-x,y,-z
-x,-y,-z
x,-y,z
1/2+x,1/2+y,z
1/2-x,1/2+y,-z
1/2-x,1/2-y,-z
1/2+x,1/2-y,z
loop_
_atom_site_type_symbol
_atom_site_label
_atom_site_fract_x
_atom_site_fract_y
_atom_site_fract_z
Si Si1 0.762722 0.175137 0.759979
Si Si2 0.524949 0.321290 0.630234
Si Si3 0.496555 0.175370 0.150790
Si Si4 0.696567 0.822417 0.439357
Si Si5 0.942163 0.325065 0.041038
Si Si6 0.936107 0.822252 0.509728
Si Si7 0.680762 0.674710 0.128268
Si Si8 0.289864 0.322864 0.104834
O O1 0.656926 0.272591 0.697149
O O2 0.770255 0.205039 0.808349
O O3 0.883281 0.230124 0.792091
O O4 0.742375 0.000000 0.741718
O O5 0.512486 0.500000 0.627089
O O6 0.433662 0.251184 0.622576
O O7 0.493757 0.259680 0.574073
O O8 0.436852 0.206369 0.083900
O O9 0.406187 0.230321 0.143877
O O10 0.526635 0.000000 0.169655
O O11 0.750000 0.750000 0.500000
O O12 0.793124 0.788531 0.447259
O O13 0.680630 0.000000 0.438108
O O14 0.970331 0.500000 0.044063
O O15 0.043984 0.224665 0.065545
O O16 0.817429 0.274380 0.969397
O O17 0.000000 0.747702 0.500000
O O18 0.959375 0.000000 0.518989
O O19 0.690818 0.500000 0.120713
O O20 0.760191 0.778085 0.135258
O O21 0.316523 0.500000 0.113320
#
# Coordination Sequence:
#
# PCOD8088551 Si02
#       8
#     8   8   8   8   8   8   8   8
#     4  10  21  38  56  73  98 134 176 217 258 306
#     4  10  19  32  54  78 100 133 173 209 248 301
#     4  10  20  35  54  75 102 135 172 212 254 308
#     4   9  16  28  49  75 103 134 167 205 245 289
#     4   9  19  34  52  75 102 133 167 207 260 316
#     4   8  15  29  50  78 108 134 162 199 244 290
#     4  10  21  35  52  74  99 131 172 216 260 308
#     4  11  21  33  51  76 105 133 164 209 265 316
#
# _framework density 18.424710999999999
#
# number of rings (size 3 to 8) (size 9 to 14) (size 15 to 20)
#    0.000    2.375    0.000    3.750    0.000    4.500 
#    0.000    1.250    0.000   19.500    0.000    0.000 
#    0.000    0.000    0.000    0.000    0.000    0.000 
#
# Total GULP energy -396765.015073 kJ/mol
# GULP energy per Si atom -12398.906721 kJ/mol
# Density = 1.838278 g / cm^3
# Si number density = 18.424711 Si / 1000 Ang^3
#
#
#
# Elastic Constant Matrix: (Units=GPa)
#
#
# Indices 1 2 3 4 5 6 
#
# 1 127.6090 34.2604 37.2841 0.0000 13.0553 0.0000
# 2 34.2604 61.5589 24.9800 0.0001 3.3646 0.0000
# 3 37.2841 24.9800 72.4258 0.0001 19.4304 -0.0001
# 4 0.0000 0.0001 0.0001 28.3278 -0.0001 6.9870
# 5 13.0553 3.3646 19.4304 -0.0001 18.0423 0.0000
# 6 0.0000 0.0000 -0.0001 6.9870 0.0000 32.4431
#
#
#
# Elastic Compliance Matrix: (Units=1/GPa)
#
#
# Indices 1 2 3 4 5 6 
#
# 1 0.010180 -0.004339 -0.002792 0.000000 -0.003551 0.000000
# 2 -0.004339 0.021052 -0.006773 0.000000 0.006508 0.000000
# 3 -0.002792 -0.006773 0.023485 0.000000 -0.022009 0.000000
# 4 0.000000 0.000000 0.000000 0.037281 0.000000 -0.008029
# 5 -0.003551 0.006508 -0.022009 0.000000 0.080483 0.000000
# 6 0.000000 0.000000 0.000000 -0.008029 0.000000 0.032552
#
#
# Mechanical properties :
#
#
# Convention : Reuss Voigt Hill
#
# Bulk Modulus (GPa) = 37.16131 50.51584 43.83857
# Shear Modulus (GPa) = 20.67727 26.76727 23.72227
#
# Velocity S-wave (km/s) = 3.35365 3.81569 3.59210
# Velocity P-wave (km/s) = 5.93372 6.84760 6.40697
#
# Compressibility (1/GPa) = 0.02690971
#
# Stress axis : x y z
#
# Youngs Moduli (GPa) = 98.22949 47.50076 42.58051
#
# Poissons Ratio (x) = 0.20610 0.11887
# Poissons Ratio (y) = 0.42621 0.28842
# Poissons Ratio (z) = 0.27421 0.32174
#
# Static dielectric constant tensor:
#      x y z
#    x 3.673260 0.000000 0.133170 
#    y 0.000000 3.417600 0.000000 
#    z 0.133170 0.000000 3.246060 
# 
# 
# High freq. dielectric constant tensor:
#      x y z
#    x 1.720510 0.000000 0.015070 
#    y 0.000000 1.715230 0.000000 
#    z 0.015070 0.000000 1.690290 
# 
# From -- ./inp_files/378441.got.cif
#   From: 2010.06.25/outbox.cif.g09.slc.cpg/sg12_190_cif.got.tgz:378441.got - 2010.06.28 00:19:55.
