data_PCOD8088723
_publ_section_title
;
Structure prediction by ZEFSAII (Michael W. Deem and Ramdas Pophale) SiO2 
 PCOD8088723
Probable space group: C 2/M
;
_chemical_formula_sum "Si O2"
_cell_formula_units_Z 64
_cell_length_a 19.725929
_cell_length_b 14.188652
_cell_length_c 24.230074
_cell_angle_alpha 90.000000
_cell_angle_beta 150.724437
_cell_angle_gamma 90.000000
_cell_volume 3316.282322
_symmetry_space_group_name_H-M "C 2/M"
_symmetry_group_IT_number 12
_symmetry_cell_setting 'monoclinic'
loop_
_space_group_symop_operation_xyz
x,y,z
-x,y,-z
-x,-y,-z
x,-y,z
1/2+x,1/2+y,z
1/2-x,1/2+y,-z
1/2-x,1/2-y,-z
1/2+x,1/2-y,z
loop_
_atom_site_type_symbol
_atom_site_label
_atom_site_fract_x
_atom_site_fract_y
_atom_site_fract_z
Si Si1 0.315900 0.604709 0.124060
Si Si2 0.395063 0.888377 0.203819
Si Si3 0.005992 0.397044 0.910211
Si Si4 0.642344 0.263593 0.740819
Si Si5 0.046414 0.889858 0.470458
Si Si6 0.892997 0.888948 0.059514
Si Si7 0.360806 0.110943 0.699665
Si Si8 0.430270 0.714880 0.898914
O O1 0.369735 0.500000 0.179305
O O2 0.323117 0.672946 0.181313
O O3 0.395938 0.641764 0.126247
O O4 0.157498 0.595707 0.990971
O O5 0.413829 0.835666 0.275772
O O6 0.525283 0.848814 0.261460
O O7 0.400191 0.000000 0.217773
O O8 0.250132 0.857597 0.071962
O O9 0.960667 0.500000 0.901519
O O10 0.897217 0.358295 0.787604
O O11 0.002665 0.318101 0.954466
O O12 0.536057 0.321653 0.628536
O O13 0.767645 0.232001 0.790130
O O14 0.000000 0.872226 0.500000
O O15 0.205410 0.858044 0.574855
O O16 0.023409 0.000000 0.438553
O O17 0.026477 0.839618 0.126140
O O18 0.911335 0.000000 0.067583
O O19 0.375781 0.000000 0.708717
O O20 0.500000 0.658626 0.000000
#
# Coordination Sequence:
#
# PCOD8088723 Si02
#       8
#     8   8   8   8   8   8   8   8
#     4  10  20  35  57  87 121 156 191 240 302 353
#     4  10  20  35  58  86 115 151 197 243 287 339
#     4  10  19  32  54  83 118 150 185 235 294 355
#     4  12  24  37  57  89 122 154 196 247 293 348
#     4  10  22  42  63  83 115 154 190 237 297 361
#     4  10  21  38  58  82 121 166 202 239 289 347
#     4   9  18  35  59  83 105 147 199 235 281 346
#     4  12  23  34  49  85 118 159 199 231 286 348
#
# _framework density 19.298718000000001
#
# number of rings (size 3 to 8) (size 9 to 14) (size 15 to 20)
#    0.000    1.625    3.750    1.125    1.750    4.500 
#    0.000    0.000    0.000    0.375    0.000    0.000 
#    0.000    0.000    0.000    0.000    0.000    0.000 
#
# Total GULP energy -396519.635692 kJ/mol
# GULP energy per Si atom -12391.238615 kJ/mol
# Density = 1.925479 g / cm^3
# Si number density = 19.298718 Si / 1000 Ang^3
#
#
#
# Elastic Constant Matrix: (Units=GPa)
#
#
# Indices 1 2 3 4 5 6 
#
# 1 123.0777 38.5856 56.2925 0.0024 17.1440 0.0004
# 2 38.5856 60.4801 35.5788 0.0014 1.6736 0.0005
# 3 56.2925 35.5788 97.8542 -0.0076 0.4309 -0.0005
# 4 0.0024 0.0014 -0.0076 22.8629 -0.0022 -5.0115
# 5 17.1440 1.6736 0.4309 -0.0022 27.9414 0.0000
# 6 0.0004 0.0005 -0.0005 -5.0115 0.0000 27.7842
#
#
#
# Elastic Compliance Matrix: (Units=1/GPa)
#
#
# Indices 1 2 3 4 5 6 
#
# 1 0.013469 -0.004882 -0.005939 -0.000004 -0.007880 -0.000001
# 2 -0.004882 0.022839 -0.005503 -0.000003 0.001712 -0.000001
# 3 -0.005939 -0.005503 0.015620 0.000007 0.003733 0.000002
# 4 -0.000004 -0.000003 0.000007 0.045540 0.000006 0.008214
# 5 -0.007880 0.001712 0.003733 0.000006 0.040464 0.000001
# 6 -0.000001 -0.000001 0.000002 0.008214 0.000001 0.037473
#
#
# Mechanical properties :
#
#
# Convention : Reuss Voigt Hill
#
# Bulk Modulus (GPa) = 51.86478 60.25844 56.06161
# Shear Modulus (GPa) = 23.31220 25.78136 24.54678
#
# Velocity S-wave (km/s) = 3.47935 3.65898 3.57029
# Velocity P-wave (km/s) = 6.56310 7.01018 6.79032
#
# Compressibility (1/GPa) = 0.01928091
#
# Stress axis : x y z
#
# Youngs Moduli (GPa) = 74.24266 43.78520 64.01934
#
# Poissons Ratio (x) = 0.21374 0.38021
# Poissons Ratio (y) = 0.36242 0.35232
# Poissons Ratio (z) = 0.44092 0.24096
#
# Static dielectric constant tensor:
#      x y z
#    x 3.677380 0.000000 0.141180 
#    y 0.000000 3.501550 0.000000 
#    z 0.141180 0.000000 3.537070 
# 
# 
# High freq. dielectric constant tensor:
#      x y z
#    x 1.762580 0.000000 0.008350 
#    y 0.000000 1.747320 0.000000 
#    z 0.008350 0.000000 1.716490 
# 
# From -- ./inp_files/183812.got.cif
#   From: 2010.06.25/outbox.cif.g09.slc.cpg/sg12_92_cif.got.tgz:183812.got - 2010.06.28 00:19:55.
