data_PCOD8088368
_publ_section_title
;
Structure prediction by ZEFSAII (Michael W. Deem and Ramdas Pophale) SiO2 
 PCOD8088368
Probable space group: C 2/M
;
_chemical_formula_sum "Si O2"
_cell_formula_units_Z 56
_cell_length_a 29.166470
_cell_length_b 9.420816
_cell_length_c 17.998465
_cell_angle_alpha 90.000000
_cell_angle_beta 146.352951
_cell_angle_gamma 90.000000
_cell_volume 2740.164708
_symmetry_space_group_name_H-M "C 2/M"
_symmetry_group_IT_number 12
_symmetry_cell_setting 'monoclinic'
loop_
_space_group_symop_operation_xyz
x,y,z
-x,y,-z
-x,-y,-z
x,-y,z
1/2+x,1/2+y,z
1/2-x,1/2+y,-z
1/2-x,1/2-y,-z
1/2+x,1/2-y,z
loop_
_atom_site_type_symbol
_atom_site_label
_atom_site_fract_x
_atom_site_fract_y
_atom_site_fract_z
Si Si1 0.674314 0.840549 0.682140
Si Si2 0.262472 0.164027 0.442738
Si Si3 0.436636 0.159213 0.595590
Si Si4 0.473656 0.157957 0.044790
Si Si5 0.706125 0.155820 0.243707
Si Si6 0.449216 0.666870 0.152193
Si Si7 0.264983 0.340355 0.948078
O O1 0.583615 0.823647 0.520911
O O2 0.727159 0.712348 0.723121
O O3 0.684351 0.825772 0.784849
O O4 0.707135 0.000000 0.703689
O O5 0.250000 0.250000 0.500000
O O6 0.352988 0.187066 0.529611
O O7 0.195397 0.233654 0.296806
O O8 0.241592 0.000000 0.427686
O O9 0.507107 0.269797 0.715066
O O10 0.469464 0.000000 0.655466
O O11 0.494512 0.260987 0.141842
O O12 0.514681 0.000000 0.111368
O O13 0.500000 0.221328 0.000000
O O14 0.376165 0.142170 0.914205
O O15 0.733149 0.000000 0.309917
O O16 0.466362 0.500000 0.170823
O O17 0.351098 0.701228 0.023051
O O18 0.273320 0.500000 0.987904
O O19 0.250000 0.250000 0.000000
#
# Coordination Sequence:
#
# PCOD8088368 Si02
#       7
#     8   8   8   8   8   8   8
#     4   9  18  38  61  82 113 151 190 236 281 339
#     4  10  21  35  52  75 109 151 197 246 289 339
#     4   9  20  37  58  80 110 155 194 232 290 348
#     4  10  22  37  54  79 115 157 198 238 286 350
#     4  10  19  32  53  79 107 146 193 239 286 338
#     4  11  23  39  60  88 121 152 191 249 298 344
#     4  10  22  40  64  92 119 149 192 239 294 354
#
# _framework density 20.436726
#
# number of rings (size 3 to 8) (size 9 to 14) (size 15 to 20)
#    0.000    2.143    1.429    2.143    2.000    5.429 
#    0.000    0.714    0.000    4.286    0.000    0.000 
#    0.000    0.000    0.000    0.000    0.000    0.000 
#
# Total GULP energy -346888.325722 kJ/mol
# GULP energy per Si atom -12388.868776 kJ/mol
# Density = 2.039021 g / cm^3
# Si number density = 20.436726 Si / 1000 Ang^3
#
#
#
# Elastic Constant Matrix: (Units=GPa)
#
#
# Indices 1 2 3 4 5 6 
#
# 1 61.7235 40.4177 25.3175 0.0000 -26.5926 0.0000
# 2 40.4177 128.2928 52.7188 0.0000 -18.9138 0.0000
# 3 25.3175 52.7188 110.0380 0.0000 -26.3174 0.0000
# 4 0.0000 0.0000 0.0000 33.2813 0.0000 -5.0215
# 5 -26.5926 -18.9138 -26.3174 0.0000 28.6856 0.0000
# 6 0.0000 0.0000 0.0000 -5.0215 0.0000 31.8610
#
#
#
# Elastic Compliance Matrix: (Units=1/GPa)
#
#
# Indices 1 2 3 4 5 6 
#
# 1 0.031192 -0.006932 0.002520 0.000000 0.026657 0.000000
# 2 -0.006932 0.011416 -0.004626 0.000000 -0.003144 0.000000
# 3 0.002520 -0.004626 0.013520 0.000000 0.011690 0.000000
# 4 0.000000 0.000000 0.000000 0.030779 0.000000 0.004851
# 5 0.026657 -0.003144 0.011690 0.000000 0.068225 0.000000
# 6 0.000000 0.000000 0.000000 0.004851 0.000000 0.032151
#
#
# Mechanical properties :
#
#
# Convention : Reuss Voigt Hill
#
# Bulk Modulus (GPa) = 26.28030 59.66247 42.97138
# Shear Modulus (GPa) = 22.93115 30.87229 26.90172
#
# Velocity S-wave (km/s) = 3.35334 3.89090 3.63208
# Velocity P-wave (km/s) = 5.28020 7.03154 6.21784
#
# Compressibility (1/GPa) = 0.03805132
#
# Stress axis : x y z
#
# Youngs Moduli (GPa) = 32.05959 87.59406 73.96313
#
# Poissons Ratio (x) = 0.60724 -0.18640
# Poissons Ratio (y) = 0.22225 0.34218
# Poissons Ratio (z) = -0.08080 0.40524
#
# Static dielectric constant tensor:
#      x y z
#    x 3.340140 0.000000 -0.193280 
#    y 0.000000 3.917570 0.000000 
#    z -0.193280 0.000000 4.007560 
# 
# 
# High freq. dielectric constant tensor:
#      x y z
#    x 1.760080 0.000000 -0.020480 
#    y 0.000000 1.805610 0.000000 
#    z -0.020480 0.000000 1.803780 
# 
# From -- ./inp_files/295176.got.cif
#   From: 2010.06.25/outbox.cif.g09.slc.cpg/sg12_148_cif.got.tgz:295176.got - 2010.06.28 00:19:55.
