data_PCOD8088080
_publ_section_title
;
Structure prediction by ZEFSAII (Michael W. Deem and Ramdas Pophale) SiO2 
 PCOD8088080
Probable space group: C 2/M
;
_chemical_formula_sum "Si O2"
_cell_formula_units_Z 64
_cell_length_a 19.984361
_cell_length_b 19.311320
_cell_length_c 9.445272
_cell_angle_alpha 90.000000
_cell_angle_beta 83.500567
_cell_angle_gamma 90.000000
_cell_volume 3621.733301
_symmetry_space_group_name_H-M "C 2/M"
_symmetry_group_IT_number 12
_symmetry_cell_setting 'monoclinic'
loop_
_space_group_symop_operation_xyz
x,y,z
-x,y,-z
-x,-y,-z
x,-y,z
1/2+x,1/2+y,z
1/2-x,1/2+y,-z
1/2-x,1/2-y,-z
1/2+x,1/2-y,z
loop_
_atom_site_type_symbol
_atom_site_label
_atom_site_fract_x
_atom_site_fract_y
_atom_site_fract_z
Si Si1 0.758464 0.864835 0.035795
Si Si2 0.552421 0.311905 0.689309
Si Si3 0.206339 0.920180 0.411396
Si Si4 0.091712 0.818786 0.371573
Si Si5 0.066051 0.689689 0.900994
Si Si6 0.338899 0.421583 0.270069
Si Si7 0.159724 0.249356 0.116341
Si Si8 0.172725 0.579656 0.810745
O O1 0.793167 0.913293 0.143003
O O2 0.718891 0.804250 0.128279
O O3 0.812391 0.827546 0.921616
O O4 0.709204 0.911929 0.953605
O O5 0.584548 0.289505 0.531903
O O6 0.478946 0.344746 0.677831
O O7 0.545117 0.243613 0.785187
O O8 0.597534 0.370232 0.754061
O O9 0.143157 0.882451 0.355085
O O10 0.206729 0.906737 0.580073
O O11 0.277179 0.894720 0.327005
O O12 0.196627 0.000000 0.374434
O O13 0.118206 0.754683 0.271538
O O14 0.104515 0.624793 0.821263
O O15 0.115072 0.728664 0.995264
O O16 0.000000 0.662904 0.000000
O O17 0.366656 0.500000 0.268532
O O18 0.151750 0.500000 0.795131
#
# Coordination Sequence:
#
# PCOD8088080 Si02
#       8
#     8   8   8   8   8   8   8   8
#     4  10  19  32  53  78 103 134 167 215 260 306
#     4  10  21  33  52  78 104 141 177 209 252 304
#     4   9  19  34  52  75 105 139 173 212 255 299
#     4  10  19  34  52  75 106 136 175 215 250 303
#     4  11  21  36  56  76 105 135 167 219 264 307
#     4  10  20  34  52  76 108 143 174 208 252 302
#     4  10  19  32  52  78 103 130 171 213 264 304
#     4  10  21  36  55  79 102 133 175 213 260 312
#
# _framework density 17.671097
#
# number of rings (size 3 to 8) (size 9 to 14) (size 15 to 20)
#    0.000    2.000    3.750    0.375    0.000    1.750 
#    0.000    5.000    0.000    1.125    0.000    1.750 
#    0.000    0.000    0.000    0.000    0.000    0.000 
#
# Total GULP energy -396777.888906 kJ/mol
# GULP energy per Si atom -12399.309028 kJ/mol
# Density = 1.763088 g / cm^3
# Si number density = 17.671097 Si / 1000 Ang^3
#
#
#
# Elastic Constant Matrix: (Units=GPa)
#
#
# Indices 1 2 3 4 5 6 
#
# 1 86.7163 36.5861 28.8524 0.0000 -15.0772 0.0000
# 2 36.5861 72.8037 31.3559 0.0000 -10.8026 0.0000
# 3 28.8524 31.3559 67.2847 0.0000 -12.4903 0.0000
# 4 0.0000 0.0000 0.0000 24.5220 0.0000 -2.4702
# 5 -15.0772 -10.8026 -12.4903 0.0000 32.7635 0.0000
# 6 0.0000 0.0000 0.0000 -2.4702 0.0000 15.1232
#
#
#
# Elastic Compliance Matrix: (Units=1/GPa)
#
#
# Indices 1 2 3 4 5 6 
#
# 1 0.015836 -0.005948 -0.003261 0.000000 0.004083 0.000000
# 2 -0.005948 0.019663 -0.006368 0.000000 0.001318 0.000000
# 3 -0.003261 -0.006368 0.019973 0.000000 0.004014 0.000000
# 4 0.000000 0.000000 0.000000 0.041462 0.000000 0.006772
# 5 0.004083 0.001318 0.004014 0.000000 0.034366 0.000000
# 6 0.000000 0.000000 0.000000 0.006772 0.000000 0.067230
#
#
# Mechanical properties :
#
#
# Convention : Reuss Voigt Hill
#
# Bulk Modulus (GPa) = 41.12048 46.71038 43.91543
# Shear Modulus (GPa) = 21.02701 23.14911 22.08806
#
# Velocity S-wave (km/s) = 3.45325 3.62332 3.53930
# Velocity P-wave (km/s) = 6.26261 6.63288 6.45041
#
# Compressibility (1/GPa) = 0.02431878
#
# Stress axis : x y z
#
# Youngs Moduli (GPa) = 63.14640 50.85749 50.06690
#
# Poissons Ratio (x) = 0.30249 0.16326
# Poissons Ratio (y) = 0.37559 0.31882
# Poissons Ratio (z) = 0.20592 0.32386
#
# Static dielectric constant tensor:
#      x y z
#    x 3.317090 0.000000 -0.167770 
#    y 0.000000 3.112840 0.000000 
#    z -0.167770 0.000000 3.371190 
# 
# 
# High freq. dielectric constant tensor:
#      x y z
#    x 1.679170 0.000000 -0.007100 
#    y 0.000000 1.667120 0.000000 
#    z -0.007100 0.000000 1.690540 
# 
# From -- ./inp_files/87934.got.cif
#   From: 2010.06.25/outbox.cif.g09.slc.cpg/sg12_44_cif.got.tgz:87934.got - 2010.06.28 00:19:55.
