data_PCOD8088284
_publ_section_title
;
Structure prediction by ZEFSAII (Michael W. Deem and Ramdas Pophale) SiO2 
 PCOD8088284
Probable space group: C 2/M
;
_chemical_formula_sum "Si O2"
_cell_formula_units_Z 44
_cell_length_a 23.883620
_cell_length_b 17.187500
_cell_length_c 20.881896
_cell_angle_alpha 90.000000
_cell_angle_beta 15.839955
_cell_angle_gamma 90.000000
_cell_volume 2339.740909
_symmetry_space_group_name_H-M "C 2/M"
_symmetry_group_IT_number 12
_symmetry_cell_setting 'monoclinic'
loop_
_space_group_symop_operation_xyz
x,y,z
-x,y,-z
-x,-y,-z
x,-y,z
1/2+x,1/2+y,z
1/2-x,1/2+y,-z
1/2-x,1/2-y,-z
1/2+x,1/2-y,z
loop_
_atom_site_type_symbol
_atom_site_label
_atom_site_fract_x
_atom_site_fract_y
_atom_site_fract_z
Si Si1 0.372535 0.915009 0.077475
Si Si2 0.190821 0.299258 0.188565
Si Si3 0.500000 0.303737 0.500000
Si Si4 0.978172 0.090834 0.950467
Si Si5 0.935527 0.310126 0.237456
Si Si6 0.660264 0.171029 0.516114
O O1 0.195651 0.857253 0.292972
O O2 0.290518 0.000000 0.144566
O O3 0.500000 0.928404 0.000000
O O4 0.512403 0.879389 0.867819
O O5 0.024604 0.249800 0.410866
O O6 0.062994 0.336307 0.270989
O O7 0.287636 0.365068 0.127608
O O8 0.368811 0.244895 0.964188
O O9 0.188883 0.108265 0.681621
O O10 0.928881 0.000000 0.001245
O O11 0.000000 0.119063 0.000000
O O12 0.753527 0.258135 0.407149
O O13 0.863992 0.349364 0.382306
#
# Coordination Sequence:
#
# PCOD8088284 Si02
#       6
#     8   8   4   8   8   8
#     4  10  20  34  52  75 105 137 169 208 256 308
#     4  10  19  33  56  79 102 136 176 216 261 311
#     4  10  19  32  53  78 100 128 170 214 253 302
#     4  10  22  37  52  77 109 138 176 221 263 314
#     4   9  20  34  53  80 107 134 175 219 256 310
#     4  10  19  35  56  77 104 140 175 216 265 310
#
# _framework density 18.805501
#
# number of rings (size 3 to 8) (size 9 to 14) (size 15 to 20)
#    0.000    2.182    0.000    3.000    0.000    6.545 
#    0.000    2.273    0.000    0.000    0.000    0.000 
#    0.000    0.000    0.000    0.000    0.000    0.000 
#
# Total GULP energy -272817.171820 kJ/mol
# GULP energy per Si atom -12400.780537 kJ/mol
# Density = 1.876270 g / cm^3
# Si number density = 18.805501 Si / 1000 Ang^3
#
#
#
# Elastic Constant Matrix: (Units=GPa)
#
#
# Indices 1 2 3 4 5 6 
#
# 1 101.6840 42.7157 48.6488 0.2802 -1.0219 0.0048
# 2 42.7157 87.3527 32.2105 0.3391 7.7113 0.0194
# 3 48.6488 32.2105 93.0900 0.3740 14.5524 0.0469
# 4 0.2802 0.3391 0.3740 -39.3382 0.1810 -23.4501
# 5 -1.0219 7.7113 14.5524 0.1810 37.5040 0.1119
# 6 0.0048 0.0194 0.0469 -23.4501 0.1119 14.2978
#
#
#
# Elastic Compliance Matrix: (Units=1/GPa)
#
#
# Indices 1 2 3 4 5 6 
#
# 1 0.015413 -0.005382 -0.006847 0.000011 0.004183 0.000010
# 2 -0.005382 0.015036 -0.002006 0.000029 -0.002460 0.000054
# 3 -0.006847 -0.002006 0.015946 0.000030 -0.005962 0.000048
# 4 0.000011 0.000029 0.000030 -0.012853 0.000108 -0.021081
# 5 0.004183 -0.002460 -0.005962 0.000108 0.029597 -0.000033
# 6 0.000010 0.000054 0.000048 -0.021081 -0.000033 0.035365
#
#
# Mechanical properties :
#
#
# Convention : Reuss Voigt Hill
#
# Bulk Modulus (GPa) = 55.78141 58.80851 57.29496
# Shear Modulus (GPa) = 37.60870 13.06283 25.33576
#
# Velocity S-wave (km/s) = 4.47685 2.63844 3.67448
# Velocity P-wave (km/s) = 7.51329 6.37351 6.96675
#
# Compressibility (1/GPa) = 0.01792712
#
# Stress axis : x y z
#
# Youngs Moduli (GPa) = 64.88154 66.50641 62.71086
#
# Poissons Ratio (x) = 0.35791 0.42935
# Poissons Ratio (y) = 0.34916 0.12579
# Poissons Ratio (z) = 0.44421 0.13340
#
# Static dielectric constant tensor:
#      x y z
#    x 3.238020 -0.000050 0.376550 
#    y -0.000050 3.399120 -0.000160 
#    z 0.376550 -0.000160 2.928470 
# 
# 
# High freq. dielectric constant tensor:
#      x y z
#    x 1.730150 -0.000010 0.006320 
#    y -0.000010 1.719400 0.000030 
#    z 0.006320 0.000030 1.739100 
# 
# From -- ./inp_files/285108.got.cif
#   From: 2010.06.25/outbox.cif.g09.slc.cpg/sg12_143_cif.got.tgz:285108.got - 2010.06.28 00:19:55.
