data_PCOD8088910
_publ_section_title
;
Structure prediction by ZEFSAII (Michael W. Deem and Ramdas Pophale) SiO2 
 PCOD8088910
Probable space group: C 2/M
;
_chemical_formula_sum "Si O2"
_cell_formula_units_Z 64
_cell_length_a 22.817794
_cell_length_b 9.392692
_cell_length_c 20.916021
_cell_angle_alpha 90.000000
_cell_angle_beta 51.753889
_cell_angle_gamma 90.000000
_cell_volume 3520.553945
_symmetry_space_group_name_H-M "C 2/M"
_symmetry_group_IT_number 12
_symmetry_cell_setting 'monoclinic'
loop_
_space_group_symop_operation_xyz
x,y,z
-x,y,-z
-x,-y,-z
x,-y,z
1/2+x,1/2+y,z
1/2-x,1/2+y,-z
1/2-x,1/2-y,-z
1/2+x,1/2-y,z
loop_
_atom_site_type_symbol
_atom_site_label
_atom_site_fract_x
_atom_site_fract_y
_atom_site_fract_z
Si Si1 0.412197 0.841825 0.555090
Si Si2 0.662781 0.662446 0.494870
Si Si3 0.193961 0.158086 0.612599
Si Si4 0.698406 0.833464 0.259513
Si Si5 0.006076 0.668153 0.924005
Si Si6 0.706428 0.332833 0.122526
Si Si7 0.356435 0.340432 0.215901
Si Si8 0.858601 0.665900 0.948962
O O1 0.500000 0.843422 0.500000
O O2 0.399113 0.742720 0.503411
O O3 0.370040 0.787986 0.647686
O O4 0.381010 0.000000 0.562165
O O5 0.661873 0.500000 0.474207
O O6 0.743552 0.723127 0.423540
O O7 0.644757 0.683746 0.582183
O O8 0.141148 0.168364 0.709159
O O9 0.230989 0.000000 0.583849
O O10 0.692089 0.739494 0.200296
O O11 0.775486 0.797382 0.243527
O O12 0.693700 0.000000 0.244235
O O13 0.012340 0.500000 0.917850
O O14 0.082536 0.729341 0.846508
O O15 0.934682 0.718377 0.931203
O O16 0.000000 0.725137 0.000000
O O17 0.687401 0.500000 0.139564
O O18 0.652401 0.260178 0.106863
O O19 0.792145 0.307705 0.044350
O O20 0.376964 0.500000 0.179181
O O21 0.861938 0.500000 0.927011
#
# Coordination Sequence:
#
# PCOD8088910 Si02
#       8
#     8   8   8   8   8   8   8   8
#     4  10  21  39  59  77 106 148 186 224 273 332
#     4  10  19  32  56  83 108 139 177 226 274 320
#     4   9  18  35  55  78 110 144 177 219 272 326
#     4  10  20  36  57  80 108 142 181 225 274 326
#     4  10  21  37  56  81 115 148 178 222 273 320
#     4  10  20  35  59  85 107 142 186 229 269 314
#     4  10  20  35  56  80 110 145 181 226 272 322
#     4   9  19  37  57  79 113 149 181 219 268 324
#
# _framework density 18.178957
#
# number of rings (size 3 to 8) (size 9 to 14) (size 15 to 20)
#    0.000    2.250    1.250    1.500    0.000    4.500 
#    2.250    0.000    0.000    0.000    0.000    0.000 
#    0.000    0.000    0.000    0.000    0.000    0.000 
#
# Total GULP energy -396763.990436 kJ/mol
# GULP energy per Si atom -12398.874701 kJ/mol
# Density = 1.813758 g / cm^3
# Si number density = 18.178957 Si / 1000 Ang^3
#
#
#
# Elastic Constant Matrix: (Units=GPa)
#
#
# Indices 1 2 3 4 5 6 
#
# 1 108.0952 55.7220 65.4137 0.0004 9.6581 -0.0004
# 2 55.7220 76.7132 44.0728 0.0013 14.9219 -0.0039
# 3 65.4137 44.0728 107.3194 0.0000 11.7238 -0.0002
# 4 0.0004 0.0013 0.0000 28.6624 0.0001 1.5641
# 5 9.6581 14.9219 11.7238 0.0001 30.2831 0.0004
# 6 -0.0004 -0.0039 -0.0002 1.5641 0.0004 29.6511
#
#
#
# Elastic Compliance Matrix: (Units=1/GPa)
#
#
# Indices 1 2 3 4 5 6 
#
# 1 0.018590 -0.009443 -0.007637 0.000000 0.001680 -0.000001
# 2 -0.009443 0.022948 -0.002884 -0.000001 -0.007179 0.000003
# 3 -0.007637 -0.002884 0.015387 0.000000 -0.002100 0.000000
# 4 0.000000 -0.000001 0.000000 0.034990 0.000000 -0.001846
# 5 0.001680 -0.007179 -0.002100 0.000000 0.036836 -0.000001
# 6 -0.000001 0.000003 0.000000 -0.001846 -0.000001 0.033823
#
#
# Mechanical properties :
#
#
# Convention : Reuss Voigt Hill
#
# Bulk Modulus (GPa) = 58.83293 69.17162 64.00228
# Shear Modulus (GPa) = 24.01929 26.18063 25.09996
#
# Velocity S-wave (km/s) = 3.63887 3.79906 3.71983
# Velocity P-wave (km/s) = 7.07733 7.57475 7.33026
#
# Compressibility (1/GPa) = 0.01699728
#
# Stress axis : x y z
#
# Youngs Moduli (GPa) = 53.79277 43.57708 64.99141
#
# Poissons Ratio (x) = 0.41148 0.49632
# Poissons Ratio (y) = 0.50794 0.18745
# Poissons Ratio (z) = 0.41080 0.12569
#
# Static dielectric constant tensor:
#      x y z
#    x 3.412250 0.000000 0.216500 
#    y 0.000000 3.450200 0.000000 
#    z 0.216500 0.000000 3.308470 
# 
# 
# High freq. dielectric constant tensor:
#      x y z
#    x 1.702000 0.000000 0.014760 
#    y 0.000000 1.706910 0.000000 
#    z 0.014760 0.000000 1.700600 
# 
# From -- ./inp_files/319757.got.cif
#   From: 2010.06.25/outbox.cif.g09.slc.cpg/sg12_160_cif.got.tgz:319757.got - 2010.06.28 00:19:55.
