data_PCOD8089816
_publ_section_title
;
Structure prediction by ZEFSAII (Michael W. Deem and Ramdas Pophale) SiO2 
 PCOD8089816
Probable space group: C 2/M
;
_chemical_formula_sum "Si O2"
_cell_formula_units_Z 56
_cell_length_a 25.023727
_cell_length_b 8.771570
_cell_length_c 16.654543
_cell_angle_alpha 90.000000
_cell_angle_beta 120.759555
_cell_angle_gamma 90.000000
_cell_volume 3141.358771
_symmetry_space_group_name_H-M "C 2/M"
_symmetry_group_IT_number 12
_symmetry_cell_setting 'monoclinic'
loop_
_space_group_symop_operation_xyz
x,y,z
-x,y,-z
-x,-y,-z
x,-y,z
1/2+x,1/2+y,z
1/2-x,1/2+y,-z
1/2-x,1/2-y,-z
1/2+x,1/2-y,z
loop_
_atom_site_type_symbol
_atom_site_label
_atom_site_fract_x
_atom_site_fract_y
_atom_site_fract_z
Si Si1 0.131812 0.324509 0.619557
Si Si2 0.735556 0.821732 0.274554
Si Si3 0.695830 0.321131 0.405265
Si Si4 0.223639 0.823192 0.102903
Si Si5 0.338351 0.322917 0.108054
Si Si6 0.557394 0.177634 0.720578
Si Si7 0.084060 0.323525 0.407763
O O1 0.153652 0.500000 0.641717
O O2 0.191846 0.218491 0.669299
O O3 0.085642 0.280656 0.655768
O O4 0.094768 0.292309 0.509688
O O5 0.699250 0.737169 0.317256
O O6 0.704255 0.771035 0.166640
O O7 0.727160 0.000000 0.280333
O O8 0.705710 0.500000 0.414061
O O9 0.750000 0.250000 0.500000
O O10 0.628959 0.279437 0.389025
O O11 0.292388 0.775701 0.127666
O O12 0.225811 0.000000 0.127075
O O13 0.173624 0.787670 0.994923
O O14 0.326585 0.500000 0.117614
O O15 0.408230 0.273595 0.183410
O O16 0.485732 0.226249 0.666894
O O17 0.565249 0.000000 0.745380
O O18 0.096231 0.500000 0.396542
#
# Coordination Sequence:
#
# PCOD8089816 Si02
#       7
#     8   8   8   8   8   8   8
#     4  10  19  33  54  80 113 151 184 220 268 327
#     4  12  23  35  56  84 112 143 183 232 281 328
#     4  12  24  39  58  80 109 147 187 233 278 322
#     4  10  20  35  54  79 111 147 183 225 281 332
#     4  10  20  33  53  81 113 146 183 227 274 329
#     4  10  20  34  55  82 115 153 186 222 275 331
#     4  10  21  37  56  80 112 151 192 228 268 327
#
# _framework density 17.82668
#
# number of rings (size 3 to 8) (size 9 to 14) (size 15 to 20)
#    0.000    1.429    2.857    3.857    0.000    4.000 
#    0.000    0.000    0.000    3.429    0.000    6.000 
#    0.000    0.000    0.000    0.000    0.000    0.000 
#
# Total GULP energy -347339.474194 kJ/mol
# GULP energy per Si atom -12404.981221 kJ/mol
# Density = 1.778611 g / cm^3
# Si number density = 17.826680 Si / 1000 Ang^3
#
#
#
# Elastic Constant Matrix: (Units=GPa)
#
#
# Indices 1 2 3 4 5 6 
#
# 1 102.6852 47.7463 58.7490 0.0000 2.1703 0.0000
# 2 47.7463 104.4482 51.5831 0.0000 -3.4399 0.0000
# 3 58.7490 51.5831 130.5344 0.0000 0.7527 0.0000
# 4 0.0000 0.0000 0.0000 30.0241 0.0000 -0.2343
# 5 2.1703 -3.4399 0.7527 0.0000 23.5688 0.0000
# 6 0.0000 0.0000 0.0000 -0.2343 0.0000 28.9534
#
#
#
# Elastic Compliance Matrix: (Units=1/GPa)
#
#
# Indices 1 2 3 4 5 6 
#
# 1 0.014552 -0.004327 -0.004829 0.000000 -0.001817 0.000000
# 2 -0.004327 0.013267 -0.003309 0.000000 0.002440 0.000000
# 3 -0.004829 -0.003309 0.011144 0.000000 -0.000394 0.000000
# 4 0.000000 0.000000 0.000000 0.033309 0.000000 0.000270
# 5 -0.001817 0.002440 -0.000394 0.000000 0.042965 0.000000
# 6 0.000000 0.000000 0.000000 0.000270 0.000000 0.034540
#
#
# Mechanical properties :
#
#
# Convention : Reuss Voigt Hill
#
# Bulk Modulus (GPa) = 71.26401 72.64719 71.95560
# Shear Modulus (GPa) = 27.87313 28.48189 28.17751
#
# Velocity S-wave (km/s) = 3.95848 4.00147 3.98004
# Velocity P-wave (km/s) = 7.80741 7.88603 7.84682
#
# Compressibility (1/GPa) = 0.01403233
#
# Stress axis : x y z
#
# Youngs Moduli (GPa) = 68.72122 75.37601 89.73393
#
# Poissons Ratio (x) = 0.32615 0.43330
# Poissons Ratio (y) = 0.29736 0.29695
# Poissons Ratio (z) = 0.33184 0.24944
#
# Static dielectric constant tensor:
#      x y z
#    x 3.182160 0.000000 -0.070220 
#    y 0.000000 3.309170 0.000000 
#    z -0.070220 0.000000 3.518100 
# 
# 
# High freq. dielectric constant tensor:
#      x y z
#    x 1.666460 0.000000 -0.003220 
#    y 0.000000 1.695250 0.000000 
#    z -0.003220 0.000000 1.698250 
# 
# From -- ./inp_files/237788.got.cif
#   From: 2010.06.25/outbox.cif.g09.slc.cpg/sg12_119_cif.got.tgz:237788.got - 2010.06.28 00:19:55.
