data_PCOD8089978
_publ_section_title
;
Structure prediction by ZEFSAII (Michael W. Deem and Ramdas Pophale) SiO2 
 PCOD8089978
Probable space group: C 2/M
;
_chemical_formula_sum "Si O2"
_cell_formula_units_Z 56
_cell_length_a 18.164643
_cell_length_b 8.956572
_cell_length_c 19.730278
_cell_angle_alpha 90.000000
_cell_angle_beta 65.692747
_cell_angle_gamma 90.000000
_cell_volume 2925.416127
_symmetry_space_group_name_H-M "C 2/M"
_symmetry_group_IT_number 12
_symmetry_cell_setting 'monoclinic'
loop_
_space_group_symop_operation_xyz
x,y,z
-x,y,-z
-x,-y,-z
x,-y,z
1/2+x,1/2+y,z
1/2-x,1/2+y,-z
1/2-x,1/2-y,-z
1/2+x,1/2-y,z
loop_
_atom_site_type_symbol
_atom_site_label
_atom_site_fract_x
_atom_site_fract_y
_atom_site_fract_z
Si Si1 0.627579 0.827960 0.058446
Si Si2 0.336010 0.824574 0.640027
Si Si3 0.498806 0.824526 0.656091
Si Si4 0.801759 0.323040 0.224334
Si Si5 0.783983 0.171329 0.089669
Si Si6 0.521476 0.176934 0.799194
Si Si7 0.416758 0.331964 0.491521
O O1 0.698867 0.809036 0.085197
O O2 0.546487 0.762823 0.123355
O O3 0.617982 0.000000 0.040071
O O4 0.644186 0.732648 0.984817
O O5 0.410213 0.785003 0.661587
O O6 0.256358 0.746136 0.697640
O O7 0.351566 0.762332 0.558705
O O8 0.321563 0.000000 0.641188
O O9 0.504639 0.761727 0.730137
O O10 0.569071 0.744178 0.586555
O O11 0.515458 0.000000 0.645284
O O12 0.793992 0.500000 0.229589
O O13 0.777768 0.266223 0.159763
O O14 0.892018 0.268619 0.207347
O O15 0.801751 0.000000 0.100924
O O16 0.514927 0.000000 0.799289
O O17 0.500000 0.331059 0.500000
O O18 0.384532 0.500000 0.493369
#
# Coordination Sequence:
#
# PCOD8089978 Si02
#       7
#     8   8   8   8   8   8   8
#     4   9  18  36  59  79 101 133 174 214 252 300
#     4  10  19  33  55  79 103 134 172 215 260 305
#     4   9  17  33  56  78 101 133 174 215 255 302
#     4  11  22  35  52  75 105 139 173 210 254 306
#     4  10  20  35  56  81 106 132 167 213 260 305
#     4   9  19  35  54  75 101 137 177 212 250 301
#     4   9  17  30  50  79 109 133 165 212 261 307
#
# _framework density 19.142575999999998
#
# number of rings (size 3 to 8) (size 9 to 14) (size 15 to 20)
#    0.000    2.429    0.000    2.571    0.000    5.714 
#    0.000    7.143    0.000    0.000    0.000    0.000 
#    0.000    0.000    0.000    0.000    0.000    0.000 
#
# Total GULP energy -347262.710469 kJ/mol
# GULP energy per Si atom -12402.239660 kJ/mol
# Density = 1.909901 g / cm^3
# Si number density = 19.142576 Si / 1000 Ang^3
#
#
#
# Elastic Constant Matrix: (Units=GPa)
#
#
# Indices 1 2 3 4 5 6 
#
# 1 41.5385 30.5751 36.0524 0.0000 -21.7586 0.0000
# 2 30.5751 79.7013 46.7483 -0.0001 -17.1951 0.0000
# 3 36.0524 46.7483 141.2386 0.0000 -35.5389 0.0000
# 4 0.0000 -0.0001 0.0000 38.8802 0.0000 -2.7695
# 5 -21.7586 -17.1951 -35.5389 0.0000 22.3026 0.0000
# 6 0.0000 0.0000 0.0000 -2.7695 0.0000 15.9339
#
#
#
# Elastic Compliance Matrix: (Units=1/GPa)
#
#
# Indices 1 2 3 4 5 6 
#
# 1 0.057615 -0.012526 0.001925 0.000000 0.049619 0.000000
# 2 -0.012526 0.018847 -0.004106 0.000000 -0.004232 0.000000
# 3 0.001925 -0.004106 0.012727 0.000000 0.018992 0.000000
# 4 0.000000 0.000000 0.000000 0.026042 0.000000 0.004527
# 5 0.049619 -0.004232 0.018992 0.000000 0.120248 0.000000
# 6 0.000000 0.000000 0.000000 0.004527 0.000000 0.063546
#
#
# Mechanical properties :
#
#
# Convention : Reuss Voigt Hill
#
# Bulk Modulus (GPa) = 16.72942 54.35888 35.54415
# Shear Modulus (GPa) = 14.35273 25.36351 19.85812
#
# Velocity S-wave (km/s) = 2.74118 3.64397 3.22433
# Velocity P-wave (km/s) = 4.33326 6.79435 5.69826
#
# Compressibility (1/GPa) = 0.05977493
#
# Stress axis : x y z
#
# Youngs Moduli (GPa) = 17.35648 53.05807 78.57464
#
# Poissons Ratio (x) = 0.66461 -0.15122
# Poissons Ratio (y) = 0.21741 0.32260
# Poissons Ratio (z) = -0.03340 0.21784
#
# Static dielectric constant tensor:
#      x y z
#    x 3.311370 0.000000 -0.080840 
#    y 0.000000 3.445300 0.000000 
#    z -0.080840 0.000000 3.745260 
# 
# 
# High freq. dielectric constant tensor:
#      x y z
#    x 1.719400 0.000000 -0.004770 
#    y 0.000000 1.735710 0.000000 
#    z -0.004770 0.000000 1.763110 
# 
# From -- ./inp_files/313719.got.cif
#   From: 2010.06.25/outbox.cif.g09.slc.cpg/sg12_157_cif.got.tgz:313719.got - 2010.06.28 00:19:55.
