data_PCOD8089502
_publ_section_title
;
Structure prediction by ZEFSAII (Michael W. Deem and Ramdas Pophale) SiO2 
 PCOD8089502
Probable space group: C 2/M
;
_chemical_formula_sum "Si O2"
_cell_formula_units_Z 64
_cell_length_a 24.999102
_cell_length_b 9.433475
_cell_length_c 14.445714
_cell_angle_alpha 90.000000
_cell_angle_beta 85.096080
_cell_angle_gamma 90.000000
_cell_volume 3394.239242
_symmetry_space_group_name_H-M "C 2/M"
_symmetry_group_IT_number 12
_symmetry_cell_setting 'monoclinic'
loop_
_space_group_symop_operation_xyz
x,y,z
-x,y,-z
-x,-y,-z
x,-y,z
1/2+x,1/2+y,z
1/2-x,1/2+y,-z
1/2-x,1/2-y,-z
1/2+x,1/2-y,z
loop_
_atom_site_type_symbol
_atom_site_label
_atom_site_fract_x
_atom_site_fract_y
_atom_site_fract_z
Si Si1 0.056540 0.165531 0.036688
Si Si2 0.621742 0.833868 0.682637
Si Si3 0.235890 0.331087 0.593584
Si Si4 0.376159 0.160623 0.114361
Si Si5 0.486724 0.166164 0.397370
Si Si6 0.816686 0.832424 0.737380
Si Si7 0.753914 0.659905 0.089442
Si Si8 0.563610 0.667711 0.249448
O O1 0.056397 0.213810 0.143647
O O2 0.069285 0.000000 0.027158
O O3 0.102467 0.245618 0.973173
O O4 0.000000 0.205860 0.000000
O O5 0.678317 0.773029 0.637929
O O6 0.605877 0.776201 0.787778
O O7 0.575406 0.797653 0.615262
O O8 0.629468 0.000000 0.694520
O O9 0.235078 0.500000 0.578217
O O10 0.250000 0.250000 0.500000
O O11 0.283226 0.280577 0.654517
O O12 0.312119 0.165285 0.126594
O O13 0.397138 0.000000 0.096687
O O14 0.500000 0.215167 0.500000
O O15 0.521444 0.252172 0.319091
O O16 0.498814 0.000000 0.382843
O O17 0.788653 0.771438 0.833381
O O18 0.878081 0.781806 0.723519
O O19 0.813410 0.000000 0.744382
O O20 0.737931 0.500000 0.066121
O O21 0.750000 0.750000 0.000000
O O22 0.555069 0.500000 0.262074
#
# Coordination Sequence:
#
# PCOD8089502 Si02
#       8
#     8   8   8   8   8   8   8   8
#     4  10  21  36  54  79 112 146 178 219 272 319
#     4   9  18  36  58  79 108 143 178 219 268 322
#     4  10  20  36  58  81 106 140 179 221 269 320
#     4  10  19  33  56  81 104 139 185 222 258 315
#     4  10  22  38  57  81 108 140 178 225 276 315
#     4   9  18  35  56  77 108 146 179 212 262 325
#     4  10  19  33  53  78 107 142 180 217 261 316
#     4  10  21  37  56  79 109 146 182 217 263 321
#
# _framework density 18.855477
#
# number of rings (size 3 to 8) (size 9 to 14) (size 15 to 20)
#    0.000    2.250    1.250    1.500    1.750    2.500 
#    0.000    2.500    0.000    0.000    0.000    0.000 
#    0.000    0.000    0.000    0.000    0.000    0.000 
#
# Total GULP energy -396761.226402 kJ/mol
# GULP energy per Si atom -12398.788325 kJ/mol
# Density = 1.881256 g / cm^3
# Si number density = 18.855477 Si / 1000 Ang^3
#
#
#
# Elastic Constant Matrix: (Units=GPa)
#
#
# Indices 1 2 3 4 5 6 
#
# 1 119.9354 28.4588 64.9126 0.0000 6.1735 0.0000
# 2 28.4588 38.2332 42.3910 0.0000 -3.3862 0.0000
# 3 64.9126 42.3910 159.8734 0.0000 5.3111 0.0000
# 4 0.0000 0.0000 0.0000 32.9086 0.0000 -6.4416
# 5 6.1735 -3.3862 5.3111 0.0000 39.1651 0.0000
# 6 0.0000 0.0000 0.0000 -6.4416 0.0000 22.4933
#
#
#
# Elastic Compliance Matrix: (Units=1/GPa)
#
#
# Indices 1 2 3 4 5 6 
#
# 1 0.011371 -0.005056 -0.003217 0.000000 -0.001793 0.000000
# 2 -0.005056 0.040122 -0.008767 0.000000 0.005455 0.000000
# 3 -0.003217 -0.008767 0.009939 0.000000 -0.001599 0.000000
# 4 0.000000 0.000000 0.000000 0.032192 0.000000 0.009219
# 5 -0.001793 0.005455 -0.001599 0.000000 0.026504 0.000000
# 6 0.000000 0.000000 0.000000 0.009219 0.000000 0.047098
#
#
# Mechanical properties :
#
#
# Convention : Reuss Voigt Hill
#
# Bulk Modulus (GPa) = 36.56000 65.50743 51.03371
# Shear Modulus (GPa) = 23.76181 31.06538 27.41359
#
# Velocity S-wave (km/s) = 3.55379 4.06341 3.81711
# Velocity P-wave (km/s) = 6.02253 7.53872 6.82288
#
# Compressibility (1/GPa) = 0.02735230
#
# Stress axis : x y z
#
# Youngs Moduli (GPa) = 87.94442 24.92390 100.61774
#
# Poissons Ratio (x) = 0.12602 0.32364
# Poissons Ratio (y) = 0.44467 0.88209
# Poissons Ratio (z) = 0.28288 0.21850
#
# Static dielectric constant tensor:
#      x y z
#    x 3.774260 0.000000 0.149190 
#    y 0.000000 3.174370 0.000000 
#    z 0.149190 0.000000 3.538710 
# 
# 
# High freq. dielectric constant tensor:
#      x y z
#    x 1.746660 0.000000 0.005410 
#    y 0.000000 1.696620 0.000000 
#    z 0.005410 0.000000 1.745330 
# 
# From -- ./inp_files/174593.got.cif
#   From: 2010.06.25/outbox.cif.g09.slc.cpg/sg12_88_cif.got.tgz:174593.got - 2010.06.28 00:19:55.
