data_PCOD8089564
_publ_section_title
;
Structure prediction by ZEFSAII (Michael W. Deem and Ramdas Pophale) SiO2 
 PCOD8089564
Probable space group: C 2/M
;
_chemical_formula_sum "Si O2"
_cell_formula_units_Z 64
_cell_length_a 22.481308
_cell_length_b 17.933616
_cell_length_c 23.235642
_cell_angle_alpha 90.000000
_cell_angle_beta 159.865746
_cell_angle_gamma 90.000000
_cell_volume 3224.642426
_symmetry_space_group_name_H-M "C 2/M"
_symmetry_group_IT_number 12
_symmetry_cell_setting 'monoclinic'
loop_
_space_group_symop_operation_xyz
x,y,z
-x,y,-z
-x,-y,-z
x,-y,z
1/2+x,1/2+y,z
1/2-x,1/2+y,-z
1/2-x,1/2-y,-z
1/2+x,1/2-y,z
loop_
_atom_site_type_symbol
_atom_site_label
_atom_site_fract_x
_atom_site_fract_y
_atom_site_fract_z
Si Si1 0.796914 0.222427 0.949937
Si Si2 0.814110 0.260428 0.272056
Si Si3 0.627005 0.844147 0.897199
Si Si4 0.728019 0.087061 0.398421
Si Si5 0.198018 0.580436 0.694693
Si Si6 0.790618 0.216895 0.371304
Si Si7 0.615138 0.638263 0.243314
Si Si8 0.997125 0.914395 0.740368
O O1 0.747726 0.265853 0.846877
O O2 0.634241 0.191334 0.839364
O O3 0.911542 0.278920 0.092359
O O4 0.917090 0.151873 0.044349
O O5 0.771385 0.349341 0.235865
O O6 0.717547 0.220143 0.238450
O O7 0.012218 0.239687 0.455096
O O8 0.466940 0.901402 0.753977
O O9 0.816293 0.874976 0.087375
O O10 0.757921 0.135252 0.367805
O O11 0.875590 0.113562 0.577417
O O12 0.747707 0.000000 0.400825
O O13 0.250990 0.500000 0.771023
O O14 0.298899 0.586769 0.726250
O O15 0.000000 0.579263 0.500000
O O16 0.706019 0.281262 0.332806
O O17 0.617634 0.597474 0.306970
O O18 0.039330 0.000000 0.769808
#
# Coordination Sequence:
#
# PCOD8089564 Si02
#       8
#     8   8   8   8   8   8   8   8
#     4  10  21  36  59  85 114 148 199 240 297 350
#     4  10  20  38  58  85 113 155 199 248 291 343
#     4  10  21  39  58  90 118 149 192 251 294 352
#     4  11  23  39  62  89 119 159 197 244 310 361
#     4  10  19  33  53  80 116 152 189 235 287 343
#     4  10  20  37  58  84 115 150 199 249 289 342
#     4  10  19  36  54  83 112 151 191 237 286 349
#     4  10  22  37  57  86 121 157 191 236 300 359
#
# _framework density 19.847162000000001
#
# number of rings (size 3 to 8) (size 9 to 14) (size 15 to 20)
#    0.000    1.875    3.750    1.500    1.750    2.500 
#    0.000    5.625    0.000    2.250    0.000    0.000 
#    0.000    0.000    0.000    0.000    0.000    0.000 
#
# Total GULP energy -396471.433388 kJ/mol
# GULP energy per Si atom -12389.732293 kJ/mol
# Density = 1.980199 g / cm^3
# Si number density = 19.847162 Si / 1000 Ang^3
#
#
#
# Elastic Constant Matrix: (Units=GPa)
#
#
# Indices 1 2 3 4 5 6 
#
# 1 84.8175 20.2179 44.6736 -0.1256 -6.4638 -0.0670
# 2 20.2179 66.7674 20.9858 -0.2118 2.5324 -0.0893
# 3 44.6736 20.9858 75.9165 -0.2746 -3.9112 -0.1322
# 4 -0.1256 -0.2118 -0.2746 4.8354 -0.0925 -10.8041
# 5 -6.4638 2.5324 -3.9112 -0.0925 28.7890 -0.0360
# 6 -0.0670 -0.0893 -0.1322 -10.8041 -0.0360 18.8681
#
#
#
# Elastic Compliance Matrix: (Units=1/GPa)
#
#
# Indices 1 2 3 4 5 6 
#
# 1 0.017618 -0.002443 -0.009541 0.000570 0.002877 0.000316
# 2 -0.002443 0.016861 -0.003361 -0.001905 -0.002496 -0.001048
# 3 -0.009541 -0.003361 0.019743 -0.003375 0.000822 -0.001842
# 4 0.000570 -0.001905 -0.003375 -0.738667 -0.003065 -0.423006
# 5 0.002877 -0.002496 0.000822 -0.003065 0.035701 -0.001683
# 6 0.000316 -0.001048 -0.001842 -0.423006 -0.001683 -0.189238
#
#
# Mechanical properties :
#
#
# Convention : Reuss Voigt Hill
#
# Bulk Modulus (GPa) = 42.49533 44.36179 43.42856
# Shear Modulus (GPa) = -6.25430 19.94009 6.84289
#
# Velocity S-wave (km/s) = -1.77710 3.17311 1.85884
# Velocity P-wave (km/s) = 4.15295 5.98540 5.15131
#
# Compressibility (1/GPa) = 0.02353200
#
# Stress axis : x y z
#
# Youngs Moduli (GPa) = 56.75968 59.30994 50.65075
#
# Poissons Ratio (x) = 0.14488 0.48328
# Poissons Ratio (y) = 0.13865 0.17022
# Poissons Ratio (z) = 0.54157 0.19932
#
# Static dielectric constant tensor:
#      x y z
#    x 3.962900 -0.000110 0.023580 
#    y -0.000110 3.713210 -0.000040 
#    z 0.023580 -0.000040 3.473550 
# 
# 
# High freq. dielectric constant tensor:
#      x y z
#    x 1.782370 -0.000010 0.014690 
#    y -0.000010 1.760730 -0.000010 
#    z 0.014690 -0.000010 1.765180 
# 
# From -- ./inp_files/350036.got.cif
#   From: 2010.06.25/outbox.cif.g09.slc.cpg/sg12_176_cif.got.tgz:350036.got - 2010.06.28 00:19:55.
