data_PCOD8089336
_publ_section_title
;
Structure prediction by ZEFSAII (Michael W. Deem and Ramdas Pophale) SiO2 
 PCOD8089336
Probable space group: C 2/M
;
_chemical_formula_sum "Si O2"
_cell_formula_units_Z 64
_cell_length_a 25.515425
_cell_length_b 9.011332
_cell_length_c 15.582346
_cell_angle_alpha 90.000000
_cell_angle_beta 106.243087
_cell_angle_gamma 90.000000
_cell_volume 3439.803993
_symmetry_space_group_name_H-M "C 2/M"
_symmetry_group_IT_number 12
_symmetry_cell_setting 'monoclinic'
loop_
_space_group_symop_operation_xyz
x,y,z
-x,y,-z
-x,-y,-z
x,-y,z
1/2+x,1/2+y,z
1/2-x,1/2+y,-z
1/2-x,1/2-y,-z
1/2+x,1/2-y,z
loop_
_atom_site_type_symbol
_atom_site_label
_atom_site_fract_x
_atom_site_fract_y
_atom_site_fract_z
Si Si1 0.099519 0.173630 0.229546
Si Si2 0.977340 0.172666 0.181187
Si Si3 0.910361 0.171083 0.585417
Si Si4 0.363205 0.326269 0.067286
Si Si5 0.184204 0.822470 0.131027
Si Si6 0.120543 0.170021 0.609243
Si Si7 0.020969 0.674710 0.641288
Si Si8 0.200883 0.174638 0.794788
O O1 0.111105 0.232988 0.332225
O O2 0.142066 0.244661 0.182209
O O3 0.037301 0.211924 0.171308
O O4 0.109361 0.000000 0.231102
O O5 0.928253 0.209683 0.092659
O O6 0.964939 0.271538 0.257397
O O7 0.975046 0.000000 0.207247
O O8 0.866431 0.188312 0.487435
O O9 0.964744 0.256158 0.582043
O O10 0.926647 0.000000 0.606772
O O11 0.353869 0.500000 0.061125
O O12 0.335755 0.265921 0.142385
O O13 0.334378 0.257713 0.970113
O O14 0.243283 0.763153 0.180598
O O15 0.184721 0.000000 0.131278
O O16 0.069747 0.275714 0.602730
O O17 0.171790 0.215419 0.691381
O O18 0.104290 0.000000 0.622731
O O19 0.015230 0.500000 0.635863
O O20 0.212355 0.000000 0.807468
#
# Coordination Sequence:
#
# PCOD8089336 Si02
#       8
#     8   8   8   8   8   8   8   8
#     4   8  16  31  52  76 102 129 168 210 248 294
#     4   9  16  32  54  74 101 137 171 206 244 296
#     4   9  18  33  53  73  96 135 174 204 241 296
#     4   9  17  31  54  78 101 127 168 213 253 298
#     4  10  20  34  52  76 102 133 167 211 261 300
#     4  10  19  33  53  72  96 133 176 209 242 293
#     4  11  20  29  46  77 112 135 157 200 258 308
#     4  10  20  35  52  73 100 132 172 214 247 296
#
# _framework density 18.605712
#
# number of rings (size 3 to 8) (size 9 to 14) (size 15 to 20)
#    0.000    2.500    1.250    2.625    0.000    3.000 
#    0.000    6.250    0.000    0.000    0.000    4.375 
#    0.000    0.000    0.000    0.000    0.000    0.000 
#
# Total GULP energy -396563.909380 kJ/mol
# GULP energy per Si atom -12392.622168 kJ/mol
# Density = 1.856336 g / cm^3
# Si number density = 18.605712 Si / 1000 Ang^3
#
#
#
# Elastic Constant Matrix: (Units=GPa)
#
#
# Indices 1 2 3 4 5 6 
#
# 1 123.1922 19.8928 78.9257 0.0000 1.9521 0.0000
# 2 19.8928 41.8046 25.1238 0.0000 1.6021 0.0000
# 3 78.9257 25.1238 147.5276 0.0000 19.5979 0.0000
# 4 0.0000 0.0000 0.0000 12.3907 0.0000 7.2162
# 5 1.9521 1.6021 19.5979 0.0000 19.9796 0.0000
# 6 0.0000 0.0000 0.0000 7.2162 0.0000 21.6937
#
#
#
# Elastic Compliance Matrix: (Units=1/GPa)
#
#
# Indices 1 2 3 4 5 6 
#
# 1 0.013169 -0.001974 -0.007542 0.000000 0.006269 0.000000
# 2 -0.001974 0.027068 -0.003784 0.000000 0.001734 0.000000
# 3 -0.007542 -0.003784 0.013015 0.000000 -0.011726 0.000000
# 4 0.000000 0.000000 0.000000 0.100098 0.000000 -0.033297
# 5 0.006269 0.001734 -0.011726 0.000000 0.060802 0.000000
# 6 0.000000 0.000000 0.000000 -0.033297 0.000000 0.057172
#
#
# Mechanical properties :
#
#
# Convention : Reuss Voigt Hill
#
# Bulk Modulus (GPa) = 37.52018 62.26766 49.89392
# Shear Modulus (GPa) = 16.29690 23.38492 19.84091
#
# Velocity S-wave (km/s) = 2.96279 3.54908 3.26910
# Velocity P-wave (km/s) = 5.64924 7.09466 6.41280
#
# Compressibility (1/GPa) = 0.02665232
#
# Stress axis : x y z
#
# Youngs Moduli (GPa) = 75.93839 36.94430 76.83303
#
# Poissons Ratio (x) = 0.07293 0.57945
# Poissons Ratio (y) = 0.14991 0.29072
# Poissons Ratio (z) = 0.57270 0.13979
#
# Static dielectric constant tensor:
#      x y z
#    x 3.373940 0.000000 -0.088470 
#    y 0.000000 3.032220 0.000000 
#    z -0.088470 0.000000 3.809670 
# 
# 
# High freq. dielectric constant tensor:
#      x y z
#    x 1.703570 0.000000 0.004480 
#    y 0.000000 1.682430 0.000000 
#    z 0.004480 0.000000 1.735750 
# 
# From -- ./inp_files/244239.got.cif
#   From: 2010.06.25/outbox.cif.g09.slc.cpg/sg12_123_cif.got.tgz:244239.got - 2010.06.28 00:19:55.
