data_PCOD8089216
_publ_section_title
;
Structure prediction by ZEFSAII (Michael W. Deem and Ramdas Pophale) SiO2 
 PCOD8089216
Probable space group: C 2/M
;
_chemical_formula_sum "Si O2"
_cell_formula_units_Z 64
_cell_length_a 14.567218
_cell_length_b 9.002978
_cell_length_c 27.389041
_cell_angle_alpha 90.000000
_cell_angle_beta 74.365349
_cell_angle_gamma 90.000000
_cell_volume 3459.121456
_symmetry_space_group_name_H-M "C 2/M"
_symmetry_group_IT_number 12
_symmetry_cell_setting 'monoclinic'
loop_
_space_group_symop_operation_xyz
x,y,z
-x,y,-z
-x,-y,-z
x,-y,z
1/2+x,1/2+y,z
1/2-x,1/2+y,-z
1/2-x,1/2-y,-z
1/2+x,1/2-y,z
loop_
_atom_site_type_symbol
_atom_site_label
_atom_site_fract_x
_atom_site_fract_y
_atom_site_fract_z
Si Si1 0.483684 0.171097 0.732677
Si Si2 0.268485 0.676131 0.445858
Si Si3 0.960840 0.828136 0.367295
Si Si4 0.602646 0.825344 0.807856
Si Si5 0.724893 0.824602 0.267870
Si Si6 0.830597 0.175595 0.628365
Si Si7 0.150837 0.675896 0.000176
Si Si8 0.960759 0.675845 0.077836
O O1 0.550416 0.251569 0.683632
O O2 0.518075 0.209781 0.782053
O O3 0.374318 0.220809 0.743395
O O4 0.495136 0.000000 0.719021
O O5 0.253545 0.500000 0.451038
O O6 0.250000 0.750000 0.500000
O O7 0.375394 0.720023 0.414818
O O8 0.194794 0.745839 0.418396
O O9 0.059255 0.783020 0.378922
O O10 0.956938 0.000000 0.356322
O O11 0.695496 0.734287 0.779964
O O12 0.568540 0.763012 0.864999
O O13 0.627019 0.000000 0.805924
O O14 0.733396 0.743235 0.318901
O O15 0.735266 0.000000 0.274501
O O16 0.812673 0.000000 0.627807
O O17 0.164241 0.500000 0.001139
O O18 0.067178 0.731529 0.048831
O O19 0.250000 0.750000 0.000000
O O20 0.118158 0.726537 0.950545
O O21 0.964437 0.500000 0.077697
#
# Coordination Sequence:
#
# PCOD8089216 Si02
#       8
#     8   8   8   8   8   8   8   8
#     4   9  19  33  51  74 101 132 168 205 248 301
#     4  11  23  38  55  79 107 136 170 214 263 310
#     4   9  20  37  56  75 101 135 170 207 252 302
#     4  10  19  33  52  74 102 139 175 209 249 305
#     4  10  20  34  51  77 108 135 165 208 257 303
#     4  10  20  37  58  78 101 136 176 212 251 304
#     4   9  17  33  55  75  97 133 175 217 260 307
#     4   8  17  33  51  72 102 137 173 208 256 315
#
# _framework density 18.501808
#
# number of rings (size 3 to 8) (size 9 to 14) (size 15 to 20)
#    0.000    2.500    0.000    2.625    0.000    6.000 
#    0.000    6.250    0.000    0.000    0.000    0.000 
#    0.000    0.000    0.000    0.000    0.000    0.000 
#
# Total GULP energy -396811.041834 kJ/mol
# GULP energy per Si atom -12400.345057 kJ/mol
# Density = 1.845970 g / cm^3
# Si number density = 18.501808 Si / 1000 Ang^3
#
#
#
# Elastic Constant Matrix: (Units=GPa)
#
#
# Indices 1 2 3 4 5 6 
#
# 1 97.2366 29.9474 56.2330 0.0000 12.1531 0.0000
# 2 29.9474 48.3877 37.3839 0.0000 8.0980 0.0000
# 3 56.2330 37.3839 155.8202 0.0000 13.9353 0.0000
# 4 0.0000 0.0000 0.0000 25.3846 0.0000 -1.8493
# 5 12.1531 8.0980 13.9353 0.0000 18.7274 0.0000
# 6 0.0000 0.0000 0.0000 -1.8493 0.0000 30.5934
#
#
#
# Elastic Compliance Matrix: (Units=1/GPa)
#
#
# Indices 1 2 3 4 5 6 
#
# 1 0.014596 -0.005558 -0.003537 0.000000 -0.004437 0.000000
# 2 -0.005558 0.028346 -0.004308 0.000000 -0.005445 0.000000
# 3 -0.003537 -0.004308 0.008952 0.000000 -0.002503 0.000000
# 4 0.000000 0.000000 0.000000 0.039568 0.000000 0.002392
# 5 -0.004437 -0.005445 -0.002503 0.000000 0.060493 0.000000
# 6 0.000000 0.000000 0.000000 0.002392 0.000000 0.032831
#
#
# Mechanical properties :
#
#
# Convention : Reuss Voigt Hill
#
# Bulk Modulus (GPa) = 39.86154 60.95256 50.40705
# Shear Modulus (GPa) = 22.73187 26.79977 24.76582
#
# Velocity S-wave (km/s) = 3.50898 3.81004 3.66261
# Velocity P-wave (km/s) = 6.16512 7.23677 6.72233
#
# Compressibility (1/GPa) = 0.02508684
#
# Stress axis : x y z
#
# Youngs Moduli (GPa) = 68.51097 35.27848 111.71298
#
# Poissons Ratio (x) = 0.19609 0.39515
# Poissons Ratio (y) = 0.38081 0.48124
# Poissons Ratio (z) = 0.24234 0.15197
#
# Static dielectric constant tensor:
#      x y z
#    x 3.353010 0.000000 -0.159060 
#    y 0.000000 3.290960 0.000000 
#    z -0.159060 0.000000 3.541360 
# 
# 
# High freq. dielectric constant tensor:
#      x y z
#    x 1.726500 0.000000 0.001880 
#    y 0.000000 1.706260 0.000000 
#    z 0.001880 0.000000 1.718900 
# 
# From -- ./inp_files/359794.got.cif
#   From: 2010.06.25/outbox.cif.g09.slc.cpg/sg12_180_cif.got.tgz:359794.got - 2010.06.28 00:19:55.
