data_PCOD8089889
_publ_section_title
;
Structure prediction by ZEFSAII (Michael W. Deem and Ramdas Pophale) SiO2 
 PCOD8089889
Probable space group: C 2/M
;
_chemical_formula_sum "Si O2"
_cell_formula_units_Z 64
_cell_length_a 29.526560
_cell_length_b 8.920216
_cell_length_c 18.274334
_cell_angle_alpha 90.000000
_cell_angle_beta 139.545677
_cell_angle_gamma 90.000000
_cell_volume 3122.974886
_symmetry_space_group_name_H-M "C 2/M"
_symmetry_group_IT_number 12
_symmetry_cell_setting 'monoclinic'
loop_
_space_group_symop_operation_xyz
x,y,z
-x,y,-z
-x,-y,-z
x,-y,z
1/2+x,1/2+y,z
1/2-x,1/2+y,-z
1/2-x,1/2-y,-z
1/2+x,1/2-y,z
loop_
_atom_site_type_symbol
_atom_site_label
_atom_site_fract_x
_atom_site_fract_y
_atom_site_fract_z
Si Si1 0.346883 0.178851 0.483068
Si Si2 0.436336 0.825789 0.868806
Si Si3 0.284597 0.825775 0.743753
Si Si4 0.064916 0.822231 0.288400
Si Si5 0.929667 0.671224 0.445749
Si Si6 0.916165 0.823859 0.156496
Si Si7 0.794379 0.174443 0.907233
Si Si8 0.846396 0.333216 0.200350
O O1 0.268416 0.236575 0.373705
O O2 0.371656 0.241703 0.591753
O O3 0.399358 0.241490 0.483877
O O4 0.345300 0.000000 0.482384
O O5 0.363876 0.790099 0.819550
O O6 0.438205 0.724600 0.799404
O O7 0.442608 0.000000 0.854672
O O8 0.500000 0.778258 0.000000
O O9 0.274430 0.774827 0.814156
O O10 0.266850 0.000000 0.715069
O O11 0.993892 0.763895 0.239383
O O12 0.074143 0.000000 0.305245
O O13 0.949204 0.500000 0.487579
O O14 0.869111 0.685583 0.312122
O O15 0.000000 0.751063 0.500000
O O16 0.888882 0.779374 0.202423
O O17 0.914404 0.000000 0.149966
O O18 0.865986 0.763254 0.030292
O O19 0.736423 0.196883 0.899765
O O20 0.798360 0.000000 0.888229
O O21 0.862998 0.500000 0.191803
#
# Coordination Sequence:
#
# PCOD8089889 Si02
#       8
#     8   8   8   8   8   8   8   8
#     4  11  22  40  64  87 120 163 202 246 299 358
#     4  10  23  44  68  94 122 156 201 246 296 363
#     4  11  23  39  63  93 123 154 196 254 307 356
#     4  11  24  41  61  90 124 156 198 250 304 359
#     4   9  17  31  53  81 112 151 201 248 287 338
#     4  10  22  37  55  84 122 159 197 250 308 356
#     4  10  20  37  58  83 119 161 204 244 294 364
#     4  10  19  33  54  82 115 156 206 248 289 355
#
# _framework density 20.493281
#
# number of rings (size 3 to 8) (size 9 to 14) (size 15 to 20)
#    0.000    1.750    1.250    3.000    0.000    4.750 
#    0.000    0.000    0.000    2.625    0.000    0.000 
#    0.000    0.000    0.000    0.000    0.000    0.000 
#
# Total GULP energy -396833.259797 kJ/mol
# GULP energy per Si atom -12401.039369 kJ/mol
# Density = 2.044664 g / cm^3
# Si number density = 20.493281 Si / 1000 Ang^3
#
#
#
# Elastic Constant Matrix: (Units=GPa)
#
#
# Indices 1 2 3 4 5 6 
#
# 1 89.3370 35.0145 46.7284 0.0000 3.3805 0.0000
# 2 35.0145 54.7878 39.8884 0.0000 2.9012 0.0000
# 3 46.7284 39.8884 125.1034 0.0000 6.5078 0.0000
# 4 0.0000 0.0000 0.0000 29.6258 0.0000 -3.8013
# 5 3.3805 2.9012 6.5078 0.0000 34.8241 0.0000
# 6 0.0000 0.0000 0.0000 -3.8013 0.0000 31.2950
#
#
#
# Elastic Compliance Matrix: (Units=1/GPa)
#
#
# Indices 1 2 3 4 5 6 
#
# 1 0.016063 -0.007675 -0.003539 0.000000 -0.000258 0.000000
# 2 -0.007675 0.027449 -0.005862 0.000000 -0.000446 0.000000
# 3 -0.003539 -0.005862 0.011250 0.000000 -0.001271 0.000000
# 4 0.000000 0.000000 0.000000 0.034289 0.000000 0.004165
# 5 -0.000258 -0.000446 -0.001271 0.000000 0.029015 0.000000
# 6 0.000000 0.000000 0.000000 0.004165 0.000000 0.032460
#
#
# Mechanical properties :
#
#
# Convention : Reuss Voigt Hill
#
# Bulk Modulus (GPa) = 48.52103 56.94341 52.73222
# Shear Modulus (GPa) = 26.10311 28.98878 27.54595
#
# Velocity S-wave (km/s) = 3.57282 3.76513 3.67024
# Velocity P-wave (km/s) = 6.38342 6.83727 6.61424
#
# Compressibility (1/GPa) = 0.02060962
#
# Stress axis : x y z
#
# Youngs Moduli (GPa) = 62.25599 36.43155 88.88592
#
# Poissons Ratio (x) = 0.27962 0.31457
# Poissons Ratio (y) = 0.47783 0.52103
# Poissons Ratio (z) = 0.22033 0.21355
#
# Static dielectric constant tensor:
#      x y z
#    x 3.780450 0.000000 0.254840 
#    y 0.000000 3.489730 0.000000 
#    z 0.254840 0.000000 3.891250 
# 
# 
# High freq. dielectric constant tensor:
#      x y z
#    x 1.802120 0.000000 0.008720 
#    y 0.000000 1.779940 0.000000 
#    z 0.008720 0.000000 1.815910 
# 
# From -- ./inp_files/295717.got.cif
#   From: 2010.06.25/outbox.cif.g09.slc.cpg/sg12_148_cif.got.tgz:295717.got - 2010.06.28 00:19:55.
