data_PCOD8089053
_publ_section_title
;
Structure prediction by ZEFSAII (Michael W. Deem and Ramdas Pophale) SiO2 
 PCOD8089053
Probable space group: C 2/M
;
_chemical_formula_sum "Si O2"
_cell_formula_units_Z 64
_cell_length_a 33.358576
_cell_length_b 11.310858
_cell_length_c 18.884275
_cell_angle_alpha 90.000000
_cell_angle_beta 28.130379
_cell_angle_gamma 90.000000
_cell_volume 3359.434765
_symmetry_space_group_name_H-M "C 2/M"
_symmetry_group_IT_number 12
_symmetry_cell_setting 'monoclinic'
loop_
_space_group_symop_operation_xyz
x,y,z
-x,y,-z
-x,-y,-z
x,-y,z
1/2+x,1/2+y,z
1/2-x,1/2+y,-z
1/2-x,1/2-y,-z
1/2+x,1/2-y,z
loop_
_atom_site_type_symbol
_atom_site_label
_atom_site_fract_x
_atom_site_fract_y
_atom_site_fract_z
Si Si1 0.989917 0.361382 0.161670
Si Si2 0.034306 0.363614 0.643509
Si Si3 0.137035 0.703128 0.159597
Si Si4 0.833573 0.636792 0.174792
Si Si5 0.817111 0.748608 0.673917
Si Si6 0.591801 0.366867 0.351063
Si Si7 0.808605 0.640939 0.379089
Si Si8 0.743291 0.373619 0.917101
O O1 0.000438 0.500000 0.149337
O O2 0.988891 0.310356 0.243272
O O3 0.902660 0.327682 0.259291
O O4 0.071551 0.313561 0.990518
O O5 0.059800 0.500000 0.609809
O O6 0.115665 0.294422 0.488707
O O7 0.954019 0.350832 0.716471
O O8 0.140186 0.808996 0.211074
O O9 0.197084 0.608928 0.105479
O O10 0.178169 0.763038 0.025450
O O11 0.825504 0.500000 0.165420
O O12 0.768508 0.713401 0.230940
O O13 0.810246 0.653693 0.292643
O O14 0.857522 0.858211 0.653995
O O15 0.799238 0.646126 0.759182
O O16 0.500000 0.303541 0.500000
O O17 0.578758 0.500000 0.348827
O O18 0.784118 0.500000 0.436963
O O19 0.750000 0.750000 0.500000
O O20 0.696008 0.500000 0.981502
#
# Coordination Sequence:
#
# PCOD8089053 Si02
#       8
#     8   8   8   8   8   8   8   8
#     4   9  19  35  57  84 111 145 185 226 269 322
#     4  11  21  34  53  77 106 139 180 225 272 324
#     4  10  20  35  52  74  98 138 183 225 272 328
#     4  10  20  36  59  85 113 146 188 229 268 322
#     4  11  21  34  52  79 109 141 180 225 277 329
#     4  10  19  33  50  71 101 135 178 227 273 318
#     4  10  20  37  63  92 121 151 185 229 281 335
#     4  10  21  35  52  74 105 140 178 225 281 337
#
# _framework density 19.050823000000001
#
# number of rings (size 3 to 8) (size 9 to 14) (size 15 to 20)
#    0.000    1.875    1.250    3.375    0.000    1.500 
#    0.000    6.250    0.000    6.750    0.000    0.000 
#    0.000    0.000    0.000    0.000    0.000    0.000 
#
# Total GULP energy -396476.200430 kJ/mol
# GULP energy per Si atom -12389.881263 kJ/mol
# Density = 1.900746 g / cm^3
# Si number density = 19.050823 Si / 1000 Ang^3
#
#
#
# Elastic Constant Matrix: (Units=GPa)
#
#
# Indices 1 2 3 4 5 6 
#
# 1 96.3917 19.8339 34.3929 0.0000 -8.6510 0.0000
# 2 19.8339 68.2687 34.1691 0.0001 3.1564 0.0000
# 3 34.3929 34.1691 112.7159 0.0000 -1.8519 0.0000
# 4 0.0000 0.0001 0.0000 12.0235 0.0000 -7.3180
# 5 -8.6510 3.1564 -1.8519 0.0000 37.4148 0.0000
# 6 0.0000 0.0000 0.0000 -7.3180 0.0000 14.8653
#
#
#
# Elastic Compliance Matrix: (Units=1/GPa)
#
#
# Indices 1 2 3 4 5 6 
#
# 1 0.012145 -0.002155 -0.003006 0.000000 0.002841 0.000000
# 2 -0.002155 0.017761 -0.004763 0.000000 -0.002233 0.000000
# 3 -0.003006 -0.004763 0.011237 0.000000 0.000263 0.000000
# 4 0.000000 0.000000 0.000000 0.118752 0.000000 0.058460
# 5 0.002841 -0.002233 0.000263 0.000000 0.027586 0.000000
# 6 0.000000 0.000000 0.000000 0.058460 0.000000 0.096050
#
#
# Mechanical properties :
#
#
# Convention : Reuss Voigt Hill
#
# Bulk Modulus (GPa) = 46.95926 50.46311 48.71119
# Shear Modulus (GPa) = 16.10414 25.45941 20.78178
#
# Velocity S-wave (km/s) = 2.91060 3.65964 3.30640
# Velocity P-wave (km/s) = 5.99987 6.66359 6.34042
#
# Compressibility (1/GPa) = 0.02129505
#
# Stress axis : x y z
#
# Youngs Moduli (GPa) = 82.33611 56.30157 88.98941
#
# Poissons Ratio (x) = 0.12136 0.26748
# Poissons Ratio (y) = 0.17747 0.42388
# Poissons Ratio (z) = 0.24749 0.26818
#
# Static dielectric constant tensor:
#      x y z
#    x 3.512580 0.000000 0.030430 
#    y 0.000000 3.323420 0.000000 
#    z 0.030430 0.000000 3.788730 
# 
# 
# High freq. dielectric constant tensor:
#      x y z
#    x 1.740010 0.000000 0.004580 
#    y 0.000000 1.718250 0.000000 
#    z 0.004580 0.000000 1.751830 
# 
# From -- ./inp_files/296444.got.cif
#   From: 2010.06.25/outbox.cif.g09.slc.cpg/sg12_149_cif.got.tgz:296444.got - 2010.06.28 00:19:55.
