data_PCOD8089621
_publ_section_title
;
Structure prediction by ZEFSAII (Michael W. Deem and Ramdas Pophale) SiO2 
 PCOD8089621
Probable space group: C 2/M
;
_chemical_formula_sum "Si O2"
_cell_formula_units_Z 56
_cell_length_a 19.302268
_cell_length_b 8.675063
_cell_length_c 32.429357
_cell_angle_alpha 90.000000
_cell_angle_beta 147.994230
_cell_angle_gamma 90.000000
_cell_volume 2878.054464
_symmetry_space_group_name_H-M "C 2/M"
_symmetry_group_IT_number 12
_symmetry_cell_setting 'monoclinic'
loop_
_space_group_symop_operation_xyz
x,y,z
-x,y,-z
-x,-y,-z
x,-y,z
1/2+x,1/2+y,z
1/2-x,1/2+y,-z
1/2-x,1/2-y,-z
1/2+x,1/2-y,z
loop_
_atom_site_type_symbol
_atom_site_label
_atom_site_fract_x
_atom_site_fract_y
_atom_site_fract_z
Si Si1 0.393071 0.182810 0.064156
Si Si2 0.643058 0.816829 0.239594
Si Si3 0.646541 0.678329 0.717162
Si Si4 0.610009 0.325474 0.021555
Si Si5 0.612179 0.179204 0.315223
Si Si6 0.839345 0.822889 0.183781
Si Si7 0.856084 0.817921 0.583798
O O1 0.498633 0.237683 0.151770
O O2 0.383988 0.000000 0.057171
O O3 0.250000 0.250000 0.000000
O O4 0.447074 0.250824 0.048583
O O5 0.757972 0.744157 0.268728
O O6 0.670502 0.764865 0.300553
O O7 0.645971 0.000000 0.237267
O O8 0.632995 0.500000 0.699479
O O9 0.710883 0.702404 0.794710
O O10 0.499155 0.748342 0.642932
O O11 0.659074 0.500000 0.038367
O O12 0.728749 0.219011 0.095688
O O13 0.500000 0.322979 0.000000
O O14 0.458452 0.209196 0.235600
O O15 0.677928 0.270357 0.386317
O O16 0.639415 0.000000 0.335947
O O17 0.883988 0.000000 0.200184
O O18 0.750000 0.750000 0.500000
O O19 0.853736 0.000000 0.580024
#
# Coordination Sequence:
#
# PCOD8089621 Si02
#       7
#     8   8   8   8   8   8   8
#     4  11  22  36  55  78 108 146 187 232 282 336
#     4   9  18  33  53  77 104 136 177 222 265 315
#     4   8  16  32  54  79 103 132 176 222 262 310
#     4  11  23  36  50  73 106 142 185 238 289 332
#     4  10  19  33  56  82 108 137 169 212 266 321
#     4  10  19  33  54  76 101 138 184 229 271 324
#     4  10  20  36  59  84 110 139 173 214 258 314
#
# _framework density 19.457588999999999
#
# number of rings (size 3 to 8) (size 9 to 14) (size 15 to 20)
#    0.000    2.143    0.000    4.714    0.000    3.429 
#    0.000    2.857    0.000   17.143    0.000    0.000 
#    0.000    0.000    0.000    0.000    0.000    0.000 
#
# Total GULP energy -347106.270827 kJ/mol
# GULP energy per Si atom -12396.652530 kJ/mol
# Density = 1.941330 g / cm^3
# Si number density = 19.457589 Si / 1000 Ang^3
#
#
#
# Elastic Constant Matrix: (Units=GPa)
#
#
# Indices 1 2 3 4 5 6 
#
# 1 119.4432 30.1795 42.8485 -0.0001 -16.8121 0.0002
# 2 30.1795 58.9742 26.5011 -0.0001 -6.6373 0.0004
# 3 42.8485 26.5011 115.9640 -0.0001 -18.3132 0.0001
# 4 -0.0001 -0.0001 -0.0001 28.2803 0.0000 -3.7985
# 5 -16.8121 -6.6373 -18.3132 0.0000 26.9210 -0.0001
# 6 0.0002 0.0004 0.0001 -3.7985 -0.0001 24.9209
#
#
#
# Elastic Compliance Matrix: (Units=1/GPa)
#
#
# Indices 1 2 3 4 5 6 
#
# 1 0.010835 -0.003983 -0.002442 0.000000 0.004123 0.000000
# 2 -0.003983 0.020451 -0.003135 0.000000 0.000422 0.000000
# 3 -0.002442 -0.003135 0.011068 0.000000 0.005231 0.000000
# 4 0.000000 0.000000 0.000000 0.036099 0.000000 0.005502
# 5 0.004123 0.000422 0.005231 0.000000 0.043383 0.000000
# 6 0.000000 0.000000 0.000000 0.005502 0.000000 0.040966
#
#
# Mechanical properties :
#
#
# Convention : Reuss Voigt Hill
#
# Bulk Modulus (GPa) = 43.04153 54.82663 48.93408
# Shear Modulus (GPa) = 26.36177 29.01461 27.68819
#
# Velocity S-wave (km/s) = 3.68480 3.86576 3.77636
# Velocity P-wave (km/s) = 6.34605 6.94004 6.64968
#
# Compressibility (1/GPa) = 0.02323337
#
# Stress axis : x y z
#
# Youngs Moduli (GPa) = 92.29314 48.89656 90.34778
#
# Poissons Ratio (x) = 0.19477 0.22064
# Poissons Ratio (y) = 0.36763 0.28327
# Poissons Ratio (z) = 0.22539 0.15330
#
# Static dielectric constant tensor:
#      x y z
#    x 4.175780 0.000000 -0.125510 
#    y 0.000000 3.415950 0.000000 
#    z -0.125510 0.000000 3.772480 
# 
# 
# High freq. dielectric constant tensor:
#      x y z
#    x 1.764410 0.000000 -0.013200 
#    y 0.000000 1.739480 0.000000 
#    z -0.013200 0.000000 1.747150 
# 
# From -- ./inp_files/377742.got.cif
#   From: 2010.06.25/outbox.cif.g09.slc.cpg/sg12_189_cif.got.tgz:377742.got - 2010.06.28 00:19:55.
