data_PCOD8089674
_publ_section_title
;
Structure prediction by ZEFSAII (Michael W. Deem and Ramdas Pophale) SiO2 
 PCOD8089674
Probable space group: C 2/M
;
_chemical_formula_sum "Si O2"
_cell_formula_units_Z 56
_cell_length_a 14.545445
_cell_length_b 9.201403
_cell_length_c 25.502487
_cell_angle_alpha 90.000000
_cell_angle_beta 121.977531
_cell_angle_gamma 90.000000
_cell_volume 2895.279261
_symmetry_space_group_name_H-M "C 2/M"
_symmetry_group_IT_number 12
_symmetry_cell_setting 'monoclinic'
loop_
_space_group_symop_operation_xyz
x,y,z
-x,y,-z
-x,-y,-z
x,-y,z
1/2+x,1/2+y,z
1/2-x,1/2+y,-z
1/2-x,1/2-y,-z
1/2+x,1/2-y,z
loop_
_atom_site_type_symbol
_atom_site_label
_atom_site_fract_x
_atom_site_fract_y
_atom_site_fract_z
Si Si1 0.015941 0.328759 0.269186
Si Si2 0.723584 0.661647 0.068964
Si Si3 0.304988 0.330317 0.193124
Si Si4 0.098256 0.170771 0.493065
Si Si5 0.912577 0.338474 0.043487
Si Si6 0.840941 0.668601 0.589782
Si Si7 0.418225 0.831076 0.824223
O O1 0.991420 0.500000 0.260313
O O2 0.109118 0.291495 0.338958
O O3 0.053635 0.266443 0.224151
O O4 0.907772 0.242718 0.252192
O O5 0.694283 0.500000 0.080806
O O6 0.780904 0.754687 0.130937
O O7 0.806016 0.649030 0.046270
O O8 0.613723 0.741230 0.015746
O O9 0.325132 0.500000 0.189072
O O10 0.207404 0.302861 0.203764
O O11 0.092999 0.245006 0.434636
O O12 0.213913 0.211226 0.554166
O O13 0.000000 0.228848 0.500000
O O14 0.085403 0.000000 0.480455
O O15 0.946097 0.500000 0.034186
O O16 0.009186 0.263231 0.106766
O O17 0.854476 0.500000 0.580369
O O18 0.448402 0.000000 0.832473
#
# Coordination Sequence:
#
# PCOD8089674 Si02
#       7
#     8   8   8   8   8   8   8
#     4  10  20  39  58  75 108 148 183 216 264 322
#     4  10  19  33  54  77 104 137 173 220 278 329
#     4  11  22  35  55  81 105 136 183 229 270 317
#     4   9  18  34  57  86 116 145 180 221 259 304
#     4   9  17  33  55  75  98 135 179 218 268 329
#     4   9  19  34  56  83 111 147 181 217 265 314
#     4   9  19  36  56  76 102 141 180 219 268 328
#
# _framework density 19.341830000000002
#
# number of rings (size 3 to 8) (size 9 to 14) (size 15 to 20)
#    0.000    2.429    1.429    0.857    0.000    3.143 
#    0.000    8.571    0.000    0.000    0.000    0.000 
#    0.000    0.000    0.000    0.000    0.000    0.000 
#
# Total GULP energy -347178.527432 kJ/mol
# GULP energy per Si atom -12399.233123 kJ/mol
# Density = 1.929781 g / cm^3
# Si number density = 19.341830 Si / 1000 Ang^3
#
#
#
# Elastic Constant Matrix: (Units=GPa)
#
#
# Indices 1 2 3 4 5 6 
#
# 1 87.3628 32.6849 41.9630 0.0000 9.0876 0.0000
# 2 32.6849 72.0444 44.4162 0.0000 6.8721 0.0000
# 3 41.9630 44.4162 122.1271 0.0000 13.7762 0.0000
# 4 0.0000 0.0000 0.0000 29.6437 0.0000 2.6431
# 5 9.0876 6.8721 13.7762 0.0000 21.3199 0.0000
# 6 0.0000 0.0000 0.0000 2.6431 0.0000 22.3569
#
#
#
# Elastic Compliance Matrix: (Units=1/GPa)
#
#
# Indices 1 2 3 4 5 6 
#
# 1 0.014972 -0.004572 -0.003158 0.000000 -0.002867 0.000000
# 2 -0.004572 0.019344 -0.005372 0.000000 -0.000815 0.000000
# 3 -0.003158 -0.005372 0.011735 0.000000 -0.004505 0.000000
# 4 0.000000 0.000000 0.000000 0.034093 0.000000 -0.004031
# 5 -0.002867 -0.000815 -0.004505 0.000000 0.051301 0.000000
# 6 0.000000 0.000000 0.000000 -0.004031 0.000000 0.045205
#
#
# Mechanical properties :
#
#
# Convention : Reuss Voigt Hill
#
# Bulk Modulus (GPa) = 50.38597 57.74029 54.06313
# Shear Modulus (GPa) = 23.86947 25.49546 24.68247
#
# Velocity S-wave (km/s) = 3.51677 3.63457 3.57616
# Velocity P-wave (km/s) = 6.52664 6.89426 6.71297
#
# Compressibility (1/GPa) = 0.01984679
#
# Stress axis : x y z
#
# Youngs Moduli (GPa) = 66.78998 51.69435 85.21172
#
# Poissons Ratio (x) = 0.23635 0.26912
# Poissons Ratio (y) = 0.30536 0.45780
# Poissons Ratio (z) = 0.21094 0.27773
#
# Static dielectric constant tensor:
#      x y z
#    x 3.501300 0.000000 0.100970 
#    y 0.000000 3.545230 0.000000 
#    z 0.100970 0.000000 3.567050 
# 
# 
# High freq. dielectric constant tensor:
#      x y z
#    x 1.750630 0.000000 0.007370 
#    y 0.000000 1.735820 0.000000 
#    z 0.007370 0.000000 1.751540 
# 
# From -- ./inp_files/359646.got.cif
#   From: 2010.06.25/outbox.cif.g09.slc.cpg/sg12_180_cif.got.tgz:359646.got - 2010.06.28 00:19:55.
