data_PCOD8089785
_publ_section_title
;
Structure prediction by ZEFSAII (Michael W. Deem and Ramdas Pophale) SiO2 
 PCOD8089785
Probable space group: C 2/M
;
_chemical_formula_sum "Si O2"
_cell_formula_units_Z 64
_cell_length_a 15.771713
_cell_length_b 14.176455
_cell_length_c 27.602214
_cell_angle_alpha 90.000000
_cell_angle_beta 33.474394
_cell_angle_gamma 90.000000
_cell_volume 3403.976431
_symmetry_space_group_name_H-M "C 2/M"
_symmetry_group_IT_number 12
_symmetry_cell_setting 'monoclinic'
loop_
_space_group_symop_operation_xyz
x,y,z
-x,y,-z
-x,-y,-z
x,-y,z
1/2+x,1/2+y,z
1/2-x,1/2+y,-z
1/2-x,1/2-y,-z
1/2+x,1/2-y,z
loop_
_atom_site_type_symbol
_atom_site_label
_atom_site_fract_x
_atom_site_fract_y
_atom_site_fract_z
Si Si1 0.667949 0.391805 0.098665
Si Si2 0.953965 0.391653 0.905507
Si Si3 0.060217 0.240045 0.417790
Si Si4 0.541891 0.893719 0.600577
Si Si5 0.521809 0.255377 0.294924
Si Si6 0.278485 0.893431 0.151961
Si Si7 0.892165 0.107273 0.425864
Si Si8 0.575544 0.242426 0.765835
O O1 0.621531 0.500000 0.114588
O O2 0.767357 0.375714 0.099982
O O3 0.506011 0.337188 0.175534
O O4 0.779780 0.358620 0.001395
O O5 0.952327 0.500000 0.891054
O O6 0.051377 0.376953 0.908423
O O7 0.025407 0.340254 0.825404
O O8 0.242600 0.251765 0.325338
O O9 0.000000 0.218642 0.500000
O O10 0.985679 0.338891 0.436544
O O11 0.007294 0.151861 0.410344
O O12 0.453801 0.838969 0.685337
O O13 0.721233 0.893641 0.528692
O O14 0.478003 0.000000 0.626569
O O15 0.674205 0.317375 0.228907
O O16 0.389528 0.325154 0.379428
O O17 0.488316 0.221217 0.257036
O O18 0.222564 0.000000 0.190626
O O19 0.943961 0.000000 0.388868
#
# Coordination Sequence:
#
# PCOD8089785 Si02
#       8
#     8   8   8   8   8   8   8   8
#     4   9  19  35  54  77 107 141 174 213 263 317
#     4  10  19  33  54  80 108 136 173 221 267 310
#     4  11  22  37  55  80 111 139 172 216 263 312
#     4  10  21  36  53  71  97 139 183 218 254 303
#     4  10  19  34  51  72 104 138 173 214 258 308
#     4   9  17  31  54  80 102 131 172 215 262 312
#     4  10  20  36  57  76  98 133 176 220 265 310
#     4  11  22  33  52  79 109 141 173 214 264 316
#
# _framework density 18.801542000000001
#
# number of rings (size 3 to 8) (size 9 to 14) (size 15 to 20)
#    0.000    2.000    0.000    5.625    0.000    5.000 
#    0.000    0.000    0.000    0.000    0.000    0.000 
#    0.000   20.000    0.000    0.000    0.000    0.000 
#
# Total GULP energy -396640.400593 kJ/mol
# GULP energy per Si atom -12395.012519 kJ/mol
# Density = 1.875875 g / cm^3
# Si number density = 18.801542 Si / 1000 Ang^3
#
#
#
# Elastic Constant Matrix: (Units=GPa)
#
#
# Indices 1 2 3 4 5 6 
#
# 1 64.8619 24.9501 37.3154 0.0002 4.4312 -0.0001
# 2 24.9501 101.4721 42.7939 0.0002 8.2015 0.0000
# 3 37.3154 42.7939 123.7359 -0.0006 -2.1238 0.0002
# 4 0.0002 0.0002 -0.0006 29.5293 0.0001 -0.9028
# 5 4.4312 8.2015 -2.1238 0.0001 24.1213 0.0000
# 6 -0.0001 0.0000 0.0002 -0.9028 0.0000 23.0630
#
#
#
# Elastic Compliance Matrix: (Units=1/GPa)
#
#
# Indices 1 2 3 4 5 6 
#
# 1 0.019493 -0.002377 -0.005112 0.000000 -0.003223 0.000000
# 2 -0.002377 0.012286 -0.003602 0.000000 -0.004058 0.000000
# 3 -0.005112 -0.003602 0.010923 0.000000 0.003126 0.000000
# 4 0.000000 0.000000 0.000000 0.033905 0.000000 0.001327
# 5 -0.003223 -0.004058 0.003126 0.000000 0.043704 0.000000
# 6 0.000000 0.000000 0.000000 0.001327 0.000000 0.043412
#
#
# Mechanical properties :
#
#
# Convention : Reuss Voigt Hill
#
# Bulk Modulus (GPa) = 48.73140 55.57652 52.15396
# Shear Modulus (GPa) = 25.94113 27.67675 26.80894
#
# Velocity S-wave (km/s) = 3.71851 3.84089 3.78019
# Velocity P-wave (km/s) = 6.66419 7.02094 6.84489
#
# Compressibility (1/GPa) = 0.02052065
#
# Stress axis : x y z
#
# Youngs Moduli (GPa) = 51.30150 81.39061 91.55168
#
# Poissons Ratio (x) = 0.19343 0.46800
# Poissons Ratio (y) = 0.12192 0.32979
# Poissons Ratio (z) = 0.26225 0.29319
#
# Static dielectric constant tensor:
#      x y z
#    x 3.323920 0.000000 0.024700 
#    y 0.000000 3.503620 0.000000 
#    z 0.024700 0.000000 3.612430 
# 
# 
# High freq. dielectric constant tensor:
#      x y z
#    x 1.715490 0.000000 0.003220 
#    y 0.000000 1.728350 0.000000 
#    z 0.003220 0.000000 1.737980 
# 
# From -- ./inp_files/379348.got.cif
#   From: 2010.06.25/outbox.cif.g09.slc.cpg/sg12_190_cif.got.tgz:379348.got - 2010.06.28 00:19:55.
