data_PCOD8089684
_publ_section_title
;
Structure prediction by ZEFSAII (Michael W. Deem and Ramdas Pophale) SiO2 
 PCOD8089684
Probable space group: C 2/M
;
_chemical_formula_sum "Si O2"
_cell_formula_units_Z 56
_cell_length_a 28.196324
_cell_length_b 8.654397
_cell_length_c 18.672259
_cell_angle_alpha 90.000000
_cell_angle_beta 42.417844
_cell_angle_gamma 90.000000
_cell_volume 3073.469751
_symmetry_space_group_name_H-M "C 2/M"
_symmetry_group_IT_number 12
_symmetry_cell_setting 'monoclinic'
loop_
_space_group_symop_operation_xyz
x,y,z
-x,y,-z
-x,-y,-z
x,-y,z
1/2+x,1/2+y,z
1/2-x,1/2+y,-z
1/2-x,1/2-y,-z
1/2+x,1/2-y,z
loop_
_atom_site_type_symbol
_atom_site_label
_atom_site_fract_x
_atom_site_fract_y
_atom_site_fract_z
Si Si1 0.451677 0.679801 0.487021
Si Si2 0.745209 0.177416 0.620374
Si Si3 0.737233 0.679789 0.120940
Si Si4 0.648292 0.822747 0.603195
Si Si5 0.194391 0.678745 0.315760
Si Si6 0.000101 0.678117 0.290126
Si Si7 0.858654 0.179759 0.904616
O O1 0.500000 0.724749 0.500000
O O2 0.431347 0.500000 0.511208
O O3 0.381456 0.781539 0.566869
O O4 0.494339 0.718700 0.367717
O O5 0.673939 0.214196 0.655543
O O6 0.812553 0.211628 0.495801
O O7 0.746909 0.281174 0.689963
O O8 0.748829 0.000000 0.640260
O O9 0.754871 0.500000 0.096278
O O10 0.706955 0.720033 0.231786
O O11 0.678603 0.726461 0.128233
O O12 0.808841 0.773339 0.026334
O O13 0.565316 0.792417 0.690247
O O14 0.667555 0.000000 0.562163
O O15 0.198810 0.500000 0.290534
O O16 0.004527 0.500000 0.308348
O O17 0.069068 0.726640 0.169664
O O18 0.875694 0.000000 0.889889
#
# Coordination Sequence:
#
# PCOD8089684 Si02
#       7
#     8   8   8   8   8   8   8
#     4  11  23  36  50  74 108 144 180 218 265 320
#     4  10  19  33  54  77 106 142 180 221 268 318
#     4  10  21  38  58  79 105 141 184 225 266 314
#     4   9  19  34  52  78 108 140 179 222 266 320
#     4  12  23  35  53  79 110 142 179 221 270 323
#     4  11  21  34  54  80 110 142 177 218 267 321
#     4  10  21  37  57  81 108 140 181 224 265 316
#
# _framework density 18.22045
#
# number of rings (size 3 to 8) (size 9 to 14) (size 15 to 20)
#    0.000    1.571    1.429    4.286    0.000    7.429 
#    0.000    0.000    0.000    0.857    0.000    6.000 
#    0.000    0.000    0.000    0.000    0.000    0.000 
#
# Total GULP energy -347346.387857 kJ/mol
# GULP energy per Si atom -12405.228138 kJ/mol
# Density = 1.817898 g / cm^3
# Si number density = 18.220450 Si / 1000 Ang^3
#
#
#
# Elastic Constant Matrix: (Units=GPa)
#
#
# Indices 1 2 3 4 5 6 
#
# 1 83.8499 38.7315 20.6578 0.0136 -15.7016 -0.0045
# 2 38.7315 58.7542 14.6174 0.0042 -6.5908 -0.0009
# 3 20.6578 14.6174 62.9347 0.0218 -15.3561 -0.0033
# 4 0.0136 0.0042 0.0218 32.9693 -0.0009 0.9850
# 5 -15.7016 -6.5908 -15.3561 -0.0009 25.3793 -0.0006
# 6 -0.0045 -0.0009 -0.0033 0.9850 -0.0006 25.4867
#
#
#
# Elastic Compliance Matrix: (Units=1/GPa)
#
#
# Indices 1 2 3 4 5 6 
#
# 1 0.018991 -0.011215 -0.001728 -0.000005 0.007792 0.000003
# 2 -0.011215 0.024826 -0.002587 0.000003 -0.002057 -0.000002
# 3 -0.001728 -0.002587 0.019514 -0.000012 0.010066 0.000003
# 4 -0.000005 0.000003 -0.000012 0.030366 -0.000008 -0.001174
# 5 0.007792 -0.002057 0.010066 -0.000008 0.049779 0.000004
# 6 0.000003 -0.000002 0.000003 -0.001174 0.000004 0.039282
#
#
# Mechanical properties :
#
#
# Convention : Reuss Voigt Hill
#
# Bulk Modulus (GPa) = 30.98704 39.28358 35.13531
# Shear Modulus (GPa) = 22.26425 25.53586 23.90006
#
# Velocity S-wave (km/s) = 3.49941 3.74772 3.62569
# Velocity P-wave (km/s) = 5.77681 6.35092 6.07065
#
# Compressibility (1/GPa) = 0.03227156
#
# Stress axis : x y z
#
# Youngs Moduli (GPa) = 52.65552 40.27995 51.24645
#
# Poissons Ratio (x) = 0.45176 0.08854
# Poissons Ratio (y) = 0.59056 0.13256
# Poissons Ratio (z) = 0.09097 0.10419
#
# Static dielectric constant tensor:
#      x y z
#    x 3.521210 -0.000030 -0.050400 
#    y -0.000030 3.395420 0.000030 
#    z -0.050400 0.000030 3.095710 
# 
# 
# High freq. dielectric constant tensor:
#      x y z
#    x 1.706920 0.000000 -0.004010 
#    y 0.000000 1.718760 0.000000 
#    z -0.004010 0.000000 1.680870 
# 
# From -- ./inp_files/292368.got.cif
#   From: 2010.06.25/outbox.cif.g09.slc.cpg/sg12_147_cif.got.tgz:292368.got - 2010.06.28 00:19:55.
