data_PCOD8089034
_publ_section_title
;
Structure prediction by ZEFSAII (Michael W. Deem and Ramdas Pophale) SiO2 
 PCOD8089034
Probable space group: C 2/M
;
_chemical_formula_sum "Si O2"
_cell_formula_units_Z 64
_cell_length_a 24.967605
_cell_length_b 8.992746
_cell_length_c 17.852456
_cell_angle_alpha 90.000000
_cell_angle_beta 102.415829
_cell_angle_gamma 90.000000
_cell_volume 3914.620330
_symmetry_space_group_name_H-M "C 2/M"
_symmetry_group_IT_number 12
_symmetry_cell_setting 'monoclinic'
loop_
_space_group_symop_operation_xyz
x,y,z
-x,y,-z
-x,-y,-z
x,-y,z
1/2+x,1/2+y,z
1/2-x,1/2+y,-z
1/2-x,1/2-y,-z
1/2+x,1/2-y,z
loop_
_atom_site_type_symbol
_atom_site_label
_atom_site_fract_x
_atom_site_fract_y
_atom_site_fract_z
Si Si1 0.039866 0.327922 0.682165
Si Si2 0.567745 0.676167 0.412449
Si Si3 0.614356 0.171487 0.567117
Si Si4 0.411758 0.324310 0.838154
Si Si5 0.344760 0.676259 0.681947
Si Si6 0.559506 0.323526 0.998104
Si Si7 0.535744 0.325191 0.831975
Si Si8 0.263374 0.175381 0.426018
O O1 0.023560 0.500000 0.682879
O O2 0.091616 0.303516 0.643452
O O3 0.058170 0.267041 0.768564
O O4 0.988719 0.237271 0.636089
O O5 0.563768 0.500000 0.413255
O O6 0.577712 0.734588 0.498937
O O7 0.617185 0.733171 0.374652
O O8 0.677343 0.226522 0.585743
O O9 0.610177 0.000000 0.541431
O O10 0.405857 0.500000 0.836098
O O11 0.366803 0.255238 0.767447
O O12 0.472380 0.282473 0.827431
O O13 0.401364 0.266626 0.921402
O O14 0.349179 0.500000 0.686813
O O15 0.282291 0.727527 0.648415
O O16 0.557220 0.500000 0.999746
O O17 0.572838 0.276732 0.916180
O O18 0.500000 0.259391 0.000000
O O19 0.541658 0.500000 0.817172
O O20 0.250000 0.250000 0.500000
O O21 0.260105 0.000000 0.437036
#
# Coordination Sequence:
#
# PCOD8089034 Si02
#       8
#     8   8   8   8   8   8   8   8
#     4  11  22  33  44  63  93 128 157 181 220 272
#     4  11  20  32  50  71  90 114 152 194 230 265
#     4  10  22  36  47  62  90 125 157 187 224 272
#     4   8  12  22  41  67  94 113 137 180 230 271
#     4   9  16  26  45  71  92 110 142 187 229 265
#     4   7  11  19  37  64  91 116 139 171 222 273
#     4   9  15  26  44  67  91 117 149 182 219 265
#     4  10  19  33  50  67  87 115 151 193 231 265
#
# _framework density 16.348967999999999
#
# number of rings (size 3 to 8) (size 9 to 14) (size 15 to 20)
#    0.000    2.625    2.500    2.625    0.000    2.500 
#    0.000    0.000    0.000    3.375    0.000    0.875 
#    0.000    0.000    0.000    0.000    0.000    0.000 
#
# Total GULP energy -396474.412863 kJ/mol
# GULP energy per Si atom -12389.825402 kJ/mol
# Density = 1.631176 g / cm^3
# Si number density = 16.348968 Si / 1000 Ang^3
#
#
#
# Elastic Constant Matrix: (Units=GPa)
#
#
# Indices 1 2 3 4 5 6 
#
# 1 60.5350 19.4851 48.1949 0.0000 -2.2715 0.0000
# 2 19.4851 35.3604 34.4260 0.0000 -3.3755 0.0000
# 3 48.1949 34.4260 157.4172 0.0000 14.0859 0.0000
# 4 0.0000 0.0000 0.0000 15.8115 0.0000 -1.9299
# 5 -2.2715 -3.3755 14.0859 0.0000 22.0465 0.0000
# 6 0.0000 0.0000 0.0000 -1.9299 0.0000 13.2384
#
#
#
# Elastic Compliance Matrix: (Units=1/GPa)
#
#
# Indices 1 2 3 4 5 6 
#
# 1 0.023895 -0.006384 -0.006419 0.000000 0.005586 0.000000
# 2 -0.006384 0.040426 -0.007829 0.000000 0.010534 0.000000
# 3 -0.006419 -0.007829 0.010815 0.000000 -0.008770 0.000000
# 4 0.000000 0.000000 0.000000 0.064391 0.000000 0.009387
# 5 0.005586 0.010534 -0.008770 0.000000 0.053150 0.000000
# 6 0.000000 0.000000 0.000000 0.009387 0.000000 0.076906
#
#
# Mechanical properties :
#
#
# Convention : Reuss Voigt Hill
#
# Bulk Modulus (GPa) = 29.52413 50.83606 40.18010
# Shear Modulus (GPa) = 15.52136 20.29972 17.91054
#
# Velocity S-wave (km/s) = 3.08454 3.52753 3.31345
# Velocity P-wave (km/s) = 5.54831 6.91037 6.26646
#
# Compressibility (1/GPa) = 0.03387060
#
# Stress axis : x y z
#
# Youngs Moduli (GPa) = 41.85050 24.73682 92.46679
#
# Poissons Ratio (x) = 0.15792 0.59357
# Poissons Ratio (y) = 0.26718 0.72390
# Poissons Ratio (z) = 0.26865 0.19366
#
# Static dielectric constant tensor:
#      x y z
#    x 3.068460 0.000000 0.292640 
#    y 0.000000 2.791860 0.000000 
#    z 0.292640 0.000000 3.748370 
# 
# 
# High freq. dielectric constant tensor:
#      x y z
#    x 1.594110 0.000000 0.014930 
#    y 0.000000 1.597430 0.000000 
#    z 0.014930 0.000000 1.642570 
# 
# From -- ./inp_files/287500.got.cif
#   From: 2010.06.25/outbox.cif.g09.slc.cpg/sg12_144_cif.got.tgz:287500.got - 2010.06.28 00:19:55.
