data_PCOD8089644
_publ_section_title
;
Structure prediction by ZEFSAII (Michael W. Deem and Ramdas Pophale) SiO2 
 PCOD8089644
Probable space group: C 2/M
;
_chemical_formula_sum "Si O2"
_cell_formula_units_Z 64
_cell_length_a 14.987204
_cell_length_b 9.521100
_cell_length_c 32.433010
_cell_angle_alpha 90.000000
_cell_angle_beta 47.242119
_cell_angle_gamma 90.000000
_cell_volume 3398.025350
_symmetry_space_group_name_H-M "C 2/M"
_symmetry_group_IT_number 12
_symmetry_cell_setting 'monoclinic'
loop_
_space_group_symop_operation_xyz
x,y,z
-x,y,-z
-x,-y,-z
x,-y,z
1/2+x,1/2+y,z
1/2-x,1/2+y,-z
1/2-x,1/2-y,-z
1/2+x,1/2-y,z
loop_
_atom_site_type_symbol
_atom_site_label
_atom_site_fract_x
_atom_site_fract_y
_atom_site_fract_z
Si Si1 0.536760 0.839076 0.215709
Si Si2 0.846486 0.333927 0.994880
Si Si3 0.419413 0.163587 0.705650
Si Si4 0.691163 0.837301 0.761327
Si Si5 0.625930 0.838442 0.577275
Si Si6 0.916994 0.342273 0.122331
Si Si7 0.276253 0.656809 0.884058
Si Si8 0.905278 0.164634 0.493374
O O1 0.563685 0.781122 0.252929
O O2 0.392530 0.822348 0.252911
O O3 0.608797 0.758441 0.156795
O O4 0.577070 0.000000 0.199437
O O5 0.835745 0.500000 0.991199
O O6 0.975880 0.272277 0.938517
O O7 0.750000 0.250000 0.000000
O O8 0.820871 0.296954 0.050641
O O9 0.312957 0.249058 0.716487
O O10 0.544193 0.192566 0.642658
O O11 0.385222 0.000000 0.715640
O O12 0.612509 0.772699 0.824268
O O13 0.725738 0.000000 0.758910
O O14 0.763859 0.802390 0.548568
O O15 0.572025 0.746887 0.556464
O O16 0.617942 0.000000 0.565590
O O17 0.960623 0.500000 0.117118
O O18 0.791429 0.336396 0.137810
O O19 0.324541 0.500000 0.878354
O O20 0.000000 0.213776 0.500000
O O21 0.926197 0.000000 0.478583
#
# Coordination Sequence:
#
# PCOD8089644 Si02
#       8
#     8   8   8   8   8   8   8   8
#     4  10  21  36  55  79 107 140 177 224 276 317
#     4  10  20  33  50  73 100 130 168 216 269 327
#     4  10  21  37  54  77 112 147 179 221 270 312
#     4  10  20  35  56  78 102 139 184 224 266 322
#     4   9  19  35  54  79 114 150 181 218 265 313
#     4   9  17  32  52  73  98 130 171 217 265 320
#     4  10  19  33  54  76  99 133 176 218 266 328
#     4   9  18  34  58  86 113 144 182 222 262 308
#
# _framework density 18.834467
#
# number of rings (size 3 to 8) (size 9 to 14) (size 15 to 20)
#    0.000    2.375    1.250    1.125    0.000    5.250 
#    0.000    3.750    0.000    1.500    0.000    0.000 
#    0.000    0.000    0.000    0.000    0.000    0.000 
#
# Total GULP energy -396579.688355 kJ/mol
# GULP energy per Si atom -12393.115261 kJ/mol
# Density = 1.879160 g / cm^3
# Si number density = 18.834467 Si / 1000 Ang^3
#
#
#
# Elastic Constant Matrix: (Units=GPa)
#
#
# Indices 1 2 3 4 5 6 
#
# 1 94.9108 31.7213 29.6190 0.0000 -6.8183 0.0001
# 2 31.7213 44.5326 37.1216 0.0001 -4.7121 0.0002
# 3 29.6190 37.1216 95.8259 0.0000 -13.0197 0.0000
# 4 0.0000 0.0001 0.0000 28.2021 0.0000 -1.5615
# 5 -6.8183 -4.7121 -13.0197 0.0000 23.9849 0.0000
# 6 0.0001 0.0002 0.0000 -1.5615 0.0000 30.0376
#
#
#
# Elastic Compliance Matrix: (Units=1/GPa)
#
#
# Indices 1 2 3 4 5 6 
#
# 1 0.013937 -0.009380 -0.000417 0.000000 0.001893 0.000000
# 2 -0.009380 0.039483 -0.012636 0.000000 -0.001769 0.000000
# 3 -0.000417 -0.012636 0.016309 0.000000 0.006252 0.000000
# 4 0.000000 0.000000 0.000000 0.035561 0.000000 0.001849
# 5 0.001893 -0.001769 0.006252 0.000000 0.045277 0.000000
# 6 0.000000 0.000000 0.000000 0.001849 0.000000 0.033388
#
#
# Mechanical properties :
#
#
# Convention : Reuss Voigt Hill
#
# Bulk Modulus (GPa) = 40.22039 48.02147 44.12093
# Shear Modulus (GPa) = 21.08733 25.56540 23.32637
#
# Velocity S-wave (km/s) = 3.34969 3.68825 3.52304
# Velocity P-wave (km/s) = 6.03006 6.60981 6.32658
#
# Compressibility (1/GPa) = 0.02486301
#
# Stress axis : x y z
#
# Youngs Moduli (GPa) = 71.75000 25.32734 61.31544
#
# Poissons Ratio (x) = 0.23756 0.02558
# Poissons Ratio (y) = 0.67300 0.77480
# Poissons Ratio (z) = 0.02993 0.32004
#
# Static dielectric constant tensor:
#      x y z
#    x 3.396660 0.000000 -0.116190 
#    y 0.000000 3.290690 0.000000 
#    z -0.116190 0.000000 3.463390 
# 
# 
# High freq. dielectric constant tensor:
#      x y z
#    x 1.733130 0.000000 -0.001090 
#    y 0.000000 1.707910 0.000000 
#    z -0.001090 0.000000 1.732600 
# 
# From -- ./inp_files/375371.got.cif
#   From: 2010.06.25/outbox.cif.g09.slc.cpg/sg12_188_cif.got.tgz:375371.got - 2010.06.28 00:19:55.
