data_PCOD8089172
_publ_section_title
;
Structure prediction by ZEFSAII (Michael W. Deem and Ramdas Pophale) SiO2 
 PCOD8089172
Probable space group: C 2/M
;
_chemical_formula_sum "Si O2"
_cell_formula_units_Z 64
_cell_length_a 17.010492
_cell_length_b 14.599795
_cell_length_c 19.390274
_cell_angle_alpha 90.000000
_cell_angle_beta 48.237688
_cell_angle_gamma 90.000000
_cell_volume 3592.001377
_symmetry_space_group_name_H-M "C 2/M"
_symmetry_group_IT_number 12
_symmetry_cell_setting 'monoclinic'
loop_
_space_group_symop_operation_xyz
x,y,z
-x,y,-z
-x,-y,-z
x,-y,z
1/2+x,1/2+y,z
1/2-x,1/2+y,-z
1/2-x,1/2-y,-z
1/2+x,1/2-y,z
loop_
_atom_site_type_symbol
_atom_site_label
_atom_site_fract_x
_atom_site_fract_y
_atom_site_fract_z
Si Si1 0.526173 0.102103 0.632260
Si Si2 0.534824 0.106095 0.786827
Si Si3 0.266968 0.176664 0.547615
Si Si4 0.136796 0.753219 0.099530
Si Si5 0.699017 0.747524 0.733050
Si Si6 0.525505 0.395327 0.832552
Si Si7 0.118074 0.238931 0.270383
Si Si8 0.450947 0.597941 0.341981
O O1 0.563102 0.112607 0.689605
O O2 0.619333 0.129946 0.525821
O O3 0.420564 0.160689 0.684741
O O4 0.491477 0.000000 0.634395
O O5 0.424191 0.155647 0.870021
O O6 0.626827 0.162686 0.769482
O O7 0.530600 0.000000 0.814124
O O8 0.250000 0.250000 0.500000
O O9 0.258140 0.222500 0.627809
O O10 0.175052 0.105067 0.583884
O O11 0.151273 0.774510 0.171936
O O12 0.076190 0.832531 0.090691
O O13 0.250000 0.750000 0.000000
O O14 0.630757 0.658142 0.796624
O O15 0.781139 0.780700 0.742195
O O16 0.521536 0.500000 0.865203
O O17 0.518114 0.396552 0.755260
O O18 0.017103 0.173436 0.345603
O O19 0.481866 0.500000 0.356044
#
# Coordination Sequence:
#
# PCOD8089172 Si02
#       8
#     8   8   8   8   8   8   8   8
#     4  10  19  33  52  72  98 135 174 209 244 291
#     4   9  18  34  53  74 101 135 168 199 245 302
#     4  11  17  32  51  71  95 130 175 203 231 282
#     4   9  18  34  56  77  96 126 166 204 244 297
#     4  10  20  32  51  73 103 135 160 204 251 289
#     4   8  16  32  52  72  95 129 167 196 237 293
#     4  10  20  34  49  74 104 128 159 206 259 296
#     4   9  17  31  51  70  94 129 168 205 238 284
#
# _framework density 17.817364000000001
#
# number of rings (size 3 to 8) (size 9 to 14) (size 15 to 20)
#    0.000    2.500    2.500    1.875    0.000    2.500 
#    0.000    3.125    0.000    2.250    0.000    0.000 
#    0.000    0.000    0.000    0.000    0.000    0.000 
#
# Total GULP energy -396485.564698 kJ/mol
# GULP energy per Si atom -12390.173897 kJ/mol
# Density = 1.777681 g / cm^3
# Si number density = 17.817364 Si / 1000 Ang^3
#
#
#
# Elastic Constant Matrix: (Units=GPa)
#
#
# Indices 1 2 3 4 5 6 
#
# 1 88.3910 26.8767 22.7563 0.0000 -7.6047 0.0000
# 2 26.8767 107.6030 22.4359 0.0000 -4.7530 0.0000
# 3 22.7563 22.4359 85.4743 0.0000 -21.0339 0.0000
# 4 0.0000 0.0000 0.0000 16.1238 0.0000 -2.4763
# 5 -7.6047 -4.7530 -21.0339 0.0000 17.2719 0.0000
# 6 0.0000 0.0000 0.0000 -2.4763 0.0000 13.7940
#
#
#
# Elastic Compliance Matrix: (Units=1/GPa)
#
#
# Indices 1 2 3 4 5 6 
#
# 1 0.012878 -0.002664 -0.002162 0.000000 0.002304 0.000000
# 2 -0.002664 0.010387 -0.002288 0.000000 -0.001101 0.000000
# 3 -0.002162 -0.002288 0.017830 0.000000 0.020132 0.000000
# 4 0.000000 0.000000 0.000000 0.063779 0.000000 0.011450
# 5 0.002304 -0.001101 0.020132 0.000000 0.083125 0.000000
# 6 0.000000 0.000000 0.000000 0.011450 0.000000 0.074551
#
#
# Mechanical properties :
#
#
# Convention : Reuss Voigt Hill
#
# Bulk Modulus (GPa) = 37.22192 47.28957 42.25575
# Shear Modulus (GPa) = 17.49872 23.39791 20.44832
#
# Velocity S-wave (km/s) = 3.13727 3.62775 3.39139
# Velocity P-wave (km/s) = 5.83605 6.64427 6.25323
#
# Compressibility (1/GPa) = 0.02686589
#
# Stress axis : x y z
#
# Youngs Moduli (GPa) = 77.64977 96.27130 56.08568
#
# Poissons Ratio (x) = 0.25647 0.12128
# Poissons Ratio (y) = 0.20686 0.12834
# Poissons Ratio (z) = 0.16792 0.22029
#
# Static dielectric constant tensor:
#      x y z
#    x 2.905150 0.000000 0.015470 
#    y 0.000000 3.555670 0.000000 
#    z 0.015470 0.000000 2.672950 
# 
# 
# High freq. dielectric constant tensor:
#      x y z
#    x 1.667210 0.000000 -0.021370 
#    y 0.000000 1.700070 0.000000 
#    z -0.021370 0.000000 1.668920 
# 
# From -- ./inp_files/270669.got.cif
#   From: 2010.06.25/outbox.cif.g09.slc.cpg/sg12_136_cif.got.tgz:270669.got - 2010.06.28 00:19:55.
