data_PCOD8089839
_publ_section_title
;
Structure prediction by ZEFSAII (Michael W. Deem and Ramdas Pophale) SiO2 
 PCOD8089839
Probable space group: C 2/M
;
_chemical_formula_sum "Si O2"
_cell_formula_units_Z 56
_cell_length_a 18.200857
_cell_length_b 14.210896
_cell_length_c 14.138793
_cell_angle_alpha 90.000000
_cell_angle_beta 58.300860
_cell_angle_gamma 90.000000
_cell_volume 3111.449903
_symmetry_space_group_name_H-M "C 2/M"
_symmetry_group_IT_number 12
_symmetry_cell_setting 'monoclinic'
loop_
_space_group_symop_operation_xyz
x,y,z
-x,y,-z
-x,-y,-z
x,-y,z
1/2+x,1/2+y,z
1/2-x,1/2+y,-z
1/2-x,1/2-y,-z
1/2+x,1/2-y,z
loop_
_atom_site_type_symbol
_atom_site_label
_atom_site_fract_x
_atom_site_fract_y
_atom_site_fract_z
Si Si1 0.607355 0.890889 0.666636
Si Si2 0.039779 0.761952 0.573814
Si Si3 0.539525 0.399124 0.871521
Si Si4 0.576729 0.607385 0.223868
Si Si5 0.301743 0.606193 0.573727
Si Si6 0.252930 0.105784 0.176801
Si Si7 0.415261 0.796879 0.122019
O O1 0.556287 0.832430 0.622224
O O2 0.709656 0.871914 0.587274
O O3 0.575536 0.864589 0.793950
O O4 0.585355 0.000000 0.665620
O O5 0.128337 0.820393 0.510618
O O6 0.000000 0.732484 0.500000
O O7 0.968663 0.825522 0.671212
O O8 0.584766 0.500000 0.813232
O O9 0.460663 0.376811 0.854775
O O10 0.603381 0.309669 0.826838
O O11 0.500000 0.411000 0.000000
O O12 0.564740 0.500000 0.267174
O O13 0.679279 0.631124 0.149835
O O14 0.331491 0.500000 0.527744
O O15 0.292892 0.617222 0.691425
O O16 0.334307 0.174852 0.111457
O O17 0.288182 0.000000 0.139623
O O18 0.500000 0.800986 0.000000
#
# Coordination Sequence:
#
# PCOD8089839 Si02
#       7
#     8   8   8   8   8   8   8
#     4  10  22  38  53  75 109 143 179 220 263 312
#     4  12  21  32  55  80 106 141 179 215 261 324
#     4   9  18  34  56  80 107 137 170 212 267 324
#     4  10  19  33  54  81 110 136 172 221 269 311
#     4   9  18  33  53  79 108 136 172 223 267 306
#     4   9  18  32  52  81 112 137 170 223 271 302
#     4  10  19  35  59  84 101 136 181 221 263 311
#
# _framework density 17.998041000000001
#
# number of rings (size 3 to 8) (size 9 to 14) (size 15 to 20)
#    0.000    2.143    2.857    2.143    0.000    2.000 
#    0.000    2.857    0.000    0.857    0.000    0.000 
#    0.000    0.000    0.000    0.000    0.000    0.000 
#
# Total GULP energy -347056.398284 kJ/mol
# GULP energy per Si atom -12394.871367 kJ/mol
# Density = 1.795708 g / cm^3
# Si number density = 17.998041 Si / 1000 Ang^3
#
#
#
# Elastic Constant Matrix: (Units=GPa)
#
#
# Indices 1 2 3 4 5 6 
#
# 1 109.7730 65.1192 36.3168 0.0000 -2.1425 0.0000
# 2 65.1192 127.2008 35.7660 0.0000 -17.0367 0.0000
# 3 36.3168 35.7660 56.2878 0.0000 -4.0129 0.0000
# 4 0.0000 0.0000 0.0000 22.6635 0.0000 -0.3736
# 5 -2.1425 -17.0367 -4.0129 0.0000 27.6351 0.0000
# 6 0.0000 0.0000 0.0000 -0.3736 0.0000 30.6667
#
#
#
# Elastic Compliance Matrix: (Units=1/GPa)
#
#
# Indices 1 2 3 4 5 6 
#
# 1 0.014735 -0.006436 -0.005678 0.000000 -0.003650 0.000000
# 2 -0.006436 0.013141 -0.003694 0.000000 0.007066 0.000000
# 3 -0.005678 -0.003694 0.023829 0.000000 0.000743 0.000000
# 4 0.000000 0.000000 0.000000 0.044133 0.000000 0.000538
# 5 -0.003650 0.007066 0.000743 0.000000 0.040367 0.000000
# 6 0.000000 0.000000 0.000000 0.000538 0.000000 0.032615
#
#
# Mechanical properties :
#
#
# Convention : Reuss Voigt Hill
#
# Bulk Modulus (GPa) = 49.77502 63.07392 56.42447
# Shear Modulus (GPa) = 24.13924 26.59704 25.36814
#
# Velocity S-wave (km/s) = 3.66623 3.84835 3.75840
# Velocity P-wave (km/s) = 6.75556 7.40725 7.08890
#
# Compressibility (1/GPa) = 0.02009040
#
# Stress axis : x y z
#
# Youngs Moduli (GPa) = 67.86774 76.09570 41.96513
#
# Poissons Ratio (x) = 0.48972 0.23826
# Poissons Ratio (y) = 0.43677 0.15503
# Poissons Ratio (z) = 0.38533 0.28111
#
# Static dielectric constant tensor:
#      x y z
#    x 3.568390 0.000000 0.022590 
#    y 0.000000 3.705080 0.000000 
#    z 0.022590 0.000000 3.026680 
# 
# 
# High freq. dielectric constant tensor:
#      x y z
#    x 1.700260 0.000000 0.007870 
#    y 0.000000 1.703160 0.000000 
#    z 0.007870 0.000000 1.669310 
# 
# From -- ./inp_files/225211.got.cif
#   From: 2010.06.25/outbox.cif.g09.slc.cpg/sg12_113_cif.got.tgz:225211.got - 2010.06.28 00:19:55.
