data_PCOD8089618
_publ_section_title
;
Structure prediction by ZEFSAII (Michael W. Deem and Ramdas Pophale) SiO2 
 PCOD8089618
Probable space group: C 2/M
;
_chemical_formula_sum "Si O2"
_cell_formula_units_Z 56
_cell_length_a 18.983306
_cell_length_b 9.153374
_cell_length_c 28.055040
_cell_angle_alpha 90.000000
_cell_angle_beta 140.648474
_cell_angle_gamma 90.000000
_cell_volume 3091.047126
_symmetry_space_group_name_H-M "C 2/M"
_symmetry_group_IT_number 12
_symmetry_cell_setting 'monoclinic'
loop_
_space_group_symop_operation_xyz
x,y,z
-x,y,-z
-x,-y,-z
x,-y,z
1/2+x,1/2+y,z
1/2-x,1/2+y,-z
1/2-x,1/2-y,-z
1/2+x,1/2-y,z
loop_
_atom_site_type_symbol
_atom_site_label
_atom_site_fract_x
_atom_site_fract_y
_atom_site_fract_z
Si Si1 0.803319 0.832895 0.697555
Si Si2 0.680691 0.336033 0.401888
Si Si3 0.573367 0.327340 0.583064
Si Si4 0.916424 0.331848 0.566411
Si Si5 0.509444 0.834035 0.152998
Si Si6 0.273243 0.168691 0.060758
Si Si7 0.579969 0.170357 0.998907
O O1 0.852976 0.820188 0.670544
O O2 0.696181 0.733053 0.643987
O O3 0.894251 0.776776 0.782250
O O4 0.772733 0.000000 0.693838
O O5 0.656188 0.500000 0.407988
O O6 0.811298 0.302494 0.477132
O O7 0.609184 0.219026 0.393379
O O8 0.500000 0.274363 0.500000
O O9 0.578494 0.500000 0.589202
O O10 0.519145 0.263094 0.602239
O O11 0.951580 0.500000 0.585590
O O12 0.406648 0.816780 0.136688
O O13 0.476699 0.795569 0.081514
O O14 0.553950 0.000000 0.178537
O O15 0.238112 0.000000 0.038222
O O16 0.250000 0.250000 0.000000
O O17 0.198704 0.243819 0.063359
O O18 0.606967 0.000000 0.018840
O O19 0.500000 0.224139 0.000000
#
# Coordination Sequence:
#
# PCOD8089618 Si02
#       7
#     8   8   8   8   8   8   8
#     4  11  22  36  55  78 107 143 181 223 271 323
#     4   9  19  34  51  74 102 132 170 217 267 318
#     4  11  22  35  54  78 105 140 181 225 275 327
#     4  10  19  33  54  76 101 130 170 223 268 315
#     4   9  19  35  53  77 109 143 180 223 268 318
#     4   9  17  31  53  79 107 139 176 217 257 306
#     4   9  18  34  57  84 113 145 180 218 264 314
#
# _framework density 18.116838000000001
#
# number of rings (size 3 to 8) (size 9 to 14) (size 15 to 20)
#    0.000    2.286    1.429    2.571    0.000    5.429 
#    0.000    1.429    0.000    5.143    0.000    0.000 
#    0.000    0.000    0.000    0.000    0.000    0.000 
#
# Total GULP energy -347148.995738 kJ/mol
# GULP energy per Si atom -12398.178419 kJ/mol
# Density = 1.807560 g / cm^3
# Si number density = 18.116838 Si / 1000 Ang^3
#
#
#
# Elastic Constant Matrix: (Units=GPa)
#
#
# Indices 1 2 3 4 5 6 
#
# 1 115.4554 52.7880 32.7023 0.0000 10.4742 0.0000
# 2 52.7880 90.4454 34.2685 0.0000 10.4491 0.0000
# 3 32.7023 34.2685 62.8507 0.0000 6.0650 0.0000
# 4 0.0000 0.0000 0.0000 27.0878 0.0000 5.8252
# 5 10.4742 10.4491 6.0650 0.0000 20.3341 0.0000
# 6 0.0000 0.0000 0.0000 5.8252 0.0000 36.7151
#
#
#
# Elastic Compliance Matrix: (Units=1/GPa)
#
#
# Indices 1 2 3 4 5 6 
#
# 1 0.012401 -0.005792 -0.003053 0.000000 -0.002501 0.000000
# 2 -0.005792 0.017161 -0.005951 0.000000 -0.004060 0.000000
# 3 -0.003053 -0.005951 0.020899 0.000000 -0.001603 0.000000
# 4 0.000000 0.000000 0.000000 0.038221 0.000000 -0.006064
# 5 -0.002501 -0.004060 -0.001603 0.000000 0.053031 0.000000
# 6 0.000000 0.000000 0.000000 -0.006064 0.000000 0.028199
#
#
# Mechanical properties :
#
#
# Convention : Reuss Voigt Hill
#
# Bulk Modulus (GPa) = 47.92063 56.47437 52.19750
# Shear Modulus (GPa) = 24.21764 26.76023 25.48893
#
# Velocity S-wave (km/s) = 3.66012 3.84746 3.75496
# Velocity P-wave (km/s) = 6.66110 7.13984 6.90462
#
# Compressibility (1/GPa) = 0.02086784
#
# Stress axis : x y z
#
# Youngs Moduli (GPa) = 80.63648 58.27219 47.84972
#
# Poissons Ratio (x) = 0.33753 0.14609
# Poissons Ratio (y) = 0.46707 0.28476
# Poissons Ratio (z) = 0.24620 0.34679
#
# Static dielectric constant tensor:
#      x y z
#    x 3.552520 0.000000 0.083860 
#    y 0.000000 3.440200 0.000000 
#    z 0.083860 0.000000 3.160590 
# 
# 
# High freq. dielectric constant tensor:
#      x y z
#    x 1.703380 0.000000 0.009760 
#    y 0.000000 1.712910 0.000000 
#    z 0.009760 0.000000 1.668210 
# 
# From -- ./inp_files/342488.got.cif
#   From: 2010.06.25/outbox.cif.g09.slc.cpg/sg12_172_cif.got.tgz:342488.got - 2010.06.28 00:19:55.
