data_PCOD8089426
_publ_section_title
;
Structure prediction by ZEFSAII (Michael W. Deem and Ramdas Pophale) SiO2 
 PCOD8089426
Probable space group: C 2/M
;
_chemical_formula_sum "Si O2"
_cell_formula_units_Z 64
_cell_length_a 19.678190
_cell_length_b 9.317635
_cell_length_c 19.662761
_cell_angle_alpha 90.000000
_cell_angle_beta 97.185694
_cell_angle_gamma 90.000000
_cell_volume 3576.933894
_symmetry_space_group_name_H-M "C 2/M"
_symmetry_group_IT_number 12
_symmetry_cell_setting 'monoclinic'
loop_
_space_group_symop_operation_xyz
x,y,z
-x,y,-z
-x,-y,-z
x,-y,z
1/2+x,1/2+y,z
1/2-x,1/2+y,-z
1/2-x,1/2-y,-z
1/2+x,1/2-y,z
loop_
_atom_site_type_symbol
_atom_site_label
_atom_site_fract_x
_atom_site_fract_y
_atom_site_fract_z
Si Si1 0.435874 0.668600 0.531513
Si Si2 0.224378 0.666717 0.306063
Si Si3 0.697951 0.167571 0.946095
Si Si4 0.087858 0.829811 0.319026
Si Si5 0.040633 0.333004 0.938943
Si Si6 0.527498 0.334458 0.801737
Si Si7 0.294202 0.665871 0.452772
Si Si8 0.316279 0.665015 0.189055
O O1 0.500000 0.738947 0.500000
O O2 0.447649 0.500000 0.541207
O O3 0.425872 0.731097 0.606506
O O4 0.372774 0.706386 0.474862
O O5 0.203945 0.500000 0.306003
O O6 0.155633 0.758939 0.296679
O O7 0.272673 0.710626 0.374741
O O8 0.269427 0.704333 0.246610
O O9 0.620758 0.197464 0.961663
O O10 0.708368 0.228497 0.872328
O O11 0.715543 0.000000 0.948634
O O12 0.750000 0.250000 0.000000
O O13 0.024260 0.784268 0.263674
O O14 0.098898 0.000000 0.321517
O O15 0.026305 0.500000 0.924759
O O16 0.013022 0.252184 0.868959
O O17 0.000000 0.276752 0.000000
O O18 0.515767 0.500000 0.818316
O O19 0.604070 0.307104 0.783225
O O20 0.281143 0.500000 0.465258
O O21 0.250000 0.750000 0.500000
O O22 0.305816 0.500000 0.164749
#
# Coordination Sequence:
#
# PCOD8089426 Si02
#       8
#     8   8   8   8   8   8   8   8
#     4   9  18  31  51  77 102 132 173 217 259 305
#     4  10  21  34  52  76 104 138 175 213 258 313
#     4  10  20  35  56  81 108 138 173 213 256 305
#     4  10  20  34  52  77 106 135 171 216 262 307
#     4   9  19  36  56  77 102 135 172 206 248 305
#     4   9  19  34  53  76 103 133 169 214 256 297
#     4  10  19  33  53  76 102 135 173 215 263 311
#     4   9  19  36  54  75 104 138 175 215 258 304
#
# _framework density 17.892417999999999
#
# number of rings (size 3 to 8) (size 9 to 14) (size 15 to 20)
#    0.000    2.500    1.250    0.375    1.750    2.750 
#    0.000    3.750    0.000    1.500    0.000    0.000 
#    0.000    0.000    0.000    0.000    0.000    0.000 
#
# Total GULP energy -396807.660173 kJ/mol
# GULP energy per Si atom -12400.239380 kJ/mol
# Density = 1.785169 g / cm^3
# Si number density = 17.892418 Si / 1000 Ang^3
#
#
#
# Elastic Constant Matrix: (Units=GPa)
#
#
# Indices 1 2 3 4 5 6 
#
# 1 131.9009 52.1567 89.3219 0.0000 -4.1194 0.0000
# 2 52.1567 55.1608 58.0027 0.0000 3.6628 0.0000
# 3 89.3219 58.0027 141.3929 0.0000 3.2395 0.0000
# 4 0.0000 0.0000 0.0000 26.0661 0.0000 -1.5184
# 5 -4.1194 3.6628 3.2395 0.0000 40.4206 0.0000
# 6 0.0000 0.0000 0.0000 -1.5184 0.0000 26.2471
#
#
#
# Elastic Compliance Matrix: (Units=1/GPa)
#
#
# Indices 1 2 3 4 5 6 
#
# 1 0.015045 -0.007646 -0.006431 0.000000 0.002742 0.000000
# 2 -0.007646 0.035904 -0.009824 0.000000 -0.003245 0.000000
# 3 -0.006431 -0.009824 0.015188 0.000000 -0.000982 0.000000
# 4 0.000000 0.000000 0.000000 0.038494 0.000000 0.002227
# 5 0.002742 -0.003245 -0.000982 0.000000 0.025392 0.000000
# 6 0.000000 0.000000 0.000000 0.002227 0.000000 0.038228
#
#
# Mechanical properties :
#
#
# Convention : Reuss Voigt Hill
#
# Bulk Modulus (GPa) = 54.53974 80.82414 67.68194
# Shear Modulus (GPa) = 22.50578 27.14497 24.82537
#
# Velocity S-wave (km/s) = 3.55045 3.89925 3.72893
# Velocity P-wave (km/s) = 6.88156 8.09583 7.51327
#
# Compressibility (1/GPa) = 0.01833525
#
# Stress axis : x y z
#
# Youngs Moduli (GPa) = 66.46582 27.85188 65.84265
#
# Poissons Ratio (x) = 0.21295 0.42343
# Poissons Ratio (y) = 0.50819 0.64686
# Poissons Ratio (z) = 0.42743 0.27363
#
# Static dielectric constant tensor:
#      x y z
#    x 3.384920 0.000000 0.078430 
#    y 0.000000 3.179500 0.000000 
#    z 0.078430 0.000000 3.445170 
# 
# 
# High freq. dielectric constant tensor:
#      x y z
#    x 1.699600 0.000000 0.001860 
#    y 0.000000 1.675190 0.000000 
#    z 0.001860 0.000000 1.700020 
# 
# From -- ./inp_files/319257.got.cif
#   From: 2010.06.25/outbox.cif.g09.slc.cpg/sg12_160_cif.got.tgz:319257.got - 2010.06.28 00:19:55.
