data_PCOD8089405
_publ_section_title
;
Structure prediction by ZEFSAII (Michael W. Deem and Ramdas Pophale) SiO2 
 PCOD8089405
Probable space group: C 2/M
;
_chemical_formula_sum "Si O2"
_cell_formula_units_Z 56
_cell_length_a 31.219295
_cell_length_b 9.097337
_cell_length_c 17.988607
_cell_angle_alpha 90.000000
_cell_angle_beta 36.805239
_cell_angle_gamma 90.000000
_cell_volume 3060.778610
_symmetry_space_group_name_H-M "C 2/M"
_symmetry_group_IT_number 12
_symmetry_cell_setting 'monoclinic'
loop_
_space_group_symop_operation_xyz
x,y,z
-x,y,-z
-x,-y,-z
x,-y,z
1/2+x,1/2+y,z
1/2-x,1/2+y,-z
1/2-x,1/2-y,-z
1/2+x,1/2-y,z
loop_
_atom_site_type_symbol
_atom_site_label
_atom_site_fract_x
_atom_site_fract_y
_atom_site_fract_z
Si Si1 0.338415 0.169380 0.448275
Si Si2 0.532549 0.832362 0.373259
Si Si3 0.459025 0.327255 0.348622
Si Si4 0.924245 0.326228 0.904959
Si Si5 0.067609 0.831787 0.953627
Si Si6 0.325794 0.335066 0.323530
Si Si7 0.825522 0.330066 0.905130
O O1 0.378590 0.267710 0.453548
O O2 0.359284 0.222822 0.336356
O O3 0.256146 0.201498 0.577926
O O4 0.359666 0.000000 0.427578
O O5 0.500000 0.813532 0.500000
O O6 0.487408 0.716494 0.389578
O O7 0.617455 0.796509 0.241731
O O8 0.520308 0.000000 0.362117
O O9 0.463167 0.500000 0.332161
O O10 0.502750 0.247287 0.223098
O O11 0.934016 0.500000 0.894014
O O12 0.861037 0.282900 0.934783
O O13 0.911009 0.265930 0.005561
O O14 0.136816 0.818429 0.806877
O O15 0.052521 0.000000 0.999547
O O16 0.000000 0.772121 0.000000
O O17 0.334908 0.500000 0.343070
O O18 0.806076 0.500000 0.932938
O O19 0.750000 0.250000 0.000000
#
# Coordination Sequence:
#
# PCOD8089405 Si02
#       7
#     8   8   8   8   8   8   8
#     4  10  19  33  53  75 104 143 182 219 266 322
#     4   9  19  38  60  82 110 141 181 229 277 331
#     4  11  21  34  55  80 106 138 178 223 270 320
#     4  10  21  37  56  80 109 142 184 224 267 326
#     4  10  20  34  53  79 110 142 178 223 272 318
#     4   9  19  34  51  75 108 142 179 222 267 318
#     4   9  19  36  58  83 110 145 182 224 277 333
#
# _framework density 18.295998999999998
#
# number of rings (size 3 to 8) (size 9 to 14) (size 15 to 20)
#    0.000    2.286    0.000    3.857    0.000    5.714 
#    2.571    0.000    0.000    0.000    0.000    0.000 
#    0.000    0.000    0.000    0.000    0.000    0.000 
#
# Total GULP energy -347092.304597 kJ/mol
# GULP energy per Si atom -12396.153736 kJ/mol
# Density = 1.825436 g / cm^3
# Si number density = 18.295999 Si / 1000 Ang^3
#
#
#
# Elastic Constant Matrix: (Units=GPa)
#
#
# Indices 1 2 3 4 5 6 
#
# 1 102.6507 57.9648 60.3496 0.0012 -8.9759 0.0001
# 2 57.9648 95.2651 42.1035 0.0128 -6.9968 -0.0009
# 3 60.3496 42.1035 98.6317 0.0069 0.0778 0.0002
# 4 0.0012 0.0128 0.0069 28.0753 0.0087 -0.4160
# 5 -8.9759 -6.9968 0.0778 0.0087 23.5272 -0.0067
# 6 0.0001 -0.0009 0.0002 -0.4160 -0.0067 36.0189
#
#
#
# Elastic Compliance Matrix: (Units=1/GPa)
#
#
# Indices 1 2 3 4 5 6 
#
# 1 0.019730 -0.007742 -0.008771 0.000003 0.005254 0.000001
# 2 -0.007742 0.016338 -0.002238 -0.000007 0.001912 0.000001
# 3 -0.008771 -0.002238 0.016464 -0.000001 -0.004066 -0.000001
# 4 0.000003 -0.000007 -0.000001 0.035625 -0.000014 0.000411
# 5 0.005254 0.001912 -0.004066 -0.000014 0.045091 0.000008
# 6 0.000001 0.000001 -0.000001 0.000411 0.000008 0.027768
#
#
# Mechanical properties :
#
#
# Convention : Reuss Voigt Hill
#
# Bulk Modulus (GPa) = 66.54277 68.59814 67.57046
# Shear Modulus (GPa) = 24.56666 26.59957 25.58312
#
# Velocity S-wave (km/s) = 3.66831 3.81707 3.74343
# Velocity P-wave (km/s) = 7.37503 7.54994 7.46300
#
# Compressibility (1/GPa) = 0.01502793
#
# Stress axis : x y z
#
# Youngs Moduli (GPa) = 50.68475 61.20836 60.73774
#
# Poissons Ratio (x) = 0.47390 0.53274
# Poissons Ratio (y) = 0.39242 0.13595
# Poissons Ratio (z) = 0.44456 0.13701
#
# Static dielectric constant tensor:
#      x y z
#    x 3.342750 -0.000010 -0.056960 
#    y -0.000010 3.428420 0.000020 
#    z -0.056960 0.000020 3.411760 
# 
# 
# High freq. dielectric constant tensor:
#      x y z
#    x 1.704480 0.000000 -0.006550 
#    y 0.000000 1.711900 0.000000 
#    z -0.006550 0.000000 1.708180 
# 
# From -- ./inp_files/295096.got.cif
#   From: 2010.06.25/outbox.cif.g09.slc.cpg/sg12_148_cif.got.tgz:295096.got - 2010.06.28 00:19:55.
