data_PCOD8089726
_publ_section_title
;
Structure prediction by ZEFSAII (Michael W. Deem and Ramdas Pophale) SiO2 
 PCOD8089726
Probable space group: C 2/M
;
_chemical_formula_sum "Si O2"
_cell_formula_units_Z 56
_cell_length_a 9.599125
_cell_length_b 26.521238
_cell_length_c 18.238776
_cell_angle_alpha 90.000000
_cell_angle_beta 138.744284
_cell_angle_gamma 90.000000
_cell_volume 3061.849099
_symmetry_space_group_name_H-M "C 2/M"
_symmetry_group_IT_number 12
_symmetry_cell_setting 'monoclinic'
loop_
_space_group_symop_operation_xyz
x,y,z
-x,y,-z
-x,-y,-z
x,-y,z
1/2+x,1/2+y,z
1/2-x,1/2+y,-z
1/2-x,1/2-y,-z
1/2+x,1/2-y,z
loop_
_atom_site_type_symbol
_atom_site_label
_atom_site_fract_x
_atom_site_fract_y
_atom_site_fract_z
Si Si1 0.623539 0.560534 0.923057
Si Si2 0.527189 0.200810 0.629916
Si Si3 0.317050 0.893272 0.236203
Si Si4 0.098084 0.102120 0.751708
Si Si5 0.842955 0.199133 0.623625
Si Si6 0.299560 0.947047 0.374478
Si Si7 0.981707 0.440861 0.819825
O O1 0.587105 0.500000 0.906746
O O2 0.423179 0.590382 0.878820
O O3 0.668449 0.583854 0.860781
O O4 0.821788 0.573761 0.051563
O O5 0.618120 0.165486 0.732471
O O6 0.712066 0.211904 0.644936
O O7 0.319061 0.179392 0.504194
O O8 0.465415 0.251970 0.645307
O O9 0.356031 0.906902 0.336005
O O10 0.473588 0.923007 0.244815
O O11 0.281065 0.090372 0.767120
O O12 0.029950 0.160199 0.718359
O O13 0.888757 0.070916 0.647318
O O14 0.500000 0.957535 0.500000
O O15 0.230689 0.000000 0.309262
O O16 0.932341 0.500000 0.802329
#
# Coordination Sequence:
#
# PCOD8089726 Si02
#       7
#     8   8   8   8   8   8   8
#     4  10  20  37  60  82 109 151 195 232 279 340
#     4  10  21  38  61  86 110 142 187 234 282 339
#     4  11  20  35  58  82 112 147 186 235 281 332
#     4  11  20  35  58  82 112 147 186 235 281 332
#     4  10  21  38  61  86 110 142 187 234 282 339
#     4  10  19  33  54  78 108 148 185 217 270 345
#     4  11  23  36  54  86 119 148 190 239 279 324
#
# _framework density 18.289601000000001
#
# number of rings (size 3 to 8) (size 9 to 14) (size 15 to 20)
#    0.000    1.571    2.857    5.143    2.000    2.286 
#    0.000    2.143    0.000   10.286    0.000    0.000 
#    0.000    0.000    0.000    0.000    0.000    0.000 
#
# Total GULP energy -346914.177740 kJ/mol
# GULP energy per Si atom -12389.792062 kJ/mol
# Density = 1.824797 g / cm^3
# Si number density = 18.289601 Si / 1000 Ang^3
#
#
#
# Elastic Constant Matrix: (Units=GPa)
#
#
# Indices 1 2 3 4 5 6 
#
# 1 130.8868 46.7766 34.3007 -0.0004 19.5266 -0.0001
# 2 46.7766 107.7091 44.1190 -0.0002 14.0492 0.0000
# 3 34.3007 44.1190 71.9814 -0.0013 15.5338 -0.0004
# 4 -0.0004 -0.0002 -0.0013 27.7233 -0.0007 0.4400
# 5 19.5266 14.0492 15.5338 -0.0007 16.9128 -0.0001
# 6 -0.0001 0.0000 -0.0004 0.4400 -0.0001 35.9828
#
#
#
# Elastic Compliance Matrix: (Units=1/GPa)
#
#
# Indices 1 2 3 4 5 6 
#
# 1 0.010230 -0.002805 -0.001384 0.000000 -0.008210 0.000000
# 2 -0.002805 0.013403 -0.006453 0.000000 -0.001967 0.000000
# 3 -0.001384 -0.006453 0.021210 0.000001 -0.012522 0.000000
# 4 0.000000 0.000000 0.000001 0.036078 0.000001 -0.000441
# 5 -0.008210 -0.001967 -0.012522 0.000001 0.081741 0.000000
# 6 0.000000 0.000000 0.000000 -0.000441 0.000000 0.027796
#
#
# Mechanical properties :
#
#
# Convention : Reuss Voigt Hill
#
# Bulk Modulus (GPa) = 42.44926 62.32998 52.38962
# Shear Modulus (GPa) = 22.76922 28.48251 25.62587
#
# Velocity S-wave (km/s) = 3.53218 3.95055 3.74721
# Velocity P-wave (km/s) = 6.31625 7.41368 6.88686
#
# Compressibility (1/GPa) = 0.02355754
#
# Stress axis : x y z
#
# Youngs Moduli (GPa) = 97.75019 74.61285 47.14848
#
# Poissons Ratio (x) = 0.20930 0.06525
# Poissons Ratio (y) = 0.27420 0.30427
# Poissons Ratio (z) = 0.13527 0.48151
#
# Static dielectric constant tensor:
#      x y z
#    x 3.433530 0.000000 0.088990 
#    y 0.000000 3.496710 0.000000 
#    z 0.088990 0.000000 3.422640 
# 
# 
# High freq. dielectric constant tensor:
#      x y z
#    x 1.714380 0.000000 0.007870 
#    y 0.000000 1.708160 0.000000 
#    z 0.007870 0.000000 1.701310 
# 
# From -- ./inp_files/259584.got.cif
#   From: 2010.06.25/outbox.cif.g09.slc.cpg/sg12_130_cif.got.tgz:259584.got - 2010.06.28 00:19:55.
