data_PCOD8089583
_publ_section_title
;
Structure prediction by ZEFSAII (Michael W. Deem and Ramdas Pophale) SiO2 
 PCOD8089583
Probable space group: C 2/M
;
_chemical_formula_sum "Si O2"
_cell_formula_units_Z 64
_cell_length_a 22.648856
_cell_length_b 8.736379
_cell_length_c 26.448528
_cell_angle_alpha 90.000000
_cell_angle_beta 145.156428
_cell_angle_gamma 90.000000
_cell_volume 2990.007319
_symmetry_space_group_name_H-M "C 2/M"
_symmetry_group_IT_number 12
_symmetry_cell_setting 'monoclinic'
loop_
_space_group_symop_operation_xyz
x,y,z
-x,y,-z
-x,-y,-z
x,-y,z
1/2+x,1/2+y,z
1/2-x,1/2+y,-z
1/2-x,1/2-y,-z
1/2+x,1/2-y,z
loop_
_atom_site_type_symbol
_atom_site_label
_atom_site_fract_x
_atom_site_fract_y
_atom_site_fract_z
Si Si1 0.465175 0.675870 0.279490
Si Si2 0.978015 0.822843 0.788605
Si Si3 0.388242 0.681199 0.443393
Si Si4 0.304141 0.676721 0.736000
Si Si5 0.753273 0.320787 0.146183
Si Si6 0.593550 0.821210 0.100981
Si Si7 0.170039 0.825246 0.484633
Si Si8 0.169818 0.180702 0.981402
O O1 0.427096 0.500000 0.247772
O O2 0.504938 0.748010 0.254572
O O3 0.373941 0.786021 0.232819
O O4 0.555672 0.688424 0.382934
O O5 0.859060 0.798829 0.720224
O O6 0.057640 0.755057 0.886140
O O7 0.004728 0.000000 0.803225
O O8 0.500000 0.741350 0.500000
O O9 0.393560 0.500000 0.450587
O O10 0.303790 0.732318 0.341915
O O11 0.348070 0.744244 0.470675
O O12 0.280686 0.500000 0.731585
O O13 0.394031 0.737193 0.836747
O O14 0.734336 0.500000 0.143154
O O15 0.703614 0.216461 0.154052
O O16 0.697638 0.260960 0.056497
O O17 0.577600 0.000000 0.098780
O O18 0.500000 0.755402 0.000000
O O19 0.250000 0.750000 0.500000
O O20 0.207092 0.000000 0.515085
O O21 0.179226 0.000000 0.986770
O O22 0.250000 0.250000 0.000000
#
# Coordination Sequence:
#
# PCOD8089583 Si02
#       8
#     8   8   8   8   8   8   8   8
#     4  10  20  36  60  88 120 163 207 247 308 379
#     4   9  18  34  57  85 121 160 200 249 307 367
#     4  10  23  43  65  93 131 173 217 265 326 393
#     4  11  23  41  67  96 126 163 210 264 316 370
#     4  11  23  37  57  89 124 159 204 258 311 362
#     4  11  25  44  65  90 123 167 212 254 309 379
#     4  10  22  40  64  93 125 166 212 267 325 383
#     4  10  19  33  53  81 118 159 200 244 298 358
#
# _framework density 21.404630000000001
#
# number of rings (size 3 to 8) (size 9 to 14) (size 15 to 20)
#    0.000    1.750    1.250    2.625    1.750    4.750 
#    0.000    2.500    0.000    0.000    0.000    0.000 
#    0.000    0.000    0.000    0.000    0.000    0.000 
#
# Total GULP energy -396465.401589 kJ/mol
# GULP energy per Si atom -12389.543800 kJ/mol
# Density = 2.135591 g / cm^3
# Si number density = 21.404630 Si / 1000 Ang^3
#
#
#
# Elastic Constant Matrix: (Units=GPa)
#
#
# Indices 1 2 3 4 5 6 
#
# 1 109.6963 21.2015 29.4808 -0.0001 5.1583 -0.0003
# 2 21.2015 34.3884 17.3360 -0.0003 2.9981 -0.0019
# 3 29.4808 17.3360 109.4871 -0.0002 6.7302 -0.0005
# 4 -0.0001 -0.0003 -0.0002 27.3263 0.0000 0.4261
# 5 5.1583 2.9981 6.7302 0.0000 28.3750 0.0000
# 6 -0.0003 -0.0019 -0.0005 0.4261 0.0000 27.5080
#
#
#
# Elastic Compliance Matrix: (Units=1/GPa)
#
#
# Indices 1 2 3 4 5 6 
#
# 1 0.010762 -0.005568 -0.001961 0.000000 -0.000903 0.000000
# 2 -0.005568 0.034617 -0.003876 0.000000 -0.001726 0.000002
# 3 -0.001961 -0.003876 0.010379 0.000000 -0.001696 0.000000
# 4 0.000000 0.000000 0.000000 0.036604 0.000000 -0.000567
# 5 -0.000903 -0.001726 -0.001696 0.000000 0.035991 0.000000
# 6 0.000000 0.000002 0.000000 -0.000567 0.000000 0.036362
#
#
# Mechanical properties :
#
#
# Convention : Reuss Voigt Hill
#
# Bulk Modulus (GPa) = 30.34976 43.28983 36.81979
# Shear Modulus (GPa) = 25.18821 29.01208 27.10014
#
# Velocity S-wave (km/s) = 3.43412 3.68559 3.56207
# Velocity P-wave (km/s) = 5.47121 6.19514 5.84439
#
# Compressibility (1/GPa) = 0.03294919
#
# Stress axis : x y z
#
# Youngs Moduli (GPa) = 92.92348 28.88785 96.34513
#
# Poissons Ratio (x) = 0.16084 0.18889
# Poissons Ratio (y) = 0.51737 0.37342
# Poissons Ratio (z) = 0.18218 0.11197
#
# Static dielectric constant tensor:
#      x y z
#    x 4.032380 0.000000 -0.037570 
#    y 0.000000 3.571470 0.000000 
#    z -0.037570 0.000000 3.878920 
# 
# 
# High freq. dielectric constant tensor:
#      x y z
#    x 1.854150 0.000000 -0.000540 
#    y 0.000000 1.809330 0.000000 
#    z -0.000540 0.000000 1.850200 
# 
# From -- ./inp_files/382540.got.cif
#   From: 2010.06.25/outbox.cif.g09.slc.cpg/sg12_192_cif.got.tgz:382540.got - 2010.06.28 00:19:55.
