data_PCOD8089966
_publ_section_title
;
Structure prediction by ZEFSAII (Michael W. Deem and Ramdas Pophale) SiO2 
 PCOD8089966
Probable space group: C 2/M
;
_chemical_formula_sum "Si O2"
_cell_formula_units_Z 64
_cell_length_a 9.976169
_cell_length_b 15.123165
_cell_length_c 32.768961
_cell_angle_alpha 90.000000
_cell_angle_beta 42.167989
_cell_angle_gamma 90.000000
_cell_volume 3318.868736
_symmetry_space_group_name_H-M "C 2/M"
_symmetry_group_IT_number 12
_symmetry_cell_setting 'monoclinic'
loop_
_space_group_symop_operation_xyz
x,y,z
-x,y,-z
-x,-y,-z
x,-y,z
1/2+x,1/2+y,z
1/2-x,1/2+y,-z
1/2-x,1/2-y,-z
1/2+x,1/2-y,z
loop_
_atom_site_type_symbol
_atom_site_label
_atom_site_fract_x
_atom_site_fract_y
_atom_site_fract_z
Si Si1 0.033572 0.251976 0.093317
Si Si2 0.089598 0.761879 0.173750
Si Si3 0.151040 0.105623 0.003645
Si Si4 0.340852 0.403680 0.500060
Si Si5 0.266656 0.598202 0.255936
Si Si6 0.655916 0.332303 0.371581
Si Si7 0.054808 0.317658 0.622178
Si Si8 0.006956 0.597585 0.756275
O O1 0.114274 0.230146 0.119877
O O2 0.056686 0.160282 0.062659
O O3 0.802270 0.277746 0.146625
O O4 0.146716 0.339637 0.051294
O O5 0.945560 0.835616 0.225359
O O6 0.995507 0.666661 0.206260
O O7 0.190718 0.000000 0.004845
O O8 0.000000 0.111836 0.000000
O O9 0.500000 0.409231 0.500000
O O10 0.249359 0.500000 0.512320
O O11 0.448350 0.373015 0.434501
O O12 0.158674 0.341907 0.555581
O O13 0.354582 0.500000 0.238490
O O14 0.083737 0.603838 0.329400
O O15 0.181921 0.619163 0.229986
O O16 0.779316 0.290772 0.381638
O O17 0.597643 0.260973 0.351145
O O18 0.791663 0.401698 0.316482
O O19 0.988046 0.500000 0.779715
#
# Coordination Sequence:
#
# PCOD8089966 Si02
#       8
#     8   8   8   8   8   8   8   8
#     4  11  24  40  65  96 124 158 193 241 288 337
#     4  12  22  39  61  88 127 156 198 244 287 340
#     4  10  22  43  69  95 124 159 195 235 285 342
#     4   9  17  30  51  79 105 139 193 250 293 349
#     4  10  21  37  58  84 116 158 202 246 295 350
#     4  10  19  33  55  79 109 145 193 247 299 352
#     4  10  19  33  55  78 109 147 193 242 301 356
#     4  10  21  37  59  84 114 160 205 243 292 355
#
# _framework density 19.283677999999998
#
# number of rings (size 3 to 8) (size 9 to 14) (size 15 to 20)
#    0.000    1.750    3.750    1.125    0.000    5.000 
#    0.000    0.625    0.000    3.000    0.000    0.000 
#    0.000    0.000    0.000    0.000    0.000    0.000 
#
# Total GULP energy -396645.055624 kJ/mol
# GULP energy per Si atom -12395.157988 kJ/mol
# Density = 1.923979 g / cm^3
# Si number density = 19.283678 Si / 1000 Ang^3
#
#
#
# Elastic Constant Matrix: (Units=GPa)
#
#
# Indices 1 2 3 4 5 6 
#
# 1 49.8480 34.7050 19.2130 -0.0007 -5.0741 0.0008
# 2 34.7050 130.3691 35.8493 -0.0013 -6.6469 0.0008
# 3 19.2130 35.8493 85.6209 -0.0027 -6.3893 0.0013
# 4 -0.0007 -0.0013 -0.0027 22.3511 0.0009 1.6088
# 5 -5.0741 -6.6469 -6.3893 0.0009 29.4939 -0.0008
# 6 0.0008 0.0008 0.0013 1.6088 -0.0008 25.7905
#
#
#
# Elastic Compliance Matrix: (Units=1/GPa)
#
#
# Indices 1 2 3 4 5 6 
#
# 1 0.025563 -0.005825 -0.003118 0.000000 0.002410 0.000000
# 2 -0.005825 0.010037 -0.002847 0.000000 0.000643 0.000000
# 3 -0.003118 -0.002847 0.013705 0.000001 0.001791 -0.000001
# 4 0.000000 0.000000 0.000001 0.044942 -0.000001 -0.002803
# 5 0.002410 0.000643 0.001791 -0.000001 0.034853 0.000001
# 6 0.000000 0.000000 -0.000001 -0.002803 0.000001 0.038949
#
#
# Mechanical properties :
#
#
# Convention : Reuss Voigt Hill
#
# Bulk Modulus (GPa) = 38.87233 49.48586 44.17910
# Shear Modulus (GPa) = 24.97456 27.26517 26.11986
#
# Velocity S-wave (km/s) = 3.60267 3.76426 3.68435
# Velocity P-wave (km/s) = 6.12434 6.67912 6.40774
#
# Compressibility (1/GPa) = 0.02572524
#
# Stress axis : x y z
#
# Youngs Moduli (GPa) = 39.11851 99.63207 72.96718
#
# Poissons Ratio (x) = 0.58035 0.22748
# Poissons Ratio (y) = 0.22786 0.20776
# Poissons Ratio (z) = 0.12196 0.28369
#
# Static dielectric constant tensor:
#      x y z
#    x 3.283900 0.000000 -0.060380 
#    y 0.000000 3.529340 0.000000 
#    z -0.060380 0.000000 3.644670 
# 
# 
# High freq. dielectric constant tensor:
#      x y z
#    x 1.725500 0.000000 -0.006640 
#    y 0.000000 1.746540 0.000000 
#    z -0.006640 0.000000 1.764740 
# 
# From -- ./inp_files/372552.got.cif
#   From: 2010.06.25/outbox.cif.g09.slc.cpg/sg12_187_cif.got.tgz:372552.got - 2010.06.28 00:19:55.
