data_PCOD8089033
_publ_section_title
;
Structure prediction by ZEFSAII (Michael W. Deem and Ramdas Pophale) SiO2 
 PCOD8089033
Probable space group: C 2/M
;
_chemical_formula_sum "Si O2"
_cell_formula_units_Z 64
_cell_length_a 24.107891
_cell_length_b 9.173790
_cell_length_c 20.051682
_cell_angle_alpha 90.000000
_cell_angle_beta 122.857560
_cell_angle_gamma 90.000000
_cell_volume 3725.198921
_symmetry_space_group_name_H-M "C 2/M"
_symmetry_group_IT_number 12
_symmetry_cell_setting 'monoclinic'
loop_
_space_group_symop_operation_xyz
x,y,z
-x,y,-z
-x,-y,-z
x,-y,z
1/2+x,1/2+y,z
1/2-x,1/2+y,-z
1/2-x,1/2-y,-z
1/2+x,1/2-y,z
loop_
_atom_site_type_symbol
_atom_site_label
_atom_site_fract_x
_atom_site_fract_y
_atom_site_fract_z
Si Si1 0.856593 0.829329 0.970553
Si Si2 0.845147 0.830924 0.592940
Si Si3 0.374926 0.670561 0.833491
Si Si4 0.707838 0.172582 0.849178
Si Si5 0.770126 0.326308 0.280599
Si Si6 0.092940 0.673843 0.869951
Si Si7 0.204034 0.329532 0.558937
Si Si8 0.960186 0.827782 0.768675
O O1 0.890712 0.797636 0.921241
O O2 0.780378 0.776487 0.920229
O O3 0.862035 0.000000 0.992195
O O4 0.896753 0.734265 0.049264
O O5 0.847617 0.749253 0.523467
O O6 0.779167 0.786965 0.589761
O O7 0.908167 0.785915 0.677442
O O8 0.845705 0.000000 0.577086
O O9 0.369409 0.500000 0.816482
O O10 0.304100 0.739337 0.767790
O O11 0.432074 0.729176 0.821785
O O12 0.693726 0.227099 0.763844
O O13 0.652260 0.234615 0.862176
O O14 0.706303 0.000000 0.849287
O O15 0.764802 0.500000 0.276647
O O16 0.808197 0.276159 0.372543
O O17 0.089855 0.500000 0.869154
O O18 0.026007 0.738253 0.795827
O O19 0.191783 0.500000 0.543568
O O20 0.975355 0.000000 0.779474
#
# Coordination Sequence:
#
# PCOD8089033 Si02
#       8
#     8   8   8   8   8   8   8   8
#     4   9  17  32  54  73  87 113 155 200 237 273
#     4   9  17  28  44  69  99 124 146 181 226 274
#     4   8  14  27  49  72  90 113 155 199 227 259
#     4   8  16  30  50  72  92 116 153 199 236 265
#     4   8  12  24  48  74  93 113 149 196 234 264
#     4  11  22  33  45  67  97 126 153 189 236 278
#     4   9  15  25  47  75  97 116 144 185 232 276
#     4  10  19  33  50  66  91 128 163 189 216 268
#
# _framework density 17.180291
#
# number of rings (size 3 to 8) (size 9 to 14) (size 15 to 20)
#    0.000    3.000    1.250    2.250    0.000    1.000 
#    0.000    3.750    0.000    5.250    0.000    5.250 
#    0.000    0.000    0.000    0.000    0.000    0.000 
#
# Total GULP energy -396588.275755 kJ/mol
# GULP energy per Si atom -12393.383617 kJ/mol
# Density = 1.714119 g / cm^3
# Si number density = 17.180291 Si / 1000 Ang^3
#
#
#
# Elastic Constant Matrix: (Units=GPa)
#
#
# Indices 1 2 3 4 5 6 
#
# 1 52.3268 17.5776 42.3627 0.0000 2.2876 0.0000
# 2 17.5776 33.1051 37.9685 0.0000 0.0412 0.0000
# 3 42.3627 37.9685 123.9914 0.0000 -8.2660 0.0000
# 4 0.0000 0.0000 0.0000 27.7058 0.0000 0.9756
# 5 2.2876 0.0412 -8.2660 0.0000 24.0173 0.0000
# 6 0.0000 0.0000 0.0000 0.9756 0.0000 18.4164
#
#
#
# Elastic Compliance Matrix: (Units=1/GPa)
#
#
# Indices 1 2 3 4 5 6 
#
# 1 0.027803 -0.005306 -0.008239 0.000000 -0.005475 0.000000
# 2 -0.005306 0.048190 -0.013219 0.000000 -0.004127 0.000000
# 3 -0.008239 -0.013219 0.015334 0.000000 0.006085 0.000000
# 4 0.000000 0.000000 0.000000 0.036161 0.000000 -0.001916
# 5 -0.005475 -0.004127 0.006085 0.000000 0.044259 0.000000
# 6 0.000000 0.000000 0.000000 -0.001916 0.000000 0.054401
#
#
# Mechanical properties :
#
#
# Convention : Reuss Voigt Hill
#
# Bulk Modulus (GPa) = 26.45618 45.02677 35.74147
# Shear Modulus (GPa) = 17.10714 21.46219 19.28466
#
# Velocity S-wave (km/s) = 3.15896 3.53828 3.35399
# Velocity P-wave (km/s) = 5.36078 6.55423 5.98731
#
# Compressibility (1/GPa) = 0.03779835
#
# Stress axis : x y z
#
# Youngs Moduli (GPa) = 35.96782 20.75111 65.21582
#
# Poissons Ratio (x) = 0.11010 0.53733
# Poissons Ratio (y) = 0.19083 0.86210
# Poissons Ratio (z) = 0.29635 0.27431
#
# Static dielectric constant tensor:
#      x y z
#    x 3.396920 0.000000 -0.236660 
#    y 0.000000 2.794900 0.000000 
#    z -0.236660 0.000000 3.302290 
# 
# 
# High freq. dielectric constant tensor:
#      x y z
#    x 1.647150 0.000000 -0.017030 
#    y 0.000000 1.621040 0.000000 
#    z -0.017030 0.000000 1.667050 
# 
# From -- ./inp_files/324271.got.cif
#   From: 2010.06.25/outbox.cif.g09.slc.cpg/sg12_163_cif.got.tgz:324271.got - 2010.06.28 00:19:55.
