data_PCOD8089693
_publ_section_title
;
Structure prediction by ZEFSAII (Michael W. Deem and Ramdas Pophale) SiO2 
 PCOD8089693
Probable space group: C 2/M
;
_chemical_formula_sum "Si O2"
_cell_formula_units_Z 48
_cell_length_a 16.468075
_cell_length_b 14.049024
_cell_length_c 10.367963
_cell_angle_alpha 90.000000
_cell_angle_beta 81.918975
_cell_angle_gamma 90.000000
_cell_volume 2374.917061
_symmetry_space_group_name_H-M "C 2/M"
_symmetry_group_IT_number 12
_symmetry_cell_setting 'monoclinic'
loop_
_space_group_symop_operation_xyz
x,y,z
-x,y,-z
-x,-y,-z
x,-y,z
1/2+x,1/2+y,z
1/2-x,1/2+y,-z
1/2-x,1/2-y,-z
1/2+x,1/2-y,z
loop_
_atom_site_type_symbol
_atom_site_label
_atom_site_fract_x
_atom_site_fract_y
_atom_site_fract_z
Si Si1 0.475737 0.782260 0.798283
Si Si2 0.560205 0.604286 0.866623
Si Si3 0.663404 0.298498 0.032867
Si Si4 0.089135 0.249985 0.449493
Si Si5 0.619437 0.890420 0.676794
Si Si6 0.698764 0.390865 0.291173
O O1 0.524186 0.680235 0.772838
O O2 0.412548 0.777925 0.933997
O O3 0.420458 0.804073 0.685113
O O4 0.545611 0.863571 0.792349
O O5 0.572255 0.500000 0.798600
O O6 0.500000 0.595288 0.000000
O O7 0.647103 0.640742 0.906849
O O8 0.661243 0.364300 0.160708
O O9 0.750000 0.250000 0.000000
O O10 0.116517 0.325937 0.549806
O O11 0.157031 0.167769 0.417467
O O12 0.000000 0.205034 0.500000
O O13 0.704098 0.870891 0.732217
O O14 0.611253 0.000000 0.636758
O O15 0.679027 0.500000 0.323617
#
# Coordination Sequence:
#
# PCOD8089693 Si02
#       6
#     8   8   8   8   8   8
#     4   9  19  33  52  78 103 136 177 219 262 307
#     4   9  17  31  52  75 101 135 173 211 256 308
#     4  10  19  33  54  77 109 144 176 216 260 311
#     4   9  19  34  54  78 104 135 174 219 268 319
#     4  10  20  36  56  76 104 142 180 218 265 322
#     4  10  20  34  54  79 107 139 174 216 267 319
#
# _framework density 20.211231000000002
#
# number of rings (size 3 to 8) (size 9 to 14) (size 15 to 20)
#    0.000    2.500    0.000    2.000    0.000    7.333 
#    0.000    4.167    0.000   21.500    0.000    0.000 
#    0.000    0.000    0.000    0.000    0.000    0.000 
#
# Total GULP energy -297405.061175 kJ/mol
# GULP energy per Si atom -12391.877549 kJ/mol
# Density = 2.016523 g / cm^3
# Si number density = 20.211231 Si / 1000 Ang^3
#
#
#
# Elastic Constant Matrix: (Units=GPa)
#
#
# Indices 1 2 3 4 5 6 
#
# 1 117.5592 49.7290 13.9224 0.0000 -12.6661 0.0000
# 2 49.7290 93.8380 23.1443 0.0000 -7.1185 0.0000
# 3 13.9224 23.1443 40.9803 0.0000 3.2009 0.0000
# 4 0.0000 0.0000 0.0000 30.2644 0.0000 1.7292
# 5 -12.6661 -7.1185 3.2009 0.0000 37.1386 0.0000
# 6 0.0000 0.0000 0.0000 1.7292 0.0000 29.7284
#
#
#
# Elastic Compliance Matrix: (Units=1/GPa)
#
#
# Indices 1 2 3 4 5 6 
#
# 1 0.011260 -0.005521 -0.000931 0.000000 0.002862 0.000000
# 2 -0.005521 0.015428 -0.006969 0.000000 0.001675 0.000000
# 3 -0.000931 -0.006969 0.028978 0.000000 -0.004151 0.000000
# 4 0.000000 0.000000 0.000000 0.033152 0.000000 -0.001928
# 5 0.002862 0.001675 -0.004151 0.000000 0.028581 0.000000
# 6 0.000000 0.000000 0.000000 -0.001928 0.000000 0.033750
#
#
# Mechanical properties :
#
#
# Convention : Reuss Voigt Hill
#
# Bulk Modulus (GPa) = 34.69115 47.32989 41.01052
# Shear Modulus (GPa) = 26.65253 30.46505 28.55879
#
# Velocity S-wave (km/s) = 3.63533 3.88665 3.76309
# Velocity P-wave (km/s) = 5.90105 6.60378 6.26228
#
# Compressibility (1/GPa) = 0.02882580
#
# Stress axis : x y z
#
# Youngs Moduli (GPa) = 88.80764 64.81705 34.50871
#
# Poissons Ratio (x) = 0.35782 0.03214
# Poissons Ratio (y) = 0.49026 0.24048
# Poissons Ratio (z) = 0.08271 0.45168
#
# Static dielectric constant tensor:
#      x y z
#    x 3.999740 0.000000 0.133300 
#    y 0.000000 3.635360 0.000000 
#    z 0.133300 0.000000 3.613660 
# 
# 
# High freq. dielectric constant tensor:
#      x y z
#    x 1.806780 0.000000 0.013430 
#    y 0.000000 1.765900 0.000000 
#    z 0.013430 0.000000 1.766860 
# 
# From -- ./inp_files/153554.got.cif
#   From: 2010.06.25/outbox.cif.g09.slc.cpg/sg12_77_cif.got.tgz:153554.got - 2010.06.28 00:19:55.
