data_PCOD8089576
_publ_section_title
;
Structure prediction by ZEFSAII (Michael W. Deem and Ramdas Pophale) SiO2 
 PCOD8089576
Probable space group: C 2/M
;
_chemical_formula_sum "Si O2"
_cell_formula_units_Z 48
_cell_length_a 24.672626
_cell_length_b 23.015988
_cell_length_c 12.705825
_cell_angle_alpha 90.000000
_cell_angle_beta 157.416955
_cell_angle_gamma 90.000000
_cell_volume 2770.793089
_symmetry_space_group_name_H-M "C 2/M"
_symmetry_group_IT_number 12
_symmetry_cell_setting 'monoclinic'
loop_
_space_group_symop_operation_xyz
x,y,z
-x,y,-z
-x,-y,-z
x,-y,z
1/2+x,1/2+y,z
1/2-x,1/2+y,-z
1/2-x,1/2-y,-z
1/2+x,1/2-y,z
loop_
_atom_site_type_symbol
_atom_site_label
_atom_site_fract_x
_atom_site_fract_y
_atom_site_fract_z
Si Si1 0.666329 0.066426 0.917694
Si Si2 0.811434 0.933802 0.953564
Si Si3 0.166593 0.236399 0.578328
Si Si4 0.413167 0.139345 0.543789
Si Si5 0.927500 0.121253 0.481773
Si Si6 0.514834 0.790891 0.903625
O O1 0.724782 0.073931 0.905593
O O2 0.533906 0.109345 0.690278
O O3 0.617900 0.000000 0.851084
O O4 0.786746 0.082521 0.218410
O O5 0.727897 0.899903 0.711771
O O6 0.823479 0.000000 0.940054
O O7 0.969308 0.909494 0.249849
O O8 0.130880 0.296290 0.578089
O O9 0.107442 0.185040 0.542004
O O10 0.089458 0.239878 0.325587
O O11 0.330624 0.228313 0.853120
O O12 0.471011 0.148223 0.767315
O O13 0.000000 0.127577 0.500000
O O14 0.500000 0.800039 0.000000
#
# Coordination Sequence:
#
# PCOD8089576 Si02
#       6
#     8   8   8   8   8   8
#     4  10  19  34  53  76 108 147 183 209 244 307
#     4  10  20  33  52  78 108 146 183 210 246 304
#     4  10  20  36  54  83 107 133 173 214 270 322
#     4  10  21  32  54  78 107 131 175 218 268 308
#     4  10  19  33  53  81 114 143 170 209 257 313
#     4  10  21  37  57  78 102 135 178 222 268 315
#
# _framework density 17.323560000000001
#
# number of rings (size 3 to 8) (size 9 to 14) (size 15 to 20)
#    1.000    1.000    1.667    3.000    0.000    4.667 
#    0.000    4.167    0.000    2.000    0.000    1.167 
#    0.000    0.000    0.000    0.000    0.000    0.000 
#
# Total GULP energy -297417.386696 kJ/mol
# GULP energy per Si atom -12392.391112 kJ/mol
# Density = 1.728413 g / cm^3
# Si number density = 17.323560 Si / 1000 Ang^3
#
#
#
# Elastic Constant Matrix: (Units=GPa)
#
#
# Indices 1 2 3 4 5 6 
#
# 1 19.6663 28.8841 22.3558 0.0000 -4.4964 0.0000
# 2 28.8841 134.4897 58.8616 0.0000 3.1902 0.0000
# 3 22.3558 58.8616 138.3332 0.0000 -8.3796 0.0000
# 4 0.0000 0.0000 0.0000 29.5153 0.0000 -9.6093
# 5 -4.4964 3.1902 -8.3796 0.0000 18.5097 0.0000
# 6 0.0000 0.0000 0.0000 -9.6093 0.0000 9.4391
#
#
#
# Elastic Compliance Matrix: (Units=1/GPa)
#
#
# Indices 1 2 3 4 5 6 
#
# 1 0.086546 -0.016636 -0.005614 0.000000 0.021349 0.000000
# 2 -0.016636 0.012552 -0.003113 0.000000 -0.007614 0.000000
# 3 -0.005614 -0.003113 0.009676 0.000000 0.003553 0.000000
# 4 0.000000 0.000000 0.000000 0.050677 0.000000 0.051591
# 5 0.021349 -0.007614 0.003553 0.000000 0.062133 0.000000
# 6 0.000000 0.000000 0.000000 0.051591 0.000000 0.158463
#
#
# Mechanical properties :
#
#
# Convention : Reuss Voigt Hill
#
# Bulk Modulus (GPa) = 17.22792 56.96580 37.09686
# Shear Modulus (GPa) = 11.10804 23.65200 17.38002
#
# Velocity S-wave (km/s) = 2.53496 3.69902 3.17086
# Velocity P-wave (km/s) = 4.30516 7.15531 5.90478
#
# Compressibility (1/GPa) = 0.05804530
#
# Stress axis : x y z
#
# Youngs Moduli (GPa) = 11.55456 79.66997 103.34518
#
# Poissons Ratio (x) = 1.32543 0.58022
# Poissons Ratio (y) = 0.19223 0.32176
# Poissons Ratio (z) = 0.06487 0.24805
#
# Static dielectric constant tensor:
#      x y z
#    x 2.798030 0.000000 -0.121970 
#    y 0.000000 3.229170 0.000000 
#    z -0.121970 0.000000 3.598550 
# 
# 
# High freq. dielectric constant tensor:
#      x y z
#    x 1.617760 0.000000 -0.006190 
#    y 0.000000 1.669140 0.000000 
#    z -0.006190 0.000000 1.698760 
# 
# From -- ./inp_files/247143.got.cif
#   From: 2010.06.25/outbox.cif.g09.slc.cpg/sg12_124_cif.got.tgz:247143.got - 2010.06.28 00:19:55.
