data_PCOD8089253
_publ_section_title
;
Structure prediction by ZEFSAII (Michael W. Deem and Ramdas Pophale) SiO2 
 PCOD8089253
Probable space group: C 2/M
;
_chemical_formula_sum "Si O2"
_cell_formula_units_Z 56
_cell_length_a 24.475566
_cell_length_b 8.958068
_cell_length_c 14.168440
_cell_angle_alpha 90.000000
_cell_angle_beta 95.879316
_cell_angle_gamma 90.000000
_cell_volume 3090.143553
_symmetry_space_group_name_H-M "C 2/M"
_symmetry_group_IT_number 12
_symmetry_cell_setting 'monoclinic'
loop_
_space_group_symop_operation_xyz
x,y,z
-x,y,-z
-x,-y,-z
x,-y,z
1/2+x,1/2+y,z
1/2-x,1/2+y,-z
1/2-x,1/2-y,-z
1/2+x,1/2-y,z
loop_
_atom_site_type_symbol
_atom_site_label
_atom_site_fract_x
_atom_site_fract_y
_atom_site_fract_z
Si Si1 0.192916 0.822388 0.519521
Si Si2 0.960918 0.175822 0.785502
Si Si3 0.297288 0.173116 0.813589
Si Si4 0.319705 0.677287 0.269446
Si Si5 0.114929 0.824923 0.054523
Si Si6 0.873669 0.673829 0.649961
Si Si7 0.083287 0.822188 0.843899
O O1 0.250000 0.750000 0.500000
O O2 0.178105 0.768836 0.622341
O O3 0.143617 0.763992 0.445866
O O4 0.198425 0.000000 0.513045
O O5 0.932302 0.217937 0.879388
O O6 0.932138 0.263428 0.694971
O O7 0.023352 0.233261 0.801588
O O8 0.956672 0.000000 0.764873
O O9 0.235613 0.236010 0.791312
O O10 0.326694 0.257375 0.904553
O O11 0.327915 0.203985 0.720774
O O12 0.297861 0.000000 0.839127
O O13 0.318982 0.500000 0.266554
O O14 0.372334 0.740562 0.222779
O O15 0.123220 0.000000 0.049487
O O16 0.097446 0.758785 0.950161
O O17 0.879191 0.500000 0.626672
O O18 0.083650 0.000000 0.847324
#
# Coordination Sequence:
#
# PCOD8089253 Si02
#       7
#     8   8   8   8   8   8   8
#     4  11  20  33  54  78 101 128 165 207 249 298
#     4   9  17  31  52  77 100 129 169 210 245 285
#     4   9  17  31  48  70 100 131 163 202 249 299
#     4   9  18  32  49  72 101 133 166 201 246 300
#     4   9  17  29  49  77 101 126 166 210 246 284
#     4  10  19  33  52  76 102 131 164 207 253 293
#     4   9  17  31  51  72 100 135 169 205 245 290
#
# _framework density 18.122135
#
# number of rings (size 3 to 8) (size 9 to 14) (size 15 to 20)
#    0.000    2.571    1.429    1.286    0.000    2.857 
#    0.000    1.429    0.000   12.000    0.000    0.000 
#    0.000    0.000    0.000    0.000    0.000    0.000 
#
# Total GULP energy -347205.723704 kJ/mol
# GULP energy per Si atom -12400.204418 kJ/mol
# Density = 1.808089 g / cm^3
# Si number density = 18.122135 Si / 1000 Ang^3
#
#
#
# Elastic Constant Matrix: (Units=GPa)
#
#
# Indices 1 2 3 4 5 6 
#
# 1 150.7764 32.4795 92.5314 0.0000 18.6707 0.0000
# 2 32.4795 38.4305 37.5130 0.0000 5.7704 0.0000
# 3 92.5314 37.5130 138.6459 0.0000 22.8155 0.0000
# 4 0.0000 0.0000 0.0000 24.1574 0.0000 8.1927
# 5 18.6707 5.7704 22.8155 0.0000 27.8602 0.0000
# 6 0.0000 0.0000 0.0000 8.1927 0.0000 21.2624
#
#
#
# Elastic Compliance Matrix: (Units=1/GPa)
#
#
# Indices 1 2 3 4 5 6 
#
# 1 0.011555 -0.003066 -0.006602 0.000000 -0.001702 0.000000
# 2 -0.003066 0.036182 -0.007915 0.000000 0.001042 0.000000
# 3 -0.006602 -0.007915 0.014751 0.000000 -0.006016 0.000000
# 4 0.000000 0.000000 0.000000 0.047618 0.000000 -0.018348
# 5 -0.001702 0.001042 -0.006016 0.000000 0.041745 0.000000
# 6 0.000000 0.000000 0.000000 -0.018348 0.000000 0.054101
#
#
# Mechanical properties :
#
#
# Convention : Reuss Voigt Hill
#
# Bulk Modulus (GPa) = 36.60174 72.54451 54.57313
# Shear Modulus (GPa) = 19.98210 25.67792 22.83001
#
# Velocity S-wave (km/s) = 3.32420 3.76831 3.55320
# Velocity P-wave (km/s) = 5.91395 7.68448 6.85661
#
# Compressibility (1/GPa) = 0.02732110
#
# Stress axis : x y z
#
# Youngs Moduli (GPa) = 86.53955 27.63843 67.79412
#
# Poissons Ratio (x) = 0.08473 0.44761
# Poissons Ratio (y) = 0.26530 0.53660
# Poissons Ratio (z) = 0.57137 0.21876
#
# Static dielectric constant tensor:
#      x y z
#    x 3.457850 0.000000 0.109420 
#    y 0.000000 3.071700 0.000000 
#    z 0.109420 0.000000 3.534030 
# 
# 
# High freq. dielectric constant tensor:
#      x y z
#    x 1.696490 0.000000 0.015700 
#    y 0.000000 1.671950 0.000000 
#    z 0.015700 0.000000 1.707330 
# 
# From -- ./inp_files/237863.got.cif
#   From: 2010.06.25/outbox.cif.g09.slc.cpg/sg12_119_cif.got.tgz:237863.got - 2010.06.28 00:19:55.
