data_PCOD8089609
_publ_section_title
;
Structure prediction by ZEFSAII (Michael W. Deem and Ramdas Pophale) SiO2 
 PCOD8089609
Probable space group: C 2/M
;
_chemical_formula_sum "Si O2"
_cell_formula_units_Z 56
_cell_length_a 22.482807
_cell_length_b 12.347846
_cell_length_c 17.158980
_cell_angle_alpha 90.000000
_cell_angle_beta 40.252475
_cell_angle_gamma 90.000000
_cell_volume 3078.018485
_symmetry_space_group_name_H-M "C 2/M"
_symmetry_group_IT_number 12
_symmetry_cell_setting 'monoclinic'
loop_
_space_group_symop_operation_xyz
x,y,z
-x,y,-z
-x,-y,-z
x,-y,z
1/2+x,1/2+y,z
1/2-x,1/2+y,-z
1/2-x,1/2-y,-z
1/2+x,1/2-y,z
loop_
_atom_site_type_symbol
_atom_site_label
_atom_site_fract_x
_atom_site_fract_y
_atom_site_fract_z
Si Si1 0.500000 0.712571 0.407956
Si Si2 0.000000 0.119449 0.090442
Si Si3 0.500000 0.873282 0.727207
Si Si4 0.146061 0.243904 0.673439
Si Si5 0.818333 0.875561 0.515136
Si Si6 0.318333 0.375561 0.848197
Si Si7 0.146061 0.756096 0.034439
O O1 0.500000 0.736539 0.500000
O O2 0.500000 0.824341 0.359933
O O3 0.409518 0.644852 0.474885
O O4 0.590482 0.644852 0.293921
O O5 0.089592 0.187325 0.023035
O O6 0.910408 0.187325 0.202219
O O7 0.000000 0.000000 0.130431
O O8 0.000000 0.103278 0.000000
O O9 0.590075 0.837061 0.684292
O O10 0.409925 0.837061 0.864442
O O11 0.500000 0.000000 0.717158
O O12 0.168408 0.149169 0.589530
O O13 0.234878 0.297425 0.625964
O O14 0.789785 0.000000 0.554275
O O15 0.289785 0.500000 0.866155
O O16 0.331592 0.350831 0.926346
O O17 0.234878 0.297425 0.904280
#
# Coordination Sequence:
#
# PCOD8089609 Si02
#       7
#     8   8   8   8   8   8   8
#     4  10  22  35  48  74 107 139 177 212 247 303
#     4  10  20  35  55  78 107 138 164 202 258 313
#     4   9  17  33  56  76  98 130 165 212 266 307
#     4   9  19  33  53  80 103 126 172 219 252 304
#     4  10  19  33  54  75 100 137 175 216 258 294
#     4  10  19  33  54  75 100 137 175 216 258 294
#     4   9  19  33  53  80 103 126 172 219 252 304
#
# _framework density 18.193522000000002
#
# number of rings (size 3 to 8) (size 9 to 14) (size 15 to 20)
#    0.000    2.429    0.000    3.000    0.000    2.571 
#    0.000    1.429    0.000   14.571    0.000    0.000 
#    0.000    0.000    0.000    0.000    0.000    0.000 
#
# Total GULP energy -347135.363297 kJ/mol
# GULP energy per Si atom -12397.691546 kJ/mol
# Density = 1.815211 g / cm^3
# Si number density = 18.193522 Si / 1000 Ang^3
#
#
#
# Elastic Constant Matrix: (Units=GPa)
#
#
# Indices 1 2 3 4 5 6 
#
# 1 78.7809 48.0447 65.3564 0.0000 -12.8168 0.0000
# 2 48.0447 130.7529 48.6937 0.0000 -2.1554 0.0000
# 3 65.3564 48.6937 88.6610 0.0000 -19.9980 0.0000
# 4 0.0000 0.0000 0.0000 15.2231 0.0000 -0.0411
# 5 -12.8168 -2.1554 -19.9980 0.0000 32.4926 0.0000
# 6 0.0000 0.0000 0.0000 -0.0411 0.0000 15.2107
#
#
#
# Elastic Compliance Matrix: (Units=1/GPa)
#
#
# Indices 1 2 3 4 5 6 
#
# 1 0.034300 -0.003911 -0.023390 0.000000 -0.001125 0.000000
# 2 -0.003911 0.010325 -0.003461 0.000000 -0.002988 0.000000
# 3 -0.023390 -0.003461 0.032849 0.000000 0.010762 0.000000
# 4 0.000000 0.000000 0.000000 0.065690 0.000000 0.000177
# 5 -0.001125 -0.002988 0.010762 0.000000 0.036757 0.000000
# 6 0.000000 0.000000 0.000000 0.000177 0.000000 0.065744
#
#
# Mechanical properties :
#
#
# Convention : Reuss Voigt Hill
#
# Bulk Modulus (GPa) = 62.70034 69.15380 65.92707
# Shear Modulus (GPa) = 15.99969 21.65862 18.82915
#
# Velocity S-wave (km/s) = 2.96871 3.45404 3.22053
# Velocity P-wave (km/s) = 6.80359 7.34846 7.08127
#
# Compressibility (1/GPa) = 0.01594888
#
# Stress axis : x y z
#
# Youngs Moduli (GPa) = 29.15485 96.85213 30.44238
#
# Poissons Ratio (x) = 0.37882 0.71204
# Poissons Ratio (y) = 0.11403 0.10537
# Poissons Ratio (z) = 0.68192 0.33525
#
# Static dielectric constant tensor:
#      x y z
#    x 3.328190 0.000000 -0.352210 
#    y 0.000000 3.255400 0.000000 
#    z -0.352210 0.000000 3.434240 
# 
# 
# High freq. dielectric constant tensor:
#      x y z
#    x 1.695560 0.000000 -0.020480 
#    y 0.000000 1.707680 0.000000 
#    z -0.020480 0.000000 1.701720 
# 
# From -- ./inp_files/289030.got.cif
#   From: 2010.06.25/outbox.cif.g09.slc.cpg/sg12_145_cif.got.tgz:289030.got - 2010.06.28 00:19:55.
