data_PCOD8089668
_publ_section_title
;
Structure prediction by ZEFSAII (Michael W. Deem and Ramdas Pophale) SiO2 
 PCOD8089668
Probable space group: C 2/M
;
_chemical_formula_sum "Si O2"
_cell_formula_units_Z 56
_cell_length_a 18.884982
_cell_length_b 8.831025
_cell_length_c 25.032914
_cell_angle_alpha 90.000000
_cell_angle_beta 45.690098
_cell_angle_gamma 90.000000
_cell_volume 2987.393613
_symmetry_space_group_name_H-M "C 2/M"
_symmetry_group_IT_number 12
_symmetry_cell_setting 'monoclinic'
loop_
_space_group_symop_operation_xyz
x,y,z
-x,y,-z
-x,-y,-z
x,-y,z
1/2+x,1/2+y,z
1/2-x,1/2+y,-z
1/2-x,1/2-y,-z
1/2+x,1/2-y,z
loop_
_atom_site_type_symbol
_atom_site_label
_atom_site_fract_x
_atom_site_fract_y
_atom_site_fract_z
Si Si1 0.213764 0.677214 0.854544
Si Si2 0.115460 0.671436 0.598631
Si Si3 0.521118 0.327804 0.926502
Si Si4 0.175884 0.679056 0.995857
Si Si5 0.404789 0.324543 0.584755
Si Si6 0.892488 0.673230 0.703913
Si Si7 0.214310 0.673655 0.436932
O O1 0.196697 0.500000 0.858734
O O2 0.129309 0.754087 0.862047
O O3 0.319814 0.722046 0.775899
O O4 0.211175 0.727344 0.917970
O O5 0.151105 0.500000 0.591563
O O6 0.137413 0.709421 0.525169
O O7 0.174085 0.788980 0.604446
O O8 0.000621 0.692068 0.672674
O O9 0.523535 0.500000 0.904931
O O10 0.436301 0.240971 0.937387
O O11 0.500000 0.315342 0.000000
O O12 0.175011 0.500000 0.004321
O O13 0.250000 0.750000 0.000000
O O14 0.500000 0.279257 0.500000
O O15 0.404322 0.500000 0.601281
O O16 0.399016 0.222390 0.639611
O O17 0.309646 0.283655 0.599526
O O18 0.856357 0.500000 0.725911
O O19 0.207835 0.500000 0.422058
#
# Coordination Sequence:
#
# PCOD8089668 Si02
#       7
#     8   8   8   8   8   8   8
#     4  10  21  37  56  82 115 148 183 225 276 331
#     4   9  19  34  52  76 105 138 177 225 278 331
#     4   9  17  32  56  83 111 145 185 224 265 321
#     4  10  20  35  58  87 117 148 185 230 273 323
#     4  11  22  35  54  79 107 140 182 231 278 328
#     4  11  22  37  57  80 110 146 184 229 280 332
#     4  10  19  33  54  77 103 135 178 230 278 330
#
# _framework density 18.745436999999999
#
# number of rings (size 3 to 8) (size 9 to 14) (size 15 to 20)
#    0.000    2.000    1.429    2.571    0.000    5.714 
#    0.000    1.429    0.000    3.429    0.000    0.000 
#    0.000    0.000    0.000    0.000    0.000    0.000 
#
# Total GULP energy -347236.240475 kJ/mol
# GULP energy per Si atom -12401.294303 kJ/mol
# Density = 1.870277 g / cm^3
# Si number density = 18.745437 Si / 1000 Ang^3
#
#
#
# Elastic Constant Matrix: (Units=GPa)
#
#
# Indices 1 2 3 4 5 6 
#
# 1 114.0797 44.6654 32.9661 0.0000 -11.0393 0.0000
# 2 44.6654 66.1059 21.2527 -0.0001 -4.9867 -0.0001
# 3 32.9661 21.2527 65.2703 0.0000 -14.4108 0.0000
# 4 0.0000 -0.0001 0.0000 29.4515 0.0000 -2.8877
# 5 -11.0393 -4.9867 -14.4108 0.0000 23.3617 0.0000
# 6 0.0000 -0.0001 0.0000 -2.8877 0.0000 36.6748
#
#
#
# Elastic Compliance Matrix: (Units=1/GPa)
#
#
# Indices 1 2 3 4 5 6 
#
# 1 0.012930 -0.007402 -0.003613 0.000000 0.002302 0.000000
# 2 -0.007402 0.021134 -0.003380 0.000000 -0.001071 0.000000
# 3 -0.003613 -0.003380 0.020502 0.000000 0.010218 0.000000
# 4 0.000000 0.000000 0.000000 0.034218 0.000000 0.002694
# 5 0.002302 -0.001071 0.010218 0.000000 0.049967 0.000000
# 6 0.000000 0.000000 0.000000 0.002694 0.000000 0.027479
#
#
# Mechanical properties :
#
#
# Convention : Reuss Voigt Hill
#
# Bulk Modulus (GPa) = 38.79139 49.24715 44.01927
# Shear Modulus (GPa) = 24.55661 27.66905 26.11283
#
# Velocity S-wave (km/s) = 3.62333 3.84610 3.73637
# Velocity P-wave (km/s) = 6.18412 6.78615 6.49212
#
# Compressibility (1/GPa) = 0.02577892
#
# Stress axis : x y z
#
# Youngs Moduli (GPa) = 77.33725 47.31729 48.77576
#
# Poissons Ratio (x) = 0.35022 0.17620
# Poissons Ratio (y) = 0.57242 0.16484
# Poissons Ratio (z) = 0.27938 0.15991
#
# Static dielectric constant tensor:
#      x y z
#    x 3.512280 0.000000 -0.218390 
#    y 0.000000 3.479360 0.000000 
#    z -0.218390 0.000000 3.300280 
# 
# 
# High freq. dielectric constant tensor:
#      x y z
#    x 1.732110 0.000000 -0.015320 
#    y 0.000000 1.740870 0.000000 
#    z -0.015320 0.000000 1.697110 
# 
# From -- ./inp_files/342336.got.cif
#   From: 2010.06.25/outbox.cif.g09.slc.cpg/sg12_172_cif.got.tgz:342336.got - 2010.06.28 00:19:55.
