data_PCOD8089805
_publ_section_title
;
Structure prediction by ZEFSAII (Michael W. Deem and Ramdas Pophale) SiO2 
 PCOD8089805
Probable space group: C 2/M
;
_chemical_formula_sum "Si O2"
_cell_formula_units_Z 64
_cell_length_a 20.794311
_cell_length_b 9.156345
_cell_length_c 24.368565
_cell_angle_alpha 90.000000
_cell_angle_beta 132.047234
_cell_angle_gamma 90.000000
_cell_volume 3445.461964
_symmetry_space_group_name_H-M "C 2/M"
_symmetry_group_IT_number 12
_symmetry_cell_setting 'monoclinic'
loop_
_space_group_symop_operation_xyz
x,y,z
-x,y,-z
-x,-y,-z
x,-y,z
1/2+x,1/2+y,z
1/2-x,1/2+y,-z
1/2-x,1/2-y,-z
1/2+x,1/2-y,z
loop_
_atom_site_type_symbol
_atom_site_label
_atom_site_fract_x
_atom_site_fract_y
_atom_site_fract_z
Si Si1 0.569130 0.671733 0.295884
Si Si2 0.587002 0.330136 0.582959
Si Si3 0.343681 0.162160 0.801032
Si Si4 0.191929 0.169869 0.009672
Si Si5 0.755767 0.173750 0.655885
Si Si6 0.760696 0.162051 0.149693
Si Si7 0.999137 0.169504 0.138819
Si Si8 0.564856 0.326009 0.694287
O O1 0.570409 0.500000 0.302548
O O2 0.669594 0.724266 0.345551
O O3 0.511846 0.714898 0.209905
O O4 0.521784 0.734726 0.323757
O O5 0.500000 0.304058 0.500000
O O6 0.613008 0.500000 0.600459
O O7 0.662243 0.246379 0.591922
O O8 0.572418 0.266031 0.636266
O O9 0.284965 0.270620 0.731939
O O10 0.304039 0.147735 0.837540
O O11 0.438229 0.231504 0.862084
O O12 0.348455 0.000000 0.776790
O O13 0.215288 0.227192 0.082785
O O14 0.211054 0.000000 0.018738
O O15 0.250000 0.250000 0.000000
O O16 0.094831 0.206769 0.936927
O O17 0.746211 0.000000 0.650849
O O18 0.852808 0.225040 0.222853
O O19 0.774005 0.000000 0.130764
O O20 0.022966 0.000000 0.144490
O O21 0.562913 0.500000 0.689889
#
# Coordination Sequence:
#
# PCOD8089805 Si02
#       8
#     8   8   8   8   8   8   8   8
#     4   8  15  29  53  77  98 137 183 217 257 316
#     4  10  20  35  57  83 109 141 182 225 272 326
#     4  10  19  33  55  81 106 137 180 225 269 322
#     4  11  23  37  53  74 105 143 184 230 279 331
#     4  10  19  33  54  80 111 143 178 219 269 332
#     4  10  20  34  54  77 104 140 181 227 275 324
#     4   9  19  35  52  73 104 142 180 221 275 328
#     4   9  16  32  55  78 105 138 182 226 266 322
#
# _framework density 18.575157000000001
#
# number of rings (size 3 to 8) (size 9 to 14) (size 15 to 20)
#    0.000    2.375    1.250    2.625    0.000    4.750 
#    0.000    3.125    0.000    4.500    0.000    0.000 
#    0.000    0.000    0.000    0.000    0.000    0.000 
#
# Total GULP energy -396594.435110 kJ/mol
# GULP energy per Si atom -12393.576097 kJ/mol
# Density = 1.853288 g / cm^3
# Si number density = 18.575157 Si / 1000 Ang^3
#
#
#
# Elastic Constant Matrix: (Units=GPa)
#
#
# Indices 1 2 3 4 5 6 
#
# 1 137.1744 44.7495 51.3240 0.0000 16.9383 0.0000
# 2 44.7495 57.7964 33.8373 0.0000 19.5285 0.0000
# 3 51.3240 33.8373 78.9189 0.0000 19.4607 0.0000
# 4 0.0000 0.0000 0.0000 22.5947 0.0000 4.8687
# 5 16.9383 19.5285 19.4607 0.0000 22.3535 0.0000
# 6 0.0000 0.0000 0.0000 4.8687 0.0000 27.8002
#
#
#
# Elastic Compliance Matrix: (Units=1/GPa)
#
#
# Indices 1 2 3 4 5 6 
#
# 1 0.010908 -0.006038 -0.004798 0.000000 0.001186 0.000000
# 2 -0.006038 0.030995 -0.004856 0.000000 -0.018275 0.000000
# 3 -0.004798 -0.004856 0.020286 0.000000 -0.009783 0.000000
# 4 0.000000 0.000000 0.000000 0.045994 0.000000 -0.008055
# 5 0.001186 -0.018275 -0.009783 0.000000 0.068319 0.000000
# 6 0.000000 0.000000 0.000000 -0.008055 0.000000 0.037382
#
#
# Mechanical properties :
#
#
# Convention : Reuss Voigt Hill
#
# Bulk Modulus (GPa) = 32.46187 59.30125 45.88156
# Shear Modulus (GPa) = 19.56672 24.14825 21.85749
#
# Velocity S-wave (km/s) = 3.24910 3.60950 3.43404
# Velocity P-wave (km/s) = 5.62045 7.02607 6.36220
#
# Compressibility (1/GPa) = 0.03080537
#
# Stress axis : x y z
#
# Youngs Moduli (GPa) = 91.67343 32.26350 49.29522
#
# Poissons Ratio (x) = 0.19479 0.23651
# Poissons Ratio (y) = 0.55349 0.23940
# Poissons Ratio (z) = 0.43983 0.15668
#
# Static dielectric constant tensor:
#      x y z
#    x 3.822050 0.000000 0.094280 
#    y 0.000000 3.795370 0.000000 
#    z 0.094280 0.000000 3.168270 
# 
# 
# High freq. dielectric constant tensor:
#      x y z
#    x 1.735260 0.000000 0.011540 
#    y 0.000000 1.697850 0.000000 
#    z 0.011540 0.000000 1.702930 
# 
# From -- ./inp_files/346218.got.cif
#   From: 2010.06.25/outbox.cif.g09.slc.cpg/sg12_174_cif.got.tgz:346218.got - 2010.06.28 00:19:55.
