data_PCOD8089136
_publ_section_title
;
Structure prediction by ZEFSAII (Michael W. Deem and Ramdas Pophale) SiO2 
 PCOD8089136
Probable space group: C 2/M
;
_chemical_formula_sum "Si O2"
_cell_formula_units_Z 64
_cell_length_a 10.173640
_cell_length_b 18.040652
_cell_length_c 33.573843
_cell_angle_alpha 90.000000
_cell_angle_beta 146.406869
_cell_angle_gamma 90.000000
_cell_volume 3409.445848
_symmetry_space_group_name_H-M "C 2/M"
_symmetry_group_IT_number 12
_symmetry_cell_setting 'monoclinic'
loop_
_space_group_symop_operation_xyz
x,y,z
-x,y,-z
-x,-y,-z
x,-y,z
1/2+x,1/2+y,z
1/2-x,1/2+y,-z
1/2-x,1/2-y,-z
1/2+x,1/2-y,z
loop_
_atom_site_type_symbol
_atom_site_label
_atom_site_fract_x
_atom_site_fract_y
_atom_site_fract_z
Si Si1 0.453818 0.340922 0.709397
Si Si2 0.077959 0.334905 0.300736
Si Si3 0.227569 0.087481 0.936205
Si Si4 0.006848 0.660249 0.546590
Si Si5 0.083418 0.839994 0.210315
Si Si6 0.479085 0.337079 0.538980
Si Si7 0.081695 0.914027 0.065475
Si Si8 0.559409 0.835689 0.206729
O O1 0.421263 0.253344 0.700242
O O2 0.236011 0.372579 0.627792
O O3 0.452058 0.371041 0.754076
O O4 0.706286 0.366409 0.755814
O O5 0.848474 0.363745 0.265851
O O6 0.308021 0.368673 0.380404
O O7 0.076255 0.365248 0.255770
O O8 0.094328 0.123511 0.865540
O O9 0.111437 0.112336 0.949599
O O10 0.210005 0.000000 0.927472
O O11 0.500000 0.114115 0.000000
O O12 0.002048 0.748767 0.545251
O O13 0.000000 0.629449 0.500000
O O14 0.769197 0.631958 0.507750
O O15 0.044056 0.752372 0.199086
O O16 0.500000 0.368485 0.500000
O O17 0.323043 0.868501 0.128461
O O18 0.137075 0.000000 0.086318
O O19 0.000000 0.898461 0.000000
#
# Coordination Sequence:
#
# PCOD8089136 Si02
#       8
#     8   8   8   8   8   8   8   8
#     4   9  18  27  44  70 103 139 168 211 256 299
#     4   9  16  29  44  66 103 137 173 212 253 299
#     4  10  22  40  59  78 102 133 168 211 259 303
#     4   9  15  24  36  60  95 135 174 202 246 299
#     4  10  19  33  51  76 107 137 170 209 257 308
#     4   9  15  22  38  60  91 135 173 207 245 296
#     4  10  22  40  59  78 102 132 170 213 253 302
#     4  10  19  33  51  76 105 139 171 206 257 304
#
# _framework density 18.771379
#
# number of rings (size 3 to 8) (size 9 to 14) (size 15 to 20)
#    0.000    2.500    1.250    1.500    1.750    6.500 
#    0.000    1.250    0.000    0.000    0.000    0.000 
#    0.000   20.000    0.000    0.000    0.000    0.000 
#
# Total GULP energy -396670.987419 kJ/mol
# GULP energy per Si atom -12395.968357 kJ/mol
# Density = 1.872865 g / cm^3
# Si number density = 18.771379 Si / 1000 Ang^3
#
#
#
# Elastic Constant Matrix: (Units=GPa)
#
#
# Indices 1 2 3 4 5 6 
#
# 1 182.9974 21.1100 87.8853 -0.0004 2.5336 0.0016
# 2 21.1100 10.0836 28.0744 -0.0002 2.5455 -0.0002
# 3 87.8853 28.0744 159.6228 -0.0024 4.9686 -0.0017
# 4 -0.0004 -0.0002 -0.0024 -3.0170 0.0005 -8.6532
# 5 2.5336 2.5455 4.9686 0.0005 44.6261 -0.0001
# 6 0.0016 -0.0002 -0.0017 -8.6532 -0.0001 25.4421
#
#
#
# Elastic Compliance Matrix: (Units=1/GPa)
#
#
# Indices 1 2 3 4 5 6 
#
# 1 0.007794 -0.008679 -0.002776 0.000002 0.000362 0.000000
# 2 -0.008679 0.206399 -0.031280 0.000005 -0.007798 0.000001
# 3 -0.002776 -0.031280 0.013280 -0.000005 0.000463 -0.000001
# 4 0.000002 0.000005 -0.000005 -0.167782 0.000002 -0.057065
# 5 0.000362 -0.007798 0.000463 0.000002 0.022781 0.000001
# 6 0.000000 0.000001 -0.000001 -0.057065 0.000001 0.019896
#
#
# Mechanical properties :
#
#
# Convention : Reuss Voigt Hill
#
# Bulk Modulus (GPa) = 7.04212 69.64926 38.34569
# Shear Modulus (GPa) = 21.26094 27.78584 24.52339
#
# Velocity S-wave (km/s) = 3.36910 3.85154 3.61837
# Velocity P-wave (km/s) = 4.34674 7.54743 6.15864
#
# Compressibility (1/GPa) = 0.14200262
#
# Stress axis : x y z
#
# Youngs Moduli (GPa) = 128.30518 4.84499 75.29962
#
# Poissons Ratio (x) = 0.04205 0.20903
# Poissons Ratio (y) = 1.11359 2.35538
# Poissons Ratio (z) = 0.35617 0.15155
#
# Static dielectric constant tensor:
#      x y z
#    x 3.674850 0.000000 -0.010010 
#    y 0.000000 2.812460 0.000000 
#    z -0.010010 0.000000 3.608010 
# 
# 
# High freq. dielectric constant tensor:
#      x y z
#    x 1.751730 0.000000 -0.000940 
#    y 0.000000 1.658900 0.000000 
#    z -0.000940 0.000000 1.746360 
# 
# From -- ./inp_files/373010.got.cif
#   From: 2010.06.25/outbox.cif.g09.slc.cpg/sg12_187_cif.got.tgz:373010.got - 2010.06.28 00:19:55.
