data_PCOD8089041
_publ_section_title
;
Structure prediction by ZEFSAII (Michael W. Deem and Ramdas Pophale) SiO2 
 PCOD8089041
Probable space group: C 2/M
;
_chemical_formula_sum "Si O2"
_cell_formula_units_Z 56
_cell_length_a 14.631862
_cell_length_b 16.760865
_cell_length_c 16.916708
_cell_angle_alpha 90.000000
_cell_angle_beta 131.020769
_cell_angle_gamma 90.000000
_cell_volume 3130.075706
_symmetry_space_group_name_H-M "C 2/M"
_symmetry_group_IT_number 12
_symmetry_cell_setting 'monoclinic'
loop_
_space_group_symop_operation_xyz
x,y,z
-x,y,-z
-x,-y,-z
x,-y,z
1/2+x,1/2+y,z
1/2-x,1/2+y,-z
1/2-x,1/2-y,-z
1/2+x,1/2-y,z
loop_
_atom_site_type_symbol
_atom_site_label
_atom_site_fract_x
_atom_site_fract_y
_atom_site_fract_z
Si Si1 0.187801 0.092945 0.588473
Si Si2 0.920458 0.093574 0.879353
Si Si3 0.070402 0.160482 0.277706
Si Si4 0.827355 0.408461 0.441127
Si Si5 0.855481 0.408207 0.277889
Si Si6 0.413910 0.833847 0.645766
Si Si7 0.034071 0.906107 0.640552
O O1 0.327017 0.110733 0.649334
O O2 0.144108 0.127686 0.648857
O O3 0.095306 0.124286 0.468728
O O4 0.166966 0.000000 0.581804
O O5 0.968655 0.150905 0.835981
O O6 0.781624 0.116223 0.819999
O O7 0.931454 0.000000 0.862413
O O8 0.000000 0.114939 0.000000
O O9 0.183316 0.100678 0.352238
O O10 0.106558 0.248379 0.326638
O O11 0.957728 0.131922 0.267781
O O12 0.854359 0.500000 0.483930
O O13 0.886485 0.392305 0.388399
O O14 0.875992 0.344271 0.532248
O O15 0.877731 0.500000 0.270749
O O16 0.944929 0.358694 0.270967
O O17 0.040826 0.000000 0.652088
#
# Coordination Sequence:
#
# PCOD8089041 Si02
#       7
#     8   8   8   8   8   8   8
#     4   9  18  30  46  64  95 144 185 203 221 276
#     4   9  19  39  64  81  94 122 170 225 269 309
#     4  11  21  31  49  79 107 133 166 215 262 308
#     4  10  19  33  50  69 103 147 184 214 242 289
#     4   9  19  34  53  76 102 135 177 217 257 307
#     4  12  21  29  45  75 111 144 167 199 258 315
#     4   9  17  31  46  64  93 137 181 209 232 271
#
# _framework density 17.890940000000001
#
# number of rings (size 3 to 8) (size 9 to 14) (size 15 to 20)
#    0.000    2.143    1.429    5.143    0.000    3.429 
#    2.571    0.714    0.000    0.000    0.000    0.000 
#    0.000    9.714    0.000    0.000    0.000    0.000 
#
# Total GULP energy -346975.518578 kJ/mol
# GULP energy per Si atom -12391.982806 kJ/mol
# Density = 1.785022 g / cm^3
# Si number density = 17.890940 Si / 1000 Ang^3
#
#
#
# Elastic Constant Matrix: (Units=GPa)
#
#
# Indices 1 2 3 4 5 6 
#
# 1 136.0585 24.8495 41.4851 0.0000 -5.3367 0.0000
# 2 24.8495 49.3401 29.9584 0.0000 -8.9699 0.0000
# 3 41.4851 29.9584 89.5945 0.0000 -8.2689 0.0000
# 4 0.0000 0.0000 0.0000 16.1275 0.0000 -2.7843
# 5 -5.3367 -8.9699 -8.2689 0.0000 18.5169 0.0000
# 6 0.0000 0.0000 0.0000 -2.7843 0.0000 10.9007
#
#
#
# Elastic Compliance Matrix: (Units=1/GPa)
#
#
# Indices 1 2 3 4 5 6 
#
# 1 0.008789 -0.002472 -0.003254 0.000000 -0.000118 0.000000
# 2 -0.002472 0.027610 -0.007216 0.000000 0.009440 0.000000
# 3 -0.003254 -0.007216 0.015302 0.000000 0.002400 0.000000
# 4 0.000000 0.000000 0.000000 0.064866 0.000000 0.016569
# 5 -0.000118 0.009440 0.002400 0.000000 0.059616 0.000000
# 6 0.000000 0.000000 0.000000 0.016569 0.000000 0.095970
#
#
# Mechanical properties :
#
#
# Convention : Reuss Voigt Hill
#
# Bulk Modulus (GPa) = 38.73390 51.95321 45.34356
# Shear Modulus (GPa) = 16.30561 21.02236 18.66399
#
# Velocity S-wave (km/s) = 3.02220 3.43159 3.23338
# Velocity P-wave (km/s) = 5.82024 6.69350 6.27209
#
# Compressibility (1/GPa) = 0.02581718
#
# Stress axis : x y z
#
# Youngs Moduli (GPa) = 113.78191 36.21833 65.34908
#
# Poissons Ratio (x) = 0.08954 0.21263
# Poissons Ratio (y) = 0.28128 0.47158
# Poissons Ratio (z) = 0.37021 0.26136
#
# Static dielectric constant tensor:
#      x y z
#    x 3.680630 0.000000 -0.117370 
#    y 0.000000 3.117360 0.000000 
#    z -0.117370 0.000000 2.981360 
# 
# 
# High freq. dielectric constant tensor:
#      x y z
#    x 1.714640 0.000000 -0.005020 
#    y 0.000000 1.676020 0.000000 
#    z -0.005020 0.000000 1.634130 
# 
# From -- ./inp_files/270187.got.cif
#   From: 2010.06.25/outbox.cif.g09.slc.cpg/sg12_136_cif.got.tgz:270187.got - 2010.06.28 00:19:55.
