data_PCOD8089185
_publ_section_title
;
Structure prediction by ZEFSAII (Michael W. Deem and Ramdas Pophale) SiO2 
 PCOD8089185
Probable space group: C 2/M
;
_chemical_formula_sum "Si O2"
_cell_formula_units_Z 48
_cell_length_a 22.500276
_cell_length_b 7.809548
_cell_length_c 15.367710
_cell_angle_alpha 90.000000
_cell_angle_beta 99.747789
_cell_angle_gamma 90.000000
_cell_volume 2661.381368
_symmetry_space_group_name_H-M "C 2/M"
_symmetry_group_IT_number 12
_symmetry_cell_setting 'monoclinic'
loop_
_space_group_symop_operation_xyz
x,y,z
-x,y,-z
-x,-y,-z
x,-y,z
1/2+x,1/2+y,z
1/2-x,1/2+y,-z
1/2-x,1/2-y,-z
1/2+x,1/2-y,z
loop_
_atom_site_type_symbol
_atom_site_label
_atom_site_fract_x
_atom_site_fract_y
_atom_site_fract_z
Si Si1 0.955124 0.000000 0.114732
Si Si2 0.210034 0.299062 0.374035
Si Si3 0.835813 0.695262 0.453227
Si Si4 0.617441 0.803126 0.202383
Si Si5 0.515613 0.189823 0.767615
Si Si6 0.541798 0.306050 0.587373
Si Si7 0.089964 0.000000 0.079179
O O1 0.945292 0.829813 0.170205
O O2 0.021134 0.000000 0.091047
O O3 0.906174 0.000000 0.024793
O O4 0.220064 0.500000 0.385830
O O5 0.176768 0.231637 0.452962
O O6 0.275159 0.210708 0.380504
O O7 0.170901 0.251469 0.280569
O O8 0.857645 0.500000 0.461923
O O9 0.888458 0.804633 0.422728
O O10 0.555306 0.774880 0.238557
O O11 0.621725 0.673318 0.122060
O O12 0.623581 0.000000 0.171293
O O13 0.530958 0.193502 0.669873
O O14 0.532035 0.000000 0.807099
O O15 0.500000 0.231142 0.500000
O O16 0.522519 0.500000 0.604025
#
# Coordination Sequence:
#
# PCOD8089185 Si02
#       7
#     4   8   8   8   8   8   4
#     4   9  18  34  47  76 106 130 167 208 255 308
#     4   9  18  33  48  69 103 133 168 213 251 292
#     4  10  20  32  48  71  99 136 175 207 250 295
#     4   9  18  31  50  76 103 133 168 206 257 300
#     4  10  19  33  52  73 104 139 170 206 251 302
#     4  11  22  34  49  72 103 137 177 210 245 294
#     4   9  18  30  52  74 104 132 163 210 255 309
#
# _framework density 18.035746
#
# number of rings (size 3 to 8) (size 9 to 14) (size 15 to 20)
#    0.000    2.333    0.833    2.000    1.167    4.000 
#    0.000    3.333    0.000    0.000    0.000    1.167 
#    0.000    0.000    0.000    0.000    0.000    0.000 
#
# Total GULP energy -297619.500426 kJ/mol
# GULP energy per Si atom -12400.812518 kJ/mol
# Density = 1.799470 g / cm^3
# Si number density = 18.035746 Si / 1000 Ang^3
#
#
#
# Elastic Constant Matrix: (Units=GPa)
#
#
# Indices 1 2 3 4 5 6 
#
# 1 67.9813 26.6094 40.5360 0.0000 9.5973 0.0000
# 2 26.6094 96.0399 55.1783 0.0000 13.3960 0.0000
# 3 40.5360 55.1783 124.4762 0.0000 23.2343 0.0000
# 4 0.0000 0.0000 0.0000 18.0721 0.0000 2.5750
# 5 9.5973 13.3960 23.2343 0.0000 23.7095 0.0000
# 6 0.0000 0.0000 0.0000 2.5750 0.0000 20.3463
#
#
#
# Elastic Compliance Matrix: (Units=1/GPa)
#
#
# Indices 1 2 3 4 5 6 
#
# 1 0.018658 -0.002183 -0.004809 0.000000 -0.001607 0.000000
# 2 -0.002183 0.014323 -0.005254 0.000000 -0.002061 0.000000
# 3 -0.004809 -0.005254 0.013476 0.000000 -0.008291 0.000000
# 4 0.000000 0.000000 0.000000 0.056350 0.000000 -0.007131
# 5 -0.001607 -0.002061 -0.008291 0.000000 0.052117 0.000000
# 6 0.000000 0.000000 0.000000 -0.007131 0.000000 0.050051
#
#
# Mechanical properties :
#
#
# Convention : Reuss Voigt Hill
#
# Bulk Modulus (GPa) = 45.52195 59.23832 52.38014
# Shear Modulus (GPa) = 21.11589 23.50383 22.30986
#
# Velocity S-wave (km/s) = 3.42538 3.61388 3.52089
# Velocity P-wave (km/s) = 6.39835 7.09434 6.75532
#
# Compressibility (1/GPa) = 0.02196742
#
# Stress axis : x y z
#
# Youngs Moduli (GPa) = 53.59494 69.81797 74.20544
#
# Poissons Ratio (x) = 0.15239 0.35683
# Poissons Ratio (y) = 0.11698 0.38985
# Poissons Ratio (z) = 0.25772 0.36680
#
# Static dielectric constant tensor:
#      x y z
#    x 3.065780 0.000000 0.170970 
#    y 0.000000 3.405340 0.000000 
#    z 0.170970 0.000000 3.279980 
# 
# 
# High freq. dielectric constant tensor:
#      x y z
#    x 1.668080 0.000000 0.013590 
#    y 0.000000 1.711780 0.000000 
#    z 0.013590 0.000000 1.677170 
# 
# From -- ./inp_files/221751.got.cif
#   From: 2010.06.25/outbox.cif.g09.slc.cpg/sg12_111_cif.got.tgz:221751.got - 2010.06.28 00:19:55.
