data_PCOD8089406
_publ_section_title
;
Structure prediction by ZEFSAII (Michael W. Deem and Ramdas Pophale) SiO2 
 PCOD8089406
Probable space group: C 2/M
;
_chemical_formula_sum "Si O2"
_cell_formula_units_Z 56
_cell_length_a 16.160431
_cell_length_b 8.956951
_cell_length_c 19.680473
_cell_angle_alpha 90.000000
_cell_angle_beta 89.156412
_cell_angle_gamma 90.000000
_cell_volume 2848.404054
_symmetry_space_group_name_H-M "C 2/M"
_symmetry_group_IT_number 12
_symmetry_cell_setting 'monoclinic'
loop_
_space_group_symop_operation_xyz
x,y,z
-x,y,-z
-x,-y,-z
x,-y,z
1/2+x,1/2+y,z
1/2-x,1/2+y,-z
1/2-x,1/2-y,-z
1/2+x,1/2-y,z
loop_
_atom_site_type_symbol
_atom_site_label
_atom_site_fract_x
_atom_site_fract_y
_atom_site_fract_z
Si Si1 0.668018 0.827115 0.573522
Si Si2 0.911356 0.323325 0.709715
Si Si3 0.998314 0.676324 0.921657
Si Si4 0.340693 0.174679 0.574048
Si Si5 0.595307 0.826641 0.716800
Si Si6 0.336179 0.823123 0.846642
Si Si7 0.152493 0.823716 0.844011
O O1 0.623497 0.785919 0.501762
O O2 0.747103 0.725512 0.581210
O O3 0.608406 0.792276 0.637021
O O4 0.695338 0.000000 0.572071
O O5 0.907704 0.500000 0.702714
O O6 0.891010 0.250417 0.636096
O O7 0.848984 0.265603 0.768917
O O8 0.002030 0.276983 0.733565
O O9 0.004720 0.500000 0.910304
O O10 0.079103 0.746116 0.885965
O O11 0.911005 0.739537 0.892858
O O12 0.000000 0.721690 0.000000
O O13 0.342775 0.000000 0.585135
O O14 0.652168 0.727213 0.765168
O O15 0.611890 0.000000 0.732889
O O16 0.243665 0.775455 0.872145
O O17 0.342512 0.000000 0.847681
O O18 0.140755 0.000000 0.848586
#
# Coordination Sequence:
#
# PCOD8089406 Si02
#       7
#     8   8   8   8   8   8   8
#     4   9  18  30  46  72 102 133 177 231 275 319
#     4   9  16  29  52  74  99 138 182 226 267 319
#     4  10  21  40  64  86 113 150 186 219 264 329
#     4   9  17  30  48  70  98 137 180 222 277 333
#     4  10  19  33  53  75 105 143 184 231 274 322
#     4   9  18  34  56  82 112 147 184 221 270 326
#     4  11  22  36  58  86 115 146 182 229 277 323
#
# _framework density 19.660132000000001
#
# number of rings (size 3 to 8) (size 9 to 14) (size 15 to 20)
#    0.000    2.429    1.429    1.286    0.000    3.143 
#    0.000    5.000    0.000    0.000    0.000    5.000 
#    0.000    0.000    0.000    0.000    0.000    0.000 
#
# Total GULP energy -346927.432099 kJ/mol
# GULP energy per Si atom -12390.265432 kJ/mol
# Density = 1.961538 g / cm^3
# Si number density = 19.660132 Si / 1000 Ang^3
#
#
#
# Elastic Constant Matrix: (Units=GPa)
#
#
# Indices 1 2 3 4 5 6 
#
# 1 128.8574 19.0634 73.0554 0.0000 6.5095 0.0000
# 2 19.0634 15.7670 27.2410 0.0000 0.6817 0.0000
# 3 73.0554 27.2410 138.7350 0.0000 10.3678 0.0000
# 4 0.0000 0.0000 0.0000 20.3977 0.0000 -2.4274
# 5 6.5095 0.6817 10.3678 0.0000 30.5012 0.0000
# 6 0.0000 0.0000 0.0000 -2.4274 0.0000 23.7870
#
#
#
# Elastic Compliance Matrix: (Units=1/GPa)
#
#
# Indices 1 2 3 4 5 6 
#
# 1 0.011343 -0.005221 -0.004900 0.000000 -0.000638 0.000000
# 2 -0.005221 0.098961 -0.017033 0.000000 0.004692 0.000000
# 3 -0.004900 -0.017033 0.013366 0.000000 -0.003117 0.000000
# 4 0.000000 0.000000 0.000000 0.049628 0.000000 0.005064
# 5 -0.000638 0.004692 -0.003117 0.000000 0.033876 0.000000
# 6 0.000000 0.000000 0.000000 0.005064 0.000000 0.042557
#
#
# Mechanical properties :
#
#
# Convention : Reuss Voigt Hill
#
# Bulk Modulus (GPa) = 14.41706 58.00878 36.21292
# Shear Modulus (GPa) = 15.28306 25.87048 20.57677
#
# Velocity S-wave (km/s) = 2.79115 3.63145 3.23867
# Velocity P-wave (km/s) = 4.21146 6.86681 5.69603
#
# Compressibility (1/GPa) = 0.06936225
#
# Stress axis : x y z
#
# Youngs Moduli (GPa) = 88.15677 10.10499 74.81789
#
# Poissons Ratio (x) = 0.05276 0.36664
# Poissons Ratio (y) = 0.46025 1.27435
# Poissons Ratio (z) = 0.43200 0.17212
#
# Static dielectric constant tensor:
#      x y z
#    x 3.749980 0.000000 0.172220 
#    y 0.000000 3.224620 0.000000 
#    z 0.172220 0.000000 3.987110 
# 
# 
# High freq. dielectric constant tensor:
#      x y z
#    x 1.765450 0.000000 0.003270 
#    y 0.000000 1.721890 0.000000 
#    z 0.003270 0.000000 1.780920 
# 
# From -- ./inp_files/308946.got.cif
#   From: 2010.06.25/outbox.cif.g09.slc.cpg/sg12_155_cif.got.tgz:308946.got - 2010.06.28 00:19:55.
