data_PCOD8089667
_publ_section_title
;
Structure prediction by ZEFSAII (Michael W. Deem and Ramdas Pophale) SiO2 
 PCOD8089667
Probable space group: C 2/M
;
_chemical_formula_sum "Si O2"
_cell_formula_units_Z 56
_cell_length_a 14.500053
_cell_length_b 9.177735
_cell_length_c 25.193067
_cell_angle_alpha 90.000000
_cell_angle_beta 120.813643
_cell_angle_gamma 90.000000
_cell_volume 2879.369302
_symmetry_space_group_name_H-M "C 2/M"
_symmetry_group_IT_number 12
_symmetry_cell_setting 'monoclinic'
loop_
_space_group_symop_operation_xyz
x,y,z
-x,y,-z
-x,-y,-z
x,-y,z
1/2+x,1/2+y,z
1/2-x,1/2+y,-z
1/2-x,1/2-y,-z
1/2+x,1/2-y,z
loop_
_atom_site_type_symbol
_atom_site_label
_atom_site_fract_x
_atom_site_fract_y
_atom_site_fract_z
Si Si1 0.324374 0.670025 0.091116
Si Si2 0.088669 0.838056 0.456801
Si Si3 0.778419 0.337925 0.430522
Si Si4 0.701006 0.830139 0.306061
Si Si5 0.508353 0.673056 0.770519
Si Si6 0.387987 0.329154 0.992068
Si Si7 0.074707 0.169006 0.675351
O O1 0.298779 0.500000 0.086768
O O2 0.402650 0.721095 0.160978
O O3 0.211897 0.752208 0.066200
O O4 0.382978 0.709688 0.053036
O O5 0.113151 0.741044 0.516250
O O6 0.195273 0.850344 0.453570
O O7 0.994007 0.762480 0.393640
O O8 0.054833 0.000000 0.466164
O O9 0.807584 0.500000 0.418229
O O10 0.723410 0.244110 0.368702
O O11 0.601775 0.753801 0.247230
O O12 0.800054 0.804493 0.295907
O O13 0.678346 0.000000 0.309019
O O14 0.490530 0.500000 0.766270
O O15 0.543617 0.733903 0.723264
O O16 0.376546 0.500000 0.978492
O O17 0.500000 0.271616 0.000000
O O18 0.043328 0.000000 0.666674
#
# Coordination Sequence:
#
# PCOD8089667 Si02
#       7
#     8   8   8   8   8   8   8
#     4   9  19  34  56  82 107 145 185 218 257 309
#     4   9  17  33  55  74  97 135 177 214 267 326
#     4  10  19  33  54  77 103 135 172 219 274 319
#     4  11  22  35  54  79 104 135 179 220 266 323
#     4  10  20  39  58  75 107 144 181 220 264 312
#     4   9  18  34  55  82 117 148 175 215 265 311
#     4   9  19  36  55  74 101 140 176 215 268 326
#
# _framework density 19.448703999999999
#
# number of rings (size 3 to 8) (size 9 to 14) (size 15 to 20)
#    0.000    2.429    1.429    0.857    0.000    3.143 
#    0.000    5.714    0.000    0.000    0.000    0.000 
#    0.000    0.000    0.000    0.000    0.000    0.000 
#
# Total GULP energy -347186.137416 kJ/mol
# GULP energy per Si atom -12399.504908 kJ/mol
# Density = 1.940444 g / cm^3
# Si number density = 19.448704 Si / 1000 Ang^3
#
#
#
# Elastic Constant Matrix: (Units=GPa)
#
#
# Indices 1 2 3 4 5 6 
#
# 1 94.0153 37.0590 55.2864 0.0000 24.3833 0.0000
# 2 37.0590 72.0488 51.4770 0.0000 16.3833 0.0000
# 3 55.2864 51.4770 152.3217 0.0000 32.8910 0.0000
# 4 0.0000 0.0000 0.0000 28.6712 0.0000 8.1628
# 5 24.3833 16.3833 32.8910 0.0000 27.4470 0.0000
# 6 0.0000 0.0000 0.0000 8.1628 0.0000 23.0096
#
#
#
# Elastic Compliance Matrix: (Units=1/GPa)
#
#
# Indices 1 2 3 4 5 6 
#
# 1 0.016122 -0.004584 -0.002429 0.000000 -0.008675 0.000000
# 2 -0.004584 0.020069 -0.004602 0.000000 -0.002392 0.000000
# 3 -0.002429 -0.004602 0.010716 0.000000 -0.007936 0.000000
# 4 0.000000 0.000000 0.000000 0.038797 0.000000 -0.013763
# 5 -0.008675 -0.002392 -0.007936 0.000000 0.055079 0.000000
# 6 0.000000 0.000000 0.000000 -0.013763 0.000000 0.048343
#
#
# Mechanical properties :
#
#
# Convention : Reuss Voigt Hill
#
# Bulk Modulus (GPa) = 42.23649 67.33672 54.78661
# Shear Modulus (GPa) = 22.70166 27.46310 25.08238
#
# Velocity S-wave (km/s) = 3.42022 3.76184 3.59509
# Velocity P-wave (km/s) = 6.11238 7.31891 6.74269
#
# Compressibility (1/GPa) = 0.02367621
#
# Stress axis : x y z
#
# Youngs Moduli (GPa) = 62.02692 49.82700 93.32177
#
# Poissons Ratio (x) = 0.22842 0.22669
# Poissons Ratio (y) = 0.28435 0.42947
# Poissons Ratio (z) = 0.15067 0.22930
#
# Static dielectric constant tensor:
#      x y z
#    x 3.506990 0.000000 0.076120 
#    y 0.000000 3.536040 0.000000 
#    z 0.076120 0.000000 3.599290 
# 
# 
# High freq. dielectric constant tensor:
#      x y z
#    x 1.756340 0.000000 0.008260 
#    y 0.000000 1.739470 0.000000 
#    z 0.008260 0.000000 1.756340 
# 
# From -- ./inp_files/360028.got.cif
#   From: 2010.06.25/outbox.cif.g09.slc.cpg/sg12_181_cif.got.tgz:360028.got - 2010.06.28 00:19:55.
