data_PCOD8089899
_publ_section_title
;
Structure prediction by ZEFSAII (Michael W. Deem and Ramdas Pophale) SiO2 
 PCOD8089899
Probable space group: C 2/M
;
_chemical_formula_sum "Si O2"
_cell_formula_units_Z 56
_cell_length_a 19.657551
_cell_length_b 9.006615
_cell_length_c 28.119090
_cell_angle_alpha 90.000000
_cell_angle_beta 37.717677
_cell_angle_gamma 90.000000
_cell_volume 3045.658765
_symmetry_space_group_name_H-M "C 2/M"
_symmetry_group_IT_number 12
_symmetry_cell_setting 'monoclinic'
loop_
_space_group_symop_operation_xyz
x,y,z
-x,y,-z
-x,-y,-z
x,-y,z
1/2+x,1/2+y,z
1/2-x,1/2+y,-z
1/2-x,1/2-y,-z
1/2+x,1/2-y,z
loop_
_atom_site_type_symbol
_atom_site_label
_atom_site_fract_x
_atom_site_fract_y
_atom_site_fract_z
Si Si1 0.069369 0.325330 0.008083
Si Si2 0.341983 0.830629 0.293836
Si Si3 0.172956 0.826048 0.134617
Si Si4 0.983316 0.825525 0.864585
Si Si5 0.497820 0.831301 0.706974
Si Si6 0.634102 0.674781 0.554290
Si Si7 0.388242 0.675514 0.541128
O O1 0.055191 0.500000 0.022501
O O2 0.022933 0.248676 0.080693
O O3 0.198508 0.280645 0.932806
O O4 0.000000 0.271274 0.000000
O O5 0.401729 0.727312 0.222405
O O6 0.402762 0.824031 0.310611
O O7 0.219345 0.763423 0.371045
O O8 0.340292 0.000000 0.275671
O O9 0.120462 0.779384 0.112331
O O10 0.113548 0.738916 0.209857
O O11 0.154346 0.000000 0.153117
O O12 0.986705 0.000000 0.870038
O O13 0.534072 0.738399 0.641143
O O14 0.472266 0.000000 0.706182
O O15 0.643913 0.500000 0.557401
O O16 0.750000 0.750000 0.500000
O O17 0.607521 0.719556 0.515669
O O18 0.500000 0.747118 0.500000
O O19 0.385103 0.500000 0.549292
#
# Coordination Sequence:
#
# PCOD8089899 Si02
#       7
#     8   8   8   8   8   8   8
#     4  10  21  38  58  80 108 142 180 216 258 318
#     4   9  17  33  55  78 105 138 180 220 259 314
#     4   9  19  36  57  82 108 137 178 222 263 313
#     4  10  20  34  56  83 108 137 174 220 273 316
#     4  10  19  33  54  83 110 138 178 222 271 316
#     4  11  20  33  55  81 109 141 181 225 270 316
#     4   9  18  34  54  77 104 139 184 226 263 310
#
# _framework density 18.386828000000001
#
# number of rings (size 3 to 8) (size 9 to 14) (size 15 to 20)
#    0.000    2.286    1.429    1.714    0.000    2.000 
#    2.571    0.000    0.000    3.000    0.000    0.000 
#    0.000    0.000    0.000    0.000    0.000    0.000 
#
# Total GULP energy -347173.885359 kJ/mol
# GULP energy per Si atom -12399.067334 kJ/mol
# Density = 1.834498 g / cm^3
# Si number density = 18.386828 Si / 1000 Ang^3
#
#
#
# Elastic Constant Matrix: (Units=GPa)
#
#
# Indices 1 2 3 4 5 6 
#
# 1 117.6233 46.7363 91.0403 0.0001 1.4925 -0.0006
# 2 46.7363 50.2849 48.2857 0.0006 10.0842 -0.0011
# 3 91.0403 48.2857 158.0954 0.0002 4.9388 -0.0009
# 4 0.0001 0.0006 0.0002 34.0852 0.0000 4.3812
# 5 1.4925 10.0842 4.9388 0.0000 28.0442 0.0004
# 6 -0.0006 -0.0011 -0.0009 4.3812 0.0004 21.0769
#
#
#
# Elastic Compliance Matrix: (Units=1/GPa)
#
#
# Indices 1 2 3 4 5 6 
#
# 1 0.018603 -0.010939 -0.007505 0.000000 0.004265 -0.000001
# 2 -0.010939 0.036827 -0.004578 -0.000001 -0.011854 0.000002
# 3 -0.007505 -0.004578 0.012048 0.000000 -0.000076 0.000000
# 4 0.000000 -0.000001 0.000000 0.030144 0.000000 -0.006266
# 5 0.004265 -0.011854 -0.000076 0.000000 0.039707 -0.000001
# 6 -0.000001 0.000002 0.000000 -0.006266 -0.000001 0.048748
#
#
# Mechanical properties :
#
#
# Convention : Reuss Voigt Hill
#
# Bulk Modulus (GPa) = 46.65563 77.56980 62.11272
# Shear Modulus (GPa) = 20.89745 25.97071 23.43408
#
# Velocity S-wave (km/s) = 3.37493 3.76235 3.57389
# Velocity P-wave (km/s) = 6.37310 7.82004 7.13335
#
# Compressibility (1/GPa) = 0.02143364
#
# Stress axis : x y z
#
# Youngs Moduli (GPa) = 53.75567 27.15399 83.00389
#
# Poissons Ratio (x) = 0.29703 0.62292
# Poissons Ratio (y) = 0.58802 0.38001
# Poissons Ratio (z) = 0.40342 0.12432
#
# Static dielectric constant tensor:
#      x y z
#    x 3.408690 0.000000 -0.006410 
#    y 0.000000 3.309880 -0.000010 
#    z -0.006410 -0.000010 4.111950 
# 
# 
# High freq. dielectric constant tensor:
#      x y z
#    x 1.698290 0.000000 0.001190 
#    y 0.000000 1.702010 0.000000 
#    z 0.001190 0.000000 1.727620 
# 
# From -- ./inp_files/362956.got.cif
#   From: 2010.06.25/outbox.cif.g09.slc.cpg/sg12_182_cif.got.tgz:362956.got - 2010.06.28 00:19:55.
