data_PCOD8089903
_publ_section_title
;
Structure prediction by ZEFSAII (Michael W. Deem and Ramdas Pophale) SiO2 
 PCOD8089903
Probable space group: C 2/M
;
_chemical_formula_sum "Si O2"
_cell_formula_units_Z 56
_cell_length_a 20.102801
_cell_length_b 8.923900
_cell_length_c 26.079378
_cell_angle_alpha 90.000000
_cell_angle_beta 141.823902
_cell_angle_gamma 90.000000
_cell_volume 2891.702061
_symmetry_space_group_name_H-M "C 2/M"
_symmetry_group_IT_number 12
_symmetry_cell_setting 'monoclinic'
loop_
_space_group_symop_operation_xyz
x,y,z
-x,y,-z
-x,-y,-z
x,-y,z
1/2+x,1/2+y,z
1/2-x,1/2+y,-z
1/2-x,1/2-y,-z
1/2+x,1/2-y,z
loop_
_atom_site_type_symbol
_atom_site_label
_atom_site_fract_x
_atom_site_fract_y
_atom_site_fract_z
Si Si1 0.730167 0.821342 0.739926
Si Si2 0.841243 0.176738 0.021190
Si Si3 0.726196 0.823510 0.852063
Si Si4 0.507406 0.172562 0.265176
Si Si5 0.013683 0.825274 0.568195
Si Si6 0.360903 0.173681 0.552875
Si Si7 0.933282 0.822663 0.798848
O O1 0.751175 0.761446 0.810515
O O2 0.621965 0.752379 0.652505
O O3 0.830363 0.762400 0.767336
O O4 0.719335 0.000000 0.731491
O O5 0.821062 0.219670 0.949177
O O6 0.833443 0.000000 0.024472
O O7 0.750000 0.250000 0.000000
O O8 0.958311 0.238215 0.108040
O O9 0.613201 0.760052 0.805319
O O10 0.711836 0.000000 0.838679
O O11 0.557675 0.195557 0.351138
O O12 0.574797 0.263631 0.263950
O O13 0.508716 0.000000 0.249095
O O14 0.000000 0.796013 0.500000
O O15 0.910559 0.753008 0.533251
O O16 0.018525 0.000000 0.584483
O O17 0.250000 0.250000 0.500000
O O18 0.341245 0.000000 0.528392
O O19 0.933222 0.000000 0.798167
#
# Coordination Sequence:
#
# PCOD8089903 Si02
#       7
#     8   8   8   8   8   8   8
#     4  10  21  40  60  83 116 153 196 239 290 352
#     4  10  19  33  54  83 115 149 190 238 289 339
#     4   9  17  34  59  81 108 152 194 231 285 345
#     4  10  20  37  60  83 113 154 193 232 284 346
#     4  11  25  43  62  87 119 155 196 242 296 354
#     4  11  24  42  64  91 121 154 196 243 293 349
#     4  10  22  35  55  89 119 148 193 244 287 337
#
# _framework density 19.365758
#
# number of rings (size 3 to 8) (size 9 to 14) (size 15 to 20)
#    0.000    1.857    2.857    0.857    2.000    3.429 
#    0.000    3.571    0.000    0.000    0.000    3.000 
#    0.000    0.000    0.000    0.000    0.000    0.000 
#
# Total GULP energy -347238.254125 kJ/mol
# GULP energy per Si atom -12401.366219 kJ/mol
# Density = 1.932168 g / cm^3
# Si number density = 19.365758 Si / 1000 Ang^3
#
#
#
# Elastic Constant Matrix: (Units=GPa)
#
#
# Indices 1 2 3 4 5 6 
#
# 1 159.5498 40.9292 39.3344 0.0000 6.5476 0.0001
# 2 40.9292 44.5729 29.4229 0.0000 1.5399 0.0004
# 3 39.3344 29.4229 68.6808 0.0000 4.2165 0.0000
# 4 0.0000 0.0000 0.0000 25.7930 0.0000 0.5932
# 5 6.5476 1.5399 4.2165 0.0000 37.0646 0.0000
# 6 0.0001 0.0004 0.0000 0.5932 0.0000 31.3541
#
#
#
# Elastic Compliance Matrix: (Units=1/GPa)
#
#
# Indices 1 2 3 4 5 6 
#
# 1 0.008448 -0.006371 -0.002048 0.000000 -0.000995 0.000000
# 2 -0.006371 0.036088 -0.011871 0.000000 0.000977 0.000000
# 3 -0.002048 -0.011871 0.020912 0.000000 -0.001524 0.000000
# 4 0.000000 0.000000 0.000000 0.038787 0.000000 -0.000734
# 5 -0.000995 0.000977 -0.001524 0.000000 0.027288 0.000000
# 6 0.000000 0.000000 0.000000 -0.000734 0.000000 0.031908
#
#
# Mechanical properties :
#
#
# Convention : Reuss Voigt Hill
#
# Bulk Modulus (GPa) = 40.21281 54.68626 47.44954
# Shear Modulus (GPa) = 23.55161 29.71681 26.63421
#
# Velocity S-wave (km/s) = 3.49111 3.92152 3.71256
# Velocity P-wave (km/s) = 6.08773 6.98601 6.55228
#
# Compressibility (1/GPa) = 0.02486770
#
# Stress axis : x y z
#
# Youngs Moduli (GPa) = 118.37652 27.71015 47.81931
#
# Poissons Ratio (x) = 0.17654 0.09792
# Poissons Ratio (y) = 0.75418 0.56768
# Poissons Ratio (z) = 0.24240 0.32895
#
# Static dielectric constant tensor:
#      x y z
#    x 4.206200 0.000000 0.301050 
#    y 0.000000 3.398590 0.000000 
#    z 0.301050 0.000000 4.046060 
# 
# 
# High freq. dielectric constant tensor:
#      x y z
#    x 1.764950 0.000000 -0.004520 
#    y 0.000000 1.732550 0.000000 
#    z -0.004520 0.000000 1.763690 
# 
# From -- ./inp_files/230985.got.cif
#   From: 2010.06.25/outbox.cif.g09.slc.cpg/sg12_116_cif.got.tgz:230985.got - 2010.06.28 00:19:55.
