data_PCOD8089359
_publ_section_title
;
Structure prediction by ZEFSAII (Michael W. Deem and Ramdas Pophale) SiO2 
 PCOD8089359
Probable space group: C 2/M
;
_chemical_formula_sum "Si O2"
_cell_formula_units_Z 56
_cell_length_a 19.279440
_cell_length_b 8.586617
_cell_length_c 20.182630
_cell_angle_alpha 90.000000
_cell_angle_beta 118.945578
_cell_angle_gamma 90.000000
_cell_volume 2923.761393
_symmetry_space_group_name_H-M "C 2/M"
_symmetry_group_IT_number 12
_symmetry_cell_setting 'monoclinic'
loop_
_space_group_symop_operation_xyz
x,y,z
-x,y,-z
-x,-y,-z
x,-y,z
1/2+x,1/2+y,z
1/2-x,1/2+y,-z
1/2-x,1/2-y,-z
1/2+x,1/2-y,z
loop_
_atom_site_type_symbol
_atom_site_label
_atom_site_fract_x
_atom_site_fract_y
_atom_site_fract_z
Si Si1 0.508519 0.682619 0.380312
Si Si2 0.984450 0.682620 0.089224
Si Si3 0.050802 0.318130 0.778171
Si Si4 0.352375 0.815736 0.365170
Si Si5 0.380359 0.683639 0.934814
Si Si6 0.821455 0.816542 0.490453
Si Si7 0.717318 0.182571 0.803416
O O1 0.499273 0.500000 0.387899
O O2 0.499008 0.721895 0.298418
O O3 0.443644 0.767297 0.396130
O O4 0.594907 0.743166 0.441860
O O5 0.000243 0.500000 0.086941
O O6 0.056128 0.781970 0.092935
O O7 0.978383 0.729042 0.162922
O O8 0.903868 0.729258 0.013653
O O9 0.038522 0.500000 0.757143
O O10 0.143576 0.274798 0.816392
O O11 0.313747 0.738392 0.411387
O O12 0.300342 0.754656 0.278778
O O13 0.348890 0.000000 0.370718
O O14 0.376499 0.500000 0.946576
O O15 0.296636 0.755292 0.871639
O O16 0.750000 0.750000 0.500000
O O17 0.816245 0.000000 0.491136
O O18 0.730322 0.000000 0.804528
#
# Coordination Sequence:
#
# PCOD8089359 Si02
#       7
#     8   8   8   8   8   8   8
#     4  10  21  37  57  81 109 140 177 222 265 312
#     4  10  20  34  51  74 105 136 171 216 261 308
#     4   9  19  36  56  77 103 137 175 216 263 313
#     4  10  20  37  60  82 108 143 178 215 265 321
#     4  10  19  33  53  74 101 138 175 210 255 313
#     4  11  24  39  55  80 112 142 178 223 267 312
#     4   8  17  34  54  77 103 132 171 215 256 303
#
# _framework density 19.153409
#
# number of rings (size 3 to 8) (size 9 to 14) (size 15 to 20)
#    0.000    2.286    0.000    4.286    0.000    6.857 
#    0.000   11.429    0.000    0.000    0.000    0.000 
#    0.000    0.000    0.000    0.000    0.000    0.000 
#
# Total GULP energy -347216.310826 kJ/mol
# GULP energy per Si atom -12400.582529 kJ/mol
# Density = 1.910982 g / cm^3
# Si number density = 19.153409 Si / 1000 Ang^3
#
#
#
# Elastic Constant Matrix: (Units=GPa)
#
#
# Indices 1 2 3 4 5 6 
#
# 1 57.4750 8.8490 18.6326 0.0000 -10.8300 0.0000
# 2 8.8490 37.3893 9.5728 0.0000 -0.3477 0.0000
# 3 18.6326 9.5728 51.9470 0.0000 -4.3187 0.0000
# 4 0.0000 0.0000 0.0000 31.6548 0.0000 -3.7487
# 5 -10.8300 -0.3477 -4.3187 0.0000 41.3653 0.0000
# 6 0.0000 0.0000 0.0000 -3.7487 0.0000 28.3912
#
#
#
# Elastic Compliance Matrix: (Units=1/GPa)
#
#
# Indices 1 2 3 4 5 6 
#
# 1 0.020904 -0.003238 -0.006505 0.000000 0.004767 0.000000
# 2 -0.003238 0.028575 -0.004191 0.000000 -0.001045 0.000000
# 3 -0.006505 -0.004191 0.022406 0.000000 0.000601 0.000000
# 4 0.000000 0.000000 0.000000 0.032093 0.000000 0.004237
# 5 0.004767 -0.001045 0.000601 0.000000 0.025477 0.000000
# 6 0.000000 0.000000 0.000000 0.004237 0.000000 0.035782
#
#
# Mechanical properties :
#
#
# Convention : Reuss Voigt Hill
#
# Bulk Modulus (GPa) = 22.71837 24.54668 23.63252
# Shear Modulus (GPa) = 24.06418 27.59939 25.83178
#
# Velocity S-wave (km/s) = 3.54841 3.80012 3.67642
# Velocity P-wave (km/s) = 5.35493 5.66553 5.51242
#
# Compressibility (1/GPa) = 0.04401725
#
# Stress axis : x y z
#
# Youngs Moduli (GPa) = 47.83682 34.99523 44.63082
#
# Poissons Ratio (x) = 0.11330 0.29033
# Poissons Ratio (y) = 0.15488 0.18707
# Poissons Ratio (z) = 0.31119 0.14668
#
# Static dielectric constant tensor:
#      x y z
#    x 3.199080 0.000000 0.048080 
#    y 0.000000 3.367980 0.000000 
#    z 0.048080 0.000000 3.799240 
# 
# 
# High freq. dielectric constant tensor:
#      x y z
#    x 1.740740 0.000000 -0.001400 
#    y 0.000000 1.738580 0.000000 
#    z -0.001400 0.000000 1.755470 
# 
# From -- ./inp_files/314386.got.cif
#   From: 2010.06.25/outbox.cif.g09.slc.cpg/sg12_158_cif.got.tgz:314386.got - 2010.06.28 00:19:55.
