data_PCOD8089023
_publ_section_title
;
Structure prediction by ZEFSAII (Michael W. Deem and Ramdas Pophale) SiO2 
 PCOD8089023
Probable space group: C 2/M
;
_chemical_formula_sum "Si O2"
_cell_formula_units_Z 48
_cell_length_a 16.805617
_cell_length_b 31.144003
_cell_length_c 8.469237
_cell_angle_alpha 90.000000
_cell_angle_beta 33.844231
_cell_angle_gamma 90.000000
_cell_volume 2468.761936
_symmetry_space_group_name_H-M "C 2/M"
_symmetry_group_IT_number 12
_symmetry_cell_setting 'monoclinic'
loop_
_space_group_symop_operation_xyz
x,y,z
-x,y,-z
-x,-y,-z
x,-y,z
1/2+x,1/2+y,z
1/2-x,1/2+y,-z
1/2-x,1/2-y,-z
1/2+x,1/2-y,z
loop_
_atom_site_type_symbol
_atom_site_label
_atom_site_fract_x
_atom_site_fract_y
_atom_site_fract_z
Si Si1 0.555400 0.354304 0.085989
Si Si2 0.737833 0.618569 0.322868
Si Si3 0.039603 0.316258 0.115996
Si Si4 0.834733 0.387182 0.520927
Si Si5 0.055587 0.547908 0.086731
Si Si6 0.599937 0.732181 0.190144
O O1 0.433906 0.376620 0.395091
O O2 0.612272 0.309747 0.061730
O O3 0.500000 0.345692 0.000000
O O4 0.690947 0.386786 0.862959
O O5 0.794073 0.614950 0.406044
O O6 0.803911 0.661072 0.130143
O O7 0.797038 0.575421 0.139490
O O8 0.028980 0.269187 0.203327
O O9 0.929146 0.344952 0.398945
O O10 0.000000 0.312889 0.000000
O O11 0.929877 0.429603 0.397847
O O12 0.084041 0.500000 0.104699
O O13 0.000000 0.546263 0.000000
O O14 0.500000 0.720322 0.500000
O O15 0.750000 0.750000 0.000000
#
# Coordination Sequence:
#
# PCOD8089023 Si02
#       6
#     8   8   8   8   8   8
#     4  10  19  33  49  66  94 132 167 196 234 284
#     4   8  15  27  46  68  90 123 164 195 226 282
#     4   9  17  33  51  65  88 129 171 196 227 282
#     4   8  15  27  46  68  90 122 162 196 227 280
#     4   8  13  24  43  69 100 126 148 187 243 288
#     4  12  24  34  46  70 100 124 159 208 249 279
#
# _framework density 19.442943
#
# number of rings (size 3 to 8) (size 9 to 14) (size 15 to 20)
#    0.000    2.833    0.000    4.500    0.000    0.000 
#    0.000    7.500    0.000    5.000    0.000    0.000 
#    0.000   84.000    0.000    0.000    0.000    0.000 
#
# Total GULP energy -297396.977544 kJ/mol
# GULP energy per Si atom -12391.540731 kJ/mol
# Density = 1.939869 g / cm^3
# Si number density = 19.442943 Si / 1000 Ang^3
#
#
#
# Elastic Constant Matrix: (Units=GPa)
#
#
# Indices 1 2 3 4 5 6 
#
# 1 26.1029 22.4944 28.4533 0.0000 -10.8985 0.0000
# 2 22.4944 144.1335 61.0897 0.0000 -11.4163 0.0000
# 3 28.4533 61.0897 152.2228 0.0000 -27.8403 0.0000
# 4 0.0000 0.0000 0.0000 15.2823 0.0000 -9.1863
# 5 -10.8985 -11.4163 -27.8403 0.0000 21.8881 0.0000
# 6 0.0000 0.0000 0.0000 -9.1863 0.0000 5.3184
#
#
#
# Elastic Compliance Matrix: (Units=1/GPa)
#
#
# Indices 1 2 3 4 5 6 
#
# 1 0.056043 -0.005151 -0.004947 0.000000 0.018926 0.000000
# 2 -0.005151 0.008834 -0.002878 0.000000 -0.001618 0.000000
# 3 -0.004947 -0.002878 0.010326 0.000000 0.009170 0.000000
# 4 0.000000 0.000000 0.000000 -1.710134 0.000000 -2.953841
# 5 0.018926 -0.001618 0.009170 0.000000 0.065930 0.000000
# 6 0.000000 0.000000 0.000000 -2.953841 0.000000 -4.914016
#
#
# Mechanical properties :
#
#
# Convention : Reuss Voigt Hill
#
# Bulk Modulus (GPa) = 20.30413 60.72600 40.51507
# Shear Modulus (GPa) = -0.77632 22.52589 10.87478
#
# Velocity S-wave (km/s) = -0.63257 3.40746 2.36756
# Velocity P-wave (km/s) = 3.15152 6.83972 5.32512
#
# Compressibility (1/GPa) = 0.04925106
#
# Stress axis : x y z
#
# Youngs Moduli (GPa) = 17.84342 113.20390 96.84103
#
# Poissons Ratio (x) = 0.58307 0.47907
# Poissons Ratio (y) = 0.09190 0.27874
# Poissons Ratio (z) = 0.08827 0.32583
#
# Static dielectric constant tensor:
#      x y z
#    x 3.153220 0.000000 -0.169750 
#    y 0.000000 3.749320 0.000000 
#    z -0.169750 0.000000 3.890960 
# 
# 
# High freq. dielectric constant tensor:
#      x y z
#    x 1.718730 0.000000 -0.009930 
#    y 0.000000 1.743440 0.000000 
#    z -0.009930 0.000000 1.765300 
# 
# From -- ./inp_files/80585.got.cif
#   From: 2010.06.25/outbox.cif.g09.slc.cpg/sg12_41_cif.got.tgz:80585.got - 2010.06.28 00:19:55.
