data_PCOD8089235
_publ_section_title
;
Structure prediction by ZEFSAII (Michael W. Deem and Ramdas Pophale) SiO2 
 PCOD8089235
Probable space group: C 2/M
;
_chemical_formula_sum "Si O2"
_cell_formula_units_Z 64
_cell_length_a 14.166852
_cell_length_b 8.887707
_cell_length_c 29.186848
_cell_angle_alpha 90.000000
_cell_angle_beta 74.650503
_cell_angle_gamma 90.000000
_cell_volume 3543.851831
_symmetry_space_group_name_H-M "C 2/M"
_symmetry_group_IT_number 12
_symmetry_cell_setting 'monoclinic'
loop_
_space_group_symop_operation_xyz
x,y,z
-x,y,-z
-x,-y,-z
x,-y,z
1/2+x,1/2+y,z
1/2-x,1/2+y,-z
1/2-x,1/2-y,-z
1/2+x,1/2-y,z
loop_
_atom_site_type_symbol
_atom_site_label
_atom_site_fract_x
_atom_site_fract_y
_atom_site_fract_z
Si Si1 0.279124 0.176545 0.126630
Si Si2 0.343748 0.174575 0.617209
Si Si3 0.608025 0.821627 0.799716
Si Si4 0.260114 0.824991 0.449943
Si Si5 0.026254 0.322689 0.945703
Si Si6 0.932299 0.820702 0.872028
Si Si7 0.652924 0.325101 0.699126
Si Si8 0.450209 0.824195 0.368605
O O1 0.313093 0.232003 0.172478
O O2 0.361162 0.222217 0.078725
O O3 0.174811 0.246096 0.126478
O O4 0.266370 0.000000 0.129272
O O5 0.323390 0.263691 0.573192
O O6 0.259953 0.207837 0.665060
O O7 0.446401 0.230374 0.624615
O O8 0.348147 0.000000 0.603674
O O9 0.504618 0.745487 0.824504
O O10 0.646609 0.768948 0.746080
O O11 0.593697 0.000000 0.802308
O O12 0.250000 0.750000 0.500000
O O13 0.367423 0.787353 0.416630
O O14 0.242978 0.000000 0.458065
O O15 0.009485 0.500000 0.940806
O O16 0.956233 0.235665 0.919827
O O17 0.000000 0.269794 0.000000
O O18 0.937259 0.000000 0.870033
O O19 0.636083 0.500000 0.711503
O O20 0.569654 0.269212 0.674883
O O21 0.451534 0.000000 0.355742
#
# Coordination Sequence:
#
# PCOD8089235 Si02
#       8
#     8   8   8   8   8   8   8   8
#     4   8  17  33  51  72 100 133 165 203 250 295
#     4   9  19  36  55  75 102 133 169 210 250 297
#     4  10  20  36  54  72 100 136 169 200 245 305
#     4  10  20  34  53  76 104 136 171 209 252 299
#     4   9  18  34  53  73 101 136 169 200 244 304
#     4  10  19  33  52  75 102 129 166 213 253 289
#     4  10  20  34  53  78 104 129 163 210 254 292
#     4   9  19  36  55  75 101 136 171 204 248 302
#
# _framework density 18.059446000000001
#
# number of rings (size 3 to 8) (size 9 to 14) (size 15 to 20)
#    0.000    2.625    0.000    2.250    0.000    3.750 
#    0.000   11.250    0.000    0.000    0.000    0.000 
#    0.000    0.000    0.000    0.000    0.000    0.000 
#
# Total GULP energy -396834.186900 kJ/mol
# GULP energy per Si atom -12401.068341 kJ/mol
# Density = 1.801834 g / cm^3
# Si number density = 18.059446 Si / 1000 Ang^3
#
#
#
# Elastic Constant Matrix: (Units=GPa)
#
#
# Indices 1 2 3 4 5 6 
#
# 1 151.8577 39.1736 54.5675 0.0000 9.6665 0.0000
# 2 39.1736 62.7962 45.4756 0.0000 3.4476 0.0000
# 3 54.5675 45.4756 128.7960 0.0000 4.2964 0.0000
# 4 0.0000 0.0000 0.0000 33.9662 0.0000 3.2355
# 5 9.6665 3.4476 4.2964 0.0000 13.0862 0.0000
# 6 0.0000 0.0000 0.0000 3.2355 0.0000 26.1849
#
#
#
# Elastic Compliance Matrix: (Units=1/GPa)
#
#
# Indices 1 2 3 4 5 6 
#
# 1 0.008589 -0.003465 -0.002259 0.000000 -0.004690 0.000000
# 2 -0.003465 0.022925 -0.006583 0.000000 -0.001319 0.000000
# 3 -0.002259 -0.006583 0.011053 0.000000 -0.000226 0.000000
# 4 0.000000 0.000000 0.000000 0.029792 0.000000 -0.003681
# 5 -0.004690 -0.001319 -0.000226 0.000000 0.080303 0.000000
# 6 0.000000 0.000000 0.000000 -0.003681 0.000000 0.038645
#
#
# Mechanical properties :
#
#
# Convention : Reuss Voigt Hill
#
# Bulk Modulus (GPa) = 55.69583 69.09813 62.39698
# Shear Modulus (GPa) = 22.53218 28.26301 25.39759
#
# Velocity S-wave (km/s) = 3.53607 3.96030 3.75418
# Velocity P-wave (km/s) = 6.89775 7.69782 7.30874
#
# Compressibility (1/GPa) = 0.01795467
#
# Stress axis : x y z
#
# Youngs Moduli (GPa) = 116.42491 43.62014 90.47173
#
# Poissons Ratio (x) = 0.15112 0.20440
# Poissons Ratio (y) = 0.40335 0.59554
# Poissons Ratio (z) = 0.26304 0.28714
#
# Static dielectric constant tensor:
#      x y z
#    x 3.587990 0.000000 0.019060 
#    y 0.000000 3.258950 0.000000 
#    z 0.019060 0.000000 3.347130 
# 
# 
# High freq. dielectric constant tensor:
#      x y z
#    x 1.703060 0.000000 0.002080 
#    y 0.000000 1.694510 0.000000 
#    z 0.002080 0.000000 1.702330 
# 
# From -- ./inp_files/359813.got.cif
#   From: 2010.06.25/outbox.cif.g09.slc.cpg/sg12_180_cif.got.tgz:359813.got - 2010.06.28 00:19:55.
