data_PCOD8089203
_publ_section_title
;
Structure prediction by ZEFSAII (Michael W. Deem and Ramdas Pophale) SiO2 
 PCOD8089203
Probable space group: C 2/M
;
_chemical_formula_sum "Si O2"
_cell_formula_units_Z 48
_cell_length_a 16.077358
_cell_length_b 9.433836
_cell_length_c 21.279946
_cell_angle_alpha 90.000000
_cell_angle_beta 51.775894
_cell_angle_gamma 90.000000
_cell_volume 2535.555634
_symmetry_space_group_name_H-M "C 2/M"
_symmetry_group_IT_number 12
_symmetry_cell_setting 'monoclinic'
loop_
_space_group_symop_operation_xyz
x,y,z
-x,y,-z
-x,-y,-z
x,-y,z
1/2+x,1/2+y,z
1/2-x,1/2+y,-z
1/2-x,1/2-y,-z
1/2+x,1/2-y,z
loop_
_atom_site_type_symbol
_atom_site_label
_atom_site_fract_x
_atom_site_fract_y
_atom_site_fract_z
Si Si1 0.387391 0.335016 0.824657
Si Si2 0.386862 0.842629 0.586153
Si Si3 0.320117 0.342468 0.510956
Si Si4 0.829047 0.167874 0.092628
Si Si5 0.045914 0.155456 0.341119
Si Si6 0.484104 0.666728 0.908634
O O1 0.359296 0.500000 0.849075
O O2 0.280192 0.251818 0.859195
O O3 0.463600 0.313241 0.728686
O O4 0.450601 0.271954 0.855663
O O5 0.500000 0.852072 0.500000
O O6 0.316220 0.733622 0.580028
O O7 0.388564 0.780607 0.655955
O O8 0.336060 0.000000 0.612698
O O9 0.273005 0.500000 0.541170
O O10 0.250000 0.250000 0.500000
O O11 0.433799 0.349521 0.426698
O O12 0.900799 0.218826 0.119183
O O13 0.806454 0.000000 0.106181
O O14 0.892704 0.208976 0.000064
O O15 0.099723 0.000000 0.325567
O O16 0.492960 0.500000 0.899574
#
# Coordination Sequence:
#
# PCOD8089203 Si02
#       6
#     8   8   8   8   8   8
#     4  10  19  33  52  75 106 140 172 211 265 317
#     4   9  17  31  52  73  93 122 164 207 248 298
#     4  10  19  33  52  74 100 133 171 211 255 306
#     4   9  17  32  53  77 102 136 182 219 255 304
#     4   9  19  34  50  70 101 135 167 204 259 318
#     4   8  16  32  53  74 103 141 177 214 256 313
#
# _framework density 18.930761
#
# number of rings (size 3 to 8) (size 9 to 14) (size 15 to 20)
#    0.000    2.833    0.000    2.500    0.000    3.333 
#    3.000    2.500    0.000    0.000    0.000    0.000 
#    0.000    0.000    0.000    0.000    0.000    0.000 
#
# Total GULP energy -297363.641808 kJ/mol
# GULP energy per Si atom -12390.151742 kJ/mol
# Density = 1.888767 g / cm^3
# Si number density = 18.930761 Si / 1000 Ang^3
#
#
#
# Elastic Constant Matrix: (Units=GPa)
#
#
# Indices 1 2 3 4 5 6 
#
# 1 121.2693 52.9968 36.5649 0.0000 36.1951 0.0000
# 2 52.9968 113.6817 25.7273 0.0000 20.9428 0.0001
# 3 36.5649 25.7273 61.2819 0.0000 33.7640 0.0000
# 4 0.0000 0.0000 0.0000 19.2015 0.0000 0.8104
# 5 36.1951 20.9428 33.7640 0.0000 29.0745 0.0000
# 6 0.0000 0.0001 0.0000 0.8104 0.0000 35.5375
#
#
#
# Elastic Compliance Matrix: (Units=1/GPa)
#
#
# Indices 1 2 3 4 5 6 
#
# 1 0.014858 -0.004114 0.003943 0.000000 -0.020113 0.000000
# 2 -0.004114 0.011291 -0.001739 0.000000 -0.000992 0.000000
# 3 0.003943 -0.001739 0.046394 0.000000 -0.057533 0.000000
# 4 0.000000 0.000000 0.000000 0.052129 0.000000 -0.001189
# 5 -0.020113 -0.000992 -0.057533 0.000000 0.126960 0.000000
# 6 0.000000 0.000000 0.000000 -0.001189 0.000000 0.028166
#
#
# Mechanical properties :
#
#
# Convention : Reuss Voigt Hill
#
# Bulk Modulus (GPa) = 14.55106 58.53455 36.54280
# Shear Modulus (GPa) = 16.31191 28.82562 22.56876
#
# Velocity S-wave (km/s) = 2.93859 3.90640 3.45653
# Velocity P-wave (km/s) = 4.38371 7.16478 5.93932
#
# Compressibility (1/GPa) = 0.06872353
#
# Stress axis : x y z
#
# Youngs Moduli (GPa) = 67.30388 88.56964 21.55468
#
# Poissons Ratio (x) = 0.36435 -0.08499
# Poissons Ratio (y) = 0.27687 0.03748
# Poissons Ratio (z) = -0.26538 0.15399
#
# Static dielectric constant tensor:
#      x y z
#    x 3.045050 0.000000 0.706820 
#    y 0.000000 3.538420 0.000000 
#    z 0.706820 0.000000 3.405890 
# 
# 
# High freq. dielectric constant tensor:
#      x y z
#    x 1.732250 0.000000 0.024490 
#    y 0.000000 1.725080 0.000000 
#    z 0.024490 0.000000 1.718540 
# 
# From -- ./inp_files/313620.got.cif
#   From: 2010.06.25/outbox.cif.g09.slc.cpg/sg12_157_cif.got.tgz:313620.got - 2010.06.28 00:19:55.
