data_PCOD8089326
_publ_section_title
;
Structure prediction by ZEFSAII (Michael W. Deem and Ramdas Pophale) SiO2 
 PCOD8089326
Probable space group: C 2/M
;
_chemical_formula_sum "Si O2"
_cell_formula_units_Z 48
_cell_length_a 23.322501
_cell_length_b 18.947514
_cell_length_c 10.649980
_cell_angle_alpha 90.000000
_cell_angle_beta 33.865988
_cell_angle_gamma 90.000000
_cell_volume 2622.575605
_symmetry_space_group_name_H-M "C 2/M"
_symmetry_group_IT_number 12
_symmetry_cell_setting 'monoclinic'
loop_
_space_group_symop_operation_xyz
x,y,z
-x,y,-z
-x,-y,-z
x,-y,z
1/2+x,1/2+y,z
1/2-x,1/2+y,-z
1/2-x,1/2-y,-z
1/2+x,1/2-y,z
loop_
_atom_site_type_symbol
_atom_site_label
_atom_site_fract_x
_atom_site_fract_y
_atom_site_fract_z
Si Si1 0.146023 0.421339 0.906754
Si Si2 0.784632 0.283973 0.128401
Si Si3 0.107919 0.709490 0.331745
Si Si4 0.616077 0.281265 0.810546
Si Si5 0.430014 0.081375 0.432810
Si Si6 0.312925 0.138944 0.423307
O O1 0.179987 0.500000 0.883411
O O2 0.230144 0.364831 0.800798
O O3 0.143246 0.414505 0.761350
O O4 0.035722 0.402101 0.167064
O O5 0.672161 0.248066 0.325350
O O6 0.857961 0.242357 0.093036
O O7 0.830486 0.288122 0.907730
O O8 0.081662 0.629308 0.422147
O O9 0.000000 0.749060 0.500000
O O10 0.632020 0.215136 0.688267
O O11 0.690186 0.346314 0.637079
O O12 0.500000 0.307969 0.000000
O O13 0.336317 0.101464 0.511939
O O14 0.422502 0.000000 0.488658
#
# Coordination Sequence:
#
# PCOD8089326 Si02
#       6
#     8   8   8   8   8   8
#     4  10  20  34  56  84 114 147 184 228 286 343
#     4  10  21  37  55  83 111 147 187 231 281 326
#     4  11  22  36  57  81 114 147 190 231 272 331
#     4  10  20  33  58  84 111 144 189 237 282 334
#     4  11  21  35  56  84 118 149 184 230 286 339
#     4  10  19  33  52  84 116 144 185 230 286 334
#
# _framework density 18.302619
#
# number of rings (size 3 to 8) (size 9 to 14) (size 15 to 20)
#    0.000    1.667    3.333    3.000    0.000    2.333 
#    0.000    0.000    0.000    2.500    0.000    0.000 
#    0.000    0.000    0.000    0.000    0.000    0.000 
#
# Total GULP energy -297479.236549 kJ/mol
# GULP energy per Si atom -12394.968190 kJ/mol
# Density = 1.826096 g / cm^3
# Si number density = 18.302619 Si / 1000 Ang^3
#
#
#
# Elastic Constant Matrix: (Units=GPa)
#
#
# Indices 1 2 3 4 5 6 
#
# 1 92.0188 29.3768 34.1854 0.0000 -15.6020 0.0000
# 2 29.3768 89.5000 36.9537 0.0000 -13.9039 0.0000
# 3 34.1854 36.9537 87.8749 0.0000 -12.6372 0.0000
# 4 0.0000 0.0000 0.0000 25.0148 0.0000 2.6581
# 5 -15.6020 -13.9039 -12.6372 0.0000 34.3101 0.0000
# 6 0.0000 0.0000 0.0000 2.6581 0.0000 16.2302
#
#
#
# Elastic Compliance Matrix: (Units=1/GPa)
#
#
# Indices 1 2 3 4 5 6 
#
# 1 0.013673 -0.002322 -0.003784 0.000000 0.003883 0.000000
# 2 -0.002322 0.014344 -0.004693 0.000000 0.003028 0.000000
# 3 -0.003784 -0.004693 0.015105 0.000000 0.001941 0.000000
# 4 0.000000 0.000000 0.000000 0.040684 0.000000 -0.006663
# 5 0.003883 0.003028 0.001941 0.000000 0.032853 0.000000
# 6 0.000000 0.000000 0.000000 -0.006663 0.000000 0.062705
#
#
# Mechanical properties :
#
#
# Convention : Reuss Voigt Hill
#
# Bulk Modulus (GPa) = 46.46359 52.26950 49.36655
# Shear Modulus (GPa) = 24.02275 26.36956 25.19616
#
# Velocity S-wave (km/s) = 3.62682 3.79984 3.71434
# Velocity P-wave (km/s) = 6.55590 6.91898 6.73988
#
# Compressibility (1/GPa) = 0.02152223
#
# Stress axis : x y z
#
# Youngs Moduli (GPa) = 73.13762 69.71791 66.20532
#
# Poissons Ratio (x) = 0.16190 0.25053
# Poissons Ratio (y) = 0.16985 0.31070
# Poissons Ratio (z) = 0.27676 0.32718
#
# Static dielectric constant tensor:
#      x y z
#    x 3.578270 0.000000 -0.028460 
#    y 0.000000 3.342740 0.000000 
#    z -0.028460 0.000000 3.463320 
# 
# 
# High freq. dielectric constant tensor:
#      x y z
#    x 1.720130 0.000000 0.012890 
#    y 0.000000 1.687690 0.000000 
#    z 0.012890 0.000000 1.698520 
# 
# From -- ./inp_files/131214.got.cif
#   From: 2010.06.25/outbox.cif.g09.slc.cpg/sg12_66_cif.got.tgz:131214.got - 2010.06.28 00:19:55.
