data_PCOD8089255
_publ_section_title
;
Structure prediction by ZEFSAII (Michael W. Deem and Ramdas Pophale) SiO2 
 PCOD8089255
Probable space group: C 2/M
;
_chemical_formula_sum "Si O2"
_cell_formula_units_Z 48
_cell_length_a 23.517552
_cell_length_b 8.913403
_cell_length_c 17.453988
_cell_angle_alpha 90.000000
_cell_angle_beta 47.479795
_cell_angle_gamma 90.000000
_cell_volume 2696.626674
_symmetry_space_group_name_H-M "C 2/M"
_symmetry_group_IT_number 12
_symmetry_cell_setting 'monoclinic'
loop_
_space_group_symop_operation_xyz
x,y,z
-x,y,-z
-x,-y,-z
x,-y,z
1/2+x,1/2+y,z
1/2-x,1/2+y,-z
1/2-x,1/2-y,-z
1/2+x,1/2-y,z
loop_
_atom_site_type_symbol
_atom_site_label
_atom_site_fract_x
_atom_site_fract_y
_atom_site_fract_z
Si Si1 0.538661 0.822467 0.194269
Si Si2 0.867691 0.676334 0.393270
Si Si3 0.563724 0.821443 0.999129
Si Si4 0.238007 0.822807 0.393347
Si Si5 0.190244 0.822398 0.113704
Si Si6 0.230095 0.322545 0.804184
O O1 0.455462 0.771861 0.301160
O O2 0.543929 0.767970 0.102226
O O3 0.604121 0.738036 0.182275
O O4 0.551501 0.000000 0.189832
O O5 0.862658 0.500000 0.409258
O O6 0.836934 0.753298 0.498275
O O7 0.815891 0.725359 0.367429
O O8 0.564102 0.000000 0.994638
O O9 0.500000 0.754302 0.000000
O O10 0.646185 0.754702 0.899671
O O11 0.241552 0.758731 0.303480
O O12 0.228272 0.000000 0.402496
O O13 0.212334 0.776351 0.180254
O O14 0.193778 0.000000 0.098579
O O15 0.250000 0.750000 0.000000
O O16 0.222653 0.500000 0.804721
#
# Coordination Sequence:
#
# PCOD8089255 Si02
#       6
#     8   8   8   8   8   8
#     4  10  19  33  52  76 103 133 171 211 252 303
#     4   9  18  32  52  78 105 132 165 207 257 306
#     4   9  15  25  47  76 100 123 159 209 254 293
#     4   9  17  32  54  77 101 132 169 210 253 299
#     4  11  21  35  53  74 102 137 173 210 254 302
#     4   9  17  30  49  74  99 127 170 211 245 294
#
# _framework density 17.800018000000001
#
# number of rings (size 3 to 8) (size 9 to 14) (size 15 to 20)
#    0.000    2.500    1.667    1.500    0.000    4.667 
#    0.000    2.500    0.000    5.500    0.000    0.000 
#    0.000    0.000    0.000    0.000    0.000    0.000 
#
# Total GULP energy -297576.045966 kJ/mol
# GULP energy per Si atom -12399.001915 kJ/mol
# Density = 1.775950 g / cm^3
# Si number density = 17.800018 Si / 1000 Ang^3
#
#
#
# Elastic Constant Matrix: (Units=GPa)
#
#
# Indices 1 2 3 4 5 6 
#
# 1 161.6628 34.5001 102.1324 0.0000 0.0393 0.0004
# 2 34.5001 26.5477 36.0123 0.0013 0.8170 0.0001
# 3 102.1324 36.0123 179.8408 0.0003 1.8965 -0.0003
# 4 0.0000 0.0013 0.0003 27.2566 -0.0004 -2.4191
# 5 0.0393 0.8170 1.8965 -0.0004 31.5649 0.0000
# 6 0.0004 0.0001 -0.0003 -2.4191 0.0000 25.2342
#
#
#
# Elastic Compliance Matrix: (Units=1/GPa)
#
#
# Indices 1 2 3 4 5 6 
#
# 1 0.010707 -0.007789 -0.004526 0.000000 0.000460 0.000000
# 2 -0.007789 0.057399 -0.007059 -0.000003 -0.001052 0.000000
# 3 -0.004526 -0.007059 0.009548 0.000000 -0.000385 0.000000
# 4 0.000000 -0.000003 0.000000 0.037003 0.000000 0.003547
# 5 0.000460 -0.001052 -0.000385 0.000000 0.031731 0.000000
# 6 0.000000 0.000000 0.000000 0.003547 0.000000 0.039969
#
#
# Mechanical properties :
#
#
# Convention : Reuss Voigt Hill
#
# Bulk Modulus (GPa) = 25.70305 79.26009 52.48157
# Shear Modulus (GPa) = 21.00187 29.83824 25.42006
#
# Velocity S-wave (km/s) = 3.43866 4.09871 3.78311
# Velocity P-wave (km/s) = 5.49883 8.18682 6.97356
#
# Compressibility (1/GPa) = 0.03890589
#
# Stress axis : x y z
#
# Youngs Moduli (GPa) = 93.39625 17.42189 104.73153
#
# Poissons Ratio (x) = 0.13571 0.47398
# Poissons Ratio (y) = 0.72751 0.73931
# Poissons Ratio (z) = 0.42268 0.12298
#
# Static dielectric constant tensor:
#      x y z
#    x 3.474280 0.000000 0.042280 
#    y 0.000000 2.938840 0.000000 
#    z 0.042280 0.000000 3.438080 
# 
# 
# High freq. dielectric constant tensor:
#      x y z
#    x 1.693010 0.000000 0.000670 
#    y 0.000000 1.651450 0.000000 
#    z 0.000670 0.000000 1.694580 
# 
# From -- ./inp_files/280790.got.cif
#   From: 2010.06.25/outbox.cif.g09.slc.cpg/sg12_141_cif.got.tgz:280790.got - 2010.06.28 00:19:55.
