data_PCOD8089697
_publ_section_title
;
Structure prediction by ZEFSAII (Michael W. Deem and Ramdas Pophale) SiO2 
 PCOD8089697
Probable space group: C 2/M
;
_chemical_formula_sum "Si O2"
_cell_formula_units_Z 56
_cell_length_a 31.231026
_cell_length_b 13.152632
_cell_length_c 7.746959
_cell_angle_alpha 90.000000
_cell_angle_beta 62.919935
_cell_angle_gamma 90.000000
_cell_volume 2833.357050
_symmetry_space_group_name_H-M "C 2/M"
_symmetry_group_IT_number 12
_symmetry_cell_setting 'monoclinic'
loop_
_space_group_symop_operation_xyz
x,y,z
-x,y,-z
-x,-y,-z
x,-y,z
1/2+x,1/2+y,z
1/2-x,1/2+y,-z
1/2-x,1/2-y,-z
1/2+x,1/2-y,z
loop_
_atom_site_type_symbol
_atom_site_label
_atom_site_fract_x
_atom_site_fract_y
_atom_site_fract_z
Si Si1 0.553278 0.792691 0.692543
Si Si2 0.120929 0.890405 0.962139
Si Si3 0.693311 0.739069 0.257897
Si Si4 0.884062 0.888667 0.426210
Si Si5 0.112679 0.386518 0.289639
Si Si6 0.725250 0.619285 0.885828
Si Si7 0.559720 0.203352 0.081761
O O1 0.570605 0.680292 0.600462
O O2 0.576910 0.872954 0.518821
O O3 0.496515 0.795964 0.778611
O O4 0.570039 0.817365 0.859451
O O5 0.111104 0.908012 0.782230
O O6 0.175490 0.852498 0.884467
O O7 0.114135 0.000000 0.070331
O O8 0.082411 0.810349 0.104716
O O9 0.665080 0.672810 0.450141
O O10 0.656098 0.806105 0.213361
O O11 0.731224 0.815761 0.280679
O O12 0.721644 0.657149 0.089801
O O13 0.884812 0.000000 0.518409
O O14 0.134008 0.500000 0.262164
O O15 0.084106 0.380093 0.159971
O O16 0.737287 0.500000 0.853729
#
# Coordination Sequence:
#
# PCOD8089697 Si02
#       7
#     8   8   8   8   8   8   8
#     4   9  21  35  55  80 110 141 177 226 265 316
#     4   9  18  33  55  79 106 138 175 216 265 319
#     4  10  20  34  53  77 106 138 173 221 262 318
#     4   9  18  34  54  78 107 142 174 213 266 317
#     4  11  22  37  56  78 106 142 183 224 268 320
#     4  10  19  33  54  78 103 136 174 216 266 318
#     4  10  19  37  55  79 110 142 179 220 271 314
#
# _framework density 19.764541000000001
#
# number of rings (size 3 to 8) (size 9 to 14) (size 15 to 20)
#    0.000    2.286    1.429    1.286    0.000    2.857 
#    0.000    4.286    0.000    2.571    0.000    0.000 
#    0.000    0.000    0.000    0.000    0.000    0.000 
#
# Total GULP energy -346988.776951 kJ/mol
# GULP energy per Si atom -12392.456320 kJ/mol
# Density = 1.971956 g / cm^3
# Si number density = 19.764541 Si / 1000 Ang^3
#
#
#
# Elastic Constant Matrix: (Units=GPa)
#
#
# Indices 1 2 3 4 5 6 
#
# 1 63.6343 8.0024 -1.0072 0.0000 -0.2050 0.0000
# 2 8.0024 93.4820 19.1252 0.0000 0.8911 0.0000
# 3 -1.0072 19.1252 51.6695 0.0000 -3.5723 0.0000
# 4 0.0000 0.0000 0.0000 19.5005 0.0000 -3.6247
# 5 -0.2050 0.8911 -3.5723 0.0000 23.0528 0.0000
# 6 0.0000 0.0000 0.0000 -3.6247 0.0000 19.5904
#
#
#
# Elastic Compliance Matrix: (Units=1/GPa)
#
#
# Indices 1 2 3 4 5 6 
#
# 1 0.015926 -0.001552 0.000909 0.000000 0.000342 0.000000
# 2 -0.001552 0.011754 -0.004461 0.000000 -0.001159 0.000000
# 3 0.000909 -0.004461 0.021263 0.000000 0.003476 0.000000
# 4 0.000000 0.000000 0.000000 0.053107 0.000000 0.009826
# 5 0.000342 -0.001159 0.003476 0.000000 0.043965 0.000000
# 6 0.000000 0.000000 0.000000 0.009826 0.000000 0.052864
#
#
# Mechanical properties :
#
#
# Convention : Reuss Voigt Hill
#
# Bulk Modulus (GPa) = 25.81789 29.00296 27.41043
# Shear Modulus (GPa) = 22.52263 24.60642 23.56453
#
# Velocity S-wave (km/s) = 3.37938 3.53225 3.45666
# Velocity P-wave (km/s) = 5.32147 5.59838 5.46168
#
# Compressibility (1/GPa) = 0.03873283
#
# Stress axis : x y z
#
# Youngs Moduli (GPa) = 62.79237 85.07832 47.03004
#
# Poissons Ratio (x) = 0.13208 -0.04274
# Poissons Ratio (y) = 0.09748 0.20980
# Poissons Ratio (z) = -0.05706 0.37954
#
# Static dielectric constant tensor:
#      x y z
#    x 3.581100 0.000000 -0.101700 
#    y 0.000000 4.125220 0.000000 
#    z -0.101700 0.000000 3.482350 
# 
# 
# High freq. dielectric constant tensor:
#      x y z
#    x 1.765130 0.000000 -0.008530 
#    y 0.000000 1.775820 0.000000 
#    z -0.008530 0.000000 1.756390 
# 
# From -- ./inp_files/110359.got.cif
#   From: 2010.06.25/outbox.cif.g09.slc.cpg/sg12_56_cif.got.tgz:110359.got - 2010.06.28 00:19:55.
