data_PCOD8089375
_publ_section_title
;
Structure prediction by ZEFSAII (Michael W. Deem and Ramdas Pophale) SiO2 
 PCOD8089375
Probable space group: C 2/M
;
_chemical_formula_sum "Si O2"
_cell_formula_units_Z 24
_cell_length_a 13.587661
_cell_length_b 9.417047
_cell_length_c 15.334664
_cell_angle_alpha 90.000000
_cell_angle_beta 141.389519
_cell_angle_gamma 90.000000
_cell_volume 1224.430074
_symmetry_space_group_name_H-M "C 2/M"
_symmetry_group_IT_number 12
_symmetry_cell_setting 'monoclinic'
loop_
_space_group_symop_operation_xyz
x,y,z
-x,y,-z
-x,-y,-z
x,-y,z
1/2+x,1/2+y,z
1/2-x,1/2+y,-z
1/2-x,1/2-y,-z
1/2+x,1/2-y,z
loop_
_atom_site_type_symbol
_atom_site_label
_atom_site_fract_x
_atom_site_fract_y
_atom_site_fract_z
Si Si1 0.290798 0.802031 0.712544
Si Si2 0.049738 0.500000 0.934829
Si Si3 0.662710 0.500000 0.767199
Si Si4 0.690729 0.500000 0.496545
Si Si5 0.681628 0.000000 0.598260
O O1 0.276697 0.633370 0.703409
O O2 0.473158 0.858744 0.837464
O O3 0.202541 0.861217 0.736991
O O4 0.207606 0.859916 0.567397
O O5 0.240561 0.500000 0.072767
O O6 0.000000 0.500000 0.000000
O O7 0.480724 0.500000 0.667205
O O8 0.816455 0.500000 0.505442
O O9 0.500000 0.000000 0.500000
#
# Coordination Sequence:
#
# PCOD8089375 Si02
#       5
#     8   4   4   4   4
#     4   9  18  33  53  76 100 129 164 203 245 294
#     4   7  15  33  55  73  96 132 166 195 239 303
#     4   9  16  35  58  73  94 134 170 197 238 303
#     4  10  19  33  53  74  98 134 170 198 241 301
#     4  12  22  31  47  78 107 128 161 214 253 279
#
# _framework density 19.600954999999999
#
# number of rings (size 3 to 8) (size 9 to 14) (size 15 to 20)
#    0.000    3.333    0.000    5.000    0.000    0.000 
#    0.000    9.167    0.000   12.000    0.000    2.333 
#    0.000    0.000    0.000    0.000    0.000    0.000 
#
# Total GULP energy -148679.299863 kJ/mol
# GULP energy per Si atom -12389.941655 kJ/mol
# Density = 1.955634 g / cm^3
# Si number density = 19.600955 Si / 1000 Ang^3
#
#
#
# Elastic Constant Matrix: (Units=GPa)
#
#
# Indices 1 2 3 4 5 6 
#
# 1 74.4707 22.1404 39.9585 0.0000 14.3326 0.0000
# 2 22.1404 178.3632 57.9620 0.0000 3.0143 0.0000
# 3 39.9585 57.9620 154.9760 0.0000 34.0267 0.0000
# 4 0.0000 0.0000 0.0000 10.7985 0.0000 -2.6044
# 5 14.3326 3.0143 34.0267 0.0000 19.5390 0.0000
# 6 0.0000 0.0000 0.0000 -2.6044 0.0000 2.4445
#
#
#
# Elastic Compliance Matrix: (Units=1/GPa)
#
#
# Indices 1 2 3 4 5 6 
#
# 1 0.016477 -0.001292 -0.001871 0.000000 -0.008630 0.000000
# 2 -0.001292 0.006819 -0.003553 0.000000 0.006082 0.000000
# 3 -0.001871 -0.003553 0.012697 0.000000 -0.020191 0.000000
# 4 0.000000 0.000000 0.000000 0.124632 0.000000 0.132787
# 5 -0.008630 0.006082 -0.020191 0.000000 0.091733 0.000001
# 6 0.000000 0.000000 0.000000 0.132787 0.000001 0.550562
#
#
# Mechanical properties :
#
#
# Convention : Reuss Voigt Hill
#
# Bulk Modulus (GPa) = 44.32136 71.99241 58.15688
# Shear Modulus (GPa) = 6.06893 25.73966 15.90430
#
# Velocity S-wave (km/s) = 1.76152 3.62772 2.85161
# Velocity P-wave (km/s) = 5.17670 7.37265 6.37001
#
# Compressibility (1/GPa) = 0.02256249
#
# Stress axis : x y z
#
# Youngs Moduli (GPa) = 60.69227 146.65892 78.76077
#
# Poissons Ratio (x) = 0.18942 0.14732
# Poissons Ratio (y) = 0.07839 0.27980
# Poissons Ratio (z) = 0.11353 0.52102
#
# Static dielectric constant tensor:
#      x y z
#    x 3.279910 0.000000 0.326330 
#    y 0.000000 3.451390 0.000000 
#    z 0.326330 0.000000 4.566650 
# 
# 
# High freq. dielectric constant tensor:
#      x y z
#    x 1.727250 0.000000 0.005360 
#    y 0.000000 1.751100 0.000000 
#    z 0.005360 0.000000 1.768680 
# 
# From -- ./inp_files/211105.got.cif
#   From: 2010.06.25/outbox.cif.g09.slc.cpg/sg12_106_cif.got.tgz:211105.got - 2010.06.28 00:19:55.
