data_PCOD8089716
_publ_section_title
;
Structure prediction by ZEFSAII (Michael W. Deem and Ramdas Pophale) SiO2 
 PCOD8089716
Probable space group: C 2/M
;
_chemical_formula_sum "Si O2"
_cell_formula_units_Z 64
_cell_length_a 34.851964
_cell_length_b 9.388762
_cell_length_c 25.748726
_cell_angle_alpha 90.000000
_cell_angle_beta 24.211511
_cell_angle_gamma 90.000000
_cell_volume 3455.315808
_symmetry_space_group_name_H-M "C 2/M"
_symmetry_group_IT_number 12
_symmetry_cell_setting 'monoclinic'
loop_
_space_group_symop_operation_xyz
x,y,z
-x,y,-z
-x,-y,-z
x,-y,z
1/2+x,1/2+y,z
1/2-x,1/2+y,-z
1/2-x,1/2-y,-z
1/2+x,1/2-y,z
loop_
_atom_site_type_symbol
_atom_site_label
_atom_site_fract_x
_atom_site_fract_y
_atom_site_fract_z
Si Si1 0.107673 0.166489 0.856521
Si Si2 0.069060 0.665621 0.182867
Si Si3 0.261936 0.830365 0.225131
Si Si4 0.394978 0.331946 0.759763
Si Si5 0.625124 0.164787 0.623509
Si Si6 0.949582 0.167847 0.511370
Si Si7 0.671639 0.665853 0.663705
Si Si8 0.717655 0.167014 0.915768
O O1 0.170821 0.255986 0.817215
O O2 0.133705 0.215083 0.766203
O O3 0.128581 0.000000 0.838920
O O4 0.000000 0.203160 0.000000
O O5 0.083475 0.500000 0.178217
O O6 0.110052 0.756459 0.178901
O O7 0.960823 0.704155 0.307701
O O8 0.125016 0.708202 0.061786
O O9 0.155859 0.776085 0.365685
O O10 0.291776 0.775038 0.131109
O O11 0.271416 0.000000 0.219769
O O12 0.386237 0.500000 0.779731
O O13 0.491749 0.290869 0.612051
O O14 0.309594 0.271412 0.830709
O O15 0.615175 0.251572 0.689050
O O16 0.718508 0.204524 0.476471
O O17 0.622731 0.000000 0.642281
O O18 0.000000 0.234957 0.500000
O O19 0.945589 0.000000 0.524574
O O20 0.653707 0.500000 0.676795
O O21 0.732926 0.000000 0.892852
#
# Coordination Sequence:
#
# PCOD8089716 Si02
#       8
#     8   8   8   8   8   8   8   8
#     4  10  23  40  56  78 111 144 172 213 273 330
#     4  10  21  34  51  77 108 138 172 216 264 307
#     4  10  20  35  58  84 105 136 183 226 262 309
#     4  10  19  33  54  78 106 141 178 213 254 308
#     4   9  19  35  55  77 100 133 173 216 261 304
#     4   9  16  31  55  81 108 139 177 221 266 311
#     4   9  19  37  56  73 101 136 170 210 261 315
#     4   9  18  34  54  76 106 141 176 215 259 306
#
# _framework density 18.522185
#
# number of rings (size 3 to 8) (size 9 to 14) (size 15 to 20)
#    0.000    2.500    1.250    0.375    3.500    1.250 
#    0.000    1.250    0.000    0.750    0.000    0.000 
#    0.000    0.000    0.000    0.000    0.000    0.000 
#
# Total GULP energy -396811.605251 kJ/mol
# GULP energy per Si atom -12400.362664 kJ/mol
# Density = 1.848003 g / cm^3
# Si number density = 18.522185 Si / 1000 Ang^3
#
#
#
# Elastic Constant Matrix: (Units=GPa)
#
#
# Indices 1 2 3 4 5 6 
#
# 1 123.6272 42.5531 52.7271 0.0017 6.5351 -0.0012
# 2 42.5531 35.1780 29.2521 0.0088 1.3136 0.0029
# 3 52.7271 29.2521 105.7581 -0.0041 4.6756 0.0064
# 4 0.0017 0.0088 -0.0041 16.3278 0.0040 1.4530
# 5 6.5351 1.3136 4.6756 0.0040 33.0662 -0.0027
# 6 -0.0012 0.0029 0.0064 1.4530 -0.0027 31.5257
#
#
#
# Elastic Compliance Matrix: (Units=1/GPa)
#
#
# Indices 1 2 3 4 5 6 
#
# 1 0.014722 -0.015200 -0.003053 0.000006 -0.001874 0.000002
# 2 -0.015200 0.052611 -0.007059 -0.000029 0.001912 -0.000003
# 3 -0.003053 -0.007059 0.012972 0.000008 -0.000950 -0.000003
# 4 0.000006 -0.000029 0.000008 0.061498 -0.000009 -0.002834
# 5 -0.001874 0.001912 -0.000950 -0.000009 0.030671 0.000003
# 6 0.000002 -0.000003 -0.000003 -0.002834 0.000003 0.031851
#
#
# Mechanical properties :
#
#
# Convention : Reuss Voigt Hill
#
# Bulk Modulus (GPa) = 33.68926 57.06977 45.37952
# Shear Modulus (GPa) = 18.87929 25.51933 22.19931
#
# Velocity S-wave (km/s) = 3.19608 3.71586 3.46573
# Velocity P-wave (km/s) = 5.64340 7.02059 6.36933
#
# Compressibility (1/GPa) = 0.02968305
#
# Stress axis : x y z
#
# Youngs Moduli (GPa) = 67.92714 19.00734 77.08984
#
# Poissons Ratio (x) = 0.28890 0.23533
# Poissons Ratio (y) = 1.03247 0.54414
# Poissons Ratio (z) = 0.20736 0.13416
#
# Static dielectric constant tensor:
#      x y z
#    x 3.382550 -0.000010 0.045780 
#    y -0.000010 3.056390 0.000020 
#    z 0.045780 0.000020 3.649550 
# 
# 
# High freq. dielectric constant tensor:
#      x y z
#    x 1.722830 0.000000 0.001680 
#    y 0.000000 1.682030 0.000000 
#    z 0.001680 0.000000 1.734700 
# 
# From -- ./inp_files/353368.got.cif
#   From: 2010.06.25/outbox.cif.g09.slc.cpg/sg12_177_cif.got.tgz:353368.got - 2010.06.28 00:19:55.
