data_PCOD8089062
_publ_section_title
;
Structure prediction by ZEFSAII (Michael W. Deem and Ramdas Pophale) SiO2 
 PCOD8089062
Probable space group: C 2/M
;
_chemical_formula_sum "Si O2"
_cell_formula_units_Z 64
_cell_length_a 31.458224
_cell_length_b 8.783664
_cell_length_c 16.887993
_cell_angle_alpha 90.000000
_cell_angle_beta 47.452132
_cell_angle_gamma 90.000000
_cell_volume 3437.843363
_symmetry_space_group_name_H-M "C 2/M"
_symmetry_group_IT_number 12
_symmetry_cell_setting 'monoclinic'
loop_
_space_group_symop_operation_xyz
x,y,z
-x,y,-z
-x,-y,-z
x,-y,z
1/2+x,1/2+y,z
1/2-x,1/2+y,-z
1/2-x,1/2-y,-z
1/2+x,1/2-y,z
loop_
_atom_site_type_symbol
_atom_site_label
_atom_site_fract_x
_atom_site_fract_y
_atom_site_fract_z
Si Si1 0.769234 0.319268 0.393703
Si Si2 0.232459 0.320947 0.142723
Si Si3 0.037329 0.680811 0.200456
Si Si4 0.182695 0.820933 0.363197
Si Si5 0.006273 0.323968 0.906959
Si Si6 0.165545 0.679468 0.070507
Si Si7 0.077354 0.827233 0.595886
Si Si8 0.116696 0.826742 0.718625
O O1 0.777596 0.500000 0.391034
O O2 0.750000 0.250000 0.500000
O O3 0.726682 0.275445 0.376852
O O4 0.828153 0.230328 0.302781
O O5 0.239584 0.500000 0.138262
O O6 0.201554 0.264305 0.260567
O O7 0.191605 0.270211 0.121673
O O8 0.296284 0.250685 0.048797
O O9 0.033710 0.500000 0.206686
O O10 0.032773 0.743351 0.115434
O O11 0.099313 0.739475 0.153370
O O12 0.983036 0.736911 0.321507
O O13 0.117750 0.770324 0.471950
O O14 0.184420 0.000000 0.344914
O O15 0.991046 0.500000 0.935613
O O16 0.071208 0.299035 0.800554
O O17 0.000000 0.240559 0.000000
O O18 0.166887 0.500000 0.056099
O O19 0.119602 0.817510 0.619334
O O20 0.058436 0.000000 0.605363
O O21 0.101773 0.000000 0.763149
#
# Coordination Sequence:
#
# PCOD8089062 Si02
#       8
#     8   8   8   8   8   8   8   8
#     4  11  21  34  52  75 104 140 179 216 259 312
#     4  10  21  36  57  84 107 136 179 226 271 320
#     4   9  18  33  55  78 100 138 181 216 263 318
#     4  10  21  37  54  76 110 146 178 217 273 326
#     4   9  18  32  49  73 104 137 177 219 259 312
#     4   9  19  38  59  79 109 142 176 220 275 330
#     4   9  18  34  52  74 106 141 175 214 262 317
#     4  10  19  33  50  72 103 138 178 218 261 310
#
# _framework density 18.616323000000001
#
# number of rings (size 3 to 8) (size 9 to 14) (size 15 to 20)
#    0.000    2.375    1.250    1.125    0.000    4.250 
#    0.000    3.125    0.000    3.750    0.000    0.000 
#    0.000    0.000    0.000    0.000    0.000    0.000 
#
# Total GULP energy -396507.431399 kJ/mol
# GULP energy per Si atom -12390.857231 kJ/mol
# Density = 1.857395 g / cm^3
# Si number density = 18.616323 Si / 1000 Ang^3
#
#
#
# Elastic Constant Matrix: (Units=GPa)
#
#
# Indices 1 2 3 4 5 6 
#
# 1 105.8300 29.5635 64.3375 0.0000 -20.5022 0.0000
# 2 29.5635 35.2506 31.3072 -0.0017 -1.8117 0.0006
# 3 64.3375 31.3072 127.6967 -0.0008 -0.9088 0.0002
# 4 0.0000 -0.0017 -0.0008 31.0128 0.0000 -0.4153
# 5 -20.5022 -1.8117 -0.9088 0.0000 29.0897 0.0000
# 6 0.0000 0.0006 0.0002 -0.4153 0.0000 18.6771
#
#
#
# Elastic Compliance Matrix: (Units=1/GPa)
#
#
# Indices 1 2 3 4 5 6 
#
# 1 0.018609 -0.008594 -0.007181 -0.000001 0.012356 0.000000
# 2 -0.008594 0.040348 -0.005589 0.000002 -0.003719 -0.000001
# 3 -0.007181 -0.005589 0.012783 0.000000 -0.005010 0.000000
# 4 -0.000001 0.000002 0.000000 0.032254 0.000000 0.000717
# 5 0.012356 -0.003719 -0.005010 0.000000 0.042697 0.000000
# 6 0.000000 -0.000001 0.000000 0.000717 0.000000 0.053557
#
#
# Mechanical properties :
#
#
# Convention : Reuss Voigt Hill
#
# Bulk Modulus (GPa) = 34.46671 57.68820 46.07745
# Shear Modulus (GPa) = 19.79044 25.32720 22.55882
#
# Velocity S-wave (km/s) = 3.26401 3.69248 3.48483
# Velocity P-wave (km/s) = 5.72359 7.01672 6.40288
#
# Compressibility (1/GPa) = 0.02901350
#
# Stress axis : x y z
#
# Youngs Moduli (GPa) = 53.73735 24.78427 78.22604
#
# Poissons Ratio (x) = 0.21300 0.56173
# Poissons Ratio (y) = 0.46183 0.43717
# Poissons Ratio (z) = 0.38588 0.13851
#
# Static dielectric constant tensor:
#      x y z
#    x 4.005560 -0.000010 -0.084040 
#    y -0.000010 2.864490 0.000000 
#    z -0.084040 0.000000 3.494420 
# 
# 
# High freq. dielectric constant tensor:
#      x y z
#    x 1.714250 0.000000 -0.009520 
#    y 0.000000 1.714140 0.000000 
#    z -0.009520 0.000000 1.723560 
# 
# From -- ./inp_files/249824.got.cif
#   From: 2010.06.25/outbox.cif.g09.slc.cpg/sg12_125_cif.got.tgz:249824.got - 2010.06.28 00:19:55.
