data_PCOD8089400
_publ_section_title
;
Structure prediction by ZEFSAII (Michael W. Deem and Ramdas Pophale) SiO2 
 PCOD8089400
Probable space group: C 2/M
;
_chemical_formula_sum "Si O2"
_cell_formula_units_Z 48
_cell_length_a 5.281079
_cell_length_b 18.820016
_cell_length_c 28.587706
_cell_angle_alpha 90.000000
_cell_angle_beta 126.871019
_cell_angle_gamma 90.000000
_cell_volume 2273.032114
_symmetry_space_group_name_H-M "C 2/M"
_symmetry_group_IT_number 12
_symmetry_cell_setting 'monoclinic'
loop_
_space_group_symop_operation_xyz
x,y,z
-x,y,-z
-x,-y,-z
x,-y,z
1/2+x,1/2+y,z
1/2-x,1/2+y,-z
1/2-x,1/2-y,-z
1/2+x,1/2-y,z
loop_
_atom_site_type_symbol
_atom_site_label
_atom_site_fract_x
_atom_site_fract_y
_atom_site_fract_z
Si Si1 0.504250 0.417008 0.266443
Si Si2 0.224667 0.715352 0.196526
Si Si3 0.125036 0.923055 0.961841
Si Si4 0.856032 0.915156 0.532794
Si Si5 0.725330 0.916935 0.336620
Si Si6 0.134434 0.774759 0.931089
O O1 0.454492 0.500000 0.248238
O O2 0.287603 0.369267 0.207899
O O3 0.397994 0.399241 0.307263
O O4 0.863496 0.390378 0.298789
O O5 0.558203 0.755775 0.225325
O O6 0.980203 0.731775 0.127612
O O7 0.014426 0.856734 0.917636
O O8 0.991897 0.000000 0.929318
O O9 0.500000 0.925509 0.000000
O O10 0.000000 0.908676 0.000000
O O11 0.500000 0.886201 0.500000
O O12 0.000000 0.887122 0.500000
O O13 0.070241 0.883390 0.598529
O O14 0.854873 0.000000 0.533613
O O15 0.712948 0.000000 0.343656
O O16 0.017171 0.730803 0.964517
#
# Coordination Sequence:
#
# PCOD8089400 Si02
#       6
#     8   8   8   8   8   8
#     4  10  19  33  53  75 103 137 175 222 271 319
#     4  10  21  38  55  77 108 139 178 226 271 321
#     4  10  21  37  58  85 115 146 182 223 267 317
#     4   9  15  23  37  61  99 140 169 202 258 323
#     4   9  17  28  45  72 103 137 176 217 266 321
#     4  10  21  37  56  82 112 145 181 221 269 319
#
# _framework density 21.117166000000001
#
# number of rings (size 3 to 8) (size 9 to 14) (size 15 to 20)
#    0.000    2.333    0.000    3.000    0.000    6.000 
#    0.000    6.667    0.000    0.000    0.000    0.000 
#    0.000   46.667    0.000    0.000    0.000    0.000 
#
# Total GULP energy -297397.482282 kJ/mol
# GULP energy per Si atom -12391.561762 kJ/mol
# Density = 2.106910 g / cm^3
# Si number density = 21.117166 Si / 1000 Ang^3
#
#
#
# Elastic Constant Matrix: (Units=GPa)
#
#
# Indices 1 2 3 4 5 6 
#
# 1 178.7236 36.3851 22.3926 0.0000 -3.0540 0.0000
# 2 36.3851 114.1079 36.3130 0.0000 2.3441 0.0000
# 3 22.3926 36.3130 61.5642 0.0000 5.7079 0.0000
# 4 0.0000 0.0000 0.0000 14.5619 0.0000 1.6571
# 5 -3.0540 2.3441 5.7079 0.0000 17.6067 0.0000
# 6 0.0000 0.0000 0.0000 1.6571 0.0000 22.5758
#
#
#
# Elastic Compliance Matrix: (Units=1/GPa)
#
#
# Indices 1 2 3 4 5 6 
#
# 1 0.006120 -0.001511 -0.001497 0.000000 0.001748 0.000000
# 2 -0.001511 0.011169 -0.006058 0.000000 0.000215 0.000000
# 3 -0.001497 -0.006058 0.020940 0.000000 -0.006241 0.000000
# 4 0.000000 0.000000 0.000000 0.069251 0.000000 -0.005083
# 5 0.001748 0.000215 -0.006241 0.000000 0.059095 0.000000
# 6 0.000000 0.000000 0.000000 -0.005083 0.000000 0.044668
#
#
# Mechanical properties :
#
#
# Convention : Reuss Voigt Hill
#
# Bulk Modulus (GPa) = 49.75962 60.50855 55.13409
# Shear Modulus (GPa) = 21.17978 28.23586 24.70782
#
# Velocity S-wave (km/s) = 3.17040 3.66061 3.42429
# Velocity P-wave (km/s) = 6.08413 6.82515 6.46527
#
# Compressibility (1/GPa) = 0.02009662
#
# Stress axis : x y z
#
# Youngs Moduli (GPa) = 163.39106 89.53368 47.75614
#
# Poissons Ratio (x) = 0.13529 0.07149
# Poissons Ratio (y) = 0.24690 0.28932
# Poissons Ratio (z) = 0.24458 0.54241
#
# Static dielectric constant tensor:
#      x y z
#    x 4.750130 0.000000 0.043140 
#    y 0.000000 3.765800 0.000000 
#    z 0.043140 0.000000 3.605410 
# 
# 
# High freq. dielectric constant tensor:
#      x y z
#    x 1.874440 0.000000 -0.004890 
#    y 0.000000 1.791360 0.000000 
#    z -0.004890 0.000000 1.801640 
# 
# From -- ./inp_files/354873.got.cif
#   From: 2010.06.25/outbox.cif.g09.slc.cpg/sg12_178_cif.got.tgz:354873.got - 2010.06.28 00:19:55.
