data_PCOD8089828
_publ_section_title
;
Structure prediction by ZEFSAII (Michael W. Deem and Ramdas Pophale) SiO2 
 PCOD8089828
Probable space group: C 2/M
;
_chemical_formula_sum "Si O2"
_cell_formula_units_Z 60
_cell_length_a 17.536118
_cell_length_b 12.435345
_cell_length_c 17.444256
_cell_angle_alpha 90.000000
_cell_angle_beta 62.835490
_cell_angle_gamma 90.000000
_cell_volume 3384.441535
_symmetry_space_group_name_H-M "C 2/M"
_symmetry_group_IT_number 12
_symmetry_cell_setting 'monoclinic'
loop_
_space_group_symop_operation_xyz
x,y,z
-x,y,-z
-x,-y,-z
x,-y,z
1/2+x,1/2+y,z
1/2-x,1/2+y,-z
1/2-x,1/2-y,-z
1/2+x,1/2-y,z
loop_
_atom_site_type_symbol
_atom_site_label
_atom_site_fract_x
_atom_site_fract_y
_atom_site_fract_z
Si Si1 0.994375 0.626729 0.855394
Si Si2 0.670138 0.626173 0.975105
Si Si3 0.107379 0.878053 0.300053
Si Si4 0.335270 0.248439 0.871748
Si Si5 0.393346 0.126793 0.338607
Si Si6 0.201646 0.876025 0.410823
Si Si7 0.000000 0.763877 0.000000
Si Si8 0.454781 0.264071 0.444101
O O1 0.999623 0.500000 0.867650
O O2 0.897786 0.657587 0.877152
O O3 0.057995 0.666511 0.759573
O O4 0.023742 0.687682 0.918153
O O5 0.684185 0.500000 0.957670
O O6 0.744667 0.691338 0.896622
O O7 0.674924 0.654653 0.063013
O O8 0.579674 0.659159 0.980725
O O9 0.127371 0.795946 0.223306
O O10 0.179080 0.861285 0.331974
O O11 0.014145 0.855641 0.379003
O O12 0.108113 0.000000 0.268761
O O13 0.296522 0.171404 0.380062
O O14 0.442740 0.166910 0.390987
O O15 0.394129 0.000000 0.341639
O O16 0.137473 0.813223 0.495399
O O17 0.196733 0.000000 0.436941
O O18 0.500000 0.218387 0.500000
#
# Coordination Sequence:
#
# PCOD8089828 Si02
#       8
#     8   8   8   8   8   8   4   8
#     4  10  20  36  55  80 111 143 181 224 265 315
#     4  10  21  37  56  79 110 145 177 220 269 321
#     4  10  19  33  54  81 108 136 181 230 269 316
#     4  10  20  35  56  80 106 143 184 218 266 320
#     4  10  20  34  53  78 110 146 179 220 270 319
#     4   9  19  33  53  78 105 140 177 222 273 316
#     4  10  22  36  58  84 108 142 182 218 270 324
#     4  10  19  34  55  79 106 142 179 224 271 322
#
# _framework density 17.728183000000001
#
# number of rings (size 3 to 8) (size 9 to 14) (size 15 to 20)
#    0.000    2.133    1.333    2.000    1.867    1.867 
#    0.000    1.333    0.000    0.000    0.000    0.000 
#    0.000    0.000    0.000    0.000    0.000    0.000 
#
# Total GULP energy -372068.740902 kJ/mol
# GULP energy per Si atom -12402.291363 kJ/mol
# Density = 1.768783 g / cm^3
# Si number density = 17.728183 Si / 1000 Ang^3
#
#
#
# Elastic Constant Matrix: (Units=GPa)
#
#
# Indices 1 2 3 4 5 6 
#
# 1 105.2226 39.8684 44.4086 0.0000 -6.2685 0.0000
# 2 39.8684 67.5688 41.4374 0.0000 4.9406 0.0000
# 3 44.4086 41.4374 112.5126 0.0000 1.4103 0.0000
# 4 0.0000 0.0000 0.0000 27.0602 0.0000 0.2004
# 5 -6.2685 4.9406 1.4103 0.0000 28.6608 0.0000
# 6 0.0000 0.0000 0.0000 0.2004 0.0000 21.7148
#
#
#
# Elastic Compliance Matrix: (Units=1/GPa)
#
#
# Indices 1 2 3 4 5 6 
#
# 1 0.013445 -0.006398 -0.003003 0.000000 0.004191 0.000000
# 2 -0.006398 0.022415 -0.005667 0.000000 -0.004984 0.000000
# 3 -0.003003 -0.005667 0.012164 0.000000 -0.000278 0.000000
# 4 0.000000 0.000000 0.000000 0.036957 0.000000 -0.000341
# 5 0.004191 -0.004984 -0.000278 0.000000 0.036680 0.000000
# 6 0.000000 0.000000 0.000000 -0.000341 0.000000 0.046055
#
#
# Mechanical properties :
#
#
# Convention : Reuss Voigt Hill
#
# Bulk Modulus (GPa) = 55.90641 59.63697 57.77169
# Shear Modulus (GPa) = 24.53207 26.12646 25.32927
#
# Velocity S-wave (km/s) = 3.72397 3.84308 3.78399
# Velocity P-wave (km/s) = 7.07774 7.30787 7.19372
#
# Compressibility (1/GPa) = 0.01788704
#
# Stress axis : x y z
#
# Youngs Moduli (GPa) = 74.37791 44.61331 82.21048
#
# Poissons Ratio (x) = 0.28543 0.24687
# Poissons Ratio (y) = 0.47586 0.46592
# Poissons Ratio (z) = 0.22335 0.25284
#
# Static dielectric constant tensor:
#      x y z
#    x 3.385430 0.000000 -0.100640 
#    y 0.000000 3.082790 0.000000 
#    z -0.100640 0.000000 3.351990 
# 
# 
# High freq. dielectric constant tensor:
#      x y z
#    x 1.692820 0.000000 -0.007640 
#    y 0.000000 1.674980 0.000000 
#    z -0.007640 0.000000 1.693190 
# 
# From -- ./inp_files/276985.got.cif
#   From: 2010.06.25/outbox.cif.g09.slc.cpg/sg12_139_cif.got.tgz:276985.got - 2010.06.28 00:19:55.
