data_PCOD8089126
_publ_section_title
;
Structure prediction by ZEFSAII (Michael W. Deem and Ramdas Pophale) SiO2 
 PCOD8089126
Probable space group: C 2/M
;
_chemical_formula_sum "Si O2"
_cell_formula_units_Z 48
_cell_length_a 24.016309
_cell_length_b 25.832274
_cell_length_c 7.742230
_cell_angle_alpha 90.000000
_cell_angle_beta 148.170981
_cell_angle_gamma 90.000000
_cell_volume 2533.166374
_symmetry_space_group_name_H-M "C 2/M"
_symmetry_group_IT_number 12
_symmetry_cell_setting 'monoclinic'
loop_
_space_group_symop_operation_xyz
x,y,z
-x,y,-z
-x,-y,-z
x,-y,z
1/2+x,1/2+y,z
1/2-x,1/2+y,-z
1/2-x,1/2-y,-z
1/2+x,1/2-y,z
loop_
_atom_site_type_symbol
_atom_site_label
_atom_site_fract_x
_atom_site_fract_y
_atom_site_fract_z
Si Si1 0.385876 0.357056 0.778522
Si Si2 0.785139 0.783746 0.750185
Si Si3 0.266789 0.059689 0.493683
Si Si4 0.789776 0.318081 0.924152
Si Si5 0.051968 0.394430 0.811323
Si Si6 0.839742 0.366124 0.412110
O O1 0.383023 0.320622 0.945002
O O2 0.333624 0.412402 0.684332
O O3 0.320927 0.328247 0.458668
O O4 0.500000 0.366785 0.000000
O O5 0.750000 0.750000 0.500000
O O6 0.811737 0.744699 0.981051
O O7 0.682656 0.819893 0.513066
O O8 0.288817 0.081885 0.359130
O O9 0.238201 0.000000 0.398936
O O10 0.370135 0.065538 0.888944
O O11 0.886822 0.342343 0.075427
O O12 0.781351 0.346340 0.085831
O O13 0.000000 0.419503 0.500000
O O14 0.962838 0.376551 0.710712
#
# Coordination Sequence:
#
# PCOD8089126 Si02
#       6
#     8   8   8   8   8   8
#     4   9  19  36  55  74 101 137 177 223 262 302
#     4   9  18  31  50  76 104 137 175 210 254 312
#     4  10  21  36  54  77 103 136 179 222 267 315
#     4   9  18  33  51  77 106 134 171 209 256 315
#     4   9  19  34  53  77 105 134 168 215 263 313
#     4  10  19  33  51  74 108 138 166 214 263 313
#
# _framework density 18.948616999999999
#
# number of rings (size 3 to 8) (size 9 to 14) (size 15 to 20)
#    0.000    2.667    0.000    2.000    0.000    4.667 
#    0.000   11.667    0.000    1.000    0.000    0.000 
#    0.000    0.000    0.000    0.000    0.000    0.000 
#
# Total GULP energy -297324.524706 kJ/mol
# GULP energy per Si atom -12388.521863 kJ/mol
# Density = 1.890549 g / cm^3
# Si number density = 18.948617 Si / 1000 Ang^3
#
#
#
# Elastic Constant Matrix: (Units=GPa)
#
#
# Indices 1 2 3 4 5 6 
#
# 1 125.9740 60.6726 54.5612 0.0000 19.2536 0.0000
# 2 60.6726 145.2158 40.5451 0.0000 6.4327 0.0000
# 3 54.5612 40.5451 78.3753 0.0000 14.4406 0.0000
# 4 0.0000 0.0000 0.0000 16.4577 0.0000 -6.3187
# 5 19.2536 6.4327 14.4406 0.0000 39.9871 0.0000
# 6 0.0000 0.0000 0.0000 -6.3187 0.0000 20.7094
#
#
#
# Elastic Compliance Matrix: (Units=1/GPa)
#
#
# Indices 1 2 3 4 5 6 
#
# 1 0.012968 -0.003414 -0.006655 0.000000 -0.003291 0.000000
# 2 -0.003414 0.008950 -0.002454 0.000000 0.001090 0.000000
# 3 -0.006655 -0.002454 0.019281 0.000000 -0.003364 0.000000
# 4 0.000000 0.000000 0.000000 0.068824 0.000000 0.020999
# 5 -0.003291 0.001090 -0.003364 0.000000 0.027632 0.000000
# 6 0.000000 0.000000 0.000000 0.020999 0.000000 0.054694
#
#
# Mechanical properties :
#
#
# Convention : Reuss Voigt Hill
#
# Bulk Modulus (GPa) = 61.90939 73.45809 67.68374
# Shear Modulus (GPa) = 22.44366 28.34992 25.39679
#
# Velocity S-wave (km/s) = 3.44532 3.87220 3.66498
# Velocity P-wave (km/s) = 6.96923 7.67092 7.32848
#
# Compressibility (1/GPa) = 0.01615264
#
# Stress axis : x y z
#
# Youngs Moduli (GPa) = 77.11312 111.73624 51.86378
#
# Poissons Ratio (x) = 0.38149 0.34515
# Poissons Ratio (y) = 0.26328 0.12727
# Poissons Ratio (z) = 0.51319 0.27419
#
# Static dielectric constant tensor:
#      x y z
#    x 3.856120 0.000000 -0.147290 
#    y 0.000000 3.617370 0.000000 
#    z -0.147290 0.000000 3.340190 
# 
# 
# High freq. dielectric constant tensor:
#      x y z
#    x 1.755050 0.000000 0.001750 
#    y 0.000000 1.726080 0.000000 
#    z 0.001750 0.000000 1.702830 
# 
# From -- ./inp_files/51938.got.cif
#   From: 2010.06.25/outbox.cif.g09.slc.cpg/sg12_26_cif.got.tgz:51938.got - 2010.06.28 00:19:55.
