data_PCOD8089344
_publ_section_title
;
Structure prediction by ZEFSAII (Michael W. Deem and Ramdas Pophale) SiO2 
 PCOD8089344
Probable space group: C 2/M
;
_chemical_formula_sum "Si O2"
_cell_formula_units_Z 56
_cell_length_a 19.257656
_cell_length_b 8.960321
_cell_length_c 20.374313
_cell_angle_alpha 90.000000
_cell_angle_beta 122.766900
_cell_angle_gamma 90.000000
_cell_volume 2956.267202
_symmetry_space_group_name_H-M "C 2/M"
_symmetry_group_IT_number 12
_symmetry_cell_setting 'monoclinic'
loop_
_space_group_symop_operation_xyz
x,y,z
-x,y,-z
-x,-y,-z
x,-y,z
1/2+x,1/2+y,z
1/2-x,1/2+y,-z
1/2-x,1/2-y,-z
1/2+x,1/2-y,z
loop_
_atom_site_type_symbol
_atom_site_label
_atom_site_fract_x
_atom_site_fract_y
_atom_site_fract_z
Si Si1 0.951883 0.822822 0.279961
Si Si2 0.060490 0.677821 0.589445
Si Si3 0.282657 0.832746 0.176086
Si Si4 0.259615 0.834693 0.316663
Si Si5 0.919111 0.177439 0.764606
Si Si6 0.805707 0.329611 0.975850
Si Si7 0.993812 0.329017 0.070946
O O1 0.973254 0.753578 0.361789
O O2 0.866812 0.758667 0.208359
O O3 0.023739 0.772931 0.266613
O O4 0.945490 0.000000 0.282826
O O5 0.064879 0.500000 0.603877
O O6 0.152682 0.741640 0.618557
O O7 0.000000 0.722316 0.500000
O O8 0.255055 0.838761 0.236322
O O9 0.208274 0.751235 0.100686
O O10 0.296245 0.000000 0.155257
O O11 0.174159 0.757961 0.297408
O O12 0.261616 0.000000 0.347879
O O13 0.950565 0.238100 0.850120
O O14 0.915482 0.000000 0.769821
O O15 0.778255 0.500000 0.954712
O O16 0.750000 0.250000 0.000000
O O17 0.899776 0.315129 0.046621
O O18 0.024593 0.500000 0.086788
O O19 0.000000 0.264440 0.000000
#
# Coordination Sequence:
#
# PCOD8089344 Si02
#       7
#     8   8   8   8   8   8   8
#     4  10  20  33  52  78 107 137 168 207 256 307
#     4   9  18  35  59  82 104 134 171 208 247 298
#     4  10  19  33  53  73  96 130 173 216 254 299
#     4   8  16  32  53  75  98 128 167 206 245 295
#     4  10  20  34  52  74 101 135 173 211 253 305
#     4  11  22  34  49  70  98 131 169 216 264 307
#     4  10  22  37  51  71 101 136 173 217 265 305
#
# _framework density 18.942806999999998
#
# number of rings (size 3 to 8) (size 9 to 14) (size 15 to 20)
#    0.000    2.286    0.000    3.857    0.000    5.143 
#    0.000    3.571    0.000    0.000    0.000    0.000 
#    0.000    0.000    0.000    0.000    0.000    0.000 
#
# Total GULP energy -347078.478377 kJ/mol
# GULP energy per Si atom -12395.659942 kJ/mol
# Density = 1.889969 g / cm^3
# Si number density = 18.942807 Si / 1000 Ang^3
#
#
#
# Elastic Constant Matrix: (Units=GPa)
#
#
# Indices 1 2 3 4 5 6 
#
# 1 118.0017 24.8957 35.7729 0.0000 9.1114 0.0000
# 2 24.8957 61.0104 27.3718 0.0000 1.8691 0.0000
# 3 35.7729 27.3718 103.2576 0.0000 13.2639 0.0000
# 4 0.0000 0.0000 0.0000 27.8529 0.0000 -2.6588
# 5 9.1114 1.8691 13.2639 0.0000 22.9742 0.0000
# 6 0.0000 0.0000 0.0000 -2.6588 0.0000 20.7233
#
#
#
# Elastic Compliance Matrix: (Units=1/GPa)
#
#
# Indices 1 2 3 4 5 6 
#
# 1 0.009998 -0.002939 -0.002383 0.000000 -0.002350 0.000000
# 2 -0.002939 0.019511 -0.004428 0.000000 0.002135 0.000000
# 3 -0.002383 -0.004428 0.012439 0.000000 -0.005876 0.000000
# 4 0.000000 0.000000 0.000000 0.036348 0.000000 0.004663
# 5 -0.002350 0.002135 -0.005876 0.000000 0.047678 0.000000
# 6 0.000000 0.000000 0.000000 0.004663 0.000000 0.048853
#
#
# Mechanical properties :
#
#
# Convention : Reuss Voigt Hill
#
# Bulk Modulus (GPa) = 44.54654 50.92781 47.73718
# Shear Modulus (GPa) = 24.77581 27.25871 26.01726
#
# Velocity S-wave (km/s) = 3.62045 3.79753 3.71005
# Velocity P-wave (km/s) = 6.40658 6.79498 6.60364
#
# Compressibility (1/GPa) = 0.02244843
#
# Stress axis : x y z
#
# Youngs Moduli (GPa) = 100.01640 51.25290 80.39446
#
# Poissons Ratio (x) = 0.15062 0.19157
# Poissons Ratio (y) = 0.29393 0.35600
# Poissons Ratio (z) = 0.23833 0.22695
#
# Static dielectric constant tensor:
#      x y z
#    x 3.687750 0.000000 0.189670 
#    y 0.000000 3.438540 0.000000 
#    z 0.189670 0.000000 3.461080 
# 
# 
# High freq. dielectric constant tensor:
#      x y z
#    x 1.745590 0.000000 0.010320 
#    y 0.000000 1.721190 0.000000 
#    z 0.010320 0.000000 1.724850 
# 
# From -- ./inp_files/314403.got.cif
#   From: 2010.06.25/outbox.cif.g09.slc.cpg/sg12_158_cif.got.tgz:314403.got - 2010.06.28 00:19:55.
