data_PCOD8089756
_publ_section_title
;
Structure prediction by ZEFSAII (Michael W. Deem and Ramdas Pophale) SiO2 
 PCOD8089756
Probable space group: C 2/M
;
_chemical_formula_sum "Si O2"
_cell_formula_units_Z 56
_cell_length_a 15.617413
_cell_length_b 9.500138
_cell_length_c 19.343656
_cell_angle_alpha 90.000000
_cell_angle_beta 108.081293
_cell_angle_gamma 90.000000
_cell_volume 2728.243940
_symmetry_space_group_name_H-M "C 2/M"
_symmetry_group_IT_number 12
_symmetry_cell_setting 'monoclinic'
loop_
_space_group_symop_operation_xyz
x,y,z
-x,y,-z
-x,-y,-z
x,-y,z
1/2+x,1/2+y,z
1/2-x,1/2+y,-z
1/2-x,1/2-y,-z
1/2+x,1/2-y,z
loop_
_atom_site_type_symbol
_atom_site_label
_atom_site_fract_x
_atom_site_fract_y
_atom_site_fract_z
Si Si1 0.542992 0.653814 0.862837
Si Si2 0.600413 0.662740 0.730250
Si Si3 0.930821 0.342992 0.919282
Si Si4 0.279227 0.162367 0.339159
Si Si5 0.098623 0.663903 0.500547
Si Si6 0.178604 0.155361 0.019062
Si Si7 0.099370 0.164081 0.366269
O O1 0.497075 0.500000 0.835177
O O2 0.606985 0.692987 0.814260
O O3 0.471924 0.778478 0.858940
O O4 0.596280 0.635795 0.946880
O O5 0.616010 0.500000 0.716179
O O6 0.679813 0.748588 0.713582
O O7 0.499930 0.711322 0.682928
O O8 0.894499 0.500000 0.893659
O O9 0.850121 0.237893 0.919115
O O10 0.000000 0.352273 0.000000
O O11 0.331555 0.201990 0.422083
O O12 0.173184 0.195896 0.324558
O O13 0.294721 0.000000 0.324130
O O14 0.099923 0.500000 0.481599
O O15 0.127875 0.750333 0.440897
O O16 0.000000 0.712445 0.500000
O O17 0.216563 0.000000 0.048342
O O18 0.250000 0.250000 0.000000
O O19 0.102265 0.000000 0.386130
#
# Coordination Sequence:
#
# PCOD8089756 Si02
#       7
#     8   8   8   8   8   8   8
#     4   9  19  36  55  75 106 143 176 214 268 325
#     4  10  21  38  57  78 110 148 184 222 270 331
#     4   9  17  31  53  78 102 131 173 216 257 312
#     4  10  21  37  55  79 111 144 183 230 276 322
#     4  10  19  33  55  80 108 143 182 227 278 325
#     4  10  19  33  54  79 108 139 174 221 271 317
#     4  10  21  36  56  81 108 140 183 231 275 323
#
# _framework density 20.526025000000001
#
# number of rings (size 3 to 8) (size 9 to 14) (size 15 to 20)
#    0.000    2.286    1.429    1.286    0.000    4.286 
#    2.571    0.000    0.000    0.000    0.000    0.000 
#    0.000    0.000    0.000    0.000    0.000    0.000 
#
# Total GULP energy -347100.994149 kJ/mol
# GULP energy per Si atom -12396.464077 kJ/mol
# Density = 2.047931 g / cm^3
# Si number density = 20.526025 Si / 1000 Ang^3
#
#
#
# Elastic Constant Matrix: (Units=GPa)
#
#
# Indices 1 2 3 4 5 6 
#
# 1 80.3754 44.4735 13.1802 0.0000 -34.1858 0.0000
# 2 44.4735 132.1896 37.2733 0.0000 -36.4530 0.0000
# 3 13.1802 37.2733 62.7960 0.0000 -34.8606 0.0000
# 4 0.0000 0.0000 0.0000 28.1511 0.0000 -14.9884
# 5 -34.1858 -36.4530 -34.8606 0.0000 36.0383 0.0000
# 6 0.0000 0.0000 0.0000 -14.9884 0.0000 34.5574
#
#
#
# Elastic Compliance Matrix: (Units=1/GPa)
#
#
# Indices 1 2 3 4 5 6 
#
# 1 0.030296 -0.003587 0.020972 0.000000 0.045397 0.000000
# 2 -0.003587 0.010931 -0.003210 0.000000 0.004549 0.000000
# 3 0.020972 -0.003210 0.048963 0.000000 0.064010 0.000000
# 4 0.000000 0.000000 0.000000 0.046189 0.000000 0.020033
# 5 0.045397 0.004549 0.064010 0.000000 0.137331 0.000000
# 6 0.000000 0.000000 0.000000 0.020033 0.000000 0.037626
#
#
# Mechanical properties :
#
#
# Convention : Reuss Voigt Hill
#
# Bulk Modulus (GPa) = 8.43600 51.69057 30.06328
# Shear Modulus (GPa) = 15.50386 31.77829 23.64107
#
# Velocity S-wave (km/s) = 2.75130 3.93898 3.39744
# Velocity P-wave (km/s) = 3.76984 6.77680 5.48346
#
# Compressibility (1/GPa) = 0.11853957
#
# Stress axis : x y z
#
# Youngs Moduli (GPa) = 33.00749 91.47932 20.42371
#
# Poissons Ratio (x) = 0.32818 -0.42833
# Poissons Ratio (y) = 0.11841 0.06557
# Poissons Ratio (z) = -0.69225 0.29368
#
# Static dielectric constant tensor:
#      x y z
#    x 3.641150 0.000000 -0.227400 
#    y 0.000000 3.880390 0.000000 
#    z -0.227400 0.000000 3.456870 
# 
# 
# High freq. dielectric constant tensor:
#      x y z
#    x 1.795580 0.000000 -0.019330 
#    y 0.000000 1.805410 0.000000 
#    z -0.019330 0.000000 1.784700 
# 
# From -- ./inp_files/309009.got.cif
#   From: 2010.06.25/outbox.cif.g09.slc.cpg/sg12_155_cif.got.tgz:309009.got - 2010.06.28 00:19:55.
