data_PCOD8089019
_publ_section_title
;
Structure prediction by ZEFSAII (Michael W. Deem and Ramdas Pophale) SiO2 
 PCOD8089019
Probable space group: C 2/M
;
_chemical_formula_sum "Si O2"
_cell_formula_units_Z 56
_cell_length_a 19.451740
_cell_length_b 19.162987
_cell_length_c 17.945057
_cell_angle_alpha 90.000000
_cell_angle_beta 154.533153
_cell_angle_gamma 90.000000
_cell_volume 2876.229982
_symmetry_space_group_name_H-M "C 2/M"
_symmetry_group_IT_number 12
_symmetry_cell_setting 'monoclinic'
loop_
_space_group_symop_operation_xyz
x,y,z
-x,y,-z
-x,-y,-z
x,-y,z
1/2+x,1/2+y,z
1/2-x,1/2+y,-z
1/2-x,1/2-y,-z
1/2+x,1/2-y,z
loop_
_atom_site_type_symbol
_atom_site_label
_atom_site_fract_x
_atom_site_fract_y
_atom_site_fract_z
Si Si1 0.831440 0.168772 0.796380
Si Si2 0.073526 0.580548 0.264544
Si Si3 0.209010 0.712646 0.345085
Si Si4 0.493532 0.730171 0.264537
Si Si5 0.219105 0.638821 0.950464
Si Si6 0.844468 0.422198 0.261692
Si Si7 0.695466 0.922422 0.546110
O O1 0.799287 0.250025 0.744240
O O2 0.699342 0.137124 0.721861
O O3 0.825088 0.128136 0.710731
O O4 0.000000 0.158302 0.000000
O O5 0.099488 0.500000 0.267552
O O6 0.154095 0.631540 0.282150
O O7 0.160915 0.601491 0.427818
O O8 0.884662 0.596492 0.089372
O O9 0.388812 0.717748 0.551250
O O10 0.085393 0.751139 0.278887
O O11 0.390173 0.659597 0.152147
O O12 0.374445 0.792544 0.169992
O O13 0.246678 0.590268 0.905582
O O14 0.796315 0.500000 0.243303
O O15 0.033701 0.418879 0.435440
O O16 0.766330 0.000000 0.615166
#
# Coordination Sequence:
#
# PCOD8089019 Si02
#       7
#     8   8   8   8   8   8   8
#     4  12  23  32  45  68 102 140 175 202 231 281
#     4   9  18  34  56  76  97 127 163 210 264 305
#     4  10  19  33  48  69 101 133 168 204 249 300
#     4   9  17  30  52  75  97 127 163 213 256 289
#     4   9  16  30  52  77 100 124 166 210 249 292
#     4  10  20  33  48  69 104 144 171 193 232 295
#     4   9  18  33  51  72 100 134 168 200 240 291
#
# _framework density 19.469930999999999
#
# number of rings (size 3 to 8) (size 9 to 14) (size 15 to 20)
#    0.000    2.286    0.000    6.429    0.000    2.286 
#    0.000    2.857    0.000    0.429    0.000    0.000 
#    0.000    4.571    0.000    0.000    0.000    0.000 
#
# Total GULP energy -347126.409287 kJ/mol
# GULP energy per Si atom -12397.371760 kJ/mol
# Density = 1.942562 g / cm^3
# Si number density = 19.469931 Si / 1000 Ang^3
#
#
#
# Elastic Constant Matrix: (Units=GPa)
#
#
# Indices 1 2 3 4 5 6 
#
# 1 47.7009 43.3643 13.0370 0.0080 -3.4781 0.0034
# 2 43.3643 127.8845 38.4414 0.0052 -0.9107 0.0025
# 3 13.0370 38.4414 99.3040 0.0100 8.1555 0.0062
# 4 0.0080 0.0052 0.0100 31.4097 0.0072 -3.9254
# 5 -3.4781 -0.9107 8.1555 0.0072 10.2025 0.0040
# 6 0.0034 0.0025 0.0062 -3.9254 0.0040 39.1032
#
#
#
# Elastic Compliance Matrix: (Units=1/GPa)
#
#
# Indices 1 2 3 4 5 6 
#
# 1 0.031322 -0.010240 -0.001017 -0.000009 0.010577 -0.000004
# 2 -0.010240 0.012335 -0.003462 0.000002 0.000377 0.000001
# 3 -0.001017 -0.003462 0.012412 -0.000001 -0.010577 -0.000001
# 4 -0.000009 0.000002 -0.000001 0.032242 -0.000026 0.003237
# 5 0.010577 0.000377 -0.010577 -0.000026 0.110110 -0.000013
# 6 -0.000004 0.000001 -0.000001 0.003237 -0.000013 0.025898
#
#
# Mechanical properties :
#
#
# Convention : Reuss Voigt Hill
#
# Bulk Modulus (GPa) = 37.54781 51.61943 44.58362
# Shear Modulus (GPa) = 19.03792 28.14620 23.59206
#
# Velocity S-wave (km/s) = 3.13039 3.80626 3.48475
# Velocity P-wave (km/s) = 5.69146 6.77398 6.25617
#
# Compressibility (1/GPa) = 0.02663271
#
# Stress axis : x y z
#
# Youngs Moduli (GPa) = 31.92624 81.06937 80.56534
#
# Poissons Ratio (x) = 0.83016 0.08191
# Poissons Ratio (y) = 0.32693 0.27889
# Poissons Ratio (z) = 0.03246 0.28063
#
# Static dielectric constant tensor:
#      x y z
#    x 3.233700 -0.000010 0.079880 
#    y -0.000010 3.738650 -0.000010 
#    z 0.079880 -0.000010 3.516500 
# 
# 
# High freq. dielectric constant tensor:
#      x y z
#    x 1.715000 0.000000 0.013580 
#    y 0.000000 1.759370 0.000000 
#    z 0.013580 0.000000 1.747950 
# 
# From -- ./inp_files/227658.got.cif
#   From: 2010.06.25/outbox.cif.g09.slc.cpg/sg12_114_cif.got.tgz:227658.got - 2010.06.28 00:19:55.
