data_PCOD8089902
_publ_section_title
;
Structure prediction by ZEFSAII (Michael W. Deem and Ramdas Pophale) SiO2 
 PCOD8089902
Probable space group: C 2/M
;
_chemical_formula_sum "Si O2"
_cell_formula_units_Z 56
_cell_length_a 20.095130
_cell_length_b 8.621895
_cell_length_c 21.513281
_cell_angle_alpha 90.000000
_cell_angle_beta 130.142544
_cell_angle_gamma 90.000000
_cell_volume 2849.346430
_symmetry_space_group_name_H-M "C 2/M"
_symmetry_group_IT_number 12
_symmetry_cell_setting 'monoclinic'
loop_
_space_group_symop_operation_xyz
x,y,z
-x,y,-z
-x,-y,-z
x,-y,z
1/2+x,1/2+y,z
1/2-x,1/2+y,-z
1/2-x,1/2-y,-z
1/2+x,1/2-y,z
loop_
_atom_site_type_symbol
_atom_site_label
_atom_site_fract_x
_atom_site_fract_y
_atom_site_fract_z
Si Si1 0.677636 0.177392 0.316339
Si Si2 0.903592 0.820789 0.847878
Si Si3 0.293955 0.319721 0.902161
Si Si4 0.318122 0.680176 0.493914
Si Si5 0.584268 0.819957 0.926132
Si Si6 0.388288 0.680063 0.189711
Si Si7 0.544210 0.179613 0.347104
O O1 0.661272 0.289095 0.248417
O O2 0.776856 0.205583 0.400315
O O3 0.608847 0.215825 0.329008
O O4 0.665489 0.000000 0.287499
O O5 0.856140 0.775089 0.882742
O O6 0.989288 0.716956 0.895514
O O7 0.931467 0.000000 0.864401
O O8 0.268808 0.500000 0.886864
O O9 0.207412 0.218685 0.843330
O O10 0.342253 0.279924 0.995300
O O11 0.330075 0.500000 0.515516
O O12 0.250000 0.750000 0.500000
O O13 0.410517 0.765404 0.560839
O O14 0.587523 0.781585 0.855570
O O15 0.604469 0.000000 0.948435
O O16 0.395584 0.500000 0.177210
O O17 0.455983 0.723630 0.284771
O O18 0.520843 0.000000 0.338262
#
# Coordination Sequence:
#
# PCOD8089902 Si02
#       7
#     8   8   8   8   8   8   8
#     4   9  18  32  53  81 115 150 187 230 280 334
#     4  11  23  38  60  86 115 152 192 235 284 338
#     4  11  25  43  59  82 116 151 191 238 287 340
#     4   9  17  29  48  78 114 149 185 232 282 332
#     4  12  24  40  62  86 114 148 190 239 287 337
#     4  12  24  39  61  86 114 151 192 235 286 343
#     4  10  19  33  54  83 115 149 186 232 284 336
#
# _framework density 19.653631000000001
#
# number of rings (size 3 to 8) (size 9 to 14) (size 15 to 20)
#    0.000    1.429    1.429    6.000    0.000    6.857 
#    0.000    0.000    0.000    0.857    0.000    6.000 
#    0.000    0.000    0.000    0.000    0.000    0.000 
#
# Total GULP energy -347280.892265 kJ/mol
# GULP energy per Si atom -12402.889009 kJ/mol
# Density = 1.960890 g / cm^3
# Si number density = 19.653631 Si / 1000 Ang^3
#
#
#
# Elastic Constant Matrix: (Units=GPa)
#
#
# Indices 1 2 3 4 5 6 
#
# 1 56.8717 24.9815 16.6081 0.0000 14.5875 0.0000
# 2 24.9815 78.6182 21.4930 0.0000 0.4697 0.0000
# 3 16.6081 21.4930 103.7452 0.0000 28.5193 0.0000
# 4 0.0000 0.0000 0.0000 38.0359 0.0000 4.2155
# 5 14.5875 0.4697 28.5193 0.0000 19.8886 0.0000
# 6 0.0000 0.0000 0.0000 4.2155 0.0000 26.6365
#
#
#
# Elastic Compliance Matrix: (Units=1/GPa)
#
#
# Indices 1 2 3 4 5 6 
#
# 1 0.027470 -0.009985 0.005191 0.000000 -0.027356 0.000000
# 2 -0.009985 0.017574 -0.006506 0.000000 0.016238 0.000000
# 3 0.005191 -0.006506 0.018422 0.000000 -0.030070 0.000000
# 4 0.000000 0.000000 0.000000 0.026760 0.000000 -0.004235
# 5 -0.027356 0.016238 -0.030070 0.000000 0.113081 0.000000
# 6 0.000000 0.000000 0.000000 -0.004235 0.000000 0.038213
#
#
# Mechanical properties :
#
#
# Convention : Reuss Voigt Hill
#
# Bulk Modulus (GPa) = 24.46955 40.60005 32.53480
# Shear Modulus (GPa) = 18.00231 28.65570 23.32900
#
# Velocity S-wave (km/s) = 3.02980 3.82257 3.44904
# Velocity P-wave (km/s) = 4.97162 6.33919 5.69659
#
# Compressibility (1/GPa) = 0.04086712
#
# Stress axis : x y z
#
# Youngs Moduli (GPa) = 36.40304 56.90200 54.28253
#
# Poissons Ratio (x) = 0.56814 -0.28179
# Poissons Ratio (y) = 0.36347 0.35317
# Poissons Ratio (z) = -0.18897 0.37022
#
# Static dielectric constant tensor:
#      x y z
#    x 3.268820 0.000000 0.198060 
#    y 0.000000 3.629490 0.000000 
#    z 0.198060 0.000000 4.064890 
# 
# 
# High freq. dielectric constant tensor:
#      x y z
#    x 1.725160 0.000000 0.018140 
#    y 0.000000 1.777190 0.000000 
#    z 0.018140 0.000000 1.782690 
# 
# From -- ./inp_files/320219.got.cif
#   From: 2010.06.25/outbox.cif.g09.slc.cpg/sg12_161_cif.got.tgz:320219.got - 2010.06.28 00:19:55.
