data_PCOD8089461
_publ_section_title
;
Structure prediction by ZEFSAII (Michael W. Deem and Ramdas Pophale) SiO2 
 PCOD8089461
Probable space group: C 2/M
;
_chemical_formula_sum "Si O2"
_cell_formula_units_Z 64
_cell_length_a 19.139768
_cell_length_b 8.805979
_cell_length_c 25.479382
_cell_angle_alpha 90.000000
_cell_angle_beta 125.235072
_cell_angle_gamma 90.000000
_cell_volume 3507.636867
_symmetry_space_group_name_H-M "C 2/M"
_symmetry_group_IT_number 12
_symmetry_cell_setting 'monoclinic'
loop_
_space_group_symop_operation_xyz
x,y,z
-x,y,-z
-x,-y,-z
x,-y,z
1/2+x,1/2+y,z
1/2-x,1/2+y,-z
1/2-x,1/2-y,-z
1/2+x,1/2-y,z
loop_
_atom_site_type_symbol
_atom_site_label
_atom_site_fract_x
_atom_site_fract_y
_atom_site_fract_z
Si Si1 0.000615 0.824279 0.560219
Si Si2 0.862398 0.828684 0.926156
Si Si3 0.560646 0.824359 0.309255
Si Si4 0.836432 0.176525 0.557119
Si Si5 0.896104 0.674657 0.307959
Si Si6 0.464136 0.669270 0.063471
Si Si7 0.428876 0.318594 0.798861
Si Si8 0.722158 0.177649 0.202245
O O1 0.907002 0.795073 0.543134
O O2 0.000000 0.770299 0.500000
O O3 0.070860 0.723864 0.620503
O O4 0.027123 0.000000 0.576929
O O5 0.794131 0.726692 0.865454
O O6 0.948097 0.835334 0.930047
O O7 0.825705 0.000000 0.916523
O O8 0.888686 0.754749 0.994878
O O9 0.636605 0.755844 0.377046
O O10 0.470342 0.798558 0.297958
O O11 0.557199 0.736908 0.253404
O O12 0.580586 0.000000 0.307950
O O13 0.750000 0.250000 0.500000
O O14 0.822274 0.000000 0.562281
O O15 0.866876 0.500000 0.297331
O O16 0.818505 0.780844 0.257967
O O17 0.430681 0.500000 0.059021
O O18 0.489911 0.744278 0.130744
O O19 0.426579 0.500000 0.800099
O O20 0.339615 0.259490 0.783190
O O21 0.707629 0.000000 0.201143
#
# Coordination Sequence:
#
# PCOD8089461 Si02
#       8
#     8   8   8   8   8   8   8   8
#     4   9  19  36  56  77 101 130 165 207 253 297
#     4   8  13  26  46  68  97 131 167 205 252 305
#     4  10  21  37  55  76 103 135 172 213 258 305
#     4  10  20  35  55  77 103 135 169 207 253 303
#     4  10  21  37  55  74 101 138 175 209 250 304
#     4   7  12  24  45  70  96 129 165 204 251 304
#     4  10  19  33  53  77 104 134 171 211 256 308
#     4  11  21  32  49  76 107 135 170 215 257 298
#
# _framework density 18.245902999999998
#
# number of rings (size 3 to 8) (size 9 to 14) (size 15 to 20)
#    0.000    2.625    0.000    4.125    0.000    3.250 
#    0.000    9.375    0.000    0.750    0.000    0.000 
#    0.000    0.000    0.000    0.000    0.000    0.000 
#
# Total GULP energy -396577.614373 kJ/mol
# GULP energy per Si atom -12393.050449 kJ/mol
# Density = 1.820437 g / cm^3
# Si number density = 18.245903 Si / 1000 Ang^3
#
#
#
# Elastic Constant Matrix: (Units=GPa)
#
#
# Indices 1 2 3 4 5 6 
#
# 1 40.4925 30.3347 57.5126 0.0000 -3.0482 0.0000
# 2 30.3347 92.1584 58.0163 0.0000 -1.9520 0.0000
# 3 57.5126 58.0163 171.4706 0.0000 -11.1319 0.0000
# 4 0.0000 0.0000 0.0000 27.6469 0.0000 -0.3957
# 5 -3.0482 -1.9520 -11.1319 0.0000 22.5521 0.0000
# 6 0.0000 0.0000 0.0000 -0.3957 0.0000 23.4091
#
#
#
# Elastic Compliance Matrix: (Units=1/GPa)
#
#
# Indices 1 2 3 4 5 6 
#
# 1 0.051115 -0.007640 -0.014622 0.000000 -0.000970 0.000000
# 2 -0.007640 0.014958 -0.002564 0.000000 -0.001003 0.000000
# 3 -0.014622 -0.002564 0.011840 0.000000 0.003646 0.000000
# 4 0.000000 0.000000 0.000000 0.036179 0.000000 0.000611
# 5 -0.000970 -0.001003 0.003646 0.000000 0.045924 0.000000
# 6 0.000000 0.000000 0.000000 0.000611 0.000000 0.042729
#
#
# Mechanical properties :
#
#
# Convention : Reuss Voigt Hill
#
# Bulk Modulus (GPa) = 35.38393 66.20541 50.79467
# Shear Modulus (GPa) = 19.09719 25.27215 22.18467
#
# Velocity S-wave (km/s) = 3.23872 3.72571 3.49072
# Velocity P-wave (km/s) = 5.78106 7.40755 6.64426
#
# Compressibility (1/GPa) = 0.02826142
#
# Stress axis : x y z
#
# Youngs Moduli (GPa) = 19.56366 66.85218 84.45615
#
# Poissons Ratio (x) = 0.51077 1.23495
# Poissons Ratio (y) = 0.14947 0.21651
# Poissons Ratio (z) = 0.28607 0.17138
#
# Static dielectric constant tensor:
#      x y z
#    x 3.017770 0.000000 -0.096160 
#    y 0.000000 3.330980 0.000000 
#    z -0.096160 0.000000 3.953080 
# 
# 
# High freq. dielectric constant tensor:
#      x y z
#    x 1.668250 0.000000 -0.001580 
#    y 0.000000 1.700380 0.000000 
#    z -0.001580 0.000000 1.732060 
# 
# From -- ./inp_files/346241.got.cif
#   From: 2010.06.25/outbox.cif.g09.slc.cpg/sg12_174_cif.got.tgz:346241.got - 2010.06.28 00:19:55.
