data_PCOD8089520
_publ_section_title
;
Structure prediction by ZEFSAII (Michael W. Deem and Ramdas Pophale) SiO2 
 PCOD8089520
Probable space group: C 2/M
;
_chemical_formula_sum "Si O2"
_cell_formula_units_Z 64
_cell_length_a 24.330804
_cell_length_b 9.444125
_cell_length_c 31.480893
_cell_angle_alpha 90.000000
_cell_angle_beta 151.550523
_cell_angle_gamma 90.000000
_cell_volume 3446.053923
_symmetry_space_group_name_H-M "C 2/M"
_symmetry_group_IT_number 12
_symmetry_cell_setting 'monoclinic'
loop_
_space_group_symop_operation_xyz
x,y,z
-x,y,-z
-x,-y,-z
x,-y,z
1/2+x,1/2+y,z
1/2-x,1/2+y,-z
1/2-x,1/2-y,-z
1/2+x,1/2-y,z
loop_
_atom_site_type_symbol
_atom_site_label
_atom_site_fract_x
_atom_site_fract_y
_atom_site_fract_z
Si Si1 0.966606 0.666802 0.431063
Si Si2 0.256610 0.333300 0.770445
Si Si3 0.212395 0.165856 0.114623
Si Si4 0.606378 0.336761 0.370011
Si Si5 0.869050 0.337609 0.532557
Si Si6 0.638631 0.841519 0.933372
Si Si7 0.072409 0.655946 0.794282
Si Si8 0.986222 0.833516 0.080865
O O1 0.951006 0.500000 0.425890
O O2 0.847502 0.729775 0.329631
O O3 0.000000 0.732684 0.500000
O O4 0.072936 0.705033 0.472421
O O5 0.236634 0.500000 0.760232
O O6 0.257381 0.265836 0.818762
O O7 0.379633 0.297515 0.833573
O O8 0.307023 0.209991 0.143857
O O9 0.209533 0.000000 0.119981
O O10 0.087019 0.211268 0.010946
O O11 0.580643 0.500000 0.359921
O O12 0.733297 0.309301 0.437904
O O13 0.578087 0.258367 0.394696
O O14 0.523080 0.273327 0.278498
O O15 0.896858 0.500000 0.562789
O O16 0.573835 0.857773 0.845277
O O17 0.554751 0.759863 0.907897
O O18 0.669092 0.000000 0.971305
O O19 0.750000 0.750000 0.000000
O O20 0.041864 0.500000 0.754337
O O21 0.966349 0.000000 0.077175
#
# Coordination Sequence:
#
# PCOD8089520 Si02
#       8
#     8   8   8   8   8   8   8   8
#     4   9  17  30  50  76 104 136 176 220 263 308
#     4   9  17  28  50  79 103 133 176 223 264 307
#     4   9  16  30  51  76 104 136 176 219 265 315
#     4  10  20  32  51  81 108 135 175 221 268 318
#     4   9  18  34  54  75 107 142 173 219 274 319
#     4  11  22  37  55  76 105 143 180 214 261 317
#     4  10  20  34  53  76 105 141 178 215 263 318
#     4  10  19  33  53  79 107 136 175 223 268 315
#
# _framework density 18.571967999999998
#
# number of rings (size 3 to 8) (size 9 to 14) (size 15 to 20)
#    0.000    2.375    1.250    1.875    0.000    6.000 
#    0.000    2.500    0.000    4.875    0.000    0.000 
#    0.000    0.000    0.000    0.000    0.000    0.000 
#
# Total GULP energy -396631.472956 kJ/mol
# GULP energy per Si atom -12394.733530 kJ/mol
# Density = 1.852970 g / cm^3
# Si number density = 18.571968 Si / 1000 Ang^3
#
#
#
# Elastic Constant Matrix: (Units=GPa)
#
#
# Indices 1 2 3 4 5 6 
#
# 1 132.4061 39.3708 62.1819 0.0000 -9.7581 0.0000
# 2 39.3708 55.3073 32.8583 0.0003 1.3283 0.0000
# 3 62.1819 32.8583 124.7402 0.0000 -6.5109 0.0000
# 4 0.0000 0.0003 0.0000 21.5345 0.0000 -0.4452
# 5 -9.7581 1.3283 -6.5109 0.0000 23.3554 0.0000
# 6 0.0000 0.0000 0.0000 -0.4452 0.0000 24.1682
#
#
#
# Elastic Compliance Matrix: (Units=1/GPa)
#
#
# Indices 1 2 3 4 5 6 
#
# 1 0.011459 -0.005910 -0.003946 0.000000 0.004024 0.000000
# 2 -0.005910 0.024670 -0.003810 0.000000 -0.004934 0.000000
# 3 -0.003946 -0.003810 0.011073 0.000000 0.001655 0.000000
# 4 0.000000 0.000000 0.000000 0.046455 0.000000 0.000856
# 5 0.004024 -0.004934 0.001655 0.000000 0.045240 0.000000
# 6 0.000000 0.000000 0.000000 0.000856 0.000000 0.041392
#
#
# Mechanical properties :
#
#
# Convention : Reuss Voigt Hill
#
# Bulk Modulus (GPa) = 50.32253 64.58617 57.45435
# Shear Modulus (GPa) = 23.33781 25.68113 24.50947
#
# Velocity S-wave (km/s) = 3.54872 3.72262 3.63671
# Velocity P-wave (km/s) = 6.62918 7.30266 6.97406
#
# Compressibility (1/GPa) = 0.01987181
#
# Stress axis : x y z
#
# Youngs Moduli (GPa) = 87.26480 40.53540 90.30591
#
# Poissons Ratio (x) = 0.23956 0.35631
# Poissons Ratio (y) = 0.51573 0.34405
# Poissons Ratio (z) = 0.34431 0.15443
#
# Static dielectric constant tensor:
#      x y z
#    x 3.724510 0.000000 -0.105370 
#    y 0.000000 3.153870 0.000000 
#    z -0.105370 0.000000 3.613320 
# 
# 
# High freq. dielectric constant tensor:
#      x y z
#    x 1.725040 0.000000 -0.000040 
#    y 0.000000 1.676590 0.000000 
#    z -0.000040 0.000000 1.727430 
# 
# From -- ./inp_files/382450.got.cif
#   From: 2010.06.25/outbox.cif.g09.slc.cpg/sg12_192_cif.got.tgz:382450.got - 2010.06.28 00:19:55.
