data_PCOD8089571
_publ_section_title
;
Structure prediction by ZEFSAII (Michael W. Deem and Ramdas Pophale) SiO2 
 PCOD8089571
Probable space group: C 2/M
;
_chemical_formula_sum "Si O2"
_cell_formula_units_Z 56
_cell_length_a 20.234287
_cell_length_b 9.542546
_cell_length_c 21.773800
_cell_angle_alpha 90.000000
_cell_angle_beta 45.265791
_cell_angle_gamma 90.000000
_cell_volume 2986.597816
_symmetry_space_group_name_H-M "C 2/M"
_symmetry_group_IT_number 12
_symmetry_cell_setting 'monoclinic'
loop_
_space_group_symop_operation_xyz
x,y,z
-x,y,-z
-x,-y,-z
x,-y,z
1/2+x,1/2+y,z
1/2-x,1/2+y,-z
1/2-x,1/2-y,-z
1/2+x,1/2-y,z
loop_
_atom_site_type_symbol
_atom_site_label
_atom_site_fract_x
_atom_site_fract_y
_atom_site_fract_z
Si Si1 0.757612 0.836737 0.433313
Si Si2 0.102554 0.847063 0.493492
Si Si3 0.098096 0.164186 0.764032
Si Si4 0.230958 0.837168 0.784292
Si Si5 0.744523 0.339097 0.913670
Si Si6 0.096246 0.152154 0.354905
Si Si7 0.888891 0.835611 0.888103
O O1 0.750000 0.750000 0.500000
O O2 0.670923 0.784433 0.451046
O O3 0.850039 0.801512 0.333746
O O4 0.749419 0.000000 0.452471
O O5 0.084566 0.864087 0.434348
O O6 0.010289 0.810682 0.594695
O O7 0.141018 0.000000 0.492505
O O8 0.154954 0.227041 0.785993
O O9 0.993650 0.225263 0.827002
O O10 0.090293 0.000000 0.780625
O O11 0.201421 0.810486 0.874256
O O12 0.331995 0.769491 0.711706
O O13 0.243888 0.000000 0.760951
O O14 0.776531 0.500000 0.899124
O O15 0.835249 0.243971 0.868110
O O16 0.662172 0.303029 0.014496
O O17 0.126112 0.000000 0.307587
O O18 0.889176 0.000000 0.871785
#
# Coordination Sequence:
#
# PCOD8089571 Si02
#       7
#     8   8   8   8   8   8   8
#     4  11  22  36  53  75 104 139 178 220 264 314
#     4   9  18  34  52  72  99 133 175 217 256 305
#     4   9  19  35  55  78 104 138 177 218 263 312
#     4  10  19  33  53  81 112 135 172 224 266 312
#     4   9  19  34  55  82 108 135 170 218 265 309
#     4   9  18  32  52  75 101 134 171 212 260 310
#     4   9  18  36  58  77 104 142 177 209 258 321
#
# _framework density 18.750432
#
# number of rings (size 3 to 8) (size 9 to 14) (size 15 to 20)
#    0.000    2.571    1.429    1.286    0.000    2.857 
#    0.000   10.714    0.000    0.000    0.000    5.000 
#    0.000    0.000    0.000    0.000    0.000    0.000 
#
# Total GULP energy -346894.796480 kJ/mol
# GULP energy per Si atom -12389.099874 kJ/mol
# Density = 1.870775 g / cm^3
# Si number density = 18.750432 Si / 1000 Ang^3
#
#
#
# Elastic Constant Matrix: (Units=GPa)
#
#
# Indices 1 2 3 4 5 6 
#
# 1 70.3223 41.1890 56.0049 0.0000 -11.3932 0.0000
# 2 41.1890 64.7402 45.5944 -0.0001 -7.0414 0.0000
# 3 56.0049 45.5944 92.5520 0.0000 -13.8997 0.0000
# 4 0.0000 -0.0001 0.0000 26.0846 0.0000 -1.4148
# 5 -11.3932 -7.0414 -13.8997 0.0000 33.7021 0.0000
# 6 0.0000 0.0000 0.0000 -1.4148 0.0000 28.4518
#
#
#
# Elastic Compliance Matrix: (Units=1/GPa)
#
#
# Indices 1 2 3 4 5 6 
#
# 1 0.031458 -0.010105 -0.013621 0.000000 0.002905 0.000000
# 2 -0.010105 0.026899 -0.007255 0.000000 -0.000788 0.000000
# 3 -0.013621 -0.007255 0.023135 0.000000 0.003421 0.000000
# 4 0.000000 0.000000 0.000000 0.038441 0.000000 0.001912
# 5 0.002905 -0.000788 0.003421 0.000000 0.031900 0.000000
# 6 0.000000 0.000000 0.000000 0.001912 0.000000 0.035242
#
#
# Mechanical properties :
#
#
# Convention : Reuss Voigt Hill
#
# Bulk Modulus (GPa) = 51.20523 57.02123 54.11323
# Shear Modulus (GPa) = 19.56586 23.30277 21.43432
#
# Velocity S-wave (km/s) = 3.23381 3.52914 3.38470
# Velocity P-wave (km/s) = 6.42740 6.86171 6.64810
#
# Compressibility (1/GPa) = 0.01952926
#
# Stress axis : x y z
#
# Youngs Moduli (GPa) = 31.78881 37.17582 43.22448
#
# Poissons Ratio (x) = 0.37566 0.58877
# Poissons Ratio (y) = 0.32123 0.31360
# Poissons Ratio (z) = 0.43300 0.26972
#
# Static dielectric constant tensor:
#      x y z
#    x 3.152750 0.000000 0.072900 
#    y 0.000000 1.636460 0.000000 
#    z 0.072900 0.000000 3.464780 
# 
# 
# High freq. dielectric constant tensor:
#      x y z
#    x 1.726610 0.000000 0.000300 
#    y 0.000000 1.709660 0.000000 
#    z 0.000300 0.000000 1.726900 
# 
# From -- ./inp_files/320928.got.cif
#   From: 2010.06.25/outbox.cif.g09.slc.cpg/sg12_161_cif.got.tgz:320928.got - 2010.06.28 00:19:55.
