data_PCOD8089365
_publ_section_title
;
Structure prediction by ZEFSAII (Michael W. Deem and Ramdas Pophale) SiO2 
 PCOD8089365
Probable space group: C 2/M
;
_chemical_formula_sum "Si O2"
_cell_formula_units_Z 56
_cell_length_a 13.015703
_cell_length_b 27.054464
_cell_length_c 11.872249
_cell_angle_alpha 90.000000
_cell_angle_beta 48.895871
_cell_angle_gamma 90.000000
_cell_volume 3150.155912
_symmetry_space_group_name_H-M "C 2/M"
_symmetry_group_IT_number 12
_symmetry_cell_setting 'monoclinic'
loop_
_space_group_symop_operation_xyz
x,y,z
-x,y,-z
-x,-y,-z
x,-y,z
1/2+x,1/2+y,z
1/2-x,1/2+y,-z
1/2-x,1/2-y,-z
1/2+x,1/2-y,z
loop_
_atom_site_type_symbol
_atom_site_label
_atom_site_fract_x
_atom_site_fract_y
_atom_site_fract_z
Si Si1 0.168650 0.269595 0.257532
Si Si2 0.393990 0.877171 0.317518
Si Si3 0.141453 0.442529 0.453778
Si Si4 0.161087 0.944613 0.889671
Si Si5 0.372721 0.778555 0.464959
Si Si6 0.660690 0.828930 0.867191
Si Si7 0.697442 0.863074 0.078247
O O1 0.163846 0.295535 0.382705
O O2 0.275018 0.225165 0.192769
O O3 0.211134 0.311006 0.135679
O O4 0.015101 0.247968 0.348315
O O5 0.326772 0.918496 0.446361
O O6 0.398989 0.827145 0.379405
O O7 0.314563 0.866226 0.256857
O O8 0.551662 0.890419 0.184541
O O9 0.126513 0.500000 0.489000
O O10 0.267720 0.430468 0.280333
O O11 0.000000 0.422280 0.500000
O O12 0.196933 0.903674 0.955669
O O13 0.210239 0.000000 0.889397
O O14 0.000000 0.943720 0.000000
O O15 0.250000 0.750000 0.500000
O O16 0.500000 0.820458 0.000000
O O17 0.733421 0.852716 0.922563
#
# Coordination Sequence:
#
# PCOD8089365 Si02
#       7
#     8   8   8   8   8   8   8
#     4  10  20  34  52  77 104 142 190 224 265 328
#     4  10  19  34  55  79 108 138 182 228 268 323
#     4  10  19  34  61  86 106 137 179 228 272 320
#     4  10  21  38  57  83 113 138 173 227 283 328
#     4  10  19  33  53  74 107 142 178 231 280 311
#     4  10  21  36  51  73 111 148 177 225 274 320
#     4  10  20  35  53  76 106 145 182 223 272 323
#
# _framework density 17.776897000000002
#
# number of rings (size 3 to 8) (size 9 to 14) (size 15 to 20)
#    0.000    2.000    2.857    1.286    2.000    0.571 
#    5.143    0.714    0.000    2.571    0.000    3.000 
#    0.000    0.000    0.000    0.000    0.000    0.000 
#
# Total GULP energy -346959.105557 kJ/mol
# GULP energy per Si atom -12391.396627 kJ/mol
# Density = 1.773644 g / cm^3
# Si number density = 17.776897 Si / 1000 Ang^3
#
#
#
# Elastic Constant Matrix: (Units=GPa)
#
#
# Indices 1 2 3 4 5 6 
#
# 1 96.1126 44.5044 46.7358 0.0000 17.1917 0.0000
# 2 44.5044 61.3048 30.4879 0.0000 4.3010 0.0000
# 3 46.7358 30.4879 94.2114 0.0000 13.9887 0.0000
# 4 0.0000 0.0000 0.0000 1.1768 0.0000 15.7716
# 5 17.1917 4.3010 13.9887 0.0000 34.2490 0.0000
# 6 0.0000 0.0000 0.0000 15.7716 0.0000 3.1870
#
#
#
# Elastic Compliance Matrix: (Units=1/GPa)
#
#
# Indices 1 2 3 4 5 6 
#
# 1 0.018940 -0.010845 -0.004979 0.000000 -0.006112 0.000000
# 2 -0.010845 0.025651 -0.003461 0.000000 0.003636 0.000000
# 3 -0.004979 -0.003461 0.014658 0.000000 -0.003053 0.000000
# 4 0.000000 0.000000 0.000000 -0.013009 0.000000 0.064376
# 5 -0.006112 0.003636 -0.003053 0.000000 0.033056 0.000000
# 6 0.000000 0.000000 0.000000 0.064376 0.000000 -0.004803
#
#
# Mechanical properties :
#
#
# Convention : Reuss Voigt Hill
#
# Bulk Modulus (GPa) = 48.35693 55.00942 51.68318
# Shear Modulus (GPa) = 41.68200 16.38261 29.03230
#
# Velocity S-wave (km/s) = 4.84749 3.03903 4.04561
# Velocity P-wave (km/s) = 7.65455 6.58223 7.13855
#
# Compressibility (1/GPa) = 0.02067956
#
# Stress axis : x y z
#
# Youngs Moduli (GPa) = 52.79718 38.98484 68.22415
#
# Poissons Ratio (x) = 0.42279 0.33967
# Poissons Ratio (y) = 0.57259 0.23612
# Poissons Ratio (z) = 0.26286 0.13492
#
# Static dielectric constant tensor:
#      x y z
#    x 3.364350 0.000000 0.198430 
#    y 0.000000 3.198050 0.000000 
#    z 0.198430 0.000000 3.528030 
# 
# 
# High freq. dielectric constant tensor:
#      x y z
#    x 1.679160 0.000000 0.009180 
#    y 0.000000 1.671680 0.000000 
#    z 0.009180 0.000000 1.694290 
# 
# From -- ./inp_files/136946.got.cif
#   From: 2010.06.25/outbox.cif.g09.slc.cpg/sg12_69_cif.got.tgz:136946.got - 2010.06.28 00:19:55.
