data_PCOD8089129
_publ_section_title
;
Structure prediction by ZEFSAII (Michael W. Deem and Ramdas Pophale) SiO2 
 PCOD8089129
Probable space group: C 2/M
;
_chemical_formula_sum "Si O2"
_cell_formula_units_Z 64
_cell_length_a 27.812428
_cell_length_b 9.268448
_cell_length_c 14.351420
_cell_angle_alpha 90.000000
_cell_angle_beta 73.045116
_cell_angle_gamma 90.000000
_cell_volume 3538.681832
_symmetry_space_group_name_H-M "C 2/M"
_symmetry_group_IT_number 12
_symmetry_cell_setting 'monoclinic'
loop_
_space_group_symop_operation_xyz
x,y,z
-x,y,-z
-x,-y,-z
x,-y,z
1/2+x,1/2+y,z
1/2-x,1/2+y,-z
1/2-x,1/2-y,-z
1/2+x,1/2-y,z
loop_
_atom_site_type_symbol
_atom_site_label
_atom_site_fract_x
_atom_site_fract_y
_atom_site_fract_z
Si Si1 0.247774 0.668242 0.404856
Si Si2 0.658881 0.667726 0.773027
Si Si3 0.999192 0.670723 0.608643
Si Si4 0.903976 0.163000 0.702967
Si Si5 0.189064 0.168018 0.115477
Si Si6 0.656315 0.340505 0.438649
Si Si7 0.089399 0.164206 0.647746
Si Si8 0.197201 0.331182 0.922349
O O1 0.246588 0.500000 0.425253
O O2 0.250000 0.750000 0.500000
O O3 0.293405 0.713975 0.314416
O O4 0.196347 0.720160 0.385154
O O5 0.661439 0.500000 0.799069
O O6 0.608177 0.700232 0.742186
O O7 0.660972 0.762075 0.865007
O O8 0.997881 0.500000 0.615548
O O9 0.951176 0.732614 0.691669
O O10 0.000000 0.721743 0.500000
O O11 0.047374 0.725487 0.637919
O O12 0.854944 0.212177 0.788373
O O13 0.891763 0.174047 0.600477
O O14 0.919346 0.000000 0.721889
O O15 0.243670 0.201545 0.130299
O O16 0.186142 0.000000 0.089596
O O17 0.180733 0.263469 0.029283
O O18 0.680589 0.500000 0.412655
O O19 0.638460 0.319756 0.554836
O O20 0.068818 0.000000 0.653690
O O21 0.186167 0.500000 0.931781
#
# Coordination Sequence:
#
# PCOD8089129 Si02
#       8
#     8   8   8   8   8   8   8   8
#     4  11  21  32  47  71 105 143 180 217 261 312
#     4  10  21  36  52  75 107 146 185 221 265 321
#     4  11  23  36  52  79 112 142 183 234 280 321
#     4  10  20  35  58  80 105 144 184 223 271 325
#     4   9  19  36  57  84 113 142 180 223 267 324
#     4  10  19  33  51  75 106 140 181 221 259 318
#     4  10  20  36  55  73 103 146 187 221 263 321
#     4  10  20  35  58  85 112 144 179 221 272 322
#
# _framework density 18.085830000000001
#
# number of rings (size 3 to 8) (size 9 to 14) (size 15 to 20)
#    0.000    1.875    2.500    1.875    0.000    5.000 
#    0.000    0.000    0.000    0.750    0.000    5.250 
#    0.000    0.000    0.000    0.000    0.000    0.000 
#
# Total GULP energy -396771.506965 kJ/mol
# GULP energy per Si atom -12399.109593 kJ/mol
# Density = 1.804467 g / cm^3
# Si number density = 18.085830 Si / 1000 Ang^3
#
#
#
# Elastic Constant Matrix: (Units=GPa)
#
#
# Indices 1 2 3 4 5 6 
#
# 1 84.7182 39.4125 34.1923 0.0000 8.0940 0.0000
# 2 39.4125 63.8304 38.0496 0.0000 7.1153 0.0000
# 3 34.1923 38.0496 77.1324 0.0000 13.3491 0.0000
# 4 0.0000 0.0000 0.0000 29.1097 0.0000 1.7604
# 5 8.0940 7.1153 13.3491 0.0000 28.5314 0.0000
# 6 0.0000 0.0000 0.0000 1.7604 0.0000 33.7401
#
#
#
# Elastic Compliance Matrix: (Units=1/GPa)
#
#
# Indices 1 2 3 4 5 6 
#
# 1 0.017199 -0.008591 -0.003170 0.000000 -0.001254 0.000000
# 2 -0.008591 0.026489 -0.009289 0.000000 0.000177 0.000000
# 3 -0.003170 -0.009289 0.020017 0.000000 -0.006149 0.000000
# 4 0.000000 0.000000 0.000000 0.034462 0.000000 -0.001798
# 5 -0.001254 0.000177 -0.006149 0.000000 0.038238 0.000000
# 6 0.000000 0.000000 0.000000 -0.001798 0.000000 0.029732
#
#
# Mechanical properties :
#
#
# Convention : Reuss Voigt Hill
#
# Bulk Modulus (GPa) = 46.28521 49.88774 48.08648
# Shear Modulus (GPa) = 23.20862 25.87800 24.54331
#
# Velocity S-wave (km/s) = 3.58613 3.78675 3.68781
# Velocity P-wave (km/s) = 6.54176 6.83836 6.69170
#
# Compressibility (1/GPa) = 0.02160517
#
# Stress axis : x y z
#
# Youngs Moduli (GPa) = 58.14133 37.75204 49.95875
#
# Poissons Ratio (x) = 0.32432 0.15835
# Poissons Ratio (y) = 0.49948 0.46409
# Poissons Ratio (z) = 0.18428 0.35069
#
# Static dielectric constant tensor:
#      x y z
#    x 3.321850 0.000000 0.086870 
#    y 0.000000 3.463470 0.000000 
#    z 0.086870 0.000000 3.190240 
# 
# 
# High freq. dielectric constant tensor:
#      x y z
#    x 1.692270 0.000000 0.010840 
#    y 0.000000 1.700990 0.000000 
#    z 0.010840 0.000000 1.682770 
# 
# From -- ./inp_files/243961.got.cif
#   From: 2010.06.25/outbox.cif.g09.slc.cpg/sg12_122_cif.got.tgz:243961.got - 2010.06.28 00:19:55.
