data_PCOD8089532
_publ_section_title
;
Structure prediction by ZEFSAII (Michael W. Deem and Ramdas Pophale) SiO2 
 PCOD8089532
Probable space group: C 2/M
;
_chemical_formula_sum "Si O2"
_cell_formula_units_Z 64
_cell_length_a 12.082885
_cell_length_b 18.918532
_cell_length_c 30.498686
_cell_angle_alpha 90.000000
_cell_angle_beta 149.142224
_cell_angle_gamma 90.000000
_cell_volume 3575.850259
_symmetry_space_group_name_H-M "C 2/M"
_symmetry_group_IT_number 12
_symmetry_cell_setting 'monoclinic'
loop_
_space_group_symop_operation_xyz
x,y,z
-x,y,-z
-x,-y,-z
x,-y,z
1/2+x,1/2+y,z
1/2-x,1/2+y,-z
1/2-x,1/2-y,-z
1/2+x,1/2-y,z
loop_
_atom_site_type_symbol
_atom_site_label
_atom_site_fract_x
_atom_site_fract_y
_atom_site_fract_z
Si Si1 0.616987 0.080458 0.760401
Si Si2 0.686293 0.178252 0.000794
Si Si3 0.190876 0.918203 0.269620
Si Si4 0.295664 0.676799 0.138729
Si Si5 0.018022 0.311342 0.592380
Si Si6 0.714154 0.736592 0.557703
Si Si7 0.524630 0.580522 0.959338
Si Si8 0.100982 0.278460 0.291488
O O1 0.726418 0.100474 0.751202
O O2 0.432078 0.137540 0.710736
O O3 0.794559 0.086318 0.858289
O O4 0.522545 0.000000 0.726782
O O5 0.430327 0.163117 0.913791
O O6 0.750000 0.250000 0.000000
O O7 0.769361 0.187059 0.078226
O O8 0.795930 0.116579 0.010047
O O9 0.344184 0.882781 0.358307
O O10 0.949502 0.890751 0.196231
O O11 0.190266 0.000000 0.278634
O O12 0.399606 0.746691 0.196310
O O13 0.173372 0.242420 0.655769
O O14 0.842530 0.316020 0.570643
O O15 0.886347 0.304881 0.502098
O O16 0.500000 0.693072 0.500000
O O17 0.866353 0.760477 0.649965
O O18 0.602037 0.500000 0.990326
O O19 0.500000 0.614266 0.000000
#
# Coordination Sequence:
#
# PCOD8089532 Si02
#       8
#     8   8   8   8   8   8   8   8
#     4  10  19  33  55  79 109 145 184 230 281 331
#     4  11  23  36  53  80 115 146 191 243 286 322
#     4  10  19  35  57  83 112 141 185 231 276 335
#     4  10  23  35  53  83 108 151 190 235 287 328
#     4   9  18  32  55  81 105 144 177 216 273 329
#     4   9  17  32  54  78 107 134 176 219 258 330
#     4  10  22  39  57  77 107 153 192 228 282 342
#     4  10  19  33  53  79 111 137 183 226 270 334
#
# _framework density 17.897841
#
# number of rings (size 3 to 8) (size 9 to 14) (size 15 to 20)
#    0.000    2.125    2.500    0.750    3.500    0.500 
#    0.000    1.250    0.000   19.875    0.000    0.000 
#    0.000    0.000    0.000    0.000    0.000    0.000 
#
# Total GULP energy -396424.487495 kJ/mol
# GULP energy per Si atom -12388.265234 kJ/mol
# Density = 1.785710 g / cm^3
# Si number density = 17.897841 Si / 1000 Ang^3
#
#
#
# Elastic Constant Matrix: (Units=GPa)
#
#
# Indices 1 2 3 4 5 6 
#
# 1 108.9830 48.0053 46.3264 -0.0001 8.3995 -0.0001
# 2 48.0053 108.9649 42.7978 -0.0004 9.9296 -0.0001
# 3 46.3264 42.7978 103.1824 -0.0011 -7.9622 0.0000
# 4 -0.0001 -0.0004 -0.0011 17.8398 -0.0002 2.2125
# 5 8.3995 9.9296 -7.9622 -0.0002 27.7976 0.0000
# 6 -0.0001 -0.0001 0.0000 2.2125 0.0000 26.9072
#
#
#
# Elastic Compliance Matrix: (Units=1/GPa)
#
#
# Indices 1 2 3 4 5 6 
#
# 1 0.013040 -0.003532 -0.004700 0.000000 -0.004025 0.000000
# 2 -0.003532 0.012753 -0.004063 0.000000 -0.004652 0.000000
# 3 -0.004700 -0.004063 0.014018 0.000001 0.006887 0.000000
# 4 0.000000 0.000000 0.000001 0.056632 0.000001 -0.004657
# 5 -0.004025 -0.004652 0.006887 0.000001 0.040825 0.000000
# 6 0.000000 0.000000 0.000000 -0.004657 0.000000 0.037548
#
#
# Mechanical properties :
#
#
# Convention : Reuss Voigt Hill
#
# Bulk Modulus (GPa) = 65.69766 66.15438 65.92602
# Shear Modulus (GPa) = 24.45240 26.77564 25.61402
#
# Velocity S-wave (km/s) = 3.70025 3.87205 3.78712
# Velocity P-wave (km/s) = 7.41907 7.55200 7.48583
#
# Compressibility (1/GPa) = 0.01522124
#
# Stress axis : x y z
#
# Youngs Moduli (GPa) = 76.68953 78.41312 71.33470
#
# Poissons Ratio (x) = 0.27695 0.33528
# Poissons Ratio (y) = 0.27086 0.28983
# Poissons Ratio (z) = 0.36045 0.31858
#
# Static dielectric constant tensor:
#      x y z
#    x 3.618660 0.000000 0.021870 
#    y 0.000000 3.174210 -0.000010 
#    z 0.021870 -0.000010 3.141310 
# 
# 
# High freq. dielectric constant tensor:
#      x y z
#    x 1.699760 0.000000 -0.005290 
#    y 0.000000 1.663870 0.000000 
#    z -0.005290 0.000000 1.702800 
# 
# From -- ./inp_files/374506.got.cif
#   From: 2010.06.25/outbox.cif.g09.slc.cpg/sg12_188_cif.got.tgz:374506.got - 2010.06.28 00:19:55.
