data_PCOD8089456
_publ_section_title
;
Structure prediction by ZEFSAII (Michael W. Deem and Ramdas Pophale) SiO2 
 PCOD8089456
Probable space group: C 2/M
;
_chemical_formula_sum "Si O2"
_cell_formula_units_Z 56
_cell_length_a 20.476599
_cell_length_b 9.533876
_cell_length_c 30.148544
_cell_angle_alpha 90.000000
_cell_angle_beta 146.785773
_cell_angle_gamma 90.000000
_cell_volume 3223.982601
_symmetry_space_group_name_H-M "C 2/M"
_symmetry_group_IT_number 12
_symmetry_cell_setting 'monoclinic'
loop_
_space_group_symop_operation_xyz
x,y,z
-x,y,-z
-x,-y,-z
x,-y,z
1/2+x,1/2+y,z
1/2-x,1/2+y,-z
1/2-x,1/2-y,-z
1/2+x,1/2-y,z
loop_
_atom_site_type_symbol
_atom_site_label
_atom_site_fract_x
_atom_site_fract_y
_atom_site_fract_z
Si Si1 0.183376 0.163585 0.740779
Si Si2 0.925279 0.837222 0.000466
Si Si3 0.698569 0.665812 0.852088
Si Si4 0.892418 0.163643 0.818583
Si Si5 0.954393 0.166041 0.755603
Si Si6 0.414765 0.339397 0.569860
Si Si7 0.223405 0.837621 0.418844
O O1 0.192578 0.207549 0.797222
O O2 0.274985 0.251860 0.764097
O O3 0.053174 0.201073 0.648264
O O4 0.211857 0.000000 0.751360
O O5 0.807800 0.744039 0.937414
O O6 0.889049 0.000000 0.976749
O O7 0.000000 0.790948 0.000000
O O8 0.002066 0.804009 0.087437
O O9 0.714899 0.500000 0.867770
O O10 0.579708 0.723642 0.808375
O O11 0.936303 0.216017 0.795563
O O12 0.859305 0.000000 0.799618
O O13 0.844295 0.220619 0.663134
O O14 0.958327 0.000000 0.753470
O O15 0.395454 0.500000 0.545414
O O16 0.346496 0.246173 0.494751
O O17 0.364928 0.310358 0.590468
O O18 0.257159 0.000000 0.433409
#
# Coordination Sequence:
#
# PCOD8089456 Si02
#       7
#     8   8   8   8   8   8   8
#     4  10  19  33  53  77 103 132 169 211 252 299
#     4  10  20  34  50  75 108 135 164 209 260 301
#     4  10  19  33  56  78  98 131 174 213 249 298
#     4  10  21  36  54  73 102 140 171 205 254 307
#     4   9  18  35  55  76 102 135 172 209 252 299
#     4   9  17  30  50  77 104 129 162 208 257 296
#     4   9  16  30  52  76 101 129 166 210 249 294
#
# _framework density 17.369821000000002
#
# number of rings (size 3 to 8) (size 9 to 14) (size 15 to 20)
#    0.000    2.429    2.857    0.000    0.000    2.000 
#    0.000    2.857    0.000    4.286    0.000    0.000 
#    0.000    0.000    0.000    0.000    0.000    0.000 
#
# Total GULP energy -347246.973080 kJ/mol
# GULP energy per Si atom -12401.677610 kJ/mol
# Density = 1.733029 g / cm^3
# Si number density = 17.369821 Si / 1000 Ang^3
#
#
#
# Elastic Constant Matrix: (Units=GPa)
#
#
# Indices 1 2 3 4 5 6 
#
# 1 107.7568 38.5348 73.6055 0.0000 2.7785 0.0001
# 2 38.5348 46.4777 56.0490 0.0000 8.3879 0.0003
# 3 73.6055 56.0490 152.2666 0.0000 2.9198 0.0000
# 4 0.0000 0.0000 0.0000 32.6314 0.0000 6.7732
# 5 2.7785 8.3879 2.9198 0.0000 29.3179 0.0000
# 6 0.0001 0.0003 0.0000 6.7732 0.0000 21.9005
#
#
#
# Elastic Compliance Matrix: (Units=1/GPa)
#
#
# Indices 1 2 3 4 5 6 
#
# 1 0.014929 -0.006899 -0.004697 0.000000 0.001027 0.000000
# 2 -0.006899 0.044823 -0.012956 0.000000 -0.010880 -0.000001
# 3 -0.004697 -0.012956 0.013553 0.000000 0.002802 0.000000
# 4 0.000000 0.000000 0.000000 0.032748 0.000000 -0.010128
# 5 0.001027 -0.010880 0.002802 0.000000 0.036845 0.000000
# 6 0.000000 -0.000001 0.000000 -0.010128 0.000000 0.048793
#
#
# Mechanical properties :
#
#
# Convention : Reuss Voigt Hill
#
# Bulk Modulus (GPa) = 41.31882 71.43110 56.37496
# Shear Modulus (GPa) = 20.09153 25.99075 23.04114
#
# Velocity S-wave (km/s) = 3.40471 3.87242 3.64607
# Velocity P-wave (km/s) = 6.26860 7.82350 7.08881
#
# Compressibility (1/GPa) = 0.02420204
#
# Stress axis : x y z
#
# Youngs Moduli (GPa) = 66.98312 22.31020 73.78374
#
# Poissons Ratio (x) = 0.15391 0.34656
# Poissons Ratio (y) = 0.46211 0.95591
# Poissons Ratio (z) = 0.31462 0.28904
#
# Static dielectric constant tensor:
#      x y z
#    x 3.169670 0.000000 -0.019700 
#    y 0.000000 3.054330 0.000000 
#    z -0.019700 0.000000 3.372200 
# 
# 
# High freq. dielectric constant tensor:
#      x y z
#    x 1.658790 0.000000 0.003070 
#    y 0.000000 1.651850 0.000000 
#    z 0.003070 0.000000 1.683610 
# 
# From -- ./inp_files/275680.got.cif
#   From: 2010.06.25/outbox.cif.g09.slc.cpg/sg12_138_cif.got.tgz:275680.got - 2010.06.28 00:19:55.
