data_PCOD8089954
_publ_section_title
;
Structure prediction by ZEFSAII (Michael W. Deem and Ramdas Pophale) SiO2 
 PCOD8089954
Probable space group: C 2/M
;
_chemical_formula_sum "Si O2"
_cell_formula_units_Z 56
_cell_length_a 17.884407
_cell_length_b 9.235172
_cell_length_c 25.158278
_cell_angle_alpha 90.000000
_cell_angle_beta 45.651587
_cell_angle_gamma 90.000000
_cell_volume 2971.451489
_symmetry_space_group_name_H-M "C 2/M"
_symmetry_group_IT_number 12
_symmetry_cell_setting 'monoclinic'
loop_
_space_group_symop_operation_xyz
x,y,z
-x,y,-z
-x,-y,-z
x,-y,z
1/2+x,1/2+y,z
1/2-x,1/2+y,-z
1/2-x,1/2-y,-z
1/2+x,1/2-y,z
loop_
_atom_site_type_symbol
_atom_site_label
_atom_site_fract_x
_atom_site_fract_y
_atom_site_fract_z
Si Si1 0.089855 0.328057 0.993794
Si Si2 0.745386 0.666391 0.584090
Si Si3 0.680296 0.327670 0.152269
Si Si4 0.957267 0.667027 0.864794
Si Si5 0.870045 0.171859 0.705513
Si Si6 0.595327 0.333465 0.559424
Si Si7 0.191857 0.666817 0.714744
O O1 0.082665 0.500000 0.996206
O O2 0.202294 0.273955 0.917744
O O3 0.073076 0.272740 0.062111
O O4 0.000000 0.262980 0.000000
O O5 0.769824 0.500000 0.583847
O O6 0.660296 0.686018 0.580705
O O7 0.853794 0.742681 0.513683
O O8 0.695923 0.738929 0.660025
O O9 0.672116 0.500000 0.152881
O O10 0.601320 0.261851 0.149324
O O11 0.648328 0.267668 0.226113
O O12 0.924030 0.500000 0.874310
O O13 0.080805 0.686327 0.797624
O O14 0.777902 0.226345 0.713129
O O15 0.979788 0.229022 0.627661
O O16 0.871418 0.000000 0.708059
O O17 0.592080 0.500000 0.542794
O O18 0.213278 0.500000 0.689104
#
# Coordination Sequence:
#
# PCOD8089954 Si02
#       7
#     8   8   8   8   8   8   8
#     4   9  17  31  53  79 105 135 173 213 249 290
#     4  10  20  34  53  77 103 129 163 207 254 305
#     4  10  19  33  55  78 102 135 173 211 250 295
#     4  10  20  33  51  77 106 134 168 210 254 300
#     4   9  18  33  53  75  97 129 175 214 244 291
#     4   9  18  34  54  73  97 131 169 207 247 297
#     4  10  20  34  52  73 100 134 170 209 252 297
#
# _framework density 18.84601
#
# number of rings (size 3 to 8) (size 9 to 14) (size 15 to 20)
#    0.000    2.429    0.000    2.571    0.000    6.286 
#    0.000    5.000    0.000    3.429    0.000    0.000 
#    0.000    0.000    0.000    0.000    0.000    0.000 
#
# Total GULP energy -347262.494308 kJ/mol
# GULP energy per Si atom -12402.231940 kJ/mol
# Density = 1.880312 g / cm^3
# Si number density = 18.846010 Si / 1000 Ang^3
#
#
#
# Elastic Constant Matrix: (Units=GPa)
#
#
# Indices 1 2 3 4 5 6 
#
# 1 66.9990 22.3728 8.6313 0.0000 -19.3573 0.0001
# 2 22.3728 47.2124 27.4611 0.0000 -1.5222 0.0003
# 3 8.6313 27.4611 84.0100 0.0000 -14.8015 0.0000
# 4 0.0000 0.0000 0.0000 20.4105 0.0000 7.6018
# 5 -19.3573 -1.5222 -14.8015 0.0000 35.2079 0.0000
# 6 0.0001 0.0003 0.0000 7.6018 0.0000 18.8611
#
#
#
# Elastic Compliance Matrix: (Units=1/GPa)
#
#
# Indices 1 2 3 4 5 6 
#
# 1 0.022569 -0.012724 0.004244 0.000000 0.013643 0.000000
# 2 -0.012724 0.033559 -0.011491 0.000000 -0.010375 0.000000
# 3 0.004244 -0.011491 0.016791 0.000000 0.008895 0.000000
# 4 0.000000 0.000000 0.000000 0.057648 0.000000 -0.023235
# 5 0.013643 -0.010375 0.008895 0.000000 0.039194 0.000000
# 6 0.000000 0.000000 0.000000 -0.023235 0.000000 0.062384
#
#
# Mechanical properties :
#
#
# Convention : Reuss Voigt Hill
#
# Bulk Modulus (GPa) = 30.32268 35.01686 32.66977
# Shear Modulus (GPa) = 17.66295 24.21299 20.93797
#
# Velocity S-wave (km/s) = 3.06473 3.58827 3.33679
# Velocity P-wave (km/s) = 5.35239 5.98235 5.67611
#
# Compressibility (1/GPa) = 0.03297861
#
# Stress axis : x y z
#
# Youngs Moduli (GPa) = 44.30812 29.79804 59.55728
#
# Poissons Ratio (x) = 0.37914 -0.25276
# Poissons Ratio (y) = 0.56376 0.68434
# Poissons Ratio (z) = -0.18804 0.34240
#
# Static dielectric constant tensor:
#      x y z
#    x 3.517850 0.000000 -0.079450 
#    y 0.000000 3.154840 0.000000 
#    z -0.079450 0.000000 3.696870 
# 
# 
# High freq. dielectric constant tensor:
#      x y z
#    x 1.738220 0.000000 -0.003500 
#    y 0.000000 1.693120 0.000000 
#    z -0.003500 0.000000 1.751120 
# 
# From -- ./inp_files/342269.got.cif
#   From: 2010.06.25/outbox.cif.g09.slc.cpg/sg12_172_cif.got.tgz:342269.got - 2010.06.28 00:19:55.
