data_PCOD8089228
_publ_section_title
;
Structure prediction by ZEFSAII (Michael W. Deem and Ramdas Pophale) SiO2 
 PCOD8089228
Probable space group: C 2/M
;
_chemical_formula_sum "Si O2"
_cell_formula_units_Z 56
_cell_length_a 13.255153
_cell_length_b 10.084355
_cell_length_c 30.034534
_cell_angle_alpha 90.000000
_cell_angle_beta 133.396378
_cell_angle_gamma 90.000000
_cell_volume 2917.158209
_symmetry_space_group_name_H-M "C 2/M"
_symmetry_group_IT_number 12
_symmetry_cell_setting 'monoclinic'
loop_
_space_group_symop_operation_xyz
x,y,z
-x,y,-z
-x,-y,-z
x,-y,z
1/2+x,1/2+y,z
1/2-x,1/2+y,-z
1/2-x,1/2-y,-z
1/2+x,1/2-y,z
loop_
_atom_site_type_symbol
_atom_site_label
_atom_site_fract_x
_atom_site_fract_y
_atom_site_fract_z
Si Si1 0.914148 0.855237 0.514539
Si Si2 0.812166 0.648481 0.292359
Si Si3 0.660200 0.349817 0.102270
Si Si4 0.363629 0.350414 0.679877
Si Si5 0.657004 0.352350 0.997093
Si Si6 0.387452 0.207199 0.596774
Si Si7 0.183096 0.156736 0.786487
O O1 0.749951 0.876023 0.455382
O O2 0.937106 0.782633 0.567776
O O3 0.000000 0.784274 0.500000
O O4 0.980942 0.000000 0.540738
O O5 0.752901 0.500000 0.262439
O O6 0.741058 0.710216 0.315149
O O7 0.775286 0.759548 0.244626
O O8 0.977583 0.624932 0.347846
O O9 0.711368 0.500000 0.130686
O O10 0.674609 0.327463 0.054446
O O11 0.745664 0.231491 0.150859
O O12 0.500120 0.333884 0.067076
O O13 0.318560 0.500000 0.661887
O O14 0.341218 0.297955 0.623679
O O15 0.519416 0.332427 0.744750
O O16 0.707738 0.500000 0.000519
O O17 0.750000 0.250000 0.000000
O O18 0.227525 0.000000 0.796217
#
# Coordination Sequence:
#
# PCOD8089228 Si02
#       7
#     8   8   8   8   8   8   8
#     4  10  20  32  48  73 104 134 165 209 263 311
#     4  10  20  36  56  76 101 135 175 217 262 314
#     4   9  19  37  56  77 110 148 180 215 263 315
#     4   9  19  35  53  73 100 135 172 214 264 311
#     4   9  19  35  56  81 110 145 183 221 264 311
#     4  10  19  33  52  74  99 132 175 213 253 312
#     4  10  21  36  54  79 107 136 174 218 264 313
#
# _framework density 19.196764000000002
#
# number of rings (size 3 to 8) (size 9 to 14) (size 15 to 20)
#    0.000    2.429    0.000    3.000    0.000    2.857 
#    0.000   10.000    0.000    6.857    0.000    0.000 
#    0.000    0.000    0.000    0.000    0.000    0.000 
#
# Total GULP energy -346913.524279 kJ/mol
# GULP energy per Si atom -12389.768724 kJ/mol
# Density = 1.915307 g / cm^3
# Si number density = 19.196764 Si / 1000 Ang^3
#
#
#
# Elastic Constant Matrix: (Units=GPa)
#
#
# Indices 1 2 3 4 5 6 
#
# 1 104.2801 36.4743 7.9491 0.0000 -8.9884 0.0000
# 2 36.4743 106.8424 36.8298 0.0000 -4.8751 0.0000
# 3 7.9491 36.8298 66.6799 0.0000 -3.3813 0.0000
# 4 0.0000 0.0000 0.0000 37.6332 0.0000 5.0021
# 5 -8.9884 -4.8751 -3.3813 0.0000 14.7311 0.0000
# 6 0.0000 0.0000 0.0000 5.0021 0.0000 29.5342
#
#
#
# Elastic Compliance Matrix: (Units=1/GPa)
#
#
# Indices 1 2 3 4 5 6 
#
# 1 0.011419 -0.004030 0.001164 0.000000 0.005901 0.000000
# 2 -0.004030 0.013067 -0.006720 0.000000 0.000323 0.000000
# 3 0.001164 -0.006720 0.018711 0.000000 0.002781 0.000000
# 4 0.000000 0.000000 0.000000 0.027184 0.000000 -0.004604
# 5 0.005901 0.000323 0.002781 0.000000 0.072229 0.000000
# 6 0.000000 0.000000 0.000000 -0.004604 0.000000 0.034639
#
#
# Mechanical properties :
#
#
# Convention : Reuss Voigt Hill
#
# Bulk Modulus (GPa) = 41.62556 48.92321 45.27438
# Shear Modulus (GPa) = 24.45811 29.48297 26.97054
#
# Velocity S-wave (km/s) = 3.57329 3.92322 3.75234
# Velocity P-wave (km/s) = 6.22537 6.78695 6.51222
#
# Compressibility (1/GPa) = 0.02402370
#
# Stress axis : x y z
#
# Youngs Moduli (GPa) = 87.57212 76.52978 53.44375
#
# Poissons Ratio (x) = 0.30844 -0.06221
# Poissons Ratio (y) = 0.35294 0.35917
# Poissons Ratio (z) = -0.10194 0.51432
#
# Static dielectric constant tensor:
#      x y z
#    x 3.685090 0.000000 -0.044600 
#    y 0.000000 3.414790 0.000000 
#    z -0.044600 0.000000 3.445930 
# 
# 
# High freq. dielectric constant tensor:
#      x y z
#    x 1.754300 0.000000 -0.004410 
#    y 0.000000 1.742250 0.000000 
#    z -0.004410 0.000000 1.740350 
# 
# From -- ./inp_files/357827.got.cif
#   From: 2010.06.25/outbox.cif.g09.slc.cpg/sg12_179_cif.got.tgz:357827.got - 2010.06.28 00:19:55.
