data_PCOD8089226
_publ_section_title
;
Structure prediction by ZEFSAII (Michael W. Deem and Ramdas Pophale) SiO2 
 PCOD8089226
Probable space group: C 2/M
;
_chemical_formula_sum "Si O2"
_cell_formula_units_Z 64
_cell_length_a 20.559379
_cell_length_b 9.474916
_cell_length_c 22.418292
_cell_angle_alpha 90.000000
_cell_angle_beta 124.405253
_cell_angle_gamma 90.000000
_cell_volume 3603.083348
_symmetry_space_group_name_H-M "C 2/M"
_symmetry_group_IT_number 12
_symmetry_cell_setting 'monoclinic'
loop_
_space_group_symop_operation_xyz
x,y,z
-x,y,-z
-x,-y,-z
x,-y,z
1/2+x,1/2+y,z
1/2-x,1/2+y,-z
1/2-x,1/2-y,-z
1/2+x,1/2-y,z
loop_
_atom_site_type_symbol
_atom_site_label
_atom_site_fract_x
_atom_site_fract_y
_atom_site_fract_z
Si Si1 0.721819 0.667394 0.771575
Si Si2 0.222377 0.335984 0.073113
Si Si3 0.546137 0.668172 0.692774
Si Si4 0.480719 0.665391 0.784819
Si Si5 0.274109 0.665505 0.454320
Si Si6 0.366490 0.338178 0.063161
Si Si7 0.951862 0.167363 0.530835
Si Si8 0.323535 0.166025 0.712807
O O1 0.714995 0.500000 0.768925
O O2 0.770301 0.717354 0.854996
O O3 0.633536 0.730779 0.727466
O O4 0.764978 0.719511 0.734318
O O5 0.201500 0.500000 0.059053
O O6 0.305305 0.302453 0.084163
O O7 0.151070 0.253863 0.004485
O O8 0.549584 0.500000 0.695059
O O9 0.511826 0.722554 0.737540
O O10 0.489458 0.726318 0.611348
O O11 0.460461 0.500000 0.770800
O O12 0.546284 0.696582 0.868701
O O13 0.404095 0.751244 0.763446
O O14 0.272735 0.500000 0.468711
O O15 0.250000 0.750000 0.500000
O O16 0.361143 0.713953 0.479297
O O17 0.214506 0.703848 0.370453
O O18 0.358627 0.500000 0.040074
O O19 0.000000 0.231799 0.500000
O O20 0.959307 0.000000 0.533589
O O21 0.339765 0.000000 0.727022
#
# Coordination Sequence:
#
# PCOD8089226 Si02
#       8
#     8   8   8   8   8   8   8   8
#     4   9  16  30  50  73 100 131 165 204 251 296
#     4   9  16  29  51  76  99 126 162 203 248 295
#     4   9  15  26  48  72  93 122 163 205 242 285
#     4  10  19  33  52  74  99 131 168 204 243 294
#     4  10  20  34  51  74 101 132 168 205 248 297
#     4   9  17  30  49  75 102 127 161 204 247 290
#     4   9  16  26  44  72  99 121 155 205 250 285
#     4  10  21  34  50  73 104 134 163 205 252 296
#
# _framework density 17.762563
#
# number of rings (size 3 to 8) (size 9 to 14) (size 15 to 20)
#    0.000    2.625    1.250    1.500    0.000    5.000 
#    0.000    1.250    0.000    4.875    0.000    0.000 
#    0.000    0.000    0.000    0.000    0.000    0.000 
#
# Total GULP energy -396793.316121 kJ/mol
# GULP energy per Si atom -12399.791129 kJ/mol
# Density = 1.772213 g / cm^3
# Si number density = 17.762563 Si / 1000 Ang^3
#
#
#
# Elastic Constant Matrix: (Units=GPa)
#
#
# Indices 1 2 3 4 5 6 
#
# 1 96.9327 28.0623 38.5694 0.0000 10.5409 0.0000
# 2 28.0623 30.8270 35.3577 0.0000 5.1918 0.0000
# 3 38.5694 35.3577 114.0239 0.0000 8.7835 0.0000
# 4 0.0000 0.0000 0.0000 23.8838 0.0000 0.9490
# 5 10.5409 5.1918 8.7835 0.0000 30.4995 0.0000
# 6 0.0000 0.0000 0.0000 0.9490 0.0000 23.0261
#
#
#
# Elastic Compliance Matrix: (Units=1/GPa)
#
#
# Indices 1 2 3 4 5 6 
#
# 1 0.014330 -0.011281 -0.001141 0.000000 -0.002704 0.000000
# 2 -0.011281 0.059749 -0.014551 0.000000 -0.002081 0.000000
# 3 -0.001141 -0.014551 0.013752 0.000000 -0.001089 0.000000
# 4 0.000000 0.000000 0.000000 0.041938 0.000000 -0.001728
# 5 -0.002704 -0.002081 -0.001089 0.000000 0.034390 0.000000
# 6 0.000000 0.000000 0.000000 -0.001728 0.000000 0.043500
#
#
# Mechanical properties :
#
#
# Convention : Reuss Voigt Hill
#
# Bulk Modulus (GPa) = 29.51186 49.52917 39.52052
# Shear Modulus (GPa) = 18.32164 24.80151 21.56157
#
# Velocity S-wave (km/s) = 3.21514 3.74074 3.48785
# Velocity P-wave (km/s) = 5.51666 6.82657 6.20627
#
# Compressibility (1/GPa) = 0.03388468
#
# Stress axis : x y z
#
# Youngs Moduli (GPa) = 69.78194 16.73667 72.71606
#
# Poissons Ratio (x) = 0.18881 0.08296
# Poissons Ratio (y) = 0.78723 1.05812
# Poissons Ratio (z) = 0.07961 0.24354
#
# Static dielectric constant tensor:
#      x y z
#    x 3.320090 0.000000 -0.007630 
#    y 0.000000 2.874180 0.000000 
#    z -0.007630 0.000000 3.506980 
# 
# 
# High freq. dielectric constant tensor:
#      x y z
#    x 1.683800 0.000000 0.001640 
#    y 0.000000 1.637640 0.000000 
#    z 0.001640 0.000000 1.704130 
# 
# From -- ./inp_files/315373.got.cif
#   From: 2010.06.25/outbox.cif.g09.slc.cpg/sg12_158_cif.got.tgz:315373.got - 2010.06.28 00:19:55.
