data_PCOD8089711
_publ_section_title
;
Structure prediction by ZEFSAII (Michael W. Deem and Ramdas Pophale) SiO2 
 PCOD8089711
Probable space group: C 2/M
;
_chemical_formula_sum "Si O2"
_cell_formula_units_Z 64
_cell_length_a 18.737995
_cell_length_b 22.408792
_cell_length_c 18.222091
_cell_angle_alpha 90.000000
_cell_angle_beta 152.003240
_cell_angle_gamma 90.000000
_cell_volume 3591.723323
_symmetry_space_group_name_H-M "C 2/M"
_symmetry_group_IT_number 12
_symmetry_cell_setting 'monoclinic'
loop_
_space_group_symop_operation_xyz
x,y,z
-x,y,-z
-x,-y,-z
x,-y,z
1/2+x,1/2+y,z
1/2-x,1/2+y,-z
1/2-x,1/2-y,-z
1/2+x,1/2-y,z
loop_
_atom_site_type_symbol
_atom_site_label
_atom_site_fract_x
_atom_site_fract_y
_atom_site_fract_z
Si Si1 0.132923 0.333230 0.407239
Si Si2 0.085038 0.568395 0.250218
Si Si3 0.594642 0.144278 0.017715
Si Si4 0.460683 0.711802 0.743097
Si Si5 0.929367 0.167639 0.300319
Si Si6 0.907916 0.066614 0.489113
Si Si7 0.093402 0.782211 0.016504
Si Si8 0.552600 0.207736 0.628297
O O1 0.123118 0.398003 0.360695
O O2 0.305601 0.323156 0.588059
O O3 0.073817 0.282578 0.296359
O O4 0.031992 0.333321 0.389273
O O5 0.042034 0.500000 0.229543
O O6 0.225080 0.570314 0.318772
O O7 0.943048 0.602393 0.085465
O O8 0.774702 0.141515 0.193743
O O9 0.552353 0.213009 0.967526
O O10 0.500000 0.118284 0.000000
O O11 0.587044 0.691984 0.797618
O O12 0.532849 0.690219 0.885478
O O13 0.995548 0.222727 0.408315
O O14 0.048600 0.113676 0.408698
O O15 0.000000 0.086009 0.500000
O O16 0.958739 0.000000 0.558022
O O17 0.267936 0.796574 0.192150
O O18 0.000000 0.808913 0.000000
O O19 0.500000 0.185690 0.500000
#
# Coordination Sequence:
#
# PCOD8089711 Si02
#       8
#     8   8   8   8   8   8   8   8
#     4  10  20  34  54  77 108 137 180 218 267 318
#     4  11  22  36  53  74 105 142 185 224 262 306
#     4  10  21  33  49  75 106 143 175 218 258 307
#     4  10  19  33  54  78 105 144 173 216 268 316
#     4  10  20  32  53  76 108 141 176 217 256 317
#     4  10  20  34  51  71 101 142 185 221 252 302
#     4  10  20  33  52  79 113 140 171 211 264 321
#     4  10  21  33  54  83 109 139 170 218 269 325
#
# _framework density 17.818745
#
# number of rings (size 3 to 8) (size 9 to 14) (size 15 to 20)
#    0.000    1.875    2.500    1.875    1.750    4.250 
#    0.000    0.000    0.000    0.375    0.000    0.000 
#    0.000    2.500    0.000    0.000    0.000    0.000 
#
# Total GULP energy -396632.977608 kJ/mol
# GULP energy per Si atom -12394.780550 kJ/mol
# Density = 1.777819 g / cm^3
# Si number density = 17.818745 Si / 1000 Ang^3
#
#
#
# Elastic Constant Matrix: (Units=GPa)
#
#
# Indices 1 2 3 4 5 6 
#
# 1 97.0153 21.2227 36.6252 -0.0001 -2.6918 0.0001
# 2 21.2227 64.1274 21.9501 0.0002 1.4338 0.0002
# 3 36.6252 21.9501 77.6194 -0.0020 -10.2610 -0.0010
# 4 -0.0001 0.0002 -0.0020 19.8772 -0.0010 -1.5351
# 5 -2.6918 1.4338 -10.2610 -0.0010 30.0686 -0.0004
# 6 0.0001 0.0002 -0.0010 -1.5351 -0.0004 16.9128
#
#
#
# Elastic Compliance Matrix: (Units=1/GPa)
#
#
# Indices 1 2 3 4 5 6 
#
# 1 0.012881 -0.002371 -0.005488 -0.000001 -0.000606 0.000000
# 2 -0.002371 0.017899 -0.004277 -0.000001 -0.002525 -0.000001
# 3 -0.005488 -0.004277 0.017431 0.000002 0.005661 0.000001
# 4 -0.000001 -0.000001 0.000002 0.050664 0.000002 0.004598
# 5 -0.000606 -0.002525 0.005661 0.000002 0.035255 0.000001
# 6 0.000000 -0.000001 0.000001 0.004598 0.000001 0.059544
#
#
# Mechanical properties :
#
#
# Convention : Reuss Voigt Hill
#
# Bulk Modulus (GPa) = 41.77146 44.26200 43.01673
# Shear Modulus (GPa) = 22.13123 23.96933 23.05028
#
# Velocity S-wave (km/s) = 3.52805 3.67164 3.60056
# Velocity P-wave (km/s) = 6.33163 6.54742 6.44043
#
# Compressibility (1/GPa) = 0.02393979
#
# Stress axis : x y z
#
# Youngs Moduli (GPa) = 77.63231 55.86910 57.37049
#
# Poissons Ratio (x) = 0.13247 0.31484
# Poissons Ratio (y) = 0.18407 0.24536
# Poissons Ratio (z) = 0.42603 0.23894
#
# Static dielectric constant tensor:
#      x y z
#    x 3.420300 0.000000 0.095340 
#    y 0.000000 3.033680 0.000000 
#    z 0.095340 0.000000 3.158090 
# 
# 
# High freq. dielectric constant tensor:
#      x y z
#    x 1.691920 0.000000 0.010160 
#    y 0.000000 1.649340 0.000000 
#    z 0.010160 0.000000 1.689840 
# 
# From -- ./inp_files/89567.got.cif
#   From: 2010.06.25/outbox.cif.g09.slc.cpg/sg12_45_cif.got.tgz:89567.got - 2010.06.28 00:19:55.
