data_PCOD8089014
_publ_section_title
;
Structure prediction by ZEFSAII (Michael W. Deem and Ramdas Pophale) SiO2 
 PCOD8089014
Probable space group: C 2/M
;
_chemical_formula_sum "Si O2"
_cell_formula_units_Z 56
_cell_length_a 9.346262
_cell_length_b 23.419567
_cell_length_c 14.939775
_cell_angle_alpha 90.000000
_cell_angle_beta 73.550127
_cell_angle_gamma 90.000000
_cell_volume 3136.246582
_symmetry_space_group_name_H-M "C 2/M"
_symmetry_group_IT_number 12
_symmetry_cell_setting 'monoclinic'
loop_
_space_group_symop_operation_xyz
x,y,z
-x,y,-z
-x,-y,-z
x,-y,z
1/2+x,1/2+y,z
1/2-x,1/2+y,-z
1/2-x,1/2-y,-z
1/2+x,1/2-y,z
loop_
_atom_site_type_symbol
_atom_site_label
_atom_site_fract_x
_atom_site_fract_y
_atom_site_fract_z
Si Si1 0.573758 0.432631 0.893415
Si Si2 0.674649 0.714485 0.694514
Si Si3 0.164844 0.327515 0.497491
Si Si4 0.156468 0.618334 0.239291
Si Si5 0.043301 0.882039 0.261708
Si Si6 0.164353 0.659300 0.706338
Si Si7 0.735236 0.436109 0.610751
O O1 0.600142 0.500000 0.879392
O O2 0.733485 0.399294 0.861436
O O3 0.461905 0.411169 0.835182
O O4 0.500000 0.416196 0.000000
O O5 0.720333 0.712729 0.579725
O O6 0.801007 0.679161 0.724708
O O7 0.516170 0.683012 0.733462
O O8 0.661249 0.776009 0.744444
O O9 0.192821 0.326801 0.597680
O O10 0.184797 0.394404 0.472202
O O11 0.000000 0.306979 0.500000
O O12 0.180593 0.568890 0.308797
O O13 0.984564 0.624176 0.242010
O O14 0.938391 0.918657 0.346679
O O15 0.208981 0.879808 0.271721
O O16 0.747036 0.500000 0.571381
#
# Coordination Sequence:
#
# PCOD8089014 Si02
#       7
#     8   8   8   8   8   8   8
#     4   9  18  39  65  79  97 132 166 203 260 329
#     4   9  19  33  51  70 107 150 179 205 249 307
#     4  10  19  33  47  76  99 138 195 220 240 298
#     4   9  18  33  53  79 101 132 175 205 251 320
#     4   9  20  32  52  80 101 130 171 215 258 309
#     4  12  19  32  50  76 110 137 171 224 263 276
#     4   9  18  36  49  61  99 142 178 210 254 313
#
# _framework density 17.855740000000001
#
# number of rings (size 3 to 8) (size 9 to 14) (size 15 to 20)
#    0.000    3.000    2.857    3.000    0.000    2.571 
#    0.000    5.714    0.000   15.429    0.000    0.000 
#    0.000    0.000    0.000    0.000    0.000    0.000 
#
# Total GULP energy -346970.771396 kJ/mol
# GULP energy per Si atom -12391.813264 kJ/mol
# Density = 1.781510 g / cm^3
# Si number density = 17.855740 Si / 1000 Ang^3
#
#
#
# Elastic Constant Matrix: (Units=GPa)
#
#
# Indices 1 2 3 4 5 6 
#
# 1 131.0408 19.1373 24.9524 0.0000 -8.2138 0.0000
# 2 19.1373 63.9864 8.8556 0.0000 -9.2621 0.0000
# 3 24.9524 8.8556 76.6507 0.0000 -8.7907 0.0000
# 4 0.0000 0.0000 0.0000 18.0224 0.0000 -3.1059
# 5 -8.2138 -9.2621 -8.7907 0.0000 16.7539 0.0000
# 6 0.0000 0.0000 0.0000 -3.1059 0.0000 10.5336
#
#
#
# Elastic Compliance Matrix: (Units=1/GPa)
#
#
# Indices 1 2 3 4 5 6 
#
# 1 0.008474 -0.001944 -0.002320 0.000000 0.001862 0.000000
# 2 -0.001944 0.017498 -0.000414 0.000000 0.008503 0.000000
# 3 -0.002320 -0.000414 0.014569 0.000000 0.006278 0.000000
# 4 0.000000 0.000000 0.000000 0.058457 0.000000 0.017236
# 5 0.001862 0.008503 0.006278 0.000000 0.068596 0.000000
# 6 0.000000 0.000000 0.000000 0.017236 0.000000 0.100016
#
#
# Mechanical properties :
#
#
# Convention : Reuss Voigt Hill
#
# Bulk Modulus (GPa) = 32.06605 41.95206 37.00906
# Shear Modulus (GPa) = 17.39977 23.64416 20.52197
#
# Velocity S-wave (km/s) = 3.12503 3.64287 3.39384
# Velocity P-wave (km/s) = 5.56942 6.42184 6.01076
#
# Compressibility (1/GPa) = 0.03118563
#
# Stress axis : x y z
#
# Youngs Moduli (GPa) = 118.01332 57.15023 68.63724
#
# Poissons Ratio (x) = 0.11108 0.15926
# Poissons Ratio (y) = 0.22937 0.02839
# Poissons Ratio (z) = 0.27383 0.02364
#
# Static dielectric constant tensor:
#      x y z
#    x 3.153740 0.000000 -0.120780 
#    y 0.000000 3.307320 0.000000 
#    z -0.120780 0.000000 3.137450 
# 
# 
# High freq. dielectric constant tensor:
#      x y z
#    x 1.677380 0.000000 -0.014070 
#    y 0.000000 1.694560 0.000000 
#    z -0.014070 0.000000 1.657440 
# 
# From -- ./inp_files/199325.got.cif
#   From: 2010.06.25/outbox.cif.g09.slc.cpg/sg12_100_cif.got.tgz:199325.got - 2010.06.28 00:19:55.
