data_PCOD8089206
_publ_section_title
;
Structure prediction by ZEFSAII (Michael W. Deem and Ramdas Pophale) SiO2 
 PCOD8089206
Probable space group: C 2/M
;
_chemical_formula_sum "Si O2"
_cell_formula_units_Z 64
_cell_length_a 29.802957
_cell_length_b 8.875524
_cell_length_c 14.868494
_cell_angle_alpha 90.000000
_cell_angle_beta 78.576214
_cell_angle_gamma 90.000000
_cell_volume 3855.051465
_symmetry_space_group_name_H-M "C 2/M"
_symmetry_group_IT_number 12
_symmetry_cell_setting 'monoclinic'
loop_
_space_group_symop_operation_xyz
x,y,z
-x,y,-z
-x,-y,-z
x,-y,z
1/2+x,1/2+y,z
1/2-x,1/2+y,-z
1/2-x,1/2-y,-z
1/2+x,1/2-y,z
loop_
_atom_site_type_symbol
_atom_site_label
_atom_site_fract_x
_atom_site_fract_y
_atom_site_fract_z
Si Si1 0.557929 0.177522 0.621793
Si Si2 0.291922 0.824714 0.367035
Si Si3 0.432848 0.173789 0.089579
Si Si4 0.099449 0.674639 0.414210
Si Si5 0.037678 0.823593 0.297929
Si Si6 0.965937 0.326010 0.883578
Si Si7 0.622819 0.677003 0.743666
Si Si8 0.299431 0.173366 0.570582
O O1 0.575929 0.222179 0.516677
O O2 0.506399 0.233877 0.650593
O O3 0.590025 0.250653 0.682999
O O4 0.559496 0.000000 0.637014
O O5 0.325469 0.734419 0.288005
O O6 0.305807 0.784174 0.463545
O O7 0.239860 0.774470 0.368514
O O8 0.297257 0.000000 0.344336
O O9 0.480563 0.202113 0.121174
O O10 0.394165 0.276563 0.150277
O O11 0.418650 0.000000 0.104036
O O12 0.437236 0.219551 0.983360
O O13 0.089313 0.500000 0.397110
O O14 0.080240 0.779365 0.343349
O O15 0.153514 0.706039 0.396951
O O16 0.050608 0.778706 0.191101
O O17 0.027964 0.000000 0.307662
O O18 0.957299 0.500000 0.862503
O O19 0.621183 0.500000 0.733401
O O20 0.284535 0.000000 0.584539
#
# Coordination Sequence:
#
# PCOD8089206 Si02
#       8
#     8   8   8   8   8   8   8   8
#     4  11  21  36  52  69  98 139 181 212 245 295
#     4  10  19  33  52  74 101 134 167 205 255 305
#     4   9  18  33  54  75  97 130 170 209 250 303
#     4  10  21  37  54  70  96 139 180 212 249 295
#     4  12  24  34  48  75 105 135 172 214 255 295
#     4   9  18  34  54  73  96 132 172 208 250 300
#     4  12  22  31  49  78 107 136 166 206 256 302
#     4   9  18  34  52  74  98 128 172 215 253 293
#
# _framework density 16.601593999999999
#
# number of rings (size 3 to 8) (size 9 to 14) (size 15 to 20)
#    0.000    1.750    2.500    4.125    0.000    4.000 
#    0.000    1.250    0.000    0.000    0.000    0.875 
#    0.000    0.000    0.000    0.000    0.000    0.000 
#
# Total GULP energy -396919.463918 kJ/mol
# GULP energy per Si atom -12403.733247 kJ/mol
# Density = 1.656381 g / cm^3
# Si number density = 16.601594 Si / 1000 Ang^3
#
#
#
# Elastic Constant Matrix: (Units=GPa)
#
#
# Indices 1 2 3 4 5 6 
#
# 1 78.5420 37.7283 47.1602 0.0000 -9.1820 0.0000
# 2 37.7283 85.7804 48.8313 0.0000 -6.7284 0.0000
# 3 47.1602 48.8313 96.2900 0.0000 -8.0478 0.0000
# 4 0.0000 0.0000 0.0000 18.6446 0.0000 -2.6149
# 5 -9.1820 -6.7284 -8.0478 0.0000 19.0311 0.0000
# 6 0.0000 0.0000 0.0000 -2.6149 0.0000 28.2121
#
#
#
# Elastic Compliance Matrix: (Units=1/GPa)
#
#
# Indices 1 2 3 4 5 6 
#
# 1 0.019555 -0.004211 -0.007026 0.000000 0.004975 0.000000
# 2 -0.004211 0.017399 -0.006652 0.000000 0.001307 0.000000
# 3 -0.007026 -0.006652 0.017333 0.000000 0.001588 0.000000
# 4 0.000000 0.000000 0.000000 0.054341 0.000000 0.005037
# 5 0.004975 0.001307 0.001588 0.000000 0.056079 0.000000
# 6 0.000000 0.000000 0.000000 0.005037 0.000000 0.035913
#
#
# Mechanical properties :
#
#
# Convention : Reuss Voigt Hill
#
# Bulk Modulus (GPa) = 54.02892 58.67247 56.35069
# Shear Modulus (GPa) = 20.61280 21.63707 21.12494
#
# Velocity S-wave (km/s) = 3.52748 3.61406 3.57103
# Velocity P-wave (km/s) = 7.01469 7.26866 7.14280
#
# Compressibility (1/GPa) = 0.01850861
#
# Stress axis : x y z
#
# Youngs Moduli (GPa) = 51.13699 57.47512 57.69450
#
# Poissons Ratio (x) = 0.24202 0.40539
# Poissons Ratio (y) = 0.21533 0.38378
# Poissons Ratio (z) = 0.35931 0.38232
#
# Static dielectric constant tensor:
#      x y z
#    x 3.034050 0.000000 -0.130350 
#    y 0.000000 3.098790 0.000000 
#    z -0.130350 0.000000 3.139360 
# 
# 
# High freq. dielectric constant tensor:
#      x y z
#    x 1.622080 0.000000 -0.012300 
#    y 0.000000 1.643370 0.000000 
#    z -0.012300 0.000000 1.628190 
# 
# From -- ./inp_files/244001.got.cif
#   From: 2010.06.25/outbox.cif.g09.slc.cpg/sg12_123_cif.got.tgz:244001.got - 2010.06.28 00:19:55.
