data_PCOD8089259
_publ_section_title
;
Structure prediction by ZEFSAII (Michael W. Deem and Ramdas Pophale) SiO2 
 PCOD8089259
Probable space group: C 2/M
;
_chemical_formula_sum "Si O2"
_cell_formula_units_Z 64
_cell_length_a 15.548611
_cell_length_b 9.161252
_cell_length_c 26.558776
_cell_angle_alpha 90.000000
_cell_angle_beta 63.910975
_cell_angle_gamma 90.000000
_cell_volume 3397.698987
_symmetry_space_group_name_H-M "C 2/M"
_symmetry_group_IT_number 12
_symmetry_cell_setting 'monoclinic'
loop_
_space_group_symop_operation_xyz
x,y,z
-x,y,-z
-x,-y,-z
x,-y,z
1/2+x,1/2+y,z
1/2-x,1/2+y,-z
1/2-x,1/2-y,-z
1/2+x,1/2-y,z
loop_
_atom_site_type_symbol
_atom_site_label
_atom_site_fract_x
_atom_site_fract_y
_atom_site_fract_z
Si Si1 0.808262 0.173820 0.759438
Si Si2 0.231176 0.834937 0.055403
Si Si3 0.417935 0.328908 0.828464
Si Si4 0.900743 0.173348 0.631828
Si Si5 0.891017 0.171370 0.170099
Si Si6 0.072295 0.666041 0.938609
Si Si7 0.786530 0.829149 0.565004
Si Si8 0.115084 0.170871 0.564403
O O1 0.878728 0.232279 0.785403
O O2 0.853723 0.228347 0.695572
O O3 0.704186 0.243087 0.791433
O O4 0.796380 0.000000 0.763765
O O5 0.142589 0.763316 0.108982
O O6 0.320317 0.826352 0.069626
O O7 0.208828 0.000000 0.045089
O O8 0.250000 0.750000 0.000000
O O9 0.397208 0.500000 0.834240
O O10 0.530541 0.295859 0.806353
O O11 0.838238 0.233203 0.601395
O O12 0.008714 0.233886 0.600173
O O13 0.904504 0.000000 0.627969
O O14 0.937174 0.227845 0.106417
O O15 0.869389 0.000000 0.171026
O O16 0.045405 0.500000 0.930004
O O17 0.000000 0.723387 0.000000
O O18 0.854949 0.793152 0.500367
O O19 0.684997 0.749551 0.585750
O O20 0.766074 0.000000 0.574625
O O21 0.120442 0.000000 0.574359
#
# Coordination Sequence:
#
# PCOD8089259 Si02
#       8
#     8   8   8   8   8   8   8   8
#     4  10  20  39  59  74 102 144 185 221 265 324
#     4  10  19  33  52  76 105 135 167 206 257 311
#     4   9  19  36  55  73 101 138 170 210 264 318
#     4   9  18  32  55  79 100 141 190 223 260 317
#     4  11  22  36  56  81 107 136 175 222 272 316
#     4  10  20  35  56  81 109 140 175 214 260 319
#     4   9  17  31  51  79 113 142 177 226 271 312
#     4   9  17  31  52  79 110 144 181 220 266 321
#
# _framework density 18.836276999999999
#
# number of rings (size 3 to 8) (size 9 to 14) (size 15 to 20)
#    0.000    2.375    1.250    1.500    0.000    3.250 
#    0.000    5.000    0.000    3.000    0.000    0.000 
#    0.000    0.000    0.000    0.000    0.000    0.000 
#
# Total GULP energy -396795.938822 kJ/mol
# GULP energy per Si atom -12399.873088 kJ/mol
# Density = 1.879340 g / cm^3
# Si number density = 18.836277 Si / 1000 Ang^3
#
#
#
# Elastic Constant Matrix: (Units=GPa)
#
#
# Indices 1 2 3 4 5 6 
#
# 1 152.9454 36.6002 84.0758 0.0000 4.3308 0.0000
# 2 36.6002 39.0624 34.7125 0.0000 2.6099 0.0000
# 3 84.0758 34.7125 134.9919 0.0000 5.3197 0.0000
# 4 0.0000 0.0000 0.0000 17.5877 0.0000 -2.2031
# 5 4.3308 2.6099 5.3197 0.0000 25.6849 0.0000
# 6 0.0000 0.0000 0.0000 -2.2031 0.0000 26.8089
#
#
#
# Elastic Compliance Matrix: (Units=1/GPa)
#
#
# Indices 1 2 3 4 5 6 
#
# 1 0.010738 -0.005331 -0.005310 0.000000 -0.000169 0.000000
# 2 -0.005331 0.035896 -0.005850 0.000000 -0.001537 0.000000
# 3 -0.005310 -0.005850 0.012261 0.000000 -0.001050 0.000000
# 4 0.000000 0.000000 0.000000 0.057449 0.000000 0.004721
# 5 -0.000169 -0.001537 -0.001050 0.000000 0.039335 0.000000
# 6 0.000000 0.000000 0.000000 0.004721 0.000000 0.037689
#
#
# Mechanical properties :
#
#
# Convention : Reuss Voigt Hill
#
# Bulk Modulus (GPa) = 38.59092 70.86406 54.72749
# Shear Modulus (GPa) = 21.27771 25.45704 23.36738
#
# Velocity S-wave (km/s) = 3.36462 3.68025 3.52597
# Velocity P-wave (km/s) = 5.96877 7.46738 6.75973
#
# Compressibility (1/GPa) = 0.02591283
#
# Stress axis : x y z
#
# Youngs Moduli (GPa) = 93.12823 27.85843 81.56053
#
# Poissons Ratio (x) = 0.14851 0.43311
# Poissons Ratio (y) = 0.49644 0.47711
# Poissons Ratio (z) = 0.49454 0.16296
#
# Static dielectric constant tensor:
#      x y z
#    x 3.757800 0.000000 0.152260 
#    y 0.000000 3.181260 0.000000 
#    z 0.152260 0.000000 3.668720 
# 
# 
# High freq. dielectric constant tensor:
#      x y z
#    x 1.746140 0.000000 -0.000910 
#    y 0.000000 1.697230 0.000000 
#    z -0.000910 0.000000 1.732200 
# 
# From -- ./inp_files/359768.got.cif
#   From: 2010.06.25/outbox.cif.g09.slc.cpg/sg12_180_cif.got.tgz:359768.got - 2010.06.28 00:19:55.
