data_PCOD8089983
_publ_section_title
;
Structure prediction by ZEFSAII (Michael W. Deem and Ramdas Pophale) SiO2 
 PCOD8089983
Probable space group: C 2/M
;
_chemical_formula_sum "Si O2"
_cell_formula_units_Z 56
_cell_length_a 19.516642
_cell_length_b 9.348287
_cell_length_c 29.479955
_cell_angle_alpha 90.000000
_cell_angle_beta 33.598827
_cell_angle_gamma 90.000000
_cell_volume 2976.343758
_symmetry_space_group_name_H-M "C 2/M"
_symmetry_group_IT_number 12
_symmetry_cell_setting 'monoclinic'
loop_
_space_group_symop_operation_xyz
x,y,z
-x,y,-z
-x,-y,-z
x,-y,z
1/2+x,1/2+y,z
1/2-x,1/2+y,-z
1/2-x,1/2-y,-z
1/2+x,1/2-y,z
loop_
_atom_site_type_symbol
_atom_site_label
_atom_site_fract_x
_atom_site_fract_y
_atom_site_fract_z
Si Si1 0.257045 0.835242 0.888865
Si Si2 0.991924 0.665038 0.816276
Si Si3 0.056451 0.165125 0.068724
Si Si4 0.107445 0.833141 0.352639
Si Si5 0.248070 0.831744 0.362593
Si Si6 0.219837 0.834825 0.810274
Si Si7 0.823536 0.830308 0.498960
O O1 0.397903 0.815978 0.826629
O O2 0.246785 0.765983 0.844733
O O3 0.218064 0.000000 0.905535
O O4 0.159844 0.767641 0.978113
O O5 0.006437 0.500000 0.822615
O O6 0.935641 0.749539 0.889169
O O7 0.123235 0.731060 0.728069
O O8 0.924403 0.185632 0.118646
O O9 0.084995 0.000000 0.064029
O O10 0.136578 0.793968 0.389304
O O11 0.202554 0.749307 0.269334
O O12 0.968291 0.790803 0.416188
O O13 0.131088 0.000000 0.331859
O O14 0.222323 0.770275 0.426980
O O15 0.261863 0.000000 0.360517
O O16 0.260399 0.000000 0.785094
O O17 0.750000 0.750000 0.500000
O O18 0.802528 0.000000 0.505608
#
# Coordination Sequence:
#
# PCOD8089983 Si02
#       7
#     8   8   8   8   8   8   8
#     4   9  19  33  52  77 106 142 183 220 263 319
#     4  10  19  33  55  79 103 139 182 220 258 313
#     4  10  19  34  53  77 108 140 177 224 271 314
#     4  10  20  37  58  80 107 140 180 221 259 309
#     4   9  18  35  58  79 104 141 182 214 252 315
#     4  10  20  34  55  79 106 143 181 219 265 317
#     4  10  22  38  59  85 111 140 172 215 267 316
#
# _framework density 18.815031000000001
#
# number of rings (size 3 to 8) (size 9 to 14) (size 15 to 20)
#    0.000    2.286    1.429    1.286    2.000    4.000 
#    0.000    2.857    0.000    3.429    0.000    0.000 
#    0.000    0.000    0.000    0.000    0.000    0.000 
#
# Total GULP energy -347181.667650 kJ/mol
# GULP energy per Si atom -12399.345273 kJ/mol
# Density = 1.877221 g / cm^3
# Si number density = 18.815031 Si / 1000 Ang^3
#
#
#
# Elastic Constant Matrix: (Units=GPa)
#
#
# Indices 1 2 3 4 5 6 
#
# 1 120.7512 32.3019 45.7952 0.0002 5.7197 -0.0158
# 2 32.3019 34.5175 27.1461 0.0101 1.5233 0.0065
# 3 45.7952 27.1461 84.3470 -0.0017 -3.2791 -0.0010
# 4 0.0002 0.0101 -0.0017 24.8693 0.0012 1.1423
# 5 5.7197 1.5233 -3.2791 0.0012 35.0725 -0.0009
# 6 -0.0158 0.0065 -0.0010 1.1423 -0.0009 24.0554
#
#
#
# Elastic Compliance Matrix: (Units=1/GPa)
#
#
# Indices 1 2 3 4 5 6 
#
# 1 0.012052 -0.008011 -0.004043 0.000003 -0.001996 0.000010
# 2 -0.008011 0.044402 -0.010001 -0.000018 -0.001557 -0.000017
# 3 -0.004043 -0.010001 0.017375 0.000005 0.002718 0.000001
# 4 0.000003 -0.000018 0.000005 0.040298 -0.000001 -0.001914
# 5 -0.001996 -0.001557 0.002718 -0.000001 0.029160 0.000000
# 6 0.000010 -0.000017 0.000001 -0.001914 0.000000 0.041662
#
#
# Mechanical properties :
#
#
# Convention : Reuss Voigt Hill
#
# Bulk Modulus (GPa) = 33.64860 50.01134 41.82997
# Shear Modulus (GPa) = 20.92351 25.75762 23.34056
#
# Velocity S-wave (km/s) = 3.33838 3.70400 3.52593
# Velocity P-wave (km/s) = 5.72559 6.70306 6.23352
#
# Compressibility (1/GPa) = 0.02971892
#
# Stress axis : x y z
#
# Youngs Moduli (GPa) = 82.97125 22.52160 57.55295
#
# Poissons Ratio (x) = 0.18042 0.23269
# Poissons Ratio (y) = 0.66469 0.57560
# Poissons Ratio (z) = 0.33545 0.22524
#
# Static dielectric constant tensor:
#      x y z
#    x 3.579270 0.000010 0.034260 
#    y 0.000010 3.124200 0.000010 
#    z 0.034260 0.000010 3.648300 
# 
# 
# High freq. dielectric constant tensor:
#      x y z
#    x 1.746990 0.000000 -0.001530 
#    y 0.000000 1.687090 0.000000 
#    z -0.001530 0.000000 1.743390 
# 
# From -- ./inp_files/223349.got.cif
#   From: 2010.06.25/outbox.cif.g09.slc.cpg/sg12_112_cif.got.tgz:223349.got - 2010.06.28 00:19:55.
