data_PCOD8089003
_publ_section_title
;
Structure prediction by ZEFSAII (Michael W. Deem and Ramdas Pophale) SiO2 
 PCOD8089003
Probable space group: C 2/M
;
_chemical_formula_sum "Si O2"
_cell_formula_units_Z 44
_cell_length_a 14.973558
_cell_length_b 10.491922
_cell_length_c 28.115836
_cell_angle_alpha 90.000000
_cell_angle_beta 32.310268
_cell_angle_gamma 90.000000
_cell_volume 2360.923297
_symmetry_space_group_name_H-M "C 2/M"
_symmetry_group_IT_number 12
_symmetry_cell_setting 'monoclinic'
loop_
_space_group_symop_operation_xyz
x,y,z
-x,y,-z
-x,-y,-z
x,-y,z
1/2+x,1/2+y,z
1/2-x,1/2+y,-z
1/2-x,1/2-y,-z
1/2+x,1/2-y,z
loop_
_atom_site_type_symbol
_atom_site_label
_atom_site_fract_x
_atom_site_fract_y
_atom_site_fract_z
Si Si1 0.481574 0.752816 0.798242
Si Si2 0.473731 0.500000 0.392680
Si Si3 0.117876 0.856723 0.826174
Si Si4 0.694141 0.000000 0.695540
Si Si5 0.459501 0.256201 0.698494
Si Si6 0.838840 0.500000 0.398266
Si Si7 0.130709 0.852611 0.981547
O O1 0.572959 0.649417 0.790522
O O2 0.583714 0.881032 0.759981
O O3 0.485269 0.708794 0.742094
O O4 0.293156 0.767345 0.901163
O O5 0.633395 0.500000 0.354366
O O6 0.467384 0.373861 0.363578
O O7 0.309449 0.500000 0.497953
O O8 0.264134 0.760241 0.775052
O O9 0.175193 0.000000 0.813442
O O10 0.952209 0.820415 0.930413
O O11 0.736778 0.000000 0.620529
O O12 0.551375 0.126023 0.642478
O O13 0.182603 0.000000 0.953606
O O14 0.000000 0.814820 0.000000
#
# Coordination Sequence:
#
# PCOD8089003 Si02
#       7
#     8   4   8   4   8   4   8
#     4  11  21  38  58  87 122 154 199 239 294 345
#     4  12  23  42  61  91 121 150 194 254 307 345
#     4  11  22  37  59  86 121 161 197 241 293 351
#     4  10  21  36  64  87 109 154 201 243 284 354
#     4  11  23  39  65  88 119 158 196 241 299 359
#     4  10  23  42  64  88 116 156 197 245 298 363
#     4  10  19  32  59  87 115 157 206 243 278 343
#
# _framework density 18.636778
#
# number of rings (size 3 to 8) (size 9 to 14) (size 15 to 20)
#    0.000    1.273    5.455    1.364    1.273    0.000 
#    0.000    0.000    0.000    2.727    0.000    0.000 
#    0.000    0.000    0.000    0.000    0.000    0.000 
#
# Total GULP energy -272843.231959 kJ/mol
# GULP energy per Si atom -12401.965089 kJ/mol
# Density = 1.859436 g / cm^3
# Si number density = 18.636778 Si / 1000 Ang^3
#
#
#
# Elastic Constant Matrix: (Units=GPa)
#
#
# Indices 1 2 3 4 5 6 
#
# 1 106.8140 33.4526 41.4909 0.0004 6.9741 -0.0005
# 2 33.4526 75.8057 41.1258 0.0001 11.5140 -0.0003
# 3 41.4909 41.1258 117.2270 0.0004 10.3848 -0.0003
# 4 0.0004 0.0001 0.0004 15.2404 -0.0002 3.3517
# 5 6.9741 11.5140 10.3848 -0.0002 23.7808 0.0002
# 6 -0.0005 -0.0003 -0.0003 3.3517 0.0002 32.5386
#
#
#
# Elastic Compliance Matrix: (Units=1/GPa)
#
#
# Indices 1 2 3 4 5 6 
#
# 1 0.011591 -0.003509 -0.002830 0.000000 -0.000464 0.000000
# 2 -0.003509 0.018107 -0.004603 0.000000 -0.005728 0.000000
# 3 -0.002830 -0.004603 0.011314 0.000000 -0.001882 0.000000
# 4 0.000000 0.000000 0.000000 0.067136 0.000001 -0.006915
# 5 -0.000464 -0.005728 -0.001882 0.000001 0.045782 0.000000
# 6 0.000000 0.000000 0.000000 -0.006915 0.000000 0.031445
#
#
# Mechanical properties :
#
#
# Convention : Reuss Voigt Hill
#
# Bulk Modulus (GPa) = 52.28132 59.10947 55.69539
# Shear Modulus (GPa) = 23.40440 26.56379 24.98410
#
# Velocity S-wave (km/s) = 3.54760 3.77947 3.66537
# Velocity P-wave (km/s) = 6.70032 7.12960 6.91829
#
# Compressibility (1/GPa) = 0.01912729
#
# Stress axis : x y z
#
# Youngs Moduli (GPa) = 86.27601 55.22611 88.38798
#
# Poissons Ratio (x) = 0.19379 0.25016
# Poissons Ratio (y) = 0.30274 0.40686
# Poissons Ratio (z) = 0.24418 0.25421
#
# Static dielectric constant tensor:
#      x y z
#    x 3.533370 0.000000 0.038950 
#    y 0.000000 3.234060 0.000000 
#    z 0.038950 0.000000 3.411730 
# 
# 
# High freq. dielectric constant tensor:
#      x y z
#    x 1.734840 0.000000 0.002470 
#    y 0.000000 1.709350 0.000000 
#    z 0.002470 0.000000 1.727790 
# 
# From -- ./inp_files/212482.got.cif
#   From: 2010.06.25/outbox.cif.g09.slc.cpg/sg12_107_cif.got.tgz:212482.got - 2010.06.28 00:19:55.
