data_PCOD8089648
_publ_section_title
;
Structure prediction by ZEFSAII (Michael W. Deem and Ramdas Pophale) SiO2 
 PCOD8089648
Probable space group: C 2/M
;
_chemical_formula_sum "Si O2"
_cell_formula_units_Z 56
_cell_length_a 9.251954
_cell_length_b 18.836768
_cell_length_c 20.123409
_cell_angle_alpha 90.000000
_cell_angle_beta 62.628227
_cell_angle_gamma 90.000000
_cell_volume 3114.403742
_symmetry_space_group_name_H-M "C 2/M"
_symmetry_group_IT_number 12
_symmetry_cell_setting 'monoclinic'
loop_
_space_group_symop_operation_xyz
x,y,z
-x,y,-z
-x,-y,-z
x,-y,z
1/2+x,1/2+y,z
1/2-x,1/2+y,-z
1/2-x,1/2-y,-z
1/2+x,1/2-y,z
loop_
_atom_site_type_symbol
_atom_site_label
_atom_site_fract_x
_atom_site_fract_y
_atom_site_fract_z
Si Si1 0.163389 0.820553 1.000000
Si Si2 0.751755 0.319387 0.415765
Si Si3 0.113691 0.582146 0.718832
Si Si4 0.507167 0.674691 0.162614
Si Si5 0.083285 0.819386 0.584235
Si Si6 0.667604 0.174691 0.162615
Si Si7 0.448645 0.417854 0.718832
O O1 0.116562 0.859905 0.079062
O O2 0.250000 0.750000 0.000000
O O3 0.274687 0.859905 0.920937
O O4 0.000000 0.795082 0.000000
O O5 0.841745 0.385124 0.362204
O O6 0.863924 0.250000 0.386076
O O7 0.717021 0.339600 0.500000
O O8 0.586455 0.300113 0.413545
O O9 0.077453 0.500000 0.714570
O O10 0.260214 0.594014 0.739785
O O11 0.952608 0.617905 0.780888
O O12 0.578227 0.750000 0.171773
O O13 0.321113 0.686254 0.178887
O O14 0.514386 0.617905 0.219111
O O15 0.066153 0.885124 0.637796
O O16 0.493408 0.500000 0.714569
#
# Coordination Sequence:
#
# PCOD8089648 Si02
#       7
#     8   8   8   8   8   8   8
#     4   8  16  30  49  74  99 125 161 205 249 294
#     4   9  18  33  53  75  98 127 164 205 248 294
#     4  10  21  35  50  72 103 136 170 207 247 293
#     4  10  19  33  54  77 101 130 166 207 251 298
#     4   9  18  33  53  75  98 127 164 205 248 294
#     4  10  19  33  54  77 101 130 166 207 251 298
#     4  10  21  35  50  72 103 136 170 207 247 293
#
# _framework density 17.980969999999999
#
# number of rings (size 3 to 8) (size 9 to 14) (size 15 to 20)
#    0.000    2.571    0.000    1.714    0.000    5.714 
#    0.000    3.571    0.000    4.286    0.000    6.000 
#    0.000    0.000    0.000    0.000    0.000    0.000 
#
# Total GULP energy -347003.099841 kJ/mol
# GULP energy per Si atom -12392.967851 kJ/mol
# Density = 1.794004 g / cm^3
# Si number density = 17.980970 Si / 1000 Ang^3
#
#
#
# Elastic Constant Matrix: (Units=GPa)
#
#
# Indices 1 2 3 4 5 6 
#
# 1 75.3743 57.0807 64.7838 0.0000 2.0344 0.0000
# 2 57.0807 122.4850 80.6475 0.0000 0.9959 0.0000
# 3 64.7838 80.6475 137.9763 0.0000 0.6109 0.0000
# 4 0.0000 0.0000 0.0000 3.9030 0.0000 -0.9540
# 5 2.0344 0.9959 0.6109 0.0000 29.3108 0.0000
# 6 0.0000 0.0000 0.0000 -0.9540 0.0000 26.4971
#
#
#
# Elastic Compliance Matrix: (Units=1/GPa)
#
#
# Indices 1 2 3 4 5 6 
#
# 1 0.025018 -0.006369 -0.008018 0.000000 -0.001353 0.000000
# 2 -0.006369 0.014896 -0.005717 0.000000 0.000055 0.000000
# 3 -0.008018 -0.005717 0.014352 0.000000 0.000452 0.000000
# 4 0.000000 0.000000 0.000000 0.258489 0.000000 0.009306
# 5 -0.001353 0.000055 0.000452 0.000000 0.034200 0.000000
# 6 0.000000 0.000000 0.000000 0.009306 0.000000 0.038075
#
#
# Mechanical properties :
#
#
# Convention : Reuss Voigt Hill
#
# Bulk Modulus (GPa) = 71.12999 82.31773 76.72386
# Shear Modulus (GPa) = 11.63001 20.83042 16.23021
#
# Velocity S-wave (km/s) = 2.54598 3.40732 3.00764
# Velocity P-wave (km/s) = 6.94889 7.83324 7.40428
#
# Compressibility (1/GPa) = 0.01405877
#
# Stress axis : x y z
#
# Youngs Moduli (GPa) = 39.97084 67.13376 69.67758
#
# Poissons Ratio (x) = 0.42754 0.55870
# Poissons Ratio (y) = 0.25456 0.39832
# Poissons Ratio (z) = 0.32050 0.38378
#
# Static dielectric constant tensor:
#      x y z
#    x 3.388190 0.000000 0.032950 
#    y 0.000000 3.039750 0.000000 
#    z 0.032950 0.000000 4.168050 
# 
# 
# High freq. dielectric constant tensor:
#      x y z
#    x 1.700200 0.000000 0.000770 
#    y 0.000000 1.664170 0.000000 
#    z 0.000770 0.000000 1.718520 
# 
# From -- ./inp_files/300706.got.cif
#   From: 2010.06.25/outbox.cif.g09.slc.cpg/sg12_151_cif.got.tgz:300706.got - 2010.06.28 00:19:55.
