data_PCOD8089419
_publ_section_title
;
Structure prediction by ZEFSAII (Michael W. Deem and Ramdas Pophale) SiO2 
 PCOD8089419
Probable space group: C 2/M
;
_chemical_formula_sum "Si O2"
_cell_formula_units_Z 64
_cell_length_a 14.644755
_cell_length_b 8.778529
_cell_length_c 27.128996
_cell_angle_alpha 90.000000
_cell_angle_beta 73.526520
_cell_angle_gamma 90.000000
_cell_volume 3344.521855
_symmetry_space_group_name_H-M "C 2/M"
_symmetry_group_IT_number 12
_symmetry_cell_setting 'monoclinic'
loop_
_space_group_symop_operation_xyz
x,y,z
-x,y,-z
-x,-y,-z
x,-y,z
1/2+x,1/2+y,z
1/2-x,1/2+y,-z
1/2-x,1/2-y,-z
1/2+x,1/2-y,z
loop_
_atom_site_type_symbol
_atom_site_label
_atom_site_fract_x
_atom_site_fract_y
_atom_site_fract_z
Si Si1 0.788732 0.676434 0.420799
Si Si2 0.974694 0.176655 0.763527
Si Si3 0.701977 0.679507 0.860882
Si Si4 0.665791 0.680310 0.687575
Si Si5 0.616747 0.323333 0.123063
Si Si6 0.015532 0.180068 0.943399
Si Si7 0.223424 0.180766 0.245884
Si Si8 0.608506 0.177117 0.493734
O O1 0.785489 0.500000 0.407048
O O2 0.830027 0.773248 0.369722
O O3 0.680971 0.728555 0.448694
O O4 0.861889 0.707200 0.454302
O O5 0.965775 0.205961 0.823506
O O6 0.881681 0.243791 0.750721
O O7 0.069773 0.251039 0.726549
O O8 0.980394 0.000000 0.750441
O O9 0.694542 0.500000 0.853604
O O10 0.793083 0.718307 0.880265
O O11 0.610989 0.745522 0.904010
O O12 0.704714 0.757309 0.806846
O O13 0.672138 0.500000 0.691472
O O14 0.752729 0.754620 0.704043
O O15 0.648466 0.500000 0.120785
O O16 0.575299 0.277786 0.076309
O O17 0.026436 0.000000 0.946004
O O18 0.000000 0.252296 0.000000
O O19 0.227881 0.000000 0.244925
O O20 0.500000 0.232068 0.500000
O O21 0.619254 0.000000 0.478393
#
# Coordination Sequence:
#
# PCOD8089419 Si02
#       8
#     8   8   8   8   8   8   8   8
#     4  10  21  36  54  81 113 142 176 217 266 317
#     4   8  17  33  52  73 100 137 174 207 251 312
#     4  10  19  33  53  76 101 132 173 215 257 309
#     4  11  21  35  55  79 109 142 176 215 257 303
#     4   9  17  33  54  73  98 134 174 214 258 308
#     4   9  18  32  51  74 101 136 174 210 257 319
#     4  10  20  36  55  77 105 137 174 213 260 314
#     4   9  19  38  61  81 105 141 184 227 265 303
#
# _framework density 19.135769
#
# number of rings (size 3 to 8) (size 9 to 14) (size 15 to 20)
#    0.000    2.500    0.000    3.000    0.000    4.250 
#    0.000   12.500    0.000    2.625    0.000    0.000 
#    0.000    0.000    0.000    0.000    0.000    0.000 
#
# Total GULP energy -396781.757239 kJ/mol
# GULP energy per Si atom -12399.429914 kJ/mol
# Density = 1.909221 g / cm^3
# Si number density = 19.135769 Si / 1000 Ang^3
#
#
#
# Elastic Constant Matrix: (Units=GPa)
#
#
# Indices 1 2 3 4 5 6 
#
# 1 82.4336 21.7629 35.8194 0.0000 5.8719 0.0000
# 2 21.7629 54.2907 23.7294 0.0000 2.4500 0.0000
# 3 35.8194 23.7294 94.5480 0.0000 11.2483 0.0000
# 4 0.0000 0.0000 0.0000 26.7881 0.0000 2.4958
# 5 5.8719 2.4500 11.2483 0.0000 25.0060 0.0000
# 6 0.0000 0.0000 0.0000 2.4958 0.0000 24.7551
#
#
#
# Elastic Compliance Matrix: (Units=1/GPa)
#
#
# Indices 1 2 3 4 5 6 
#
# 1 0.015299 -0.004051 -0.004648 0.000000 -0.001105 0.000000
# 2 -0.004051 0.021764 -0.004001 0.000000 0.000619 0.000000
# 3 -0.004648 -0.004001 0.013909 0.000000 -0.004773 0.000000
# 4 0.000000 0.000000 0.000000 0.037684 0.000000 -0.003799
# 5 -0.001105 0.000619 -0.004773 0.000000 0.042336 0.000000
# 6 0.000000 0.000000 0.000000 -0.003799 0.000000 0.040779
#
#
# Mechanical properties :
#
#
# Convention : Reuss Voigt Hill
#
# Bulk Modulus (GPa) = 39.10488 43.76617 41.43552
# Shear Modulus (GPa) = 24.30773 25.30724 24.80748
#
# Velocity S-wave (km/s) = 3.56796 3.64058 3.60445
# Velocity P-wave (km/s) = 6.11994 6.37125 6.24686
#
# Compressibility (1/GPa) = 0.02557226
#
# Stress axis : x y z
#
# Youngs Moduli (GPa) = 65.36462 45.94689 71.89347
#
# Poissons Ratio (x) = 0.18615 0.33414
# Poissons Ratio (y) = 0.26482 0.28765
# Poissons Ratio (z) = 0.30379 0.18384
#
# Static dielectric constant tensor:
#      x y z
#    x 3.652020 0.000000 -0.037140 
#    y 0.000000 3.236400 0.000000 
#    z -0.037140 0.000000 3.568920 
# 
# 
# High freq. dielectric constant tensor:
#      x y z
#    x 1.750490 0.000000 0.004280 
#    y 0.000000 1.722070 0.000000 
#    z 0.004280 0.000000 1.743630 
# 
# From -- ./inp_files/359693.got.cif
#   From: 2010.06.25/outbox.cif.g09.slc.cpg/sg12_180_cif.got.tgz:359693.got - 2010.06.28 00:19:55.
