data_PCOD8089797
_publ_section_title
;
Structure prediction by ZEFSAII (Michael W. Deem and Ramdas Pophale) SiO2 
 PCOD8089797
Probable space group: C 2/M
;
_chemical_formula_sum "Si O2"
_cell_formula_units_Z 64
_cell_length_a 23.977101
_cell_length_b 8.934577
_cell_length_c 28.657881
_cell_angle_alpha 90.000000
_cell_angle_beta 147.147702
_cell_angle_gamma 90.000000
_cell_volume 3330.386647
_symmetry_space_group_name_H-M "C 2/M"
_symmetry_group_IT_number 12
_symmetry_cell_setting 'monoclinic'
loop_
_space_group_symop_operation_xyz
x,y,z
-x,y,-z
-x,-y,-z
x,-y,z
1/2+x,1/2+y,z
1/2-x,1/2+y,-z
1/2-x,1/2-y,-z
1/2+x,1/2-y,z
loop_
_atom_site_type_symbol
_atom_site_label
_atom_site_fract_x
_atom_site_fract_y
_atom_site_fract_z
Si Si1 0.344346 0.676461 0.091883
Si Si2 0.479800 0.677113 0.342736
Si Si3 0.154390 0.324405 0.407663
Si Si4 0.438842 0.677924 0.501377
Si Si5 0.967796 0.823055 0.838783
Si Si6 0.443203 0.823334 0.007568
Si Si7 0.794937 0.675211 0.661884
Si Si8 0.787367 0.823993 0.152776
O O1 0.331702 0.500000 0.078962
O O2 0.449487 0.730009 0.141697
O O3 0.342312 0.731805 0.143954
O O4 0.250000 0.750000 0.000000
O O5 0.498857 0.500000 0.351677
O O6 0.549790 0.757179 0.353756
O O7 0.506088 0.736295 0.412852
O O8 0.361284 0.720357 0.247977
O O9 0.159653 0.500000 0.420801
O O10 0.250000 0.250000 0.500000
O O11 0.158454 0.287602 0.355797
O O12 0.500000 0.743948 0.500000
O O13 0.441774 0.500000 0.502890
O O14 0.321941 0.734940 0.418136
O O15 0.857388 0.761669 0.745531
O O16 0.996071 0.755602 0.908400
O O17 0.962809 0.000000 0.839751
O O18 0.443660 0.000000 0.017320
O O19 0.500000 0.781470 0.000000
O O20 0.327116 0.756521 0.922507
O O21 0.799499 0.500000 0.676222
O O22 0.774042 0.000000 0.141639
#
# Coordination Sequence:
#
# PCOD8089797 Si02
#       8
#     8   8   8   8   8   8   8   8
#     4  10  19  33  54  80 109 142 181 223 279 336
#     4  10  19  35  57  82 113 148 186 228 278 337
#     4  11  21  35  57  86 116 147 183 228 283 339
#     4   9  18  34  57  83 110 144 188 234 275 320
#     4  11  23  37  57  86 114 150 188 229 288 339
#     4  10  21  38  60  85 112 149 195 237 278 328
#     4  10  21  37  57  85 114 146 188 232 279 334
#     4   9  18  33  56  83 111 143 183 231 278 327
#
# _framework density 19.216987
#
# number of rings (size 3 to 8) (size 9 to 14) (size 15 to 20)
#    0.000    2.000    2.500    1.500    0.000    3.750 
#    0.000    5.000    0.000    3.000    0.000    0.000 
#    0.000    0.000    0.000    0.000    0.000    0.000 
#
# Total GULP energy -396816.478737 kJ/mol
# GULP energy per Si atom -12400.514961 kJ/mol
# Density = 1.917325 g / cm^3
# Si number density = 19.216987 Si / 1000 Ang^3
#
#
#
# Elastic Constant Matrix: (Units=GPa)
#
#
# Indices 1 2 3 4 5 6 
#
# 1 142.5058 37.6635 81.2624 -0.0002 -9.9501 0.0000
# 2 37.6635 39.6161 37.9703 0.0006 -4.8749 0.0001
# 3 81.2624 37.9703 180.6540 0.0007 -18.1936 0.0001
# 4 -0.0002 0.0006 0.0007 24.0198 0.0000 -1.2948
# 5 -9.9501 -4.8749 -18.1936 0.0000 18.5386 0.0000
# 6 0.0000 0.0001 0.0001 -1.2948 0.0000 22.0118
#
#
#
# Elastic Compliance Matrix: (Units=1/GPa)
#
#
# Indices 1 2 3 4 5 6 
#
# 1 0.010812 -0.007012 -0.003319 0.000000 0.000702 0.000000
# 2 -0.007012 0.036223 -0.004305 -0.000001 0.001537 0.000000
# 3 -0.003319 -0.004305 0.008478 0.000000 0.005407 0.000000
# 4 0.000000 -0.000001 0.000000 0.041765 0.000000 0.002457
# 5 0.000702 0.001537 0.005407 0.000000 0.060029 0.000000
# 6 0.000000 0.000000 0.000000 0.002457 0.000000 0.045575
#
#
# Mechanical properties :
#
#
# Convention : Reuss Voigt Hill
#
# Bulk Modulus (GPa) = 38.10643 75.17424 56.64033
# Shear Modulus (GPa) = 20.75557 26.63937 23.69747
#
# Velocity S-wave (km/s) = 3.29000 3.72726 3.51544
# Velocity P-wave (km/s) = 5.85702 7.59782 6.78350
#
# Compressibility (1/GPa) = 0.02624229
#
# Stress axis : x y z
#
# Youngs Moduli (GPa) = 92.48914 27.60662 117.95616
#
# Poissons Ratio (x) = 0.19356 0.39151
# Poissons Ratio (y) = 0.64849 0.50777
# Poissons Ratio (z) = 0.30698 0.11884
#
# Static dielectric constant tensor:
#      x y z
#    x 3.985990 0.000000 0.286110 
#    y 0.000000 3.228500 0.000000 
#    z 0.286110 0.000000 3.832450 
# 
# 
# High freq. dielectric constant tensor:
#      x y z
#    x 1.748640 0.000000 -0.001490 
#    y 0.000000 1.714660 0.000000 
#    z -0.001490 0.000000 1.764510 
# 
# From -- ./inp_files/238667.got.cif
#   From: 2010.06.25/outbox.cif.g09.slc.cpg/sg12_120_cif.got.tgz:238667.got - 2010.06.28 00:19:55.
