data_PCOD8089354
_publ_section_title
;
Structure prediction by ZEFSAII (Michael W. Deem and Ramdas Pophale) SiO2 
 PCOD8089354
Probable space group: C 2/M
;
_chemical_formula_sum "Si O2"
_cell_formula_units_Z 56
_cell_length_a 15.661003
_cell_length_b 9.387327
_cell_length_c 19.593799
_cell_angle_alpha 90.000000
_cell_angle_beta 90.798350
_cell_angle_gamma 90.000000
_cell_volume 2880.301873
_symmetry_space_group_name_H-M "C 2/M"
_symmetry_group_IT_number 12
_symmetry_cell_setting 'monoclinic'
loop_
_space_group_symop_operation_xyz
x,y,z
-x,y,-z
-x,-y,-z
x,-y,z
1/2+x,1/2+y,z
1/2-x,1/2+y,-z
1/2-x,1/2-y,-z
1/2+x,1/2-y,z
loop_
_atom_site_type_symbol
_atom_site_label
_atom_site_fract_x
_atom_site_fract_y
_atom_site_fract_z
Si Si1 0.502174 0.169205 0.077192
Si Si2 0.356379 0.841049 0.445055
Si Si3 0.392809 0.162608 0.697391
Si Si4 0.343971 0.658440 0.568387
Si Si5 0.087891 0.666673 0.698733
Si Si6 0.328597 0.165153 0.845664
Si Si7 0.338478 0.169889 0.159954
O O1 0.588056 0.225903 0.114575
O O2 0.417669 0.223386 0.114952
O O3 0.503565 0.000000 0.079953
O O4 0.500000 0.227017 0.000000
O O5 0.390840 0.745409 0.508183
O O6 0.255341 0.851322 0.448117
O O7 0.384769 0.766629 0.373944
O O8 0.395987 0.000000 0.452754
O O9 0.355635 0.265616 0.640362
O O10 0.490336 0.202493 0.714219
O O11 0.339619 0.186488 0.765169
O O12 0.385460 0.000000 0.671492
O O13 0.383645 0.500000 0.572159
O O14 0.104465 0.500000 0.693274
O O15 0.144530 0.723784 0.762261
O O16 0.246925 0.255659 0.869007
O O17 0.313469 0.000000 0.863830
O O18 0.327902 0.000000 0.155790
#
# Coordination Sequence:
#
# PCOD8089354 Si02
#       7
#     8   8   8   8   8   8   8
#     4   9  18  35  59  85 115 151 188 223 266 329
#     4   9  18  33  51  69  94 133 178 221 265 320
#     4  10  19  33  53  74 100 137 180 225 269 320
#     4  10  20  33  49  73 103 133 170 222 277 325
#     4   9  17  32  54  75  97 134 187 229 259 315
#     4  10  20  35  56  84 114 145 185 232 277 322
#     4  10  19  35  59  84 111 148 190 228 271 326
#
# _framework density 19.442405000000001
#
# number of rings (size 3 to 8) (size 9 to 14) (size 15 to 20)
#    0.000    2.429    1.429    1.286    0.000    3.429 
#    0.000    5.714    0.000    0.857    0.000    0.000 
#    0.000    0.000    0.000    0.000    0.000    0.000 
#
# Total GULP energy -347159.841445 kJ/mol
# GULP energy per Si atom -12398.565766 kJ/mol
# Density = 1.939815 g / cm^3
# Si number density = 19.442405 Si / 1000 Ang^3
#
#
#
# Elastic Constant Matrix: (Units=GPa)
#
#
# Indices 1 2 3 4 5 6 
#
# 1 100.8758 38.0802 41.4570 0.0000 -1.6155 0.0000
# 2 38.0802 68.5953 44.1096 0.0000 5.9679 0.0000
# 3 41.4570 44.1096 121.6274 0.0000 0.7969 0.0000
# 4 0.0000 0.0000 0.0000 12.7743 0.0000 2.2762
# 5 -1.6155 5.9679 0.7969 0.0000 28.4754 0.0000
# 6 0.0000 0.0000 0.0000 2.2762 0.0000 20.7534
#
#
#
# Elastic Compliance Matrix: (Units=1/GPa)
#
#
# Indices 1 2 3 4 5 6 
#
# 1 0.013165 -0.005991 -0.002328 0.000000 0.002068 0.000000
# 2 -0.005991 0.022157 -0.005962 0.000000 -0.004817 0.000000
# 3 -0.002328 -0.005962 0.011172 0.000000 0.000805 0.000000
# 4 0.000000 0.000000 0.000000 0.079843 0.000000 -0.008757
# 5 0.002068 -0.004817 0.000805 0.000000 0.036222 0.000000
# 6 0.000000 0.000000 0.000000 -0.008757 0.000000 0.049145
#
#
# Mechanical properties :
#
#
# Convention : Reuss Voigt Hill
#
# Bulk Modulus (GPa) = 55.76664 59.82134 57.79399
# Shear Modulus (GPa) = 20.30511 23.56406 21.93459
#
# Velocity S-wave (km/s) = 3.23518 3.48515 3.36249
# Velocity P-wave (km/s) = 6.53456 6.85786 6.69816
#
# Compressibility (1/GPa) = 0.01793187
#
# Stress axis : x y z
#
# Youngs Moduli (GPa) = 75.96095 45.13255 89.50795
#
# Poissons Ratio (x) = 0.27040 0.20837
# Poissons Ratio (y) = 0.45509 0.53363
# Poissons Ratio (z) = 0.17684 0.26907
#
# Static dielectric constant tensor:
#      x y z
#    x 3.482600 0.000000 -0.022540 
#    y 0.000000 3.327840 0.000000 
#    z -0.022540 0.000000 3.727840 
# 
# 
# High freq. dielectric constant tensor:
#      x y z
#    x 1.755810 0.000000 -0.002870 
#    y 0.000000 1.716930 0.000000 
#    z -0.002870 0.000000 1.763910 
# 
# From -- ./inp_files/308968.got.cif
#   From: 2010.06.25/outbox.cif.g09.slc.cpg/sg12_155_cif.got.tgz:308968.got - 2010.06.28 00:19:55.
