data_PCOD8089222
_publ_section_title
;
Structure prediction by ZEFSAII (Michael W. Deem and Ramdas Pophale) SiO2 
 PCOD8089222
Probable space group: C 2/M
;
_chemical_formula_sum "Si O2"
_cell_formula_units_Z 64
_cell_length_a 14.197531
_cell_length_b 8.892630
_cell_length_c 29.039537
_cell_angle_alpha 90.000000
_cell_angle_beta 102.487872
_cell_angle_gamma 90.000000
_cell_volume 3579.600987
_symmetry_space_group_name_H-M "C 2/M"
_symmetry_group_IT_number 12
_symmetry_cell_setting 'monoclinic'
loop_
_space_group_symop_operation_xyz
x,y,z
-x,y,-z
-x,-y,-z
x,-y,z
1/2+x,1/2+y,z
1/2-x,1/2+y,-z
1/2-x,1/2-y,-z
1/2+x,1/2-y,z
loop_
_atom_site_type_symbol
_atom_site_label
_atom_site_fract_x
_atom_site_fract_y
_atom_site_fract_z
Si Si1 0.334962 0.179693 0.875416
Si Si2 0.168896 0.321431 0.803333
Si Si3 0.402780 0.823450 0.303428
Si Si4 0.211161 0.677257 0.618761
Si Si5 0.927609 0.822808 0.630548
Si Si6 0.731509 0.821663 0.949052
Si Si7 0.541212 0.322760 0.552539
Si Si8 0.045832 0.676206 0.875106
O O1 0.266844 0.236563 0.827060
O O2 0.306229 0.251183 0.920999
O O3 0.441480 0.244715 0.875364
O O4 0.330764 0.000000 0.878556
O O5 0.186910 0.500000 0.808380
O O6 0.139545 0.267828 0.749458
O O7 0.084536 0.269401 0.829427
O O8 0.327610 0.774819 0.335099
O O9 0.506216 0.747464 0.322629
O O10 0.419900 0.000000 0.304888
O O11 0.208098 0.500000 0.611507
O O12 0.319402 0.739881 0.624702
O O13 0.145392 0.749703 0.572182
O O14 0.966777 0.774177 0.584610
O O15 0.929949 0.000000 0.637327
O O16 0.622843 0.778509 0.922460
O O17 0.746663 0.000000 0.952131
O O18 0.750000 0.750000 0.000000
O O19 0.500000 0.261437 0.500000
O O20 0.555760 0.500000 0.552562
O O21 0.033178 0.500000 0.872234
#
# Coordination Sequence:
#
# PCOD8089222 Si02
#       8
#     8   8   8   8   8   8   8   8
#     4  10  19  33  52  74  97 126 163 199 235 281
#     4   9  18  34  51  70  98 130 159 194 239 283
#     4   9  18  32  50  70  95 126 160 194 233 285
#     4   9  18  32  48  69  96 125 156 195 243 288
#     4   9  18  32  48  67  95 125 155 196 243 286
#     4  10  20  36  54  74 101 132 163 199 241 285
#     4   9  18  32  48  67  92 123 159 198 239 287
#     4   8  17  33  51  69  96 130 159 190 236 286
#
# _framework density 17.879086999999998
#
# number of rings (size 3 to 8) (size 9 to 14) (size 15 to 20)
#    0.000    2.875    0.000    1.500    0.000    3.250 
#    0.000    8.750    0.000    0.000    0.000    0.000 
#    0.000    0.000    0.000    0.000    0.000    0.000 
#
# Total GULP energy -396780.533475 kJ/mol
# GULP energy per Si atom -12399.391671 kJ/mol
# Density = 1.783839 g / cm^3
# Si number density = 17.879087 Si / 1000 Ang^3
#
#
#
# Elastic Constant Matrix: (Units=GPa)
#
#
# Indices 1 2 3 4 5 6 
#
# 1 171.5205 35.8455 75.3360 0.0000 11.3965 0.0000
# 2 35.8455 37.1048 37.1419 0.0000 2.7099 0.0000
# 3 75.3360 37.1419 157.6898 0.0000 16.3988 0.0000
# 4 0.0000 0.0000 0.0000 28.3003 0.0000 6.1220
# 5 11.3965 2.7099 16.3988 0.0000 15.2671 0.0000
# 6 0.0000 0.0000 0.0000 6.1220 0.0000 26.6155
#
#
#
# Elastic Compliance Matrix: (Units=1/GPa)
#
#
# Indices 1 2 3 4 5 6 
#
# 1 0.008156 -0.005312 -0.002376 0.000000 -0.002594 0.000000
# 2 -0.005312 0.038847 -0.007101 0.000000 0.004697 0.000000
# 3 -0.002376 -0.007101 0.009944 0.000000 -0.007648 0.000000
# 4 0.000000 0.000000 0.000000 0.037186 0.000000 -0.008553
# 5 -0.002594 0.004697 -0.007648 0.000000 0.074817 0.000000
# 6 0.000000 0.000000 0.000000 -0.008553 0.000000 0.039540
#
#
# Mechanical properties :
#
#
# Convention : Reuss Voigt Hill
#
# Bulk Modulus (GPa) = 36.53494 73.66244 55.09869
# Shear Modulus (GPa) = 20.22735 28.56935 24.39835
#
# Velocity S-wave (km/s) = 3.36719 4.00174 3.69810
# Velocity P-wave (km/s) = 5.96625 7.91465 7.00849
#
# Compressibility (1/GPa) = 0.02737106
#
# Stress axis : x y z
#
# Youngs Moduli (GPa) = 122.60754 25.74204 100.55957
#
# Poissons Ratio (x) = 0.13674 0.23890
# Poissons Ratio (y) = 0.65127 0.71404
# Poissons Ratio (z) = 0.29128 0.18279
#
# Static dielectric constant tensor:
#      x y z
#    x 3.581900 0.000000 -0.026010 
#    y 0.000000 3.130590 0.000000 
#    z -0.026010 0.000000 3.416500 
# 
# 
# High freq. dielectric constant tensor:
#      x y z
#    x 1.696260 0.000000 0.002870 
#    y 0.000000 1.677830 0.000000 
#    z 0.002870 0.000000 1.695110 
# 
# From -- ./inp_files/359875.got.cif
#   From: 2010.06.25/outbox.cif.g09.slc.cpg/sg12_180_cif.got.tgz:359875.got - 2010.06.28 00:19:55.
