data_PCOD8089552
_publ_section_title
;
Structure prediction by ZEFSAII (Michael W. Deem and Ramdas Pophale) SiO2 
 PCOD8089552
Probable space group: C 2/M
;
_chemical_formula_sum "Si O2"
_cell_formula_units_Z 64
_cell_length_a 28.583868
_cell_length_b 8.874506
_cell_length_c 24.030198
_cell_angle_alpha 90.000000
_cell_angle_beta 147.055219
_cell_angle_gamma 90.000000
_cell_volume 3315.019623
_symmetry_space_group_name_H-M "C 2/M"
_symmetry_group_IT_number 12
_symmetry_cell_setting 'monoclinic'
loop_
_space_group_symop_operation_xyz
x,y,z
-x,y,-z
-x,-y,-z
x,-y,z
1/2+x,1/2+y,z
1/2-x,1/2+y,-z
1/2-x,1/2-y,-z
1/2+x,1/2-y,z
loop_
_atom_site_type_symbol
_atom_site_label
_atom_site_fract_x
_atom_site_fract_y
_atom_site_fract_z
Si Si1 0.408864 0.322080 0.538352
Si Si2 0.913361 0.676729 0.280681
Si Si3 0.342334 0.322354 0.590634
Si Si4 0.596124 0.677252 0.230459
Si Si5 0.750354 0.821238 0.813544
Si Si6 0.245317 0.320124 0.682621
Si Si7 0.342798 0.823248 0.090290
Si Si8 0.593977 0.678222 0.956445
O O1 0.402825 0.500000 0.524928
O O2 0.502921 0.265247 0.614915
O O3 0.392306 0.270247 0.585322
O O4 0.339932 0.245369 0.429682
O O5 0.928526 0.500000 0.304790
O O6 0.834305 0.736262 0.239172
O O7 0.894105 0.715693 0.197548
O O8 0.330381 0.500000 0.579345
O O9 0.250000 0.250000 0.500000
O O10 0.393676 0.263993 0.696057
O O11 0.608447 0.500000 0.241949
O O12 0.670142 0.745176 0.264508
O O13 0.500557 0.720363 0.113837
O O14 0.750556 0.760295 0.750971
O O15 0.753380 0.000000 0.817355
O O16 0.835063 0.759486 0.929732
O O17 0.240624 0.500000 0.675560
O O18 0.396942 0.756554 0.093864
O O19 0.330326 0.000000 0.070473
O O20 0.250000 0.750000 0.000000
O O21 0.603416 0.500000 0.956466
#
# Coordination Sequence:
#
# PCOD8089552 Si02
#       8
#     8   8   8   8   8   8   8   8
#     4  11  23  37  56  84 113 145 183 231 286 331
#     4  10  21  38  57  81 112 148 187 227 275 332
#     4  10  19  33  53  80 110 141 176 217 275 333
#     4   9  18  32  56  85 111 142 181 226 277 326
#     4   9  19  36  58  82 109 146 190 232 275 321
#     4  10  20  37  59  81 109 148 192 231 272 330
#     4  11  21  35  58  86 115 148 185 224 277 336
#     4  10  19  36  58  83 118 148 181 231 277 329
#
# _framework density 19.306069999999998
#
# number of rings (size 3 to 8) (size 9 to 14) (size 15 to 20)
#    0.000    2.000    2.500    1.500    0.000    3.500 
#    0.000    7.500    0.000    0.000    0.000    1.750 
#    0.000    0.000    0.000    0.000    0.000    0.000 
#
# Total GULP energy -396812.479028 kJ/mol
# GULP energy per Si atom -12400.389970 kJ/mol
# Density = 1.926213 g / cm^3
# Si number density = 19.306070 Si / 1000 Ang^3
#
#
#
# Elastic Constant Matrix: (Units=GPa)
#
#
# Indices 1 2 3 4 5 6 
#
# 1 129.3829 26.4553 103.2686 0.0000 -7.8384 0.0000
# 2 26.4553 33.3134 31.5958 0.0000 -1.3702 0.0000
# 3 103.2686 31.5958 158.9361 0.0000 11.7865 0.0000
# 4 0.0000 0.0000 0.0000 23.0593 0.0000 0.1150
# 5 -7.8384 -1.3702 11.7865 0.0000 38.2386 0.0000
# 6 0.0000 0.0000 0.0000 0.1150 0.0000 22.9463
#
#
#
# Elastic Compliance Matrix: (Units=1/GPa)
#
#
# Indices 1 2 3 4 5 6 
#
# 1 0.018137 -0.002983 -0.011727 0.000000 0.007226 0.000000
# 2 -0.002983 0.037996 -0.005803 0.000000 0.002539 0.000000
# 3 -0.011727 -0.005803 0.015616 0.000000 -0.007425 0.000000
# 4 0.000000 0.000000 0.000000 0.043368 0.000000 -0.000217
# 5 0.007226 0.002539 -0.007425 0.000000 0.030012 0.000000
# 6 0.000000 0.000000 0.000000 -0.000217 0.000000 0.043581
#
#
# Mechanical properties :
#
#
# Convention : Reuss Voigt Hill
#
# Bulk Modulus (GPa) = 32.55117 71.58576 52.06847
# Shear Modulus (GPa) = 20.83526 27.53636 24.18581
#
# Velocity S-wave (km/s) = 3.28869 3.78074 3.54327
# Velocity P-wave (km/s) = 5.59624 7.49791 6.61576
#
# Compressibility (1/GPa) = 0.03072086
#
# Stress axis : x y z
#
# Youngs Moduli (GPa) = 55.13564 26.31884 64.03709
#
# Poissons Ratio (x) = 0.07852 0.75098
# Poissons Ratio (y) = 0.16449 0.37162
# Poissons Ratio (z) = 0.64659 0.15273
#
# Static dielectric constant tensor:
#      x y z
#    x 3.516010 0.000000 -0.100210 
#    y 0.000000 3.231300 0.000000 
#    z -0.100210 0.000000 3.655850 
# 
# 
# High freq. dielectric constant tensor:
#      x y z
#    x 1.757500 0.000000 0.007080 
#    y 0.000000 1.717740 0.000000 
#    z 0.007080 0.000000 1.763480 
# 
# From -- ./inp_files/353549.got.cif
#   From: 2010.06.25/outbox.cif.g09.slc.cpg/sg12_177_cif.got.tgz:353549.got - 2010.06.28 00:19:55.
