data_PCOD8089051
_publ_section_title
;
Structure prediction by ZEFSAII (Michael W. Deem and Ramdas Pophale) SiO2 
 PCOD8089051
Probable space group: C 2/M
;
_chemical_formula_sum "Si O2"
_cell_formula_units_Z 40
_cell_length_a 12.929565
_cell_length_b 10.731143
_cell_length_c 16.264629
_cell_angle_alpha 90.000000
_cell_angle_beta 111.296836
_cell_angle_gamma 90.000000
_cell_volume 2102.593964
_symmetry_space_group_name_H-M "C 2/M"
_symmetry_group_IT_number 12
_symmetry_cell_setting 'monoclinic'
loop_
_space_group_symop_operation_xyz
x,y,z
-x,y,-z
-x,-y,-z
x,-y,z
1/2+x,1/2+y,z
1/2-x,1/2+y,-z
1/2-x,1/2-y,-z
1/2+x,1/2-y,z
loop_
_atom_site_type_symbol
_atom_site_label
_atom_site_fract_x
_atom_site_fract_y
_atom_site_fract_z
Si Si1 0.377233 0.861896 0.975951
Si Si2 0.071171 0.141677 0.601206
Si Si3 0.274402 0.859382 0.299706
Si Si4 0.324978 0.206729 0.137643
Si Si5 0.973754 0.140559 0.747949
O O1 0.288326 0.785129 0.898531
O O2 0.379782 0.000000 0.938550
O O3 0.500000 0.801517 0.000000
O O4 0.338898 0.874519 0.059911
O O5 0.161763 0.252039 0.631098
O O6 0.000000 0.164844 0.500000
O O7 0.990470 0.156156 0.655418
O O8 0.123022 0.000000 0.615431
O O9 0.317667 0.873079 0.218672
O O10 0.148352 0.810824 0.265378
O O11 0.286704 0.000000 0.342097
O O12 0.434141 0.290918 0.172113
O O13 0.984511 0.000000 0.780152
#
# Coordination Sequence:
#
# PCOD8089051 Si02
#       5
#     8   8   8   8   8
#     4  10  20  32  48  71  98 129 168 212 252 293
#     4   9  19  36  55  76 104 136 168 202 246 303
#     4  10  20  34  53  77 103 131 168 212 252 294
#     4  10  19  33  50  70  99 133 168 206 253 302
#     4   9  18  33  52  73 100 135 170 205 251 304
#
# _framework density 19.024121000000001
#
# number of rings (size 3 to 8) (size 9 to 14) (size 15 to 20)
#    0.000    2.400    0.000    2.400    0.000    2.000 
#    0.000    5.000    0.000    9.600    0.000    0.000 
#    0.000    0.000    0.000    0.000    0.000    0.000 
#
# Total GULP energy -247875.063119 kJ/mol
# GULP energy per Si atom -12393.753156 kJ/mol
# Density = 1.898082 g / cm^3
# Si number density = 19.024121 Si / 1000 Ang^3
#
#
#
# Elastic Constant Matrix: (Units=GPa)
#
#
# Indices 1 2 3 4 5 6 
#
# 1 113.0111 49.4471 14.2541 0.0000 25.0060 0.0000
# 2 49.4471 103.0974 32.7946 0.0000 25.2540 0.0000
# 3 14.2541 32.7946 67.5818 0.0000 13.3539 0.0000
# 4 0.0000 0.0000 0.0000 54.4669 0.0000 -22.2541
# 5 25.0060 25.2540 13.3539 0.0000 25.0932 0.0000
# 6 0.0000 0.0000 0.0000 -22.2541 0.0000 36.2227
#
#
#
# Elastic Compliance Matrix: (Units=1/GPa)
#
#
# Indices 1 2 3 4 5 6 
#
# 1 0.012495 -0.004191 0.001146 0.000000 -0.008843 0.000000
# 2 -0.004191 0.015394 -0.004861 0.000000 -0.008729 0.000000
# 3 0.001146 -0.004861 0.018074 0.000000 -0.005868 0.000000
# 4 0.000000 0.000000 0.000000 0.024513 0.000000 0.015060
# 5 -0.008843 -0.008729 -0.005868 0.000000 0.060572 0.000000
# 6 0.000000 0.000000 0.000000 0.015060 0.000000 0.036859
#
#
# Mechanical properties :
#
#
# Convention : Reuss Voigt Hill
#
# Bulk Modulus (GPa) = 33.16808 52.96466 43.06637
# Shear Modulus (GPa) = 25.80386 35.63621 30.72003
#
# Velocity S-wave (km/s) = 3.68690 4.33276 4.02281
# Velocity P-wave (km/s) = 5.96631 7.27541 6.65314
#
# Compressibility (1/GPa) = 0.03014947
#
# Stress axis : x y z
#
# Youngs Moduli (GPa) = 80.03466 64.95934 55.32918
#
# Poissons Ratio (x) = 0.27224 -0.06339
# Poissons Ratio (y) = 0.33542 0.26897
# Poissons Ratio (z) = -0.09170 0.31579
#
# Static dielectric constant tensor:
#      x y z
#    x 3.588140 0.000000 0.038010 
#    y 0.000000 3.415800 0.000000 
#    z 0.038010 0.000000 3.332660 
# 
# 
# High freq. dielectric constant tensor:
#      x y z
#    x 1.744420 0.000000 -0.002130 
#    y 0.000000 1.736740 0.000000 
#    z -0.002130 0.000000 1.729500 
# 
# From -- ./inp_files/202856.got.cif
#   From: 2010.06.25/outbox.cif.g09.slc.cpg/sg12_102_cif.got.tgz:202856.got - 2010.06.28 00:19:55.
