data_PCOD8089547
_publ_section_title
;
Structure prediction by ZEFSAII (Michael W. Deem and Ramdas Pophale) SiO2 
 PCOD8089547
Probable space group: C 2/M
;
_chemical_formula_sum "Si O2"
_cell_formula_units_Z 56
_cell_length_a 23.556853
_cell_length_b 9.014544
_cell_length_c 14.566817
_cell_angle_alpha 90.000000
_cell_angle_beta 69.794592
_cell_angle_gamma 90.000000
_cell_volume 2902.964086
_symmetry_space_group_name_H-M "C 2/M"
_symmetry_group_IT_number 12
_symmetry_cell_setting 'monoclinic'
loop_
_space_group_symop_operation_xyz
x,y,z
-x,y,-z
-x,-y,-z
x,-y,z
1/2+x,1/2+y,z
1/2-x,1/2+y,-z
1/2-x,1/2-y,-z
1/2+x,1/2-y,z
loop_
_atom_site_type_symbol
_atom_site_label
_atom_site_fract_x
_atom_site_fract_y
_atom_site_fract_z
Si Si1 0.167283 0.327123 0.967382
Si Si2 0.772736 0.175401 0.395320
Si Si3 0.939189 0.823883 0.083269
Si Si4 0.194608 0.168674 0.129993
Si Si5 0.908953 0.175557 0.299928
Si Si6 0.442676 0.323305 0.478312
Si Si7 0.673708 0.670782 0.345417
O O1 0.152819 0.500000 0.970246
O O2 0.119946 0.243162 0.930171
O O3 0.234938 0.288305 0.895513
O O4 0.161019 0.273418 0.076067
O O5 0.750000 0.250000 0.500000
O O6 0.840133 0.232164 0.336721
O O7 0.731426 0.228339 0.334575
O O8 0.769922 0.000000 0.408119
O O9 0.942246 0.771323 0.188222
O O10 0.933693 0.000000 0.078962
O O11 0.000000 0.765979 0.000000
O O12 0.159465 0.187375 0.245536
O O13 0.190293 0.000000 0.096307
O O14 0.941994 0.236802 0.373529
O O15 0.909322 0.000000 0.304583
O O16 0.500000 0.255358 0.500000
O O17 0.445697 0.500000 0.478300
O O18 0.382725 0.269584 0.564474
O O19 0.688268 0.500000 0.362233
#
# Coordination Sequence:
#
# PCOD8089547 Si02
#       7
#     8   8   8   8   8   8   8
#     4  10  20  35  54  78 109 141 176 224 277 326
#     4  11  20  32  53  79 109 141 175 219 268 321
#     4  10  21  36  56  79 106 142 186 231 270 319
#     4   9  19  34  55  81 108 140 178 222 270 324
#     4   9  18  33  52  78 108 137 175 222 270 316
#     4   9  17  30  50  75 104 137 172 212 257 310
#     4  10  19  33  53  80 108 137 177 219 262 318
#
# _framework density 19.290628000000002
#
# number of rings (size 3 to 8) (size 9 to 14) (size 15 to 20)
#    0.000    2.286    1.429    1.714    0.000    2.571 
#    0.000    5.000    0.000    0.429    0.000    0.000 
#    0.000    0.000    0.000    0.000    0.000    0.000 
#
# Total GULP energy -347175.732521 kJ/mol
# GULP energy per Si atom -12399.133304 kJ/mol
# Density = 1.924672 g / cm^3
# Si number density = 19.290628 Si / 1000 Ang^3
#
#
#
# Elastic Constant Matrix: (Units=GPa)
#
#
# Indices 1 2 3 4 5 6 
#
# 1 120.6491 21.5389 65.1982 0.0000 14.2803 0.0000
# 2 21.5389 34.1612 24.1479 0.0000 1.7975 0.0000
# 3 65.1982 24.1479 160.4877 0.0000 6.1368 0.0000
# 4 0.0000 0.0000 0.0000 20.6639 0.0000 5.4361
# 5 14.2803 1.7975 6.1368 0.0000 27.5248 0.0000
# 6 0.0000 0.0000 0.0000 5.4361 0.0000 27.2808
#
#
#
# Elastic Compliance Matrix: (Units=1/GPa)
#
#
# Indices 1 2 3 4 5 6 
#
# 1 0.011786 -0.004386 -0.003939 0.000000 -0.004950 0.000000
# 2 -0.004386 0.034420 -0.003427 0.000000 0.000792 0.000000
# 3 -0.003939 -0.003427 0.008331 0.000000 0.000410 0.000000
# 4 0.000000 0.000000 0.000000 0.051071 0.000000 -0.010177
# 5 -0.004950 0.000792 0.000410 0.000000 0.038756 0.000000
# 6 0.000000 0.000000 0.000000 -0.010177 0.000000 0.038684
#
#
# Mechanical properties :
#
#
# Convention : Reuss Voigt Hill
#
# Bulk Modulus (GPa) = 32.22497 59.67423 45.94960
# Shear Modulus (GPa) = 23.05251 28.72143 25.88697
#
# Velocity S-wave (km/s) = 3.46064 3.86279 3.66723
# Velocity P-wave (km/s) = 5.71921 7.13416 6.46551
#
# Compressibility (1/GPa) = 0.03103183
#
# Stress axis : x y z
#
# Youngs Moduli (GPa) = 84.84652 29.05313 120.03149
#
# Poissons Ratio (x) = 0.12744 0.47278
# Poissons Ratio (y) = 0.37218 0.41138
# Poissons Ratio (z) = 0.33419 0.09957
#
# Static dielectric constant tensor:
#      x y z
#    x 3.626900 0.000000 0.090720 
#    y 0.000000 3.266740 0.000000 
#    z 0.090720 0.000000 3.825630 
# 
# 
# High freq. dielectric constant tensor:
#      x y z
#    x 1.745220 0.000000 0.008270 
#    y 0.000000 1.713960 0.000000 
#    z 0.008270 0.000000 1.765000 
# 
# From -- ./inp_files/237473.got.cif
#   From: 2010.06.25/outbox.cif.g09.slc.cpg/sg12_119_cif.got.tgz:237473.got - 2010.06.28 00:19:55.
