data_PCOD8089666
_publ_section_title
;
Structure prediction by ZEFSAII (Michael W. Deem and Ramdas Pophale) SiO2 
 PCOD8089666
Probable space group: C 2/M
;
_chemical_formula_sum "Si O2"
_cell_formula_units_Z 56
_cell_length_a 18.875259
_cell_length_b 8.859845
_cell_length_c 21.586345
_cell_angle_alpha 90.000000
_cell_angle_beta 56.331083
_cell_angle_gamma 90.000000
_cell_volume 3004.377993
_symmetry_space_group_name_H-M "C 2/M"
_symmetry_group_IT_number 12
_symmetry_cell_setting 'monoclinic'
loop_
_space_group_symop_operation_xyz
x,y,z
-x,y,-z
-x,-y,-z
x,-y,z
1/2+x,1/2+y,z
1/2-x,1/2+y,-z
1/2-x,1/2-y,-z
1/2+x,1/2-y,z
loop_
_atom_site_type_symbol
_atom_site_label
_atom_site_fract_x
_atom_site_fract_y
_atom_site_fract_z
Si Si1 0.116139 0.327082 0.562999
Si Si2 0.036294 0.824723 0.415798
Si Si3 0.171318 0.676730 0.854352
Si Si4 0.174731 0.678357 0.995911
Si Si5 0.790099 0.326903 0.703129
Si Si6 0.000481 0.171283 0.073297
Si Si7 0.269298 0.329187 0.401556
O O1 0.086060 0.500000 0.578724
O O2 0.176555 0.293270 0.474893
O O3 0.163671 0.289037 0.603831
O O4 0.035757 0.216580 0.598982
O O5 0.116717 0.725827 0.359808
O O6 0.000000 0.776820 0.500000
O O7 0.060337 0.000000 0.401011
O O8 0.157130 0.500000 0.855986
O O9 0.254137 0.727347 0.776481
O O10 0.088501 0.753812 0.863093
O O11 0.187735 0.723274 0.917727
O O12 0.175534 0.500000 0.005767
O O13 0.082326 0.741919 0.061862
O O14 0.250000 0.750000 0.000000
O O15 0.793305 0.500000 0.723136
O O16 0.730667 0.307028 0.671911
O O17 0.003590 0.000000 0.096100
O O18 0.000000 0.180432 0.000000
O O19 0.294919 0.500000 0.407622
#
# Coordination Sequence:
#
# PCOD8089666 Si02
#       7
#     8   8   8   8   8   8   8
#     4  10  19  33  54  77 103 134 175 226 274 325
#     4  11  22  35  54  79 108 144 186 232 282 336
#     4  10  21  37  56  82 115 148 184 227 276 329
#     4  10  20  35  58  87 118 150 184 226 272 323
#     4  11  22  37  57  80 110 146 185 231 281 332
#     4   9  17  32  56  83 110 143 183 221 261 317
#     4   9  19  34  52  76 104 135 173 221 274 326
#
# _framework density 18.639465999999999
#
# number of rings (size 3 to 8) (size 9 to 14) (size 15 to 20)
#    0.000    2.000    1.429    2.571    0.000    5.714 
#    0.000    1.429    0.000    8.571    0.000    0.000 
#    0.000    0.000    0.000    0.000    0.000    0.000 
#
# Total GULP energy -347236.169154 kJ/mol
# GULP energy per Si atom -12401.291756 kJ/mol
# Density = 1.859704 g / cm^3
# Si number density = 18.639466 Si / 1000 Ang^3
#
#
#
# Elastic Constant Matrix: (Units=GPa)
#
#
# Indices 1 2 3 4 5 6 
#
# 1 112.7974 47.9046 33.1794 0.0000 -7.8254 0.0000
# 2 47.9046 73.9923 28.2046 0.0000 0.7901 -0.0001
# 3 33.1794 28.2046 70.5364 0.0000 -5.0682 0.0000
# 4 0.0000 0.0000 0.0000 29.1957 0.0000 -5.4818
# 5 -7.8254 0.7901 -5.0682 0.0000 18.2835 0.0000
# 6 0.0000 -0.0001 0.0000 -5.4818 0.0000 37.5297
#
#
#
# Elastic Compliance Matrix: (Units=1/GPa)
#
#
# Indices 1 2 3 4 5 6 
#
# 1 0.013279 -0.007568 -0.002845 0.000000 0.005222 0.000000
# 2 -0.007568 0.020372 -0.004981 0.000000 -0.005500 0.000000
# 3 -0.002845 -0.004981 0.017789 0.000000 0.003929 0.000000
# 4 0.000000 0.000000 0.000000 0.035217 0.000000 0.005144
# 5 0.005222 -0.005500 0.003929 0.000000 0.058256 0.000000
# 6 0.000000 0.000000 0.000000 0.005144 0.000000 0.027397
#
#
# Mechanical properties :
#
#
# Convention : Reuss Voigt Hill
#
# Bulk Modulus (GPa) = 48.42188 52.87813 50.65000
# Shear Modulus (GPa) = 23.81143 26.87096 25.34120
#
# Velocity S-wave (km/s) = 3.57805 3.80098 3.69120
# Velocity P-wave (km/s) = 6.56540 6.90607 6.73789
#
# Compressibility (1/GPa) = 0.02065182
#
# Stress axis : x y z
#
# Youngs Moduli (GPa) = 75.30814 49.08595 56.21381
#
# Poissons Ratio (x) = 0.37151 0.15991
# Poissons Ratio (y) = 0.56997 0.28001
# Poissons Ratio (z) = 0.21422 0.24451
#
# Static dielectric constant tensor:
#      x y z
#    x 3.432810 0.000000 -0.021270 
#    y 0.000000 3.469360 0.000000 
#    z -0.021270 0.000000 3.263800 
# 
# 
# High freq. dielectric constant tensor:
#      x y z
#    x 1.723650 0.000000 -0.009030 
#    y 0.000000 1.736910 0.000000 
#    z -0.009030 0.000000 1.695660 
# 
# From -- ./inp_files/313751.got.cif
#   From: 2010.06.25/outbox.cif.g09.slc.cpg/sg12_157_cif.got.tgz:313751.got - 2010.06.28 00:19:55.
