data_PCOD8089168
_publ_section_title
;
Structure prediction by ZEFSAII (Michael W. Deem and Ramdas Pophale) SiO2 
 PCOD8089168
Probable space group: C 2/M
;
_chemical_formula_sum "Si O2"
_cell_formula_units_Z 56
_cell_length_a 14.323985
_cell_length_b 9.592619
_cell_length_c 26.350392
_cell_angle_alpha 90.000000
_cell_angle_beta 123.985060
_cell_angle_gamma 90.000000
_cell_volume 3002.193698
_symmetry_space_group_name_H-M "C 2/M"
_symmetry_group_IT_number 12
_symmetry_cell_setting 'monoclinic'
loop_
_space_group_symop_operation_xyz
x,y,z
-x,y,-z
-x,-y,-z
x,-y,z
1/2+x,1/2+y,z
1/2-x,1/2+y,-z
1/2-x,1/2-y,-z
1/2+x,1/2-y,z
loop_
_atom_site_type_symbol
_atom_site_label
_atom_site_fract_x
_atom_site_fract_y
_atom_site_fract_z
Si Si1 0.653497 0.834319 0.999076
Si Si2 0.596524 0.164324 0.093548
Si Si3 0.216635 0.665417 0.326191
Si Si4 0.516156 0.835596 0.699410
Si Si5 0.330012 0.344535 0.458373
Si Si6 0.586522 0.154312 0.435620
Si Si7 0.770879 0.834128 0.229983
O O1 0.532698 0.786304 0.939347
O O2 0.673808 0.000000 0.998947
O O3 0.750000 0.750000 0.000000
O O4 0.653063 0.787089 0.057928
O O5 0.670091 0.217889 0.163162
O O6 0.593687 0.000000 0.091267
O O7 0.217899 0.500000 0.330892
O O8 0.091919 0.716876 0.302170
O O9 0.308507 0.720611 0.395437
O O10 0.244074 0.718045 0.278506
O O11 0.499646 0.798779 0.634755
O O12 0.617445 0.745843 0.753436
O O13 0.538476 0.000000 0.713641
O O14 0.379685 0.500000 0.470192
O O15 0.420997 0.255561 0.517911
O O16 0.210936 0.345994 0.450378
O O17 0.555478 0.000000 0.445221
O O18 0.789066 0.000000 0.232359
#
# Coordination Sequence:
#
# PCOD8089168 Si02
#       7
#     8   8   8   8   8   8   8
#     4   9  17  33  55  78 103 131 162 196 235 278
#     4   8  17  33  51  72 103 136 160 190 238 288
#     4   8  16  31  49  67  92 126 161 198 244 295
#     4   9  18  33  49  68  97 129 159 199 250 293
#     4   8  13  24  43  64  84 112 154 200 240 282
#     4   8  14  25  42  63  88 118 151 192 246 296
#     4  10  19  33  52  72  95 129 169 199 229 282
#
# _framework density 18.653026000000001
#
# number of rings (size 3 to 8) (size 9 to 14) (size 15 to 20)
#    0.000    3.429    0.000    2.571    0.000    1.714 
#    0.000    8.571    0.000    4.286    0.000    0.000 
#    0.000    0.000    0.000    0.000    0.000    0.000 
#
# Total GULP energy -347013.395883 kJ/mol
# GULP energy per Si atom -12393.335567 kJ/mol
# Density = 1.861057 g / cm^3
# Si number density = 18.653026 Si / 1000 Ang^3
#
#
#
# Elastic Constant Matrix: (Units=GPa)
#
#
# Indices 1 2 3 4 5 6 
#
# 1 75.6156 22.0160 33.4864 0.0000 4.1894 0.0000
# 2 22.0160 42.9345 28.7280 0.0000 4.4649 0.0000
# 3 33.4864 28.7280 106.3194 0.0000 8.2945 0.0000
# 4 0.0000 0.0000 0.0000 23.0278 0.0000 5.5181
# 5 4.1894 4.4649 8.2945 0.0000 26.0193 0.0000
# 6 0.0000 0.0000 0.0000 5.5181 0.0000 24.0179
#
#
#
# Elastic Compliance Matrix: (Units=1/GPa)
#
#
# Indices 1 2 3 4 5 6 
#
# 1 0.016593 -0.006086 -0.003543 0.000000 -0.000498 0.000000
# 2 -0.006086 0.030823 -0.006230 0.000000 -0.002323 0.000000
# 3 -0.003543 -0.006230 0.012385 0.000000 -0.002309 0.000000
# 4 0.000000 0.000000 0.000000 0.045956 0.000000 -0.010558
# 5 -0.000498 -0.002323 -0.002309 0.000000 0.039648 0.000000
# 6 0.000000 0.000000 0.000000 -0.010558 0.000000 0.044061
#
#
# Mechanical properties :
#
#
# Convention : Reuss Voigt Hill
#
# Bulk Modulus (GPa) = 35.60994 43.70340 39.65667
# Shear Modulus (GPa) = 21.68768 23.98894 22.83831
#
# Velocity S-wave (km/s) = 3.41352 3.59006 3.50290
# Velocity P-wave (km/s) = 5.88798 6.37693 6.13733
#
# Compressibility (1/GPa) = 0.02808205
#
# Stress axis : x y z
#
# Youngs Moduli (GPa) = 60.26484 32.44377 80.74280
#
# Poissons Ratio (x) = 0.19747 0.28606
# Poissons Ratio (y) = 0.36680 0.50304
# Poissons Ratio (z) = 0.21351 0.20213
#
# Static dielectric constant tensor:
#      x y z
#    x 3.254060 0.000000 0.005870 
#    y 0.000000 3.141290 0.000000 
#    z 0.005870 0.000000 3.969280 
# 
# 
# High freq. dielectric constant tensor:
#      x y z
#    x 1.717310 0.000000 0.002660 
#    y 0.000000 1.686840 0.000000 
#    z 0.002660 0.000000 1.728590 
# 
# From -- ./inp_files/339007.got.cif
#   From: 2010.06.25/outbox.cif.g09.slc.cpg/sg12_170_cif.got.tgz:339007.got - 2010.06.28 00:19:55.
