data_PCOD8089403
_publ_section_title
;
Structure prediction by ZEFSAII (Michael W. Deem and Ramdas Pophale) SiO2 
 PCOD8089403
Probable space group: C 2/M
;
_chemical_formula_sum "Si O2"
_cell_formula_units_Z 64
_cell_length_a 20.569634
_cell_length_b 9.132126
_cell_length_c 21.493004
_cell_angle_alpha 90.000000
_cell_angle_beta 118.974862
_cell_angle_gamma 90.000000
_cell_volume 3531.997622
_symmetry_space_group_name_H-M "C 2/M"
_symmetry_group_IT_number 12
_symmetry_cell_setting 'monoclinic'
loop_
_space_group_symop_operation_xyz
x,y,z
-x,y,-z
-x,-y,-z
x,-y,z
1/2+x,1/2+y,z
1/2-x,1/2+y,-z
1/2-x,1/2-y,-z
1/2+x,1/2-y,z
loop_
_atom_site_type_symbol
_atom_site_label
_atom_site_fract_x
_atom_site_fract_y
_atom_site_fract_z
Si Si1 0.589435 0.170309 0.290498
Si Si2 0.461893 0.330313 0.545522
Si Si3 0.318112 0.668794 0.154851
Si Si4 0.666191 0.673061 0.086582
Si Si5 0.072305 0.172983 0.161498
Si Si6 0.328011 0.827674 0.545784
Si Si7 0.095576 0.826163 0.926858
Si Si8 0.461076 0.334162 0.292864
O O1 0.614373 0.252756 0.239329
O O2 0.647524 0.205978 0.372226
O O3 0.508124 0.225095 0.272337
O O4 0.585147 0.000000 0.274400
O O5 0.500000 0.273524 0.500000
O O6 0.438280 0.500000 0.528935
O O7 0.388164 0.237232 0.525508
O O8 0.523652 0.306359 0.627484
O O9 0.295139 0.500000 0.136841
O O10 0.246716 0.762933 0.137128
O O11 0.355940 0.727300 0.109039
O O12 0.374409 0.691587 0.238674
O O13 0.673321 0.500000 0.086226
O O14 0.612664 0.722322 0.117333
O O15 0.632695 0.736636 0.006853
O O16 0.988169 0.233228 0.118428
O O17 0.075500 0.000000 0.172308
O O18 0.250000 0.750000 0.500000
O O19 0.320847 0.000000 0.529847
O O20 0.091940 0.000000 0.927994
O O21 0.483619 0.500000 0.284129
#
# Coordination Sequence:
#
# PCOD8089403 Si02
#       8
#     8   8   8   8   8   8   8   8
#     4  10  20  34  55  82 107 135 174 222 264 303
#     4   9  18  34  57  83 111 142 178 216 261 318
#     4  10  19  33  53  75 104 140 175 213 261 315
#     4  10  21  34  51  77 107 136 172 222 267 307
#     4  10  19  35  56  76 103 139 179 215 259 317
#     4  10  21  37  57  82 111 142 178 220 266 314
#     4   9  17  33  56  77  97 134 182 218 257 313
#     4   9  17  33  56  78 102 141 182 212 250 313
#
# _framework density 18.120056999999999
#
# number of rings (size 3 to 8) (size 9 to 14) (size 15 to 20)
#    0.000    2.375    1.250    1.500    0.000    4.250 
#    2.250    0.625    0.000    1.500    0.000    0.000 
#    0.000    0.000    0.000    0.000    0.000    0.000 
#
# Total GULP energy -396841.521069 kJ/mol
# GULP energy per Si atom -12401.297533 kJ/mol
# Density = 1.807881 g / cm^3
# Si number density = 18.120057 Si / 1000 Ang^3
#
#
#
# Elastic Constant Matrix: (Units=GPa)
#
#
# Indices 1 2 3 4 5 6 
#
# 1 108.4514 43.4880 59.6141 0.0000 5.7899 0.0000
# 2 43.4880 47.6503 41.0160 0.0000 0.8809 0.0000
# 3 59.6141 41.0160 113.3959 0.0000 -0.5585 0.0000
# 4 0.0000 0.0000 0.0000 24.8585 0.0000 3.9750
# 5 5.7899 0.8809 -0.5585 0.0000 29.0957 0.0000
# 6 0.0000 0.0000 0.0000 3.9750 0.0000 29.1767
#
#
#
# Elastic Compliance Matrix: (Units=1/GPa)
#
#
# Indices 1 2 3 4 5 6 
#
# 1 0.016267 -0.010770 -0.004671 0.000000 -0.003001 0.000000
# 2 -0.010770 0.037642 -0.007949 0.000000 0.000851 0.000000
# 3 -0.004671 -0.007949 0.014157 0.000000 0.001442 0.000000
# 4 0.000000 0.000000 0.000000 0.041124 0.000000 -0.005603
# 5 -0.003001 0.000851 0.001442 0.000000 0.034968 0.000000
# 6 0.000000 0.000000 0.000000 -0.005603 0.000000 0.035037
#
#
# Mechanical properties :
#
#
# Convention : Reuss Voigt Hill
#
# Bulk Modulus (GPa) = 46.98065 61.97043 54.47554
# Shear Modulus (GPa) = 21.45264 24.98479 23.21872
#
# Velocity S-wave (km/s) = 3.44454 3.71731 3.58352
# Velocity P-wave (km/s) = 6.46557 7.25939 6.87394
#
# Compressibility (1/GPa) = 0.02128536
#
# Stress axis : x y z
#
# Youngs Moduli (GPa) = 61.47314 26.56595 70.63757
#
# Poissons Ratio (x) = 0.28612 0.32996
# Poissons Ratio (y) = 0.66207 0.56152
# Poissons Ratio (z) = 0.28715 0.21118
#
# Static dielectric constant tensor:
#      x y z
#    x 3.240140 0.000000 -0.066280 
#    y 0.000000 3.189590 0.000000 
#    z -0.066280 0.000000 3.590040 
# 
# 
# High freq. dielectric constant tensor:
#      x y z
#    x 1.692180 0.000000 -0.001900 
#    y 0.000000 1.684760 0.000000 
#    z -0.001900 0.000000 1.714120 
# 
# From -- ./inp_files/319916.got.cif
#   From: 2010.06.25/outbox.cif.g09.slc.cpg/sg12_160_cif.got.tgz:319916.got - 2010.06.28 00:19:55.
