data_PCOD8089099
_publ_section_title
;
Structure prediction by ZEFSAII (Michael W. Deem and Ramdas Pophale) SiO2 
 PCOD8089099
Probable space group: C 2/M
;
_chemical_formula_sum "Si O2"
_cell_formula_units_Z 56
_cell_length_a 22.460901
_cell_length_b 20.509594
_cell_length_c 17.556491
_cell_angle_alpha 90.000000
_cell_angle_beta 154.958800
_cell_angle_gamma 90.000000
_cell_volume 3423.255353
_symmetry_space_group_name_H-M "C 2/M"
_symmetry_group_IT_number 12
_symmetry_cell_setting 'monoclinic'
loop_
_space_group_symop_operation_xyz
x,y,z
-x,y,-z
-x,-y,-z
x,-y,z
1/2+x,1/2+y,z
1/2-x,1/2+y,-z
1/2-x,1/2-y,-z
1/2+x,1/2-y,z
loop_
_atom_site_type_symbol
_atom_site_label
_atom_site_fract_x
_atom_site_fract_y
_atom_site_fract_z
Si Si1 0.291923 0.375763 0.432723
Si Si2 0.365339 0.302397 0.655728
Si Si3 0.658323 0.000000 0.211108
Si Si4 0.650892 0.251083 0.208168
Si Si5 0.900253 0.129889 0.266215
Si Si6 0.849712 0.263727 0.298106
Si Si7 0.675100 0.697438 0.964024
Si Si8 0.650268 0.500000 0.711100
O O1 0.334083 0.368991 0.571683
O O2 0.197722 0.438889 0.309563
O O3 0.197972 0.314215 0.304108
O O4 0.430284 0.376998 0.539235
O O5 0.250000 0.250000 0.500000
O O6 0.356776 0.309969 0.737795
O O7 0.522278 0.277509 0.815264
O O8 0.736915 0.000000 0.223227
O O9 0.500000 0.000000 0.000000
O O10 0.756799 0.268326 0.264973
O O11 0.500000 0.236879 0.000000
O O12 0.859570 0.191160 0.272987
O O13 0.828712 0.064728 0.214468
O O14 0.843654 0.135655 0.113692
O O15 0.779077 0.314405 0.156250
O O16 0.000000 0.289684 0.500000
O O17 0.750000 0.750000 0.000000
O O18 0.500000 0.500000 0.500000
#
# Coordination Sequence:
#
# PCOD8089099 Si02
#       8
#     8   8   4   8   8   8   8   4
#     4  10  19  34  50  68 101 134 165 198 242 295
#     4   9  19  32  47  70  97 131 164 197 248 298
#     4  12  24  36  48  76 102 129 165 202 240 283
#     4  11  19  30  47  73  99 129 163 203 249 290
#     4  10  19  33  51  72  97 133 167 202 236 289
#     4  11  19  31  49  72 102 129 163 206 246 288
#     4   9  19  32  47  70  99 128 164 202 243 295
#     4  12  20  34  54  72  96 130 171 194 233 289
#
# _framework density 16.358698
#
# number of rings (size 3 to 8) (size 9 to 14) (size 15 to 20)
#    0.000    1.714    4.286    1.714    2.000    0.000 
#    2.571    0.000    0.000    0.000    0.000    2.000 
#    0.000    0.000    0.000    0.000    0.000    0.000 
#
# Total GULP energy -346907.122653 kJ/mol
# GULP energy per Si atom -12389.540095 kJ/mol
# Density = 1.632147 g / cm^3
# Si number density = 16.358698 Si / 1000 Ang^3
#
#
#
# Elastic Constant Matrix: (Units=GPa)
#
#
# Indices 1 2 3 4 5 6 
#
# 1 125.0795 38.4997 57.3454 0.0000 -4.7708 0.0000
# 2 38.4997 56.9100 35.6380 0.0000 -9.5271 0.0000
# 3 57.3454 35.6380 128.6307 0.0000 -2.4303 0.0000
# 4 0.0000 0.0000 0.0000 21.0901 0.0000 -5.6976
# 5 -4.7708 -9.5271 -2.4303 0.0000 32.2668 0.0000
# 6 0.0000 0.0000 0.0000 -5.6976 0.0000 21.7488
#
#
#
# Elastic Compliance Matrix: (Units=1/GPa)
#
#
# Indices 1 2 3 4 5 6 
#
# 1 0.011282 -0.005463 -0.003520 0.000000 -0.000210 0.000000
# 2 -0.005463 0.025065 -0.004391 0.000000 0.006262 0.000000
# 3 -0.003520 -0.004391 0.010541 0.000000 -0.001023 0.000000
# 4 0.000000 0.000000 0.000000 0.051027 0.000000 0.013368
# 5 -0.000210 0.006262 -0.001023 0.000000 0.032733 0.000000
# 6 0.000000 0.000000 0.000000 0.013368 0.000000 0.049482
#
#
# Mechanical properties :
#
#
# Convention : Reuss Voigt Hill
#
# Bulk Modulus (GPa) = 49.65183 63.73183 56.69183
# Shear Modulus (GPa) = 23.40921 26.96360 25.18640
#
# Velocity S-wave (km/s) = 3.78695 4.06430 3.92807
# Velocity P-wave (km/s) = 7.03841 7.81462 7.43665
#
# Compressibility (1/GPa) = 0.02014024
#
# Stress axis : x y z
#
# Youngs Moduli (GPa) = 88.63332 39.89567 94.87075
#
# Poissons Ratio (x) = 0.21796 0.33396
# Poissons Ratio (y) = 0.48424 0.41654
# Poissons Ratio (z) = 0.31201 0.17517
#
# Static dielectric constant tensor:
#      x y z
#    x 3.731230 0.000000 -0.441400 
#    y 0.000000 2.851610 0.000000 
#    z -0.441400 0.000000 3.505660 
# 
# 
# High freq. dielectric constant tensor:
#      x y z
#    x 1.648070 0.000000 -0.000500 
#    y 0.000000 1.574010 0.000000 
#    z -0.000500 0.000000 1.646660 
# 
# From -- ./inp_files/90365.got.cif
#   From: 2010.06.25/outbox.cif.g09.slc.cpg/sg12_46_cif.got.tgz:90365.got - 2010.06.28 00:19:55.
