data_PCOD8089614
_publ_section_title
;
Structure prediction by ZEFSAII (Michael W. Deem and Ramdas Pophale) SiO2 
 PCOD8089614
Probable space group: C 2/M
;
_chemical_formula_sum "Si O2"
_cell_formula_units_Z 56
_cell_length_a 19.129790
_cell_length_b 9.080495
_cell_length_c 31.976814
_cell_angle_alpha 90.000000
_cell_angle_beta 145.660086
_cell_angle_gamma 90.000000
_cell_volume 3133.372970
_symmetry_space_group_name_H-M "C 2/M"
_symmetry_group_IT_number 12
_symmetry_cell_setting 'monoclinic'
loop_
_space_group_symop_operation_xyz
x,y,z
-x,y,-z
-x,-y,-z
x,-y,z
1/2+x,1/2+y,z
1/2-x,1/2+y,-z
1/2-x,1/2-y,-z
1/2+x,1/2-y,z
loop_
_atom_site_type_symbol
_atom_site_label
_atom_site_fract_x
_atom_site_fract_y
_atom_site_fract_z
Si Si1 0.166646 0.326535 0.993665
Si Si2 0.876087 0.673845 0.846311
Si Si3 0.927035 0.666179 0.597236
Si Si4 0.365590 0.673943 0.417956
Si Si5 0.643485 0.171582 0.072645
Si Si6 0.249022 0.669855 0.565007
Si Si7 0.307854 0.169536 0.303698
O O1 0.190252 0.500000 0.002320
O O2 0.022026 0.291167 0.914989
O O3 0.250000 0.250000 0.000000
O O4 0.204712 0.266366 0.059602
O O5 0.852780 0.500000 0.829369
O O6 0.815770 0.730037 0.861184
O O7 0.811375 0.763254 0.777581
O O8 0.889545 0.500000 0.591710
O O9 0.867765 0.701618 0.522771
O O10 0.876279 0.781150 0.605872
O O11 0.074071 0.685464 0.668271
O O12 0.500000 0.726808 0.500000
O O13 0.356726 0.500000 0.410353
O O14 0.264213 0.733396 0.400187
O O15 0.334843 0.741254 0.358461
O O16 0.668156 0.000000 0.084075
O O17 0.500000 0.206951 0.000000
O O18 0.258892 0.500000 0.582477
O O19 0.282229 0.000000 0.302331
#
# Coordination Sequence:
#
# PCOD8089614 Si02
#       7
#     8   8   8   8   8   8   8
#     4   9  17  31  54  82 109 139 175 215 261 311
#     4   9  18  34  54  76 103 138 181 223 261 310
#     4   9  19  34  51  73 101 133 170 216 266 318
#     4  11  22  35  54  78 104 138 181 226 273 326
#     4   7  12  27  51  74  97 130 171 208 242 292
#     4  10  19  33  54  76 100 130 171 221 268 317
#     4  11  22  36  54  77 108 142 177 222 275 325
#
# _framework density 17.872112999999999
#
# number of rings (size 3 to 8) (size 9 to 14) (size 15 to 20)
#    0.000    2.571    1.429    3.000    0.000    2.857 
#    0.000    2.143    0.000    9.429    0.000    0.000 
#    0.000    0.000    0.000    0.000    0.000    0.000 
#
# Total GULP energy -346968.219173 kJ/mol
# GULP energy per Si atom -12391.722113 kJ/mol
# Density = 1.783143 g / cm^3
# Si number density = 17.872113 Si / 1000 Ang^3
#
#
#
# Elastic Constant Matrix: (Units=GPa)
#
#
# Indices 1 2 3 4 5 6 
#
# 1 123.3187 50.2779 46.4726 0.0000 -18.1175 0.0000
# 2 50.2779 69.7187 41.2712 -0.0001 -9.8723 -0.0001
# 3 46.4726 41.2712 82.0677 0.0000 -15.7323 0.0000
# 4 0.0000 -0.0001 0.0000 21.5602 0.0000 -1.1929
# 5 -18.1175 -9.8723 -15.7323 0.0000 25.3216 0.0000
# 6 0.0000 -0.0001 0.0000 -1.1929 0.0000 33.7491
#
#
#
# Elastic Compliance Matrix: (Units=1/GPa)
#
#
# Indices 1 2 3 4 5 6 
#
# 1 0.012620 -0.006750 -0.002867 0.000000 0.004617 0.000000
# 2 -0.006750 0.024106 -0.008428 0.000000 -0.000668 0.000000
# 3 -0.002867 -0.008428 0.019325 0.000000 0.006670 0.000000
# 4 0.000000 0.000000 0.000000 0.046473 0.000000 0.001643
# 5 0.004617 -0.000668 0.006670 0.000000 0.046679 0.000000
# 6 0.000000 0.000000 0.000000 0.001643 0.000000 0.029689
#
#
# Mechanical properties :
#
#
# Convention : Reuss Voigt Hill
#
# Bulk Modulus (GPa) = 50.09749 61.23873 55.66811
# Shear Modulus (GPa) = 22.55965 25.26506 23.91235
#
# Velocity S-wave (km/s) = 3.55672 3.76394 3.66180
# Velocity P-wave (km/s) = 6.70514 7.29582 7.00671
#
# Compressibility (1/GPa) = 0.01996108
#
# Stress axis : x y z
#
# Youngs Moduli (GPa) = 79.24156 41.48358 51.74518
#
# Poissons Ratio (x) = 0.28002 0.14833
# Poissons Ratio (y) = 0.53488 0.43613
# Poissons Ratio (z) = 0.22715 0.34964
#
# Static dielectric constant tensor:
#      x y z
#    x 3.515800 0.000000 -0.125950 
#    y 0.000000 3.169620 0.000000 
#    z -0.125950 0.000000 3.276210 
# 
# 
# High freq. dielectric constant tensor:
#      x y z
#    x 1.697560 0.000000 -0.015250 
#    y 0.000000 1.681060 0.000000 
#    z -0.015250 0.000000 1.668160 
# 
# From -- ./inp_files/377773.got.cif
#   From: 2010.06.25/outbox.cif.g09.slc.cpg/sg12_189_cif.got.tgz:377773.got - 2010.06.28 00:19:55.
