data_PCOD8089858
_publ_section_title
;
Structure prediction by ZEFSAII (Michael W. Deem and Ramdas Pophale) SiO2 
 PCOD8089858
Probable space group: C 2/M
;
_chemical_formula_sum "Si O2"
_cell_formula_units_Z 56
_cell_length_a 20.505264
_cell_length_b 9.044290
_cell_length_c 22.098033
_cell_angle_alpha 90.000000
_cell_angle_beta 131.597197
_cell_angle_gamma 90.000000
_cell_volume 3064.761452
_symmetry_space_group_name_H-M "C 2/M"
_symmetry_group_IT_number 12
_symmetry_cell_setting 'monoclinic'
loop_
_space_group_symop_operation_xyz
x,y,z
-x,y,-z
-x,-y,-z
x,-y,z
1/2+x,1/2+y,z
1/2-x,1/2+y,-z
1/2-x,1/2-y,-z
1/2+x,1/2-y,z
loop_
_atom_site_type_symbol
_atom_site_label
_atom_site_fract_x
_atom_site_fract_y
_atom_site_fract_z
Si Si1 0.310478 0.828908 0.488577
Si Si2 0.331225 0.673313 0.256782
Si Si3 0.753592 0.326529 0.667767
Si Si4 0.007562 0.671016 0.338342
Si Si5 0.248165 0.829107 0.094106
Si Si6 0.447282 0.824901 0.766338
Si Si7 0.120201 0.671007 0.932920
O O1 0.250000 0.750000 0.500000
O O2 0.299359 0.758879 0.416023
O O3 0.411273 0.808335 0.567283
O O4 0.283971 0.000000 0.471178
O O5 0.335541 0.500000 0.247361
O O6 0.289295 0.711909 0.295130
O O7 0.427988 0.737860 0.316515
O O8 0.269551 0.744644 0.168533
O O9 0.750343 0.500000 0.650745
O O10 0.853397 0.268251 0.730698
O O11 0.979111 0.500000 0.315442
O O12 0.032511 0.737293 0.288069
O O13 0.326646 0.801951 0.095914
O O14 0.234901 0.000000 0.100770
O O15 0.158335 0.766692 0.011197
O O16 0.521551 0.773929 0.859568
O O17 0.448032 0.000000 0.762433
O O18 0.124248 0.500000 0.954573
#
# Coordination Sequence:
#
# PCOD8089858 Si02
#       7
#     8   8   8   8   8   8   8
#     4  11  22  37  60  87 114 147 188 235 282 332
#     4  11  23  37  56  84 116 150 187 233 282 333
#     4  10  22  40  59  81 115 152 188 232 283 334
#     4  10  20  37  60  82 110 149 189 230 277 333
#     4  10  19  33  54  81 114 147 180 228 283 336
#     4   9  16  34  59  81 106 144 189 230 273 329
#     4   9  17  31  55  83 106 138 187 234 275 324
#
# _framework density 18.272220999999998
#
# number of rings (size 3 to 8) (size 9 to 14) (size 15 to 20)
#    0.000    2.000    2.857    1.286    0.000    3.429 
#    0.000    4.286    0.000    4.286    0.000    0.000 
#    0.000    0.000    0.000    0.000    0.000    0.000 
#
# Total GULP energy -347269.083614 kJ/mol
# GULP energy per Si atom -12402.467272 kJ/mol
# Density = 1.823063 g / cm^3
# Si number density = 18.272221 Si / 1000 Ang^3
#
#
#
# Elastic Constant Matrix: (Units=GPa)
#
#
# Indices 1 2 3 4 5 6 
#
# 1 125.0408 61.6619 75.9570 0.0000 3.5056 0.0000
# 2 61.6619 88.2509 70.7656 0.0000 -10.1079 0.0000
# 3 75.9570 70.7656 150.1152 0.0000 -0.3545 0.0000
# 4 0.0000 0.0000 0.0000 35.6411 0.0000 -0.7080
# 5 3.5056 -10.1079 -0.3545 0.0000 25.2582 0.0000
# 6 0.0000 0.0000 0.0000 -0.7080 0.0000 25.5992
#
#
#
# Elastic Compliance Matrix: (Units=1/GPa)
#
#
# Indices 1 2 3 4 5 6 
#
# 1 0.013997 -0.007497 -0.003560 0.000000 -0.004993 0.000000
# 2 -0.007497 0.023632 -0.007322 0.000000 0.010395 0.000000
# 3 -0.003560 -0.007322 0.011909 0.000000 -0.002269 0.000000
# 4 0.000000 0.000000 0.000000 0.028073 0.000000 0.000776
# 5 -0.004993 0.010395 -0.002269 0.000000 0.044412 0.000000
# 6 0.000000 0.000000 0.000000 0.000776 0.000000 0.039085
#
#
# Mechanical properties :
#
#
# Convention : Reuss Voigt Hill
#
# Bulk Modulus (GPa) = 78.25069 86.68621 82.46845
# Shear Modulus (GPa) = 24.73708 27.63454 26.18581
#
# Velocity S-wave (km/s) = 3.68341 3.89315 3.78973
# Velocity P-wave (km/s) = 7.81075 8.23124 8.02375
#
# Compressibility (1/GPa) = 0.01277944
#
# Stress axis : x y z
#
# Youngs Moduli (GPa) = 71.44421 42.31639 83.96875
#
# Poissons Ratio (x) = 0.31725 0.29892
# Poissons Ratio (y) = 0.53562 0.61483
# Poissons Ratio (z) = 0.25434 0.30984
#
# Static dielectric constant tensor:
#      x y z
#    x 3.295170 0.000000 0.145450 
#    y 0.000000 3.317430 0.000000 
#    z 0.145450 0.000000 3.577440 
# 
# 
# High freq. dielectric constant tensor:
#      x y z
#    x 1.694520 0.000000 0.009430 
#    y 0.000000 1.698390 0.000000 
#    z 0.009430 0.000000 1.723590 
# 
# From -- ./inp_files/320195.got.cif
#   From: 2010.06.25/outbox.cif.g09.slc.cpg/sg12_161_cif.got.tgz:320195.got - 2010.06.28 00:19:55.
