data_PCOD8089941
_publ_section_title
;
Structure prediction by ZEFSAII (Michael W. Deem and Ramdas Pophale) SiO2 
 PCOD8089941
Probable space group: C 2/M
;
_chemical_formula_sum "Si O2"
_cell_formula_units_Z 56
_cell_length_a 21.399485
_cell_length_b 27.835583
_cell_length_c 13.201338
_cell_angle_alpha 90.000000
_cell_angle_beta 156.983256
_cell_angle_gamma 90.000000
_cell_volume 3074.669805
_symmetry_space_group_name_H-M "C 2/M"
_symmetry_group_IT_number 12
_symmetry_cell_setting 'monoclinic'
loop_
_space_group_symop_operation_xyz
x,y,z
-x,y,-z
-x,-y,-z
x,-y,z
1/2+x,1/2+y,z
1/2-x,1/2+y,-z
1/2-x,1/2-y,-z
1/2+x,1/2-y,z
loop_
_atom_site_type_symbol
_atom_site_label
_atom_site_fract_x
_atom_site_fract_y
_atom_site_fract_z
Si Si1 0.370358 0.390545 0.050633
Si Si2 0.395047 0.688424 0.252501
Si Si3 0.051450 0.281069 0.781756
Si Si4 0.106173 0.880873 0.248720
Si Si5 0.072658 0.231845 0.213942
Si Si6 0.607505 0.053256 0.759306
Si Si7 0.130822 0.375836 0.506435
O O1 0.407305 0.343709 0.171093
O O2 0.541758 0.407314 0.255909
O O3 0.287861 0.430349 0.999559
O O4 0.250439 0.379485 0.779178
O O5 0.500000 0.666403 0.500000
O O6 0.459093 0.742008 0.323705
O O7 0.214325 0.689326 0.020586
O O8 0.044587 0.253874 0.877756
O O9 0.910713 0.319580 0.558445
O O10 0.068280 0.825273 0.211544
O O11 0.288393 0.889324 0.482683
O O12 0.000000 0.901792 0.000000
O O13 0.250000 0.250000 0.500000
O O14 0.000000 0.250815 0.000000
O O15 0.500000 0.051634 0.500000
O O16 0.524230 0.090024 0.713522
O O17 0.618079 0.000000 0.823659
#
# Coordination Sequence:
#
# PCOD8089941 Si02
#       7
#     8   8   8   8   8   8   8
#     4  10  19  35  53  75 105 139 171 215 264 313
#     4  11  25  32  48  74 108 142 180 218 253 305
#     4  11  23  34  50  75 106 143 181 216 255 301
#     4   9  18  30  48  75 104 138 170 206 255 312
#     4  11  22  33  50  72 106 146 184 215 253 305
#     4   9  18  33  55  79 100 128 170 219 266 318
#     4  10  19  33  55  77 103 135 177 211 264 315
#
# _framework density 18.213336999999999
#
# number of rings (size 3 to 8) (size 9 to 14) (size 15 to 20)
#    0.000    1.857    4.286    0.000    6.000    0.000 
#    0.000    0.714    0.000    4.714    0.000    0.000 
#    0.000    1.714    0.000    0.000    0.000    0.000 
#
# Total GULP energy -346941.495177 kJ/mol
# GULP energy per Si atom -12390.767685 kJ/mol
# Density = 1.817188 g / cm^3
# Si number density = 18.213337 Si / 1000 Ang^3
#
#
#
# Elastic Constant Matrix: (Units=GPa)
#
#
# Indices 1 2 3 4 5 6 
#
# 1 132.8421 33.9698 38.9842 0.0000 30.6532 0.0000
# 2 33.9698 70.9400 13.4134 0.0000 11.3490 0.0000
# 3 38.9842 13.4134 54.0215 0.0000 6.4187 0.0000
# 4 0.0000 0.0000 0.0000 12.7923 0.0000 2.8153
# 5 30.6532 11.3490 6.4187 0.0000 33.4420 0.0000
# 6 0.0000 0.0000 0.0000 2.8153 0.0000 16.3409
#
#
#
# Elastic Compliance Matrix: (Units=1/GPa)
#
#
# Indices 1 2 3 4 5 6 
#
# 1 0.012536 -0.003201 -0.007179 0.000000 -0.009026 0.000000
# 2 -0.003201 0.016274 -0.001456 0.000000 -0.002309 0.000000
# 3 -0.007179 -0.001456 0.023755 0.000000 0.002515 0.000000
# 4 0.000000 0.000000 0.000000 0.081253 0.000000 -0.013999
# 5 -0.009026 -0.002309 0.002515 0.000000 0.038477 0.000000
# 6 0.000000 0.000000 0.000000 -0.013999 0.000000 0.063608
#
#
# Mechanical properties :
#
#
# Convention : Reuss Voigt Hill
#
# Bulk Modulus (GPa) = 34.61257 47.83759 41.22508
# Shear Modulus (GPa) = 18.57310 23.94411 21.25861
#
# Velocity S-wave (km/s) = 3.19682 3.62974 3.42014
# Velocity P-wave (km/s) = 5.71589 6.62487 6.18710
#
# Compressibility (1/GPa) = 0.02889123
#
# Stress axis : x y z
#
# Youngs Moduli (GPa) = 79.77034 61.44709 42.09713
#
# Poissons Ratio (x) = 0.19672 0.30222
# Poissons Ratio (y) = 0.25538 0.06130
# Poissons Ratio (z) = 0.57268 0.08948
#
# Static dielectric constant tensor:
#      x y z
#    x 3.698030 0.000000 0.289260 
#    y 0.000000 3.300620 0.000000 
#    z 0.289260 0.000000 3.108530 
# 
# 
# High freq. dielectric constant tensor:
#      x y z
#    x 1.720080 0.000000 0.032340 
#    y 0.000000 1.673040 0.000000 
#    z 0.032340 0.000000 1.675930 
# 
# From -- ./inp_files/134890.got.cif
#   From: 2010.06.25/outbox.cif.g09.slc.cpg/sg12_68_cif.got.tgz:134890.got - 2010.06.28 00:19:55.
