data_PCOD8089664
_publ_section_title
;
Structure prediction by ZEFSAII (Michael W. Deem and Ramdas Pophale) SiO2 
 PCOD8089664
Probable space group: C 2/M
;
_chemical_formula_sum "Si O2"
_cell_formula_units_Z 64
_cell_length_a 15.927631
_cell_length_b 9.474784
_cell_length_c 22.100979
_cell_angle_alpha 90.000000
_cell_angle_beta 91.126762
_cell_angle_gamma 90.000000
_cell_volume 3334.632900
_symmetry_space_group_name_H-M "C 2/M"
_symmetry_group_IT_number 12
_symmetry_cell_setting 'monoclinic'
loop_
_space_group_symop_operation_xyz
x,y,z
-x,y,-z
-x,-y,-z
x,-y,z
1/2+x,1/2+y,z
1/2-x,1/2+y,-z
1/2-x,1/2-y,-z
1/2+x,1/2-y,z
loop_
_atom_site_type_symbol
_atom_site_label
_atom_site_fract_x
_atom_site_fract_y
_atom_site_fract_z
Si Si1 0.499333 0.832678 0.068564
Si Si2 0.844322 0.841803 0.625308
Si Si3 0.168286 0.333420 0.136836
Si Si4 0.589504 0.161982 0.740151
Si Si5 0.098741 0.838653 0.502348
Si Si6 0.600294 0.159881 0.263404
Si Si7 0.333306 0.168836 0.136598
Si Si8 0.149875 0.659089 0.616527
O O1 0.584143 0.777223 0.102328
O O2 0.412988 0.779371 0.098150
O O3 0.500405 0.000000 0.071996
O O4 0.500000 0.776776 0.000000
O O5 0.865714 0.775751 0.560029
O O6 0.888083 0.755868 0.678544
O O7 0.746412 0.841465 0.635523
O O8 0.881529 0.000000 0.628123
O O9 0.181531 0.500000 0.125320
O O10 0.159797 0.300022 0.208212
O O11 0.248879 0.247547 0.112958
O O12 0.494558 0.179432 0.761431
O O13 0.649047 0.220339 0.794208
O O14 0.603960 0.231606 0.674057
O O15 0.613838 0.000000 0.730643
O O16 0.136514 0.750980 0.557397
O O17 0.000000 0.823390 0.500000
O O18 0.128068 0.000000 0.511088
O O19 0.616856 0.000000 0.284359
O O20 0.321228 0.000000 0.131624
O O21 0.117386 0.500000 0.602758
#
# Coordination Sequence:
#
# PCOD8089664 Si02
#       8
#     8   8   8   8   8   8   8   8
#     4   9  18  35  59  84 113 153 194 226 267 331
#     4  10  21  35  50  74 104 133 169 218 270 319
#     4  10  20  35  55  83 116 145 183 236 281 321
#     4   9  17  32  53  76 102 135 178 224 266 319
#     4  10  21  36  51  69  99 135 168 209 267 326
#     4  10  19  33  54  77 102 137 178 220 268 322
#     4  10  19  35  59  83 111 151 192 227 274 334
#     4  10  20  33  51  73  97 128 171 219 262 312
#
# _framework density 19.192518
#
# number of rings (size 3 to 8) (size 9 to 14) (size 15 to 20)
#    0.000    2.250    1.250    1.875    0.000    3.250 
#    0.000    1.875    0.000    0.750    0.000    0.000 
#    0.000    0.000    0.000    0.000    0.000    0.000 
#
# Total GULP energy -396716.634366 kJ/mol
# GULP energy per Si atom -12397.394824 kJ/mol
# Density = 1.914883 g / cm^3
# Si number density = 19.192518 Si / 1000 Ang^3
#
#
#
# Elastic Constant Matrix: (Units=GPa)
#
#
# Indices 1 2 3 4 5 6 
#
# 1 112.5081 33.3700 51.4308 0.0000 -8.2959 0.0000
# 2 33.3700 46.3367 39.1755 0.0000 2.6959 0.0000
# 3 51.4308 39.1755 127.1006 0.0000 -2.5196 0.0000
# 4 0.0000 0.0000 0.0000 8.8902 0.0000 -29.9844
# 5 -8.2959 2.6959 -2.5196 0.0000 27.3472 0.0000
# 6 0.0000 0.0000 0.0000 -29.9844 0.0000 -116.7348
#
#
#
# Elastic Compliance Matrix: (Units=1/GPa)
#
#
# Indices 1 2 3 4 5 6 
#
# 1 0.012547 -0.006842 -0.002885 0.000000 0.004215 0.000000
# 2 -0.006842 0.033300 -0.007615 0.000000 -0.006060 0.000000
# 3 -0.002885 -0.007615 0.011401 0.000000 0.000926 0.000000
# 4 0.000000 0.000000 0.000000 0.060270 0.000000 -0.015481
# 5 0.004215 -0.006060 0.000926 0.000000 0.038528 0.000000
# 6 0.000000 0.000000 0.000000 -0.015481 0.000000 -0.004590
#
#
# Mechanical properties :
#
#
# Convention : Reuss Voigt Hill
#
# Bulk Modulus (GPa) = 44.32033 59.32201 51.82117
# Shear Modulus (GPa) = 25.81834 -5.30154 10.25840
#
# Velocity S-wave (km/s) = 3.67172 -1.66382 2.31443
# Velocity P-wave (km/s) = 6.41233 5.22350 5.84820
#
# Compressibility (1/GPa) = 0.02256301
#
# Stress axis : x y z
#
# Youngs Moduli (GPa) = 79.69938 30.03043 87.71511
#
# Poissons Ratio (x) = 0.20548 0.25302
# Poissons Ratio (y) = 0.54534 0.66796
# Poissons Ratio (z) = 0.22990 0.22868
#
# Static dielectric constant tensor:
#      x y z
#    x 2.371930 0.000000 -0.742410 
#    y 0.000000 3.209550 0.000000 
#    z -0.742410 0.000000 3.289410 
# 
# 
# High freq. dielectric constant tensor:
#      x y z
#    x 1.755670 0.000000 -0.008370 
#    y 0.000000 1.705350 0.000000 
#    z -0.008370 0.000000 1.755840 
# 
# From -- ./inp_files/314076.got.cif
#   From: 2010.06.25/outbox.cif.g09.slc.cpg/sg12_158_cif.got.tgz:314076.got - 2010.06.28 00:19:55.
