data_PCOD8089467
_publ_section_title
;
Structure prediction by ZEFSAII (Michael W. Deem and Ramdas Pophale) SiO2 
 PCOD8089467
Probable space group: C 2/M
;
_chemical_formula_sum "Si O2"
_cell_formula_units_Z 64
_cell_length_a 14.408694
_cell_length_b 8.994308
_cell_length_c 27.111888
_cell_angle_alpha 90.000000
_cell_angle_beta 107.220929
_cell_angle_gamma 90.000000
_cell_volume 3356.084889
_symmetry_space_group_name_H-M "C 2/M"
_symmetry_group_IT_number 12
_symmetry_cell_setting 'monoclinic'
loop_
_space_group_symop_operation_xyz
x,y,z
-x,y,-z
-x,-y,-z
x,-y,z
1/2+x,1/2+y,z
1/2-x,1/2+y,-z
1/2-x,1/2-y,-z
1/2+x,1/2-y,z
loop_
_atom_site_type_symbol
_atom_site_label
_atom_site_fract_x
_atom_site_fract_y
_atom_site_fract_z
Si Si1 0.366038 0.677005 0.708229
Si Si2 0.912352 0.168311 0.095205
Si Si3 0.780341 0.328724 0.554253
Si Si4 0.612329 0.167891 0.006389
Si Si5 0.475838 0.177317 0.638426
Si Si6 0.395559 0.324909 0.824734
Si Si7 0.822968 0.176421 0.362103
Si Si8 0.278118 0.168659 0.882217
O O1 0.361021 0.500000 0.698542
O O2 0.447522 0.750507 0.686260
O O3 0.398591 0.720276 0.768275
O O4 0.259960 0.748415 0.684141
O O5 0.865592 0.248495 0.040842
O O6 0.837068 0.176206 0.128496
O O7 0.010982 0.241908 0.131585
O O8 0.932279 0.000000 0.082042
O O9 0.778107 0.500000 0.541621
O O10 0.750000 0.250000 0.500000
O O11 0.889183 0.281742 0.587037
O O12 0.703324 0.290316 0.585111
O O13 0.649346 0.000000 0.005158
O O14 0.500000 0.177786 0.000000
O O15 0.668853 0.240404 0.061497
O O16 0.574185 0.249338 0.633690
O O17 0.487431 0.000000 0.646388
O O18 0.392999 0.500000 0.829187
O O19 0.300679 0.258840 0.836152
O O20 0.825937 0.000000 0.352022
O O21 0.314923 0.000000 0.881083
#
# Coordination Sequence:
#
# PCOD8089467 Si02
#       8
#     8   8   8   8   8   8   8   8
#     4  10  21  38  58  81 111 146 186 237 288 337
#     4  10  21  36  54  77 104 136 174 215 264 322
#     4   9  20  36  55  83 120 156 193 234 278 328
#     4  10  19  33  53  77 105 136 174 216 261 318
#     4  10  21  38  59  86 116 151 194 236 282 336
#     4  10  22  38  55  79 108 136 174 222 272 326
#     4  10  21  38  59  85 114 150 194 237 282 335
#     4  10  21  36  54  77 106 140 175 215 266 322
#
# _framework density 19.069839000000002
#
# number of rings (size 3 to 8) (size 9 to 14) (size 15 to 20)
#    0.000    2.125    1.250    2.250    0.000    6.750 
#    0.000    3.750    0.000    0.000    0.000    0.000 
#    0.000    0.000    0.000    0.000    0.000    0.000 
#
# Total GULP energy -396785.344967 kJ/mol
# GULP energy per Si atom -12399.542030 kJ/mol
# Density = 1.902644 g / cm^3
# Si number density = 19.069839 Si / 1000 Ang^3
#
#
#
# Elastic Constant Matrix: (Units=GPa)
#
#
# Indices 1 2 3 4 5 6 
#
# 1 112.1103 41.1399 40.9633 0.0000 -13.3540 0.0000
# 2 41.1399 69.2263 54.3174 0.0000 -7.6146 0.0000
# 3 40.9633 54.3174 119.7254 0.0000 -12.2569 0.0000
# 4 0.0000 0.0000 0.0000 33.9713 0.0000 -4.6538
# 5 -13.3540 -7.6146 -12.2569 0.0000 19.7656 0.0000
# 6 0.0000 0.0000 0.0000 -4.6538 0.0000 33.0544
#
#
#
# Elastic Compliance Matrix: (Units=1/GPa)
#
#
# Indices 1 2 3 4 5 6 
#
# 1 0.012033 -0.005843 -0.000923 0.000000 0.005307 0.000000
# 2 -0.005843 0.025383 -0.009524 0.000000 -0.000075 0.000000
# 3 -0.000923 -0.009524 0.013400 0.000000 0.004017 0.000000
# 4 0.000000 0.000000 0.000000 0.030016 0.000000 0.004226
# 5 0.005307 -0.000075 0.004017 0.000000 0.056640 0.000000
# 6 0.000000 0.000000 0.000000 0.004226 0.000000 0.030848
#
#
# Mechanical properties :
#
#
# Convention : Reuss Voigt Hill
#
# Bulk Modulus (GPa) = 54.83754 63.76703 59.30228
# Shear Modulus (GPa) = 24.15695 28.33434 26.24565
#
# Velocity S-wave (km/s) = 3.56302 3.85881 3.71386
# Velocity P-wave (km/s) = 6.76354 7.30515 7.03955
#
# Compressibility (1/GPa) = 0.01823568
#
# Stress axis : x y z
#
# Youngs Moduli (GPa) = 83.10234 39.39691 74.62473
#
# Poissons Ratio (x) = 0.23021 0.06886
# Poissons Ratio (y) = 0.48560 0.71074
# Poissons Ratio (z) = 0.07669 0.37522
#
# Static dielectric constant tensor:
#      x y z
#    x 3.558440 0.000000 0.037030 
#    y 0.000000 3.503420 0.000000 
#    z 0.037030 0.000000 3.554580 
# 
# 
# High freq. dielectric constant tensor:
#      x y z
#    x 1.749050 0.000000 -0.002910 
#    y 0.000000 1.739390 0.000000 
#    z -0.002910 0.000000 1.738380 
# 
# From -- ./inp_files/359871.got.cif
#   From: 2010.06.25/outbox.cif.g09.slc.cpg/sg12_180_cif.got.tgz:359871.got - 2010.06.28 00:19:55.
