data_PCOD8089875
_publ_section_title
;
Structure prediction by ZEFSAII (Michael W. Deem and Ramdas Pophale) SiO2 
 PCOD8089875
Probable space group: C 2/M
;
_chemical_formula_sum "Si O2"
_cell_formula_units_Z 56
_cell_length_a 29.661426
_cell_length_b 8.834798
_cell_length_c 12.433285
_cell_angle_alpha 90.000000
_cell_angle_beta 105.426077
_cell_angle_gamma 90.000000
_cell_volume 3140.798384
_symmetry_space_group_name_H-M "C 2/M"
_symmetry_group_IT_number 12
_symmetry_cell_setting 'monoclinic'
loop_
_space_group_symop_operation_xyz
x,y,z
-x,y,-z
-x,-y,-z
x,-y,z
1/2+x,1/2+y,z
1/2-x,1/2+y,-z
1/2-x,1/2-y,-z
1/2+x,1/2-y,z
loop_
_atom_site_type_symbol
_atom_site_label
_atom_site_fract_x
_atom_site_fract_y
_atom_site_fract_z
Si Si1 0.452225 0.174705 0.244012
Si Si2 0.049085 0.821485 0.984643
Si Si3 0.887016 0.321895 0.802870
Si Si4 0.702452 0.323309 0.338998
Si Si5 0.602408 0.324442 0.605242
Si Si6 0.442403 0.824992 0.626350
Si Si7 0.796745 0.825402 0.414199
O O1 0.445787 0.275704 0.135256
O O2 0.413465 0.223707 0.305047
O O3 0.502611 0.202319 0.328285
O O4 0.445246 0.000000 0.208430
O O5 0.051858 0.000000 0.997553
O O6 0.091657 0.750375 0.077058
O O7 0.000000 0.758940 0.000000
O O8 0.887723 0.500000 0.817055
O O9 0.834057 0.265261 0.758279
O O10 0.917395 0.270358 0.719437
O O11 0.695932 0.500000 0.314812
O O12 0.754744 0.273969 0.338738
O O13 0.692896 0.276811 0.456487
O O14 0.592096 0.500000 0.621434
O O15 0.575137 0.278950 0.480743
O O16 0.657475 0.293768 0.626830
O O17 0.430826 0.000000 0.593796
O O18 0.781479 0.000000 0.401368
#
# Coordination Sequence:
#
# PCOD8089875 Si02
#       7
#     8   8   8   8   8   8   8
#     4  11  23  39  56  78 111 150 192 228 271 330
#     4  11  23  38  58  82 109 143 187 235 277 319
#     4  11  21  35  57  82 113 148 183 225 277 329
#     4  10  19  33  54  82 111 142 183 228 276 326
#     4  11  22  36  55  81 114 149 186 228 276 328
#     4  10  21  35  53  79 112 150 186 223 270 329
#     4   9  19  34  52  78 112 146 180 223 276 331
#
# _framework density 17.829861000000001
#
# number of rings (size 3 to 8) (size 9 to 14) (size 15 to 20)
#    0.000    1.571    2.857    2.571    0.000    5.714 
#    0.000    0.000    0.000    0.857    0.000    0.000 
#    0.000    0.000    0.000    0.000    0.000    0.000 
#
# Total GULP energy -347374.577048 kJ/mol
# GULP energy per Si atom -12406.234895 kJ/mol
# Density = 1.778928 g / cm^3
# Si number density = 17.829861 Si / 1000 Ang^3
#
#
#
# Elastic Constant Matrix: (Units=GPa)
#
#
# Indices 1 2 3 4 5 6 
#
# 1 88.3264 32.7640 34.2992 0.0000 7.6237 0.0000
# 2 32.7640 63.9547 32.9302 0.0000 8.3359 0.0000
# 3 34.2992 32.9302 66.0748 0.0000 8.4275 0.0000
# 4 0.0000 0.0000 0.0000 34.3332 0.0000 1.9209
# 5 7.6237 8.3359 8.4275 0.0000 24.9181 0.0000
# 6 0.0000 0.0000 0.0000 1.9209 0.0000 31.0929
#
#
#
# Elastic Compliance Matrix: (Units=1/GPa)
#
#
# Indices 1 2 3 4 5 6 
#
# 1 0.015336 -0.004948 -0.005338 0.000000 -0.001232 0.000000
# 2 -0.004948 0.022952 -0.008449 0.000000 -0.003307 0.000000
# 3 -0.005338 -0.008449 0.022519 0.000000 -0.003156 0.000000
# 4 0.000000 0.000000 0.000000 0.029227 0.000000 -0.001806
# 5 -0.001232 -0.003307 -0.003156 0.000000 0.042682 0.000000
# 6 0.000000 0.000000 0.000000 -0.001806 0.000000 0.032273
#
#
# Mechanical properties :
#
#
# Convention : Reuss Voigt Hill
#
# Bulk Modulus (GPa) = 42.84865 46.48251 44.66558
# Shear Modulus (GPa) = 23.78264 25.95967 24.87116
#
# Velocity S-wave (km/s) = 3.65618 3.81985 3.73891
# Velocity P-wave (km/s) = 6.47361 6.75142 6.61397
#
# Compressibility (1/GPa) = 0.02333796
#
# Stress axis : x y z
#
# Youngs Moduli (GPa) = 65.20554 43.56926 44.40781
#
# Poissons Ratio (x) = 0.21556 0.23705
# Poissons Ratio (y) = 0.32261 0.37519
# Poissons Ratio (z) = 0.34807 0.36810
#
# Static dielectric constant tensor:
#      x y z
#    x 3.360740 0.000000 0.041980 
#    y 0.000000 3.330130 0.000000 
#    z 0.041980 0.000000 3.140660 
# 
# 
# High freq. dielectric constant tensor:
#      x y z
#    x 1.687660 0.000000 0.010170 
#    y 0.000000 1.701110 0.000000 
#    z 0.010170 0.000000 1.674470 
# 
# From -- ./inp_files/181046.got.cif
#   From: 2010.06.25/outbox.cif.g09.slc.cpg/sg12_91_cif.got.tgz:181046.got - 2010.06.28 00:19:55.
