data_PCOD8089339
_publ_section_title
;
Structure prediction by ZEFSAII (Michael W. Deem and Ramdas Pophale) SiO2 
 PCOD8089339
Probable space group: C 2/M
;
_chemical_formula_sum "Si O2"
_cell_formula_units_Z 48
_cell_length_a 14.587084
_cell_length_b 9.405800
_cell_length_c 18.947081
_cell_angle_alpha 90.000000
_cell_angle_beta 91.674857
_cell_angle_gamma 90.000000
_cell_volume 2598.489448
_symmetry_space_group_name_H-M "C 2/M"
_symmetry_group_IT_number 12
_symmetry_cell_setting 'monoclinic'
loop_
_space_group_symop_operation_xyz
x,y,z
-x,y,-z
-x,-y,-z
x,-y,z
1/2+x,1/2+y,z
1/2-x,1/2+y,-z
1/2-x,1/2-y,-z
1/2+x,1/2-y,z
loop_
_atom_site_type_symbol
_atom_site_label
_atom_site_fract_x
_atom_site_fract_y
_atom_site_fract_z
Si Si1 0.003787 0.832010 0.606933
Si Si2 0.135558 0.838736 0.870751
Si Si3 0.846342 0.168896 0.498948
Si Si4 0.977654 0.830833 0.763791
Si Si5 0.335892 0.161805 0.841335
Si Si6 0.391997 0.161391 0.995638
O O1 0.096610 0.781773 0.569371
O O2 0.004466 0.774150 0.686836
O O3 0.909911 0.782972 0.566382
O O4 0.004359 0.000000 0.605216
O O5 0.054209 0.776750 0.820728
O O6 0.227265 0.830785 0.825931
O O7 0.151276 0.751948 0.942506
O O8 0.113560 0.000000 0.892360
O O9 0.750000 0.250000 0.500000
O O10 0.827525 0.000000 0.498669
O O11 0.881886 0.760356 0.783528
O O12 0.967443 0.000000 0.764190
O O13 0.372483 0.000000 0.835017
O O14 0.357920 0.221265 0.919984
O O15 0.358356 0.000000 0.004869
O O16 0.500000 0.175293 0.000000
#
# Coordination Sequence:
#
# PCOD8089339 Si02
#       6
#     8   8   8   8   8   8
#     4   8  17  34  53  74 105 140 167 196 247 306
#     4  10  21  34  51  74  99 129 170 216 255 297
#     4   9  17  33  57  80 103 134 169 205 243 291
#     4  10  20  35  53  74 101 135 172 206 245 302
#     4  10  21  36  51  73 103 133 167 212 263 302
#     4  10  19  33  53  72  97 133 169 210 260 308
#
# _framework density 18.472270000000002
#
# number of rings (size 3 to 8) (size 9 to 14) (size 15 to 20)
#    0.000    2.500    1.667    1.500    0.000    3.000 
#    0.000    5.000    0.000    0.000    0.000    0.000 
#    0.000    0.000    0.000    0.000    0.000    0.000 
#
# Total GULP energy -297561.647461 kJ/mol
# GULP energy per Si atom -12398.401978 kJ/mol
# Density = 1.843023 g / cm^3
# Si number density = 18.472270 Si / 1000 Ang^3
#
#
#
# Elastic Constant Matrix: (Units=GPa)
#
#
# Indices 1 2 3 4 5 6 
#
# 1 101.3383 31.4185 36.8843 0.0000 -14.7387 0.0000
# 2 31.4185 41.8581 36.3035 0.0000 -9.8467 0.0000
# 3 36.8843 36.3035 116.7689 0.0000 -20.8326 0.0000
# 4 0.0000 0.0000 0.0000 19.9258 0.0000 -6.1498
# 5 -14.7387 -9.8467 -20.8326 0.0000 21.6395 0.0000
# 6 0.0000 0.0000 0.0000 -6.1498 0.0000 31.7861
#
#
#
# Elastic Compliance Matrix: (Units=1/GPa)
#
#
# Indices 1 2 3 4 5 6 
#
# 1 0.013397 -0.008242 -0.000858 0.000000 0.004549 0.000000
# 2 -0.008242 0.038473 -0.008737 0.000000 0.003482 0.000000
# 3 -0.000858 -0.008737 0.012964 0.000000 0.007921 0.000000
# 4 0.000000 0.000000 0.000000 0.053373 0.000000 0.010326
# 5 0.004549 0.003482 0.007921 0.000000 0.058520 0.000000
# 6 0.000000 0.000000 0.000000 0.010326 0.000000 0.033458
#
#
# Mechanical properties :
#
#
# Convention : Reuss Voigt Hill
#
# Bulk Modulus (GPa) = 34.29159 52.13089 43.21124
# Shear Modulus (GPa) = 19.56347 25.02756 22.29551
#
# Velocity S-wave (km/s) = 3.25787 3.68485 3.47792
# Velocity P-wave (km/s) = 5.72326 6.81077 6.29056
#
# Compressibility (1/GPa) = 0.02916167
#
# Stress axis : x y z
#
# Youngs Moduli (GPa) = 74.64397 25.99239 77.13454
#
# Poissons Ratio (x) = 0.21422 0.06618
# Poissons Ratio (y) = 0.61519 0.67390
# Poissons Ratio (z) = 0.06404 0.22709
#
# Static dielectric constant tensor:
#      x y z
#    x 3.399720 0.000000 0.011400 
#    y 0.000000 3.141300 0.000000 
#    z 0.011400 0.000000 3.661930 
# 
# 
# High freq. dielectric constant tensor:
#      x y z
#    x 1.724160 0.000000 -0.000370 
#    y 0.000000 1.688910 0.000000 
#    z -0.000370 0.000000 1.713450 
# 
# From -- ./inp_files/267649.got.cif
#   From: 2010.06.25/outbox.cif.g09.slc.cpg/sg12_134_cif.got.tgz:267649.got - 2010.06.28 00:19:55.
