data_PCOD8089369
_publ_section_title
;
Structure prediction by ZEFSAII (Michael W. Deem and Ramdas Pophale) SiO2 
 PCOD8089369
Probable space group: C 2/M
;
_chemical_formula_sum "Si O2"
_cell_formula_units_Z 56
_cell_length_a 9.174903
_cell_length_b 18.436450
_cell_length_c 18.281578
_cell_angle_alpha 90.000000
_cell_angle_beta 89.999988
_cell_angle_gamma 90.000000
_cell_volume 3092.377190
_symmetry_space_group_name_H-M "C 2/M"
_symmetry_group_IT_number 12
_symmetry_cell_setting 'monoclinic'
loop_
_space_group_symop_operation_xyz
x,y,z
-x,y,-z
-x,-y,-z
x,-y,z
1/2+x,1/2+y,z
1/2-x,1/2+y,-z
1/2-x,1/2-y,-z
1/2+x,1/2-y,z
loop_
_atom_site_type_symbol
_atom_site_label
_atom_site_fract_x
_atom_site_fract_y
_atom_site_fract_z
Si Si1 0.334625 0.586174 0.219714
Si Si2 0.828568 0.672652 0.341275
Si Si3 0.163695 0.413791 0.919366
Si Si4 0.334511 0.823039 0.500000
Si Si5 0.665375 0.413826 0.219714
Si Si6 0.163696 0.586209 0.080634
Si Si7 0.671431 0.827348 0.341275
O O1 0.325467 0.500000 0.222551
O O2 0.500000 0.613694 0.227426
O O3 0.272218 0.616469 0.142643
O O4 0.237545 0.616013 0.285088
O O5 0.800661 0.636946 0.422694
O O6 0.762455 0.616012 0.285088
O O7 0.750000 0.750000 0.333216
O O8 1.000000 0.682763 0.325764
O O9 0.164962 0.500000 0.918085
O O10 0.272218 0.383531 0.857357
O O11 1.000000 0.385814 0.903153
O O12 0.214694 0.386676 1.000000
O O13 0.500000 0.798488 0.500000
O O14 0.250000 0.750000 0.500000
O O15 0.300661 0.863054 0.577306
O O16 0.674533 0.500000 0.222551
O O17 0.164961 0.500000 0.081915
#
# Coordination Sequence:
#
# PCOD8089369 Si02
#       7
#     8   8   8   8   8   8   8
#     4  10  20  32  47  71 102 132 163 199 239 283
#     4  10  19  33  53  74  97 125 160 200 242 289
#     4   8  14  26  45  68  93 123 160 199 238 281
#     4   8  16  30  49  72  93 119 157 199 239 282
#     4  10  20  32  47  71 102 132 163 199 239 283
#     4   8  14  26  45  68  93 123 160 199 238 281
#     4  10  19  33  53  74  97 125 160 200 242 289
#
# _framework density 18.109045999999999
#
# number of rings (size 3 to 8) (size 9 to 14) (size 15 to 20)
#    0.000    2.857    0.000    2.571    0.000    3.429 
#    0.000    3.571    0.000    5.143    0.000    0.000 
#    0.000    0.000    0.000    0.000    0.000    0.000 
#
# Total GULP energy -346877.409392 kJ/mol
# GULP energy per Si atom -12388.478907 kJ/mol
# Density = 1.806783 g / cm^3
# Si number density = 18.109046 Si / 1000 Ang^3
#
#
#
# Elastic Constant Matrix: (Units=GPa)
#
#
# Indices 1 2 3 4 5 6 
#
# 1 121.5775 22.2897 85.6650 0.0000 0.0002 0.0000
# 2 22.2897 16.9637 26.4191 0.0000 0.0001 0.0000
# 3 85.6650 26.4191 177.4037 0.0000 0.0002 0.0000
# 4 0.0000 0.0000 0.0000 -12.5292 0.0000 -0.0002
# 5 0.0002 0.0001 0.0002 0.0000 28.6839 0.0000
# 6 0.0000 0.0000 0.0000 -0.0002 0.0000 23.5997
#
#
#
# Elastic Compliance Matrix: (Units=1/GPa)
#
#
# Indices 1 2 3 4 5 6 
#
# 1 0.013654 -0.009990 -0.005106 0.000000 0.000000 0.000000
# 2 -0.009990 0.084058 -0.007694 0.000000 0.000000 0.000000
# 3 -0.005106 -0.007694 0.009248 0.000000 0.000000 0.000000
# 4 0.000000 0.000000 0.000000 -0.079814 0.000000 -0.000001
# 5 0.000000 0.000000 0.000000 0.000000 0.034863 0.000000
# 6 0.000000 0.000000 0.000000 -0.000001 0.000000 0.042373
#
#
# Mechanical properties :
#
#
# Convention : Reuss Voigt Hill
#
# Bulk Modulus (GPa) = 16.29152 64.96584 40.62868
# Shear Modulus (GPa) = 29.33876 20.05560 24.69718
#
# Velocity S-wave (km/s) = 4.02943 3.33151 3.69698
# Velocity P-wave (km/s) = 5.53754 7.12399 6.38027
#
# Compressibility (1/GPa) = 0.06138163
#
# Stress axis : x y z
#
# Youngs Moduli (GPa) = 73.23739 11.89650 108.12953
#
# Poissons Ratio (x) = 0.11884 0.55208
# Poissons Ratio (y) = 0.73161 0.83198
# Poissons Ratio (z) = 0.37393 0.09154
#
# Static dielectric constant tensor:
#      x y z
#    x 3.559910 0.000000 0.000000 
#    y 0.000000 2.706950 0.000000 
#    z 0.000000 0.000000 4.185720 
# 
# 
# High freq. dielectric constant tensor:
#      x y z
#    x 1.713200 0.000000 0.000000 
#    y 0.000000 1.635920 0.000000 
#    z 0.000000 0.000000 1.728360 
# 
# From -- ./inp_files/257645.got.cif
#   From: 2010.06.25/outbox.cif.g09.slc.cpg/sg12_129_cif.got.tgz:257645.got - 2010.06.28 00:19:55.
