data_PCOD8089278
_publ_section_title
;
Structure prediction by ZEFSAII (Michael W. Deem and Ramdas Pophale) SiO2 
 PCOD8089278
Probable space group: C 2/M
;
_chemical_formula_sum "Si O2"
_cell_formula_units_Z 56
_cell_length_a 19.031784
_cell_length_b 8.885579
_cell_length_c 21.862064
_cell_angle_alpha 90.000000
_cell_angle_beta 124.969396
_cell_angle_gamma 90.000000
_cell_volume 3029.585762
_symmetry_space_group_name_H-M "C 2/M"
_symmetry_group_IT_number 12
_symmetry_cell_setting 'monoclinic'
loop_
_space_group_symop_operation_xyz
x,y,z
-x,y,-z
-x,-y,-z
x,-y,z
1/2+x,1/2+y,z
1/2-x,1/2+y,-z
1/2-x,1/2-y,-z
1/2+x,1/2-y,z
loop_
_atom_site_type_symbol
_atom_site_label
_atom_site_fract_x
_atom_site_fract_y
_atom_site_fract_z
Si Si1 0.988261 0.322481 0.399763
Si Si2 0.945569 0.325575 0.914634
Si Si3 0.468612 0.322355 0.798711
Si Si4 0.747497 0.828148 0.195969
Si Si5 0.136999 0.677712 0.557341
Si Si6 0.586661 0.177591 0.763604
Si Si7 0.205795 0.675347 0.313725
O O1 0.978861 0.500000 0.396039
O O2 0.084596 0.278564 0.469415
O O3 0.918358 0.260711 0.412924
O O4 0.967905 0.261301 0.321995
O O5 0.961621 0.500000 0.906068
O O6 0.975311 0.227362 0.872243
O O7 0.845650 0.299175 0.880071
O O8 0.000000 0.273219 0.000000
O O9 0.465241 0.500000 0.793480
O O10 0.552667 0.261553 0.806430
O O11 0.385194 0.255800 0.723431
O O12 0.813714 0.717737 0.195889
O O13 0.743387 0.789011 0.265628
O O14 0.776884 0.000000 0.200843
O O15 0.153039 0.500000 0.569452
O O16 0.228185 0.761945 0.602743
O O17 0.577334 0.000000 0.767706
O O18 0.190204 0.500000 0.316546
#
# Coordination Sequence:
#
# PCOD8089278 Si02
#       7
#     8   8   8   8   8   8   8
#     4   8  16  28  48  75 105 139 177 224 272 320
#     4   9  19  39  64  87 112 140 171 212 261 313
#     4  11  23  37  55  79 109 143 178 220 266 315
#     4   9  18  32  53  81 109 137 173 215 259 311
#     4   9  15  29  50  75 103 136 181 227 274 318
#     4  11  20  34  54  78 108 144 182 219 267 320
#     4  10  19  33  52  77 106 139 182 228 269 318
#
# _framework density 18.484375
#
# number of rings (size 3 to 8) (size 9 to 14) (size 15 to 20)
#    0.000    2.429    1.429    3.857    0.000    2.571 
#    0.000    4.286    0.000    0.000    0.000    0.000 
#    0.000    0.000    0.000    0.000    0.000    0.000 
#
# Total GULP energy -347190.243154 kJ/mol
# GULP energy per Si atom -12399.651541 kJ/mol
# Density = 1.844230 g / cm^3
# Si number density = 18.484375 Si / 1000 Ang^3
#
#
#
# Elastic Constant Matrix: (Units=GPa)
#
#
# Indices 1 2 3 4 5 6 
#
# 1 86.9593 43.3981 35.1762 0.0000 2.8168 0.0000
# 2 43.3981 87.6082 31.5902 0.0000 1.3430 0.0000
# 3 35.1762 31.5902 102.7430 0.0000 17.9498 0.0000
# 4 0.0000 0.0000 0.0000 25.4479 0.0000 4.1833
# 5 2.8168 1.3430 17.9498 0.0000 21.6750 0.0000
# 6 0.0000 0.0000 0.0000 4.1833 0.0000 28.7875
#
#
#
# Elastic Compliance Matrix: (Units=1/GPa)
#
#
# Indices 1 2 3 4 5 6 
#
# 1 0.016353 -0.006765 -0.003766 0.000000 0.001412 0.000000
# 2 -0.006765 0.015793 -0.002949 0.000000 0.002343 0.000000
# 3 -0.003766 -0.002949 0.013810 0.000000 -0.010764 0.000000
# 4 0.000000 0.000000 0.000000 0.040258 0.000000 -0.005850
# 5 0.001412 0.002343 -0.010764 0.000000 0.054721 0.000000
# 6 0.000000 0.000000 0.000000 -0.005850 0.000000 0.035587
#
#
# Mechanical properties :
#
#
# Convention : Reuss Voigt Hill
#
# Bulk Modulus (GPa) = 52.64042 55.29327 53.96685
# Shear Modulus (GPa) = 23.83073 26.32514 25.07794
#
# Velocity S-wave (km/s) = 3.59449 3.77793 3.68735
# Velocity P-wave (km/s) = 6.76515 7.00063 6.88390
#
# Compressibility (1/GPa) = 0.01899681
#
# Stress axis : x y z
#
# Youngs Moduli (GPa) = 61.15055 63.31966 72.41347
#
# Poissons Ratio (x) = 0.42833 0.27269
# Poissons Ratio (y) = 0.41366 0.21356
# Poissons Ratio (z) = 0.23027 0.18674
#
# Static dielectric constant tensor:
#      x y z
#    x 3.238020 0.000000 0.113890 
#    y 0.000000 3.192430 0.000000 
#    z 0.113890 0.000000 3.497120 
# 
# 
# High freq. dielectric constant tensor:
#      x y z
#    x 1.702740 0.000000 0.014710 
#    y 0.000000 1.705010 0.000000 
#    z 0.014710 0.000000 1.709110 
# 
# From -- ./inp_files/314372.got.cif
#   From: 2010.06.25/outbox.cif.g09.slc.cpg/sg12_158_cif.got.tgz:314372.got - 2010.06.28 00:19:55.
