data_PCOD8089425
_publ_section_title
;
Structure prediction by ZEFSAII (Michael W. Deem and Ramdas Pophale) SiO2 
 PCOD8089425
Probable space group: C 2/M
;
_chemical_formula_sum "Si O2"
_cell_formula_units_Z 48
_cell_length_a 15.489876
_cell_length_b 9.408192
_cell_length_c 18.305217
_cell_angle_alpha 90.000000
_cell_angle_beta 120.876168
_cell_angle_gamma 90.000000
_cell_volume 2289.587242
_symmetry_space_group_name_H-M "C 2/M"
_symmetry_group_IT_number 12
_symmetry_cell_setting 'monoclinic'
loop_
_space_group_symop_operation_xyz
x,y,z
-x,y,-z
-x,-y,-z
x,-y,z
1/2+x,1/2+y,z
1/2-x,1/2+y,-z
1/2-x,1/2-y,-z
1/2+x,1/2-y,z
loop_
_atom_site_type_symbol
_atom_site_label
_atom_site_fract_x
_atom_site_fract_y
_atom_site_fract_z
Si Si1 0.599605 0.166255 0.402766
Si Si2 0.196722 0.345290 0.159247
Si Si3 0.343747 0.155509 0.024375
Si Si4 0.598559 0.336550 0.690420
Si Si5 0.809510 0.163721 0.427069
Si Si6 0.478557 0.657500 0.904635
O O1 0.496169 0.238364 0.330925
O O2 0.689423 0.192752 0.383188
O O3 0.628422 0.235635 0.492343
O O4 0.580188 0.000000 0.406396
O O5 0.184534 0.500000 0.194486
O O6 0.151484 0.365262 0.059733
O O7 0.314983 0.305072 0.211417
O O8 0.130197 0.220192 0.165693
O O9 0.336739 0.000000 0.059212
O O10 0.250000 0.250000 0.000000
O O11 0.440886 0.237349 0.097176
O O12 0.562579 0.500000 0.676259
O O13 0.652531 0.298924 0.637181
O O14 0.833135 0.000000 0.457562
O O15 0.486955 0.500000 0.873928
O O16 0.500000 0.647791 0.000000
#
# Coordination Sequence:
#
# PCOD8089425 Si02
#       6
#     8   8   8   8   8   8
#     4  10  20  34  54  81 110 138 178 226 263 307
#     4   9  19  35  53  74 103 136 173 214 262 318
#     4  10  19  33  53  76 102 134 174 217 261 312
#     4  10  20  36  56  77 108 146 179 214 268 326
#     4   9  19  36  56  77 105 143 182 216 262 322
#     4   9  17  31  52  74  98 129 168 210 254 306
#
# _framework density 20.964478
#
# number of rings (size 3 to 8) (size 9 to 14) (size 15 to 20)
#    0.000    2.500    0.000    2.000    0.000    6.667 
#    3.000    0.000    0.000    0.000    0.000    0.000 
#    0.000    0.000    0.000    0.000    0.000    0.000 
#
# Total GULP energy -297451.307874 kJ/mol
# GULP energy per Si atom -12393.804495 kJ/mol
# Density = 2.091676 g / cm^3
# Si number density = 20.964478 Si / 1000 Ang^3
#
#
#
# Elastic Constant Matrix: (Units=GPa)
#
#
# Indices 1 2 3 4 5 6 
#
# 1 77.6112 55.2328 16.1558 0.0000 36.1479 0.0000
# 2 55.2328 169.2868 34.5602 0.0000 41.0576 0.0000
# 3 16.1558 34.5602 55.6460 0.0000 37.7302 0.0000
# 4 0.0000 0.0000 0.0000 26.7298 0.0000 14.7628
# 5 36.1479 41.0576 37.7302 0.0000 40.7958 0.0000
# 6 0.0000 0.0000 0.0000 14.7628 0.0000 36.7985
#
#
#
# Elastic Compliance Matrix: (Units=1/GPa)
#
#
# Indices 1 2 3 4 5 6 
#
# 1 0.034262 -0.004306 0.027816 0.000000 -0.051750 0.000000
# 2 -0.004306 0.008390 -0.002205 0.000000 -0.002589 0.000000
# 3 0.027816 -0.002205 0.070985 0.000000 -0.088078 0.000000
# 4 0.000000 0.000000 0.000000 0.048060 0.000000 -0.019281
# 5 -0.051750 -0.002589 -0.088078 0.000000 0.154432 0.000000
# 6 0.000000 0.000000 0.000000 -0.019281 0.000000 0.034910
#
#
# Mechanical properties :
#
#
# Convention : Reuss Voigt Hill
#
# Bulk Modulus (GPa) = 6.40016 57.16018 31.78017
# Shear Modulus (GPa) = 13.86915 33.97117 23.92016
#
# Velocity S-wave (km/s) = 2.57486 4.02981 3.38151
# Velocity P-wave (km/s) = 3.44955 6.99835 5.51708
#
# Compressibility (1/GPa) = 0.15624620
#
# Stress axis : x y z
#
# Youngs Moduli (GPa) = 29.18686 119.18674 14.08747
#
# Poissons Ratio (x) = 0.51323 -0.39185
# Poissons Ratio (y) = 0.12568 0.03107
# Poissons Ratio (z) = -0.81186 0.26284
#
# Static dielectric constant tensor:
#      x y z
#    x 3.616510 0.000000 0.463030 
#    y 0.000000 4.112180 0.000000 
#    z 0.463030 0.000000 3.390320 
# 
# 
# High freq. dielectric constant tensor:
#      x y z
#    x 1.810390 0.000000 0.027580 
#    y 0.000000 1.830910 0.000000 
#    z 0.027580 0.000000 1.796830 
# 
# From -- ./inp_files/342059.got.cif
#   From: 2010.06.25/outbox.cif.g09.slc.cpg/sg12_172_cif.got.tgz:342059.got - 2010.06.28 00:19:55.
