data_PCOD8089679
_publ_section_title
;
Structure prediction by ZEFSAII (Michael W. Deem and Ramdas Pophale) SiO2 
 PCOD8089679
Probable space group: C 2/M
;
_chemical_formula_sum "Si O2"
_cell_formula_units_Z 56
_cell_length_a 19.238184
_cell_length_b 8.693629
_cell_length_c 19.118843
_cell_angle_alpha 90.000000
_cell_angle_beta 63.581236
_cell_angle_gamma 90.000000
_cell_volume 2863.679616
_symmetry_space_group_name_H-M "C 2/M"
_symmetry_group_IT_number 12
_symmetry_cell_setting 'monoclinic'
loop_
_space_group_symop_operation_xyz
x,y,z
-x,y,-z
-x,-y,-z
x,-y,z
1/2+x,1/2+y,z
1/2-x,1/2+y,-z
1/2-x,1/2-y,-z
1/2+x,1/2-y,z
loop_
_atom_site_type_symbol
_atom_site_label
_atom_site_fract_x
_atom_site_fract_y
_atom_site_fract_z
Si Si1 0.671776 0.819040 0.066796
Si Si2 0.224000 0.683949 0.584879
Si Si3 0.075372 0.818374 0.719459
Si Si4 0.695318 0.670540 0.317297
Si Si5 0.087387 0.177032 0.983351
Si Si6 0.138909 0.327485 0.825451
Si Si7 0.599234 0.683191 0.235149
O O1 0.653491 0.755250 0.151567
O O2 0.680640 0.000000 0.067278
O O3 0.750000 0.750000 0.000000
O O4 0.601053 0.772168 0.047827
O O5 0.224459 0.500000 0.584685
O O6 0.250000 0.750000 0.500000
O O7 0.137026 0.738306 0.640644
O O8 0.284476 0.750034 0.616926
O O9 0.085203 0.764030 0.794764
O O10 0.990068 0.767626 0.732507
O O11 0.086908 0.000000 0.710399
O O12 0.665728 0.500000 0.347975
O O13 0.773617 0.665672 0.238372
O O14 0.629565 0.748119 0.297365
O O15 0.141797 0.239146 0.897423
O O16 0.107256 0.000000 0.988995
O O17 0.000000 0.203656 0.000000
O O18 0.105436 0.500000 0.849245
O O19 0.609528 0.500000 0.226503
#
# Coordination Sequence:
#
# PCOD8089679 Si02
#       7
#     8   8   8   8   8   8   8
#     4  12  25  39  56  79 111 151 194 240 291 343
#     4  10  20  37  61  86 113 143 179 223 269 327
#     4  10  20  34  56  84 113 146 181 224 278 333
#     4   8  17  34  56  79 102 135 177 218 261 315
#     4  11  23  37  53  76 107 143 187 239 289 335
#     4  10  19  33  54  77 104 141 185 231 276 328
#     4  10  20  37  58  80 109 144 186 232 277 330
#
# _framework density 19.555259
#
# number of rings (size 3 to 8) (size 9 to 14) (size 15 to 20)
#    0.000    1.857    0.000    5.571    0.000    6.857 
#    0.000    4.286    0.000    4.286    0.000    0.000 
#    0.000    0.000    0.000    0.000    0.000    0.000 
#
# Total GULP energy -347134.368682 kJ/mol
# GULP energy per Si atom -12397.656024 kJ/mol
# Density = 1.951075 g / cm^3
# Si number density = 19.555259 Si / 1000 Ang^3
#
#
#
# Elastic Constant Matrix: (Units=GPa)
#
#
# Indices 1 2 3 4 5 6 
#
# 1 127.1119 35.0946 47.3194 0.0000 19.2299 0.0000
# 2 35.0946 63.1645 19.7700 0.0001 -2.3529 0.0001
# 3 47.3194 19.7700 103.5758 0.0000 18.1013 0.0001
# 4 0.0000 0.0001 0.0000 32.0225 0.0000 0.7090
# 5 19.2299 -2.3529 18.1013 0.0000 26.7637 0.0001
# 6 0.0000 0.0001 0.0001 0.7090 0.0001 25.3609
#
#
#
# Elastic Compliance Matrix: (Units=1/GPa)
#
#
# Indices 1 2 3 4 5 6 
#
# 1 0.011610 -0.005761 -0.003014 0.000000 -0.006809 0.000000
# 2 -0.005761 0.020111 -0.002539 0.000000 0.007625 0.000000
# 3 -0.003014 -0.002539 0.012675 0.000000 -0.006630 0.000000
# 4 0.000000 0.000000 0.000000 0.031247 0.000000 -0.000874
# 5 -0.006809 0.007625 -0.006630 0.000000 0.047411 0.000000
# 6 0.000000 0.000000 0.000000 -0.000874 0.000000 0.039455
#
#
# Mechanical properties :
#
#
# Convention : Reuss Voigt Hill
#
# Bulk Modulus (GPa) = 45.94042 55.35780 50.64911
# Shear Modulus (GPa) = 25.98817 29.60730 27.79773
#
# Velocity S-wave (km/s) = 3.64945 3.89528 3.77436
# Velocity P-wave (km/s) = 6.42663 6.97143 6.70456
#
# Compressibility (1/GPa) = 0.02176732
#
# Stress axis : x y z
#
# Youngs Moduli (GPa) = 86.13339 49.72355 78.89319
#
# Poissons Ratio (x) = 0.28644 0.23782
# Poissons Ratio (y) = 0.49619 0.20034
# Poissons Ratio (z) = 0.25964 0.12627
#
# Static dielectric constant tensor:
#      x y z
#    x 3.923760 0.000000 0.331510 
#    y 0.000000 3.578160 0.000000 
#    z 0.331510 0.000000 3.527630 
# 
# 
# High freq. dielectric constant tensor:
#      x y z
#    x 1.773070 0.000000 0.013330 
#    y 0.000000 1.755050 0.000000 
#    z 0.013330 0.000000 1.751250 
# 
# From -- ./inp_files/280873.got.cif
#   From: 2010.06.25/outbox.cif.g09.slc.cpg/sg12_141_cif.got.tgz:280873.got - 2010.06.28 00:19:55.
