data_PCOD8089962
_publ_section_title
;
Structure prediction by ZEFSAII (Michael W. Deem and Ramdas Pophale) SiO2 
 PCOD8089962
Probable space group: C 2/M
;
_chemical_formula_sum "Si O2"
_cell_formula_units_Z 64
_cell_length_a 24.002859
_cell_length_b 9.339294
_cell_length_c 29.078084
_cell_angle_alpha 90.000000
_cell_angle_beta 149.131340
_cell_angle_gamma 90.000000
_cell_volume 3344.421254
_symmetry_space_group_name_H-M "C 2/M"
_symmetry_group_IT_number 12
_symmetry_cell_setting 'monoclinic'
loop_
_space_group_symop_operation_xyz
x,y,z
-x,y,-z
-x,-y,-z
x,-y,z
1/2+x,1/2+y,z
1/2-x,1/2+y,-z
1/2-x,1/2-y,-z
1/2+x,1/2-y,z
loop_
_atom_site_type_symbol
_atom_site_label
_atom_site_fract_x
_atom_site_fract_y
_atom_site_fract_z
Si Si1 0.689805 0.829211 0.999020
Si Si2 0.272444 0.168546 0.781701
Si Si3 0.443934 0.170075 0.832867
Si Si4 0.800664 0.830740 0.172450
Si Si5 0.040974 0.165330 0.580088
Si Si6 0.162334 0.665241 0.335730
Si Si7 0.630422 0.163108 0.486112
Si Si8 0.986494 0.340326 0.686678
O O1 0.742946 0.781281 0.084834
O O2 0.696817 0.000000 0.996100
O O3 0.750000 0.750000 0.000000
O O4 0.566362 0.771897 0.915211
O O5 0.380795 0.230451 0.833373
O O6 0.262386 0.228714 0.826805
O O7 0.167413 0.206211 0.676027
O O8 0.285630 0.000000 0.793811
O O9 0.373696 0.220432 0.739584
O O10 0.450061 0.000000 0.838814
O O11 0.922333 0.773966 0.260185
O O12 0.808011 0.000000 0.180398
O O13 0.000000 0.197112 0.500000
O O14 0.975283 0.266068 0.567228
O O15 0.020876 0.000000 0.579130
O O16 0.199374 0.500000 0.360977
O O17 0.261715 0.757438 0.423185
O O18 0.058793 0.688831 0.294783
O O19 0.614526 0.173556 0.419954
O O20 0.639098 0.000000 0.509031
O O21 0.037027 0.500000 0.719511
#
# Coordination Sequence:
#
# PCOD8089962 Si02
#       8
#     8   8   8   8   8   8   8   8
#     4  10  21  37  59  86 113 143 179 222 275 331
#     4   9  17  31  52  80 110 138 178 228 271 317
#     4   9  18  34  56  81 108 139 180 227 273 322
#     4  10  20  34  56  84 111 142 181 229 280 325
#     4  10  19  33  55  78 105 147 192 229 269 323
#     4  10  20  35  55  76 103 145 191 231 272 325
#     4  11  22  34  50  78 112 144 182 229 282 331
#     4  10  21  36  54  78 110 149 187 224 276 334
#
# _framework density 19.136346
#
# number of rings (size 3 to 8) (size 9 to 14) (size 15 to 20)
#    0.000    2.125    1.250    2.250    0.000    5.250 
#    0.000    3.125    0.000    1.500    0.000    1.750 
#    0.000    0.000    0.000    0.000    0.000    0.000 
#
# Total GULP energy -396732.947073 kJ/mol
# GULP energy per Si atom -12397.904596 kJ/mol
# Density = 1.909279 g / cm^3
# Si number density = 19.136346 Si / 1000 Ang^3
#
#
#
# Elastic Constant Matrix: (Units=GPa)
#
#
# Indices 1 2 3 4 5 6 
#
# 1 144.9551 33.6853 66.8223 -0.0001 -7.6299 -0.0001
# 2 33.6853 36.1910 36.5350 -0.0003 3.6965 0.0009
# 3 66.8223 36.5350 106.1732 0.0000 -6.6457 -0.0005
# 4 -0.0001 -0.0003 0.0000 14.8759 0.0000 0.8363
# 5 -7.6299 3.6965 -6.6457 0.0000 26.9704 -0.0003
# 6 -0.0001 0.0009 -0.0005 0.8363 -0.0003 24.3631
#
#
#
# Elastic Compliance Matrix: (Units=1/GPa)
#
#
# Indices 1 2 3 4 5 6 
#
# 1 0.010358 -0.005334 -0.004524 0.000000 0.002546 0.000000
# 2 -0.005334 0.047648 -0.013755 0.000001 -0.011429 -0.000002
# 3 -0.004524 -0.013755 0.017304 0.000000 0.004869 0.000001
# 4 0.000000 0.000001 0.000000 0.067353 0.000000 -0.002312
# 5 0.002546 -0.011429 0.004869 0.000000 0.040564 0.000001
# 6 0.000000 -0.000002 0.000001 -0.002312 0.000001 0.041125
#
#
# Mechanical properties :
#
#
# Convention : Reuss Voigt Hill
#
# Bulk Modulus (GPa) = 35.60624 62.37829 48.99226
# Shear Modulus (GPa) = 17.79751 23.26033 20.52892
#
# Velocity S-wave (km/s) = 3.05296 3.49019 3.27887
# Velocity P-wave (km/s) = 5.57444 6.99353 6.32392
#
# Compressibility (1/GPa) = 0.02808497
#
# Stress axis : x y z
#
# Youngs Moduli (GPa) = 96.54638 20.98716 57.79070
#
# Poissons Ratio (x) = 0.11194 0.26145
# Poissons Ratio (y) = 0.51493 0.79489
# Poissons Ratio (z) = 0.43679 0.28867
#
# Static dielectric constant tensor:
#      x y z
#    x 3.909680 0.000000 -0.119420 
#    y 0.000000 3.217780 0.000000 
#    z -0.119420 0.000000 3.623730 
# 
# 
# High freq. dielectric constant tensor:
#      x y z
#    x 1.760170 0.000000 -0.005800 
#    y 0.000000 1.707200 0.000000 
#    z -0.005800 0.000000 1.748200 
# 
# From -- ./inp_files/382509.got.cif
#   From: 2010.06.25/outbox.cif.g09.slc.cpg/sg12_192_cif.got.tgz:382509.got - 2010.06.28 00:19:55.
