data_PCOD8089224
_publ_section_title
;
Structure prediction by ZEFSAII (Michael W. Deem and Ramdas Pophale) SiO2 
 PCOD8089224
Probable space group: C 2/M
;
_chemical_formula_sum "Si O2"
_cell_formula_units_Z 64
_cell_length_a 14.186676
_cell_length_b 8.864878
_cell_length_c 28.328306
_cell_angle_alpha 90.000000
_cell_angle_beta 88.346995
_cell_angle_gamma 90.000000
_cell_volume 3561.174476
_symmetry_space_group_name_H-M "C 2/M"
_symmetry_group_IT_number 12
_symmetry_cell_setting 'monoclinic'
loop_
_space_group_symop_operation_xyz
x,y,z
-x,y,-z
-x,-y,-z
x,-y,z
1/2+x,1/2+y,z
1/2-x,1/2+y,-z
1/2-x,1/2-y,-z
1/2+x,1/2-y,z
loop_
_atom_site_type_symbol
_atom_site_label
_atom_site_fract_x
_atom_site_fract_y
_atom_site_fract_z
Si Si1 0.763571 0.677631 0.550268
Si Si2 0.748730 0.823420 0.696108
Si Si3 0.732786 0.679176 0.197362
Si Si4 0.243079 0.178993 0.051129
Si Si5 0.900866 0.177591 0.617287
Si Si6 0.391438 0.176976 0.125181
Si Si7 0.112348 0.822700 0.629562
Si Si8 0.102528 0.319870 0.124841
O O1 0.771814 0.500000 0.544709
O O2 0.750000 0.750000 0.500000
O O3 0.859361 0.739825 0.572039
O O4 0.674565 0.725468 0.583621
O O5 0.764925 0.765019 0.748817
O O6 0.840384 0.778819 0.664292
O O7 0.655003 0.748248 0.676365
O O8 0.730787 0.000000 0.696044
O O9 0.717104 0.500000 0.192931
O O10 0.830390 0.730367 0.171207
O O11 0.646762 0.763332 0.173226
O O12 0.337888 0.224426 0.077995
O O13 0.153649 0.248421 0.079042
O O14 0.230602 0.000000 0.048249
O O15 0.250000 0.250000 0.000000
O O16 0.006597 0.237824 0.623620
O O17 0.898947 0.000000 0.607402
O O18 0.495983 0.245536 0.125104
O O19 0.402121 0.000000 0.127121
O O20 0.112313 0.000000 0.636789
O O21 0.108047 0.500000 0.121672
#
# Coordination Sequence:
#
# PCOD8089224 Si02
#       8
#     8   8   8   8   8   8   8   8
#     4  10  20  34  51  72  97 128 163 203 246 295
#     4   9  18  32  52  74  99 130 165 201 241 288
#     4   9  18  34  51  72 102 134 163 199 246 291
#     4  10  20  36  54  74 101 132 163 202 247 294
#     4   9  18  34  52  72  99 131 163 201 246 293
#     4   8  17  33  51  69  98 134 163 194 242 294
#     4   9  19  34  51  71  99 130 162 200 247 294
#     4  10  19  33  52  74  97 129 169 204 239 287
#
# _framework density 17.971599999999999
#
# number of rings (size 3 to 8) (size 9 to 14) (size 15 to 20)
#    0.000    2.750    0.000    1.875    0.000    3.500 
#    0.000   11.250    0.000    0.000    0.000    0.000 
#    0.000    0.000    0.000    0.000    0.000    0.000 
#
# Total GULP energy -396798.895561 kJ/mol
# GULP energy per Si atom -12399.965486 kJ/mol
# Density = 1.793070 g / cm^3
# Si number density = 17.971600 Si / 1000 Ang^3
#
#
#
# Elastic Constant Matrix: (Units=GPa)
#
#
# Indices 1 2 3 4 5 6 
#
# 1 171.5044 38.4910 75.7194 0.0000 7.9726 0.0000
# 2 38.4910 46.7006 42.1343 0.0000 3.2413 0.0000
# 3 75.7194 42.1343 156.9591 0.0000 17.9825 0.0000
# 4 0.0000 0.0000 0.0000 30.7665 0.0000 5.4859
# 5 7.9726 3.2413 17.9825 0.0000 15.2074 0.0000
# 6 0.0000 0.0000 0.0000 5.4859 0.0000 27.6415
#
#
#
# Elastic Compliance Matrix: (Units=1/GPa)
#
#
# Indices 1 2 3 4 5 6 
#
# 1 0.007959 -0.004088 -0.002734 0.000000 -0.000068 0.000000
# 2 -0.004088 0.030510 -0.006615 0.000000 0.003462 0.000000
# 3 -0.002734 -0.006615 0.010572 0.000000 -0.009658 0.000000
# 4 0.000000 0.000000 0.000000 0.033695 0.000000 -0.006687
# 5 -0.000068 0.003462 -0.009658 0.000000 0.076476 0.000000
# 6 0.000000 0.000000 0.000000 -0.006687 0.000000 0.037505
#
#
# Mechanical properties :
#
#
# Convention : Reuss Voigt Hill
#
# Bulk Modulus (GPa) = 45.11175 76.42815 60.76995
# Shear Modulus (GPa) = 21.64695 29.31103 25.47899
#
# Velocity S-wave (km/s) = 3.47437 4.04290 3.76937
# Velocity P-wave (km/s) = 6.42271 8.02576 7.26856
#
# Compressibility (1/GPa) = 0.02216718
#
# Stress axis : x y z
#
# Youngs Moduli (GPa) = 125.65180 32.77623 94.58715
#
# Poissons Ratio (x) = 0.13399 0.25861
# Poissons Ratio (y) = 0.51366 0.62566
# Poissons Ratio (z) = 0.34355 0.21680
#
# Static dielectric constant tensor:
#      x y z
#    x 3.617960 0.000000 -0.024990 
#    y 0.000000 3.195300 0.000000 
#    z -0.024990 0.000000 3.420770 
# 
# 
# High freq. dielectric constant tensor:
#      x y z
#    x 1.700380 0.000000 0.003120 
#    y 0.000000 1.685940 0.000000 
#    z 0.003120 0.000000 1.699160 
# 
# From -- ./inp_files/359822.got.cif
#   From: 2010.06.25/outbox.cif.g09.slc.cpg/sg12_180_cif.got.tgz:359822.got - 2010.06.28 00:19:55.
