data_PCOD8089346
_publ_section_title
;
Structure prediction by ZEFSAII (Michael W. Deem and Ramdas Pophale) SiO2 
 PCOD8089346
Probable space group: C 2/M
;
_chemical_formula_sum "Si O2"
_cell_formula_units_Z 40
_cell_length_a 27.249423
_cell_length_b 9.710470
_cell_length_c 25.688906
_cell_angle_alpha 90.000000
_cell_angle_beta 160.515599
_cell_angle_gamma 90.000000
_cell_volume 2267.275986
_symmetry_space_group_name_H-M "C 2/M"
_symmetry_group_IT_number 12
_symmetry_cell_setting 'monoclinic'
loop_
_space_group_symop_operation_xyz
x,y,z
-x,y,-z
-x,-y,-z
x,-y,z
1/2+x,1/2+y,z
1/2-x,1/2+y,-z
1/2-x,1/2-y,-z
1/2+x,1/2-y,z
loop_
_atom_site_type_symbol
_atom_site_label
_atom_site_fract_x
_atom_site_fract_y
_atom_site_fract_z
Si Si1 0.079903 0.296914 0.437378
Si Si2 0.079902 0.796914 0.222427
Si Si3 0.418614 0.500000 0.594655
Si Si4 0.575751 0.500000 0.859665
Si Si5 0.079794 0.500000 0.525467
Si Si6 0.581387 0.000000 0.257428
Si Si7 0.079795 0.000000 0.134122
Si Si8 0.924250 0.500000 0.208164
O O1 0.250001 0.331023 0.595585
O O2 0.034661 0.364201 0.447310
O O3 0.985174 0.362614 0.296351
O O4 0.050283 0.133643 0.409927
O O5 0.050282 0.633643 0.190638
O O6 0.034661 0.864201 0.122012
O O7 0.985173 0.862614 0.173996
O O8 0.527497 0.500000 0.751847
O O9 0.250000 0.500000 0.446199
O O10 0.750001 0.500000 0.037240
O O11 0.250000 0.500000 0.708838
O O12 0.000000 0.500000 0.500000
O O13 0.472503 0.000000 0.196854
O O14 0.000000 0.000000 0.000000
#
# Coordination Sequence:
#
# PCOD8089346 Si02
#       8
#     8   8   4   4   4   4   4   4
#     4   9  19  35  53  73  97 130 171 205 237 288
#     4   9  19  35  53  73  97 130 171 205 237 288
#     4  10  19  33  53  73  98 133 169 204 240 283
#     4  11  21  31  47  74 107 138 165 197 241 290
#     4   9  18  34  54  73  94 123 162 205 247 293
#     4  10  19  33  53  73  98 133 169 204 240 283
#     4   9  18  34  54  73  94 123 162 205 247 293
#     4  11  21  31  47  74 107 138 165 197 241 290
#
# _framework density 17.642316000000001
#
# number of rings (size 3 to 8) (size 9 to 14) (size 15 to 20)
#    0.000    2.400    0.000    4.200    0.000    9.600 
#    0.000    1.000    0.000    0.000    0.000    0.000 
#    0.000    0.000    0.000    0.000    0.000    0.000 
#
# Total GULP energy -247996.115945 kJ/mol
# GULP energy per Si atom -12399.805797 kJ/mol
# Density = 1.760216 g / cm^3
# Si number density = 17.642316 Si / 1000 Ang^3
#
#
#
# Elastic Constant Matrix: (Units=GPa)
#
#
# Indices 1 2 3 4 5 6 
#
# 1 131.3408 71.4171 52.2466 -0.0013 -4.5205 0.0001
# 2 71.4171 173.2582 50.2602 -0.0025 -6.1325 -0.0001
# 3 52.2466 50.2602 85.5736 -0.0070 -8.7430 -0.0003
# 4 -0.0013 -0.0025 -0.0070 8.0989 -0.0036 -0.3152
# 5 -4.5205 -6.1325 -8.7430 -0.0036 30.5216 -0.0002
# 6 0.0001 -0.0001 -0.0003 -0.3152 -0.0002 9.1893
#
#
#
# Elastic Compliance Matrix: (Units=1/GPa)
#
#
# Indices 1 2 3 4 5 6 
#
# 1 0.011382 -0.003228 -0.005096 -0.000004 -0.000423 -0.000001
# 2 -0.003228 0.007874 -0.002618 0.000000 0.000354 0.000000
# 3 -0.005096 -0.002618 0.016693 0.000014 0.003501 0.000001
# 4 -0.000004 0.000000 0.000014 0.123639 0.000018 0.004242
# 5 -0.000423 0.000354 0.003501 0.000018 0.033775 0.000002
# 6 -0.000001 0.000000 0.000001 0.004242 0.000002 0.108968
#
#
# Mechanical properties :
#
#
# Convention : Reuss Voigt Hill
#
# Bulk Modulus (GPa) = 71.10209 82.00226 76.55217
# Shear Modulus (GPa) = 15.20205 23.97852 19.59029
#
# Velocity S-wave (km/s) = 2.93863 3.69066 3.33590
# Velocity P-wave (km/s) = 7.20441 8.04628 7.63696
#
# Compressibility (1/GPa) = 0.01406428
#
# Stress axis : x y z
#
# Youngs Moduli (GPa) = 87.85911 126.99558 59.90702
#
# Poissons Ratio (x) = 0.40996 0.30531
# Poissons Ratio (y) = 0.28363 0.15682
# Poissons Ratio (z) = 0.44776 0.33244
#
# Static dielectric constant tensor:
#      x y z
#    x 3.057510 0.000000 0.033230 
#    y 0.000000 3.633550 -0.000010 
#    z 0.033230 -0.000010 3.172160 
# 
# 
# High freq. dielectric constant tensor:
#      x y z
#    x 1.659880 0.000000 0.003880 
#    y 0.000000 1.692620 0.000000 
#    z 0.003880 0.000000 1.673270 
# 
# From -- ./inp_files/101624.got.cif
#   From: 2010.06.25/outbox.cif.g09.slc.cpg/sg12_51_cif.got.tgz:101624.got - 2010.06.28 00:19:55.
