data_PCOD8089535
_publ_section_title
;
Structure prediction by ZEFSAII (Michael W. Deem and Ramdas Pophale) SiO2 
 PCOD8089535
Probable space group: C 2/M
;
_chemical_formula_sum "Si O2"
_cell_formula_units_Z 64
_cell_length_a 26.108712
_cell_length_b 9.275748
_cell_length_c 31.027167
_cell_angle_alpha 90.000000
_cell_angle_beta 154.909191
_cell_angle_gamma 90.000000
_cell_volume 3186.381942
_symmetry_space_group_name_H-M "C 2/M"
_symmetry_group_IT_number 12
_symmetry_cell_setting 'monoclinic'
loop_
_space_group_symop_operation_xyz
x,y,z
-x,y,-z
-x,-y,-z
x,-y,z
1/2+x,1/2+y,z
1/2-x,1/2+y,-z
1/2-x,1/2-y,-z
1/2+x,1/2-y,z
loop_
_atom_site_type_symbol
_atom_site_label
_atom_site_fract_x
_atom_site_fract_y
_atom_site_fract_z
Si Si1 0.553076 0.831047 0.730870
Si Si2 0.464360 0.167347 0.381226
Si Si3 0.985949 0.843904 0.038831
Si Si4 0.407757 0.830918 0.700601
Si Si5 0.260003 0.331930 0.729885
Si Si6 0.788861 0.661269 0.924834
Si Si7 0.865463 0.661181 0.076468
Si Si8 0.687675 0.327591 0.588389
O O1 0.533353 0.780332 0.666825
O O2 0.435561 0.794110 0.671354
O O3 0.665511 0.748682 0.837826
O O4 0.582373 0.000000 0.754638
O O5 0.333482 0.194517 0.302154
O O6 0.557519 0.263910 0.478573
O O7 0.502192 0.000000 0.413325
O O8 0.108649 0.782825 0.153459
O O9 0.955133 0.000000 0.036942
O O10 0.000000 0.872456 0.000000
O O11 0.873603 0.735837 0.954613
O O12 0.514774 0.766111 0.812108
O O13 0.279687 0.772361 0.620662
O O14 0.405452 0.000000 0.706321
O O15 0.256710 0.500000 0.713842
O O16 0.228673 0.232841 0.665532
O O17 0.754901 0.500000 0.884194
O O18 0.873952 0.659868 0.031605
O O19 0.849774 0.500000 0.083240
O O20 0.750000 0.750000 0.000000
O O21 0.679793 0.500000 0.585041
#
# Coordination Sequence:
#
# PCOD8089535 Si02
#       8
#     8   8   8   8   8   8   8   8
#     4  10  20  38  62  82 110 157 199 234 283 344
#     4  10  22  40  62  86 110 143 193 246 292 340
#     4  10  21  38  60  85 114 154 199 234 274 338
#     4   9  19  36  57  82 115 152 189 230 279 336
#     4  10  21  39  61  85 114 147 191 244 285 331
#     4  11  22  34  53  86 123 153 186 235 290 340
#     4  10  19  33  53  79 111 147 186 225 270 327
#     4  11  23  39  60  86 116 150 188 235 294 352
#
# _framework density 20.085476
#
# number of rings (size 3 to 8) (size 9 to 14) (size 15 to 20)
#    0.000    1.875    1.250    2.625    0.000    7.250 
#    0.000    3.750    0.000    0.000    0.000    0.000 
#    0.000    0.000    0.000    0.000    0.000    0.000 
#
# Total GULP energy -396680.998706 kJ/mol
# GULP energy per Si atom -12396.281210 kJ/mol
# Density = 2.003976 g / cm^3
# Si number density = 20.085476 Si / 1000 Ang^3
#
#
#
# Elastic Constant Matrix: (Units=GPa)
#
#
# Indices 1 2 3 4 5 6 
#
# 1 99.5415 27.2288 14.5625 0.0038 0.9425 -0.0003
# 2 27.2288 64.4303 23.2457 0.0020 4.0325 -0.0009
# 3 14.5625 23.2457 68.9428 0.0106 -0.5602 -0.0008
# 4 0.0038 0.0020 0.0106 22.5972 0.0007 0.6104
# 5 0.9425 4.0325 -0.5602 0.0007 36.9824 -0.0004
# 6 -0.0003 -0.0009 -0.0008 0.6104 -0.0004 25.1573
#
#
#
# Elastic Compliance Matrix: (Units=1/GPa)
#
#
# Indices 1 2 3 4 5 6 
#
# 1 0.011409 -0.004513 -0.000886 -0.000001 0.000188 0.000000
# 2 -0.004513 0.019607 -0.005675 0.000002 -0.002109 0.000000
# 3 -0.000886 -0.005675 0.016613 -0.000007 0.000893 0.000001
# 4 -0.000001 0.000002 -0.000007 0.044282 -0.000001 -0.001074
# 5 0.000188 -0.002109 0.000893 -0.000001 0.027279 0.000000
# 6 0.000000 0.000000 0.000001 -0.001074 0.000000 0.039776
#
#
# Mechanical properties :
#
#
# Convention : Reuss Voigt Hill
#
# Bulk Modulus (GPa) = 39.24753 40.33206 39.78979
# Shear Modulus (GPa) = 26.37019 28.13922 27.25471
#
# Velocity S-wave (km/s) = 3.62732 3.74702 3.68766
# Velocity P-wave (km/s) = 6.09311 6.23250 6.16320
#
# Compressibility (1/GPa) = 0.02547931
#
# Stress axis : x y z
#
# Youngs Moduli (GPa) = 87.65365 51.00103 60.19484
#
# Poissons Ratio (x) = 0.23018 0.05336
# Poissons Ratio (y) = 0.39561 0.34160
# Poissons Ratio (z) = 0.07770 0.28943
#
# Static dielectric constant tensor:
#      x y z
#    x 3.837490 0.000000 0.006640 
#    y 0.000000 3.959430 -0.000010 
#    z 0.006640 -0.000010 3.722050 
# 
# 
# High freq. dielectric constant tensor:
#      x y z
#    x 1.793550 0.000000 0.001350 
#    y 0.000000 1.767110 0.000000 
#    z 0.001350 0.000000 1.781400 
# 
# From -- ./inp_files/382425.got.cif
#   From: 2010.06.25/outbox.cif.g09.slc.cpg/sg12_192_cif.got.tgz:382425.got - 2010.06.28 00:19:55.
