data_PCOD8089981
_publ_section_title
;
Structure prediction by ZEFSAII (Michael W. Deem and Ramdas Pophale) SiO2 
 PCOD8089981
Probable space group: C 2/M
;
_chemical_formula_sum "Si O2"
_cell_formula_units_Z 48
_cell_length_a 25.518047
_cell_length_b 9.007703
_cell_length_c 11.673493
_cell_angle_alpha 90.000000
_cell_angle_beta 89.566605
_cell_angle_gamma 90.000000
_cell_volume 2683.180530
_symmetry_space_group_name_H-M "C 2/M"
_symmetry_group_IT_number 12
_symmetry_cell_setting 'monoclinic'
loop_
_space_group_symop_operation_xyz
x,y,z
-x,y,-z
-x,-y,-z
x,-y,z
1/2+x,1/2+y,z
1/2-x,1/2+y,-z
1/2-x,1/2-y,-z
1/2+x,1/2-y,z
loop_
_atom_site_type_symbol
_atom_site_label
_atom_site_fract_x
_atom_site_fract_y
_atom_site_fract_z
Si Si1 0.001793 0.673770 0.373990
Si Si2 0.806499 0.674726 0.374446
Si Si3 0.060464 0.824343 0.999659
Si Si4 0.600558 0.826859 0.222772
Si Si5 0.200319 0.325811 0.365684
Si Si6 0.906113 0.323401 0.227173
O O1 0.990926 0.500000 0.385760
O O2 0.955965 0.740194 0.295785
O O3 0.000000 0.747341 0.500000
O O4 0.057767 0.709074 0.319598
O O5 0.800065 0.500000 0.366315
O O6 0.816443 0.724562 0.505844
O O7 0.753728 0.747249 0.326223
O O8 0.854506 0.729060 0.295641
O O9 0.089471 0.773220 0.113622
O O10 0.063366 0.000000 0.988981
O O11 0.093029 0.751325 0.896623
O O12 0.000000 0.769048 0.000000
O O13 0.655976 0.779827 0.275746
O O14 0.598910 0.000000 0.188122
O O15 0.209876 0.500000 0.363439
O O16 0.908177 0.500000 0.211985
#
# Coordination Sequence:
#
# PCOD8089981 Si02
#       6
#     8   8   8   8   8   8
#     4   9  16  27  49  80 106 127 160 213 264 303
#     4   9  18  33  54  81 110 139 172 212 259 311
#     4  11  23  37  52  73 106 143 176 214 263 316
#     4  10  19  33  55  79 103 135 178 217 254 307
#     4   9  18  33  54  81 110 139 172 212 259 311
#     4  10  19  33  55  79 103 135 178 217 254 307
#
# _framework density 17.889216000000001
#
# number of rings (size 3 to 8) (size 9 to 14) (size 15 to 20)
#    0.000    2.333    1.667    1.500    0.000    6.000 
#    0.000    0.833    0.000    4.000    0.000    0.000 
#    0.000    0.000    0.000    0.000    0.000    0.000 
#
# Total GULP energy -297630.007615 kJ/mol
# GULP energy per Si atom -12401.250317 kJ/mol
# Density = 1.784850 g / cm^3
# Si number density = 17.889216 Si / 1000 Ang^3
#
#
#
# Elastic Constant Matrix: (Units=GPa)
#
#
# Indices 1 2 3 4 5 6 
#
# 1 104.0668 29.5608 26.7985 0.0000 12.6969 0.0000
# 2 29.5608 29.1865 26.0223 0.0000 -0.6587 0.0000
# 3 26.7985 26.0223 86.3777 0.0000 11.2558 0.0000
# 4 0.0000 0.0000 0.0000 17.9601 0.0000 1.2062
# 5 12.6969 -0.6587 11.2558 0.0000 28.0022 0.0000
# 6 0.0000 0.0000 0.0000 1.2062 0.0000 28.0594
#
#
#
# Elastic Compliance Matrix: (Units=1/GPa)
#
#
# Indices 1 2 3 4 5 6 
#
# 1 0.014864 -0.016415 0.001332 0.000000 -0.007661 0.000000
# 2 -0.016415 0.066369 -0.016964 0.000000 0.015823 0.000000
# 3 0.001332 -0.016964 0.017312 0.000000 -0.007962 0.000000
# 4 0.000000 0.000000 0.000000 0.055840 0.000000 -0.002401
# 5 -0.007661 0.015823 -0.007962 0.000000 0.042758 0.000000
# 6 0.000000 0.000000 0.000000 -0.002401 0.000000 0.035742
#
#
# Mechanical properties :
#
#
# Convention : Reuss Voigt Hill
#
# Bulk Modulus (GPa) = 29.02595 42.71045 35.86820
# Shear Modulus (GPa) = 16.20948 23.95430 20.08189
#
# Velocity S-wave (km/s) = 3.01342 3.66325 3.35411
# Velocity P-wave (km/s) = 5.32618 6.46679 5.92400
#
# Compressibility (1/GPa) = 0.03445193
#
# Stress axis : x y z
#
# Youngs Moduli (GPa) = 67.27840 15.06717 57.76408
#
# Poissons Ratio (x) = 0.24732 -0.07694
# Poissons Ratio (y) = 1.10436 0.97990
# Poissons Ratio (z) = -0.08962 0.25560
#
# Static dielectric constant tensor:
#      x y z
#    x 3.379020 0.000000 0.017740 
#    y 0.000000 3.023740 0.000000 
#    z 0.017740 0.000000 3.394780 
# 
# 
# High freq. dielectric constant tensor:
#      x y z
#    x 1.696010 0.000000 0.001350 
#    y 0.000000 1.665650 0.000000 
#    z 0.001350 0.000000 1.695440 
# 
# From -- ./inp_files/172255.got.cif
#   From: 2010.06.25/outbox.cif.g09.slc.cpg/sg12_87_cif.got.tgz:172255.got - 2010.06.28 00:19:55.
