data_PCOD8089548
_publ_section_title
;
Structure prediction by ZEFSAII (Michael W. Deem and Ramdas Pophale) SiO2 
 PCOD8089548
Probable space group: C 2/M
;
_chemical_formula_sum "Si O2"
_cell_formula_units_Z 40
_cell_length_a 8.539130
_cell_length_b 28.564839
_cell_length_c 14.257873
_cell_angle_alpha 90.000000
_cell_angle_beta 147.540416
_cell_angle_gamma 90.000000
_cell_volume 1866.531946
_symmetry_space_group_name_H-M "C 2/M"
_symmetry_group_IT_number 12
_symmetry_cell_setting 'monoclinic'
loop_
_space_group_symop_operation_xyz
x,y,z
-x,y,-z
-x,-y,-z
x,-y,z
1/2+x,1/2+y,z
1/2-x,1/2+y,-z
1/2-x,1/2-y,-z
1/2+x,1/2-y,z
loop_
_atom_site_type_symbol
_atom_site_label
_atom_site_fract_x
_atom_site_fract_y
_atom_site_fract_z
Si Si1 0.312319 0.896445 0.188392
Si Si2 0.805829 0.135073 0.311059
Si Si3 0.696328 0.192907 0.688399
Si Si4 0.685474 0.274055 0.809469
Si Si5 0.347528 0.550896 0.523371
O O1 0.483411 0.879473 0.181687
O O2 0.247694 0.853634 0.224978
O O3 0.506015 0.935522 0.339927
O O4 0.000000 0.918028 0.000000
O O5 0.782321 0.178730 0.232596
O O6 0.000000 0.148012 0.500000
O O7 0.968806 0.092903 0.334315
O O8 0.500000 0.180378 0.500000
O O9 0.540923 0.232076 0.675438
O O10 0.997610 0.215879 0.806614
O O11 0.000000 0.255791 0.000000
O O12 0.500000 0.546710 0.500000
O O13 0.367258 0.500000 0.584710
#
# Coordination Sequence:
#
# PCOD8089548 Si02
#       5
#     8   8   8   8   8
#     4  10  19  33  53  80 109 134 170 218 260 299
#     4   9  18  35  55  75 102 139 177 210 252 310
#     4  12  23  36  53  76 108 142 178 211 254 309
#     4  12  23  36  54  77 107 140 176 216 259 303
#     4   8  16  32  55  79 102 133 172 213 257 308
#
# _framework density 21.430118
#
# number of rings (size 3 to 8) (size 9 to 14) (size 15 to 20)
#    0.000    2.200    0.000    7.200    0.000    0.400 
#    0.000    0.000    0.000    6.000    0.000    0.000 
#    0.000    1.600    0.000    0.000    0.000    0.000 
#
# Total GULP energy -247884.443418 kJ/mol
# GULP energy per Si atom -12394.222171 kJ/mol
# Density = 2.138134 g / cm^3
# Si number density = 21.430118 Si / 1000 Ang^3
#
#
#
# Elastic Constant Matrix: (Units=GPa)
#
#
# Indices 1 2 3 4 5 6 
#
# 1 64.6689 16.8263 26.8952 0.0000 16.5779 0.0000
# 2 16.8263 79.3091 10.0988 0.0000 -12.9150 0.0000
# 3 26.8952 10.0988 87.7101 0.0000 23.9464 0.0000
# 4 0.0000 0.0000 0.0000 21.4855 0.0000 1.1969
# 5 16.5779 -12.9150 23.9464 0.0000 32.1969 0.0000
# 6 0.0000 0.0000 0.0000 1.1969 0.0000 0.8969
#
#
#
# Elastic Compliance Matrix: (Units=1/GPa)
#
#
# Indices 1 2 3 4 5 6 
#
# 1 0.020997 -0.005931 -0.002703 0.000000 -0.011180 0.000000
# 2 -0.005931 0.016258 -0.003347 0.000000 0.012065 0.000000
# 3 -0.002703 -0.003347 0.015813 0.000000 -0.011712 0.000000
# 4 0.000000 0.000000 0.000000 0.050281 0.000000 -0.067100
# 5 -0.011180 0.012065 -0.011712 0.000000 0.050365 0.000000
# 6 0.000000 0.000000 0.000000 -0.067100 0.000000 1.204495
#
#
# Mechanical properties :
#
#
# Convention : Reuss Voigt Hill
#
# Bulk Modulus (GPa) = 34.35846 37.70320 36.03083
# Shear Modulus (GPa) = 3.59228 22.77371 13.18299
#
# Velocity S-wave (km/s) = 1.29612 3.26344 2.48294
# Velocity P-wave (km/s) = 4.27872 5.64197 5.00696
#
# Compressibility (1/GPa) = 0.02910491
#
# Stress axis : x y z
#
# Youngs Moduli (GPa) = 47.62643 61.50765 63.23904
#
# Poissons Ratio (x) = 0.36480 0.17095
# Poissons Ratio (y) = 0.28247 0.21167
# Poissons Ratio (z) = 0.12875 0.20588
#
# Static dielectric constant tensor:
#      x y z
#    x 3.918560 0.000000 0.330080 
#    y 0.000000 4.532790 0.000000 
#    z 0.330080 0.000000 3.803150 
# 
# 
# High freq. dielectric constant tensor:
#      x y z
#    x 1.828740 0.000000 0.025300 
#    y 0.000000 1.841090 0.000000 
#    z 0.025300 0.000000 1.825160 
# 
# From -- ./inp_files/41877.got.cif
#   From: 2010.06.25/outbox.cif.g09.slc.cpg/sg12_21_cif.got.tgz:41877.got - 2010.06.28 00:19:55.
