data_PCOD8089148
_publ_section_title
;
Structure prediction by ZEFSAII (Michael W. Deem and Ramdas Pophale) SiO2 
 PCOD8089148
Probable space group: C 2/M
;
_chemical_formula_sum "Si O2"
_cell_formula_units_Z 44
_cell_length_a 10.862676
_cell_length_b 31.546999
_cell_length_c 14.131714
_cell_angle_alpha 90.000000
_cell_angle_beta 151.452892
_cell_angle_gamma 90.000000
_cell_volume 2314.246527
_symmetry_space_group_name_H-M "C 2/M"
_symmetry_group_IT_number 12
_symmetry_cell_setting 'monoclinic'
loop_
_space_group_symop_operation_xyz
x,y,z
-x,y,-z
-x,-y,-z
x,-y,z
1/2+x,1/2+y,z
1/2-x,1/2+y,-z
1/2-x,1/2-y,-z
1/2+x,1/2-y,z
loop_
_atom_site_type_symbol
_atom_site_label
_atom_site_fract_x
_atom_site_fract_y
_atom_site_fract_z
Si Si1 0.197334 0.279227 0.555393
Si Si2 0.500000 0.429946 0.500000
Si Si3 0.869253 0.500000 0.774479
Si Si4 0.890559 0.910112 0.621976
Si Si5 0.529294 0.345507 0.867097
Si Si6 0.095960 0.000000 0.791471
Si Si7 0.903936 0.641245 0.279639
O O1 0.250000 0.250000 0.500000
O O2 0.454829 0.297134 0.783414
O O3 0.000000 0.258174 0.500000
O O4 0.074763 0.320735 0.430572
O O5 0.753400 0.458323 0.646103
O O6 0.533564 0.402555 0.617362
O O7 0.751946 0.500000 0.800013
O O8 0.179038 0.500000 0.976637
O O9 0.048125 0.877524 0.792887
O O10 0.586281 0.900100 0.404916
O O11 0.921061 0.958001 0.682286
O O12 0.322869 0.365829 0.799303
O O13 0.801983 0.346097 0.106078
#
# Coordination Sequence:
#
# PCOD8089148 Si02
#       7
#     8   4   4   8   8   4   8
#     4   9  18  35  59  82 110 141 178 219 266 328
#     4   9  18  30  50  74 104 136 174 220 278 320
#     4   8  16  32  46  68  99 141 182 216 267 336
#     4  10  19  33  51  78 103 139 178 226 264 317
#     4   9  19  37  56  76 102 147 180 210 265 324
#     4   9  18  30  51  72 100 141 186 223 270 314
#     4   9  19  37  57  74 105 144 181 211 262 325
#
# _framework density 19.012668000000001
#
# number of rings (size 3 to 8) (size 9 to 14) (size 15 to 20)
#    0.000    2.909    0.000    2.182    2.545    0.727 
#    6.545    1.818    0.000    2.182    0.000    0.000 
#    0.000    0.000    0.000    0.000    0.000    0.000 
#
# Total GULP energy -272545.929274 kJ/mol
# GULP energy per Si atom -12388.451331 kJ/mol
# Density = 1.896939 g / cm^3
# Si number density = 19.012668 Si / 1000 Ang^3
#
#
#
# Elastic Constant Matrix: (Units=GPa)
#
#
# Indices 1 2 3 4 5 6 
#
# 1 82.5661 35.2226 18.9490 0.0000 -17.4573 0.0000
# 2 35.2226 59.1567 19.5347 0.0000 -0.6330 0.0000
# 3 18.9490 19.5347 115.8483 0.0000 -8.6583 0.0000
# 4 0.0000 0.0000 0.0000 6.0337 0.0000 -2.6200
# 5 -17.4573 -0.6330 -8.6583 0.0000 29.2723 0.0000
# 6 0.0000 0.0000 0.0000 -2.6200 0.0000 27.8002
#
#
#
# Elastic Compliance Matrix: (Units=1/GPa)
#
#
# Indices 1 2 3 4 5 6 
#
# 1 0.019390 -0.011283 -0.000433 0.000000 0.011192 0.000000
# 2 -0.011283 0.024474 -0.002807 0.000000 -0.007030 0.000000
# 3 -0.000433 -0.002807 0.009359 0.000000 0.002450 0.000000
# 4 0.000000 0.000000 0.000000 0.172808 0.000000 0.016286
# 5 0.011192 -0.007030 0.002450 0.000000 0.041409 0.000000
# 6 0.000000 0.000000 0.000000 0.016286 0.000000 0.037506
#
#
# Mechanical properties :
#
#
# Convention : Reuss Voigt Hill
#
# Bulk Modulus (GPa) = 41.35802 44.99819 43.17810
# Shear Modulus (GPa) = 14.61776 24.87890 19.74833
#
# Velocity S-wave (km/s) = 2.77581 3.62130 3.22637
# Velocity P-wave (km/s) = 5.66336 6.41903 6.05300
#
# Compressibility (1/GPa) = 0.02417911
#
# Stress axis : x y z
#
# Youngs Moduli (GPa) = 51.57218 40.86021 106.84780
#
# Poissons Ratio (x) = 0.46101 0.04623
# Poissons Ratio (y) = 0.58187 0.29990
# Poissons Ratio (z) = 0.02231 0.11468
#
# Static dielectric constant tensor:
#      x y z
#    x 4.440360 0.000000 -0.598960 
#    y 0.000000 3.416820 0.000000 
#    z -0.598960 0.000000 4.223510 
# 
# 
# High freq. dielectric constant tensor:
#      x y z
#    x 1.716290 0.000000 -0.024350 
#    y 0.000000 1.713450 0.000000 
#    z -0.024350 0.000000 1.753630 
# 
# From -- ./inp_files/209246.got.cif
#   From: 2010.06.25/outbox.cif.g09.slc.cpg/sg12_105_cif.got.tgz:209246.got - 2010.06.28 00:19:55.
