data_PCOD8089093
_publ_section_title
;
Structure prediction by ZEFSAII (Michael W. Deem and Ramdas Pophale) SiO2 
 PCOD8089093
Probable space group: C 2/M
;
_chemical_formula_sum "Si O2"
_cell_formula_units_Z 64
_cell_length_a 30.246519
_cell_length_b 8.698104
_cell_length_c 31.050804
_cell_angle_alpha 90.000000
_cell_angle_beta 28.042950
_cell_angle_gamma 90.000000
_cell_volume 3840.553898
_symmetry_space_group_name_H-M "C 2/M"
_symmetry_group_IT_number 12
_symmetry_cell_setting 'monoclinic'
loop_
_space_group_symop_operation_xyz
x,y,z
-x,y,-z
-x,-y,-z
x,-y,z
1/2+x,1/2+y,z
1/2-x,1/2+y,-z
1/2-x,1/2-y,-z
1/2+x,1/2-y,z
loop_
_atom_site_type_symbol
_atom_site_label
_atom_site_fract_x
_atom_site_fract_y
_atom_site_fract_z
Si Si1 0.315775 0.678515 0.123220
Si Si2 0.836084 0.818800 0.872632
Si Si3 0.965076 0.321820 0.933259
Si Si4 0.989078 0.319086 0.574523
Si Si5 0.364809 0.321175 0.608288
Si Si6 0.128489 0.320833 0.072648
Si Si7 0.625332 0.318715 0.255168
Si Si8 0.341724 0.823374 0.190299
O O1 0.289236 0.500000 0.142569
O O2 0.224769 0.779643 0.191262
O O3 0.351215 0.716056 0.140642
O O4 0.399303 0.716248 0.018822
O O5 0.898916 0.759320 0.858580
O O6 0.876937 0.758533 0.792152
O O7 0.836979 0.000000 0.871270
O O8 0.729261 0.757491 0.969396
O O9 0.938949 0.500000 0.964454
O O10 0.948962 0.281111 0.896874
O O11 0.073228 0.285615 0.850550
O O12 0.003281 0.500000 0.561086
O O13 0.906748 0.271476 0.612491
O O14 0.960027 0.265422 0.647135
O O15 0.087246 0.238542 0.476882
O O16 0.387761 0.500000 0.595285
O O17 0.253733 0.289622 0.701357
O O18 0.134501 0.500000 0.076777
O O19 0.610323 0.500000 0.271496
O O20 0.345594 0.000000 0.171395
#
# Coordination Sequence:
#
# PCOD8089093 Si02
#       8
#     8   8   8   8   8   8   8   8
#     4  12  23  32  46  71 102 133 168 208 243 282
#     4   9  18  31  49  71  95 125 160 199 244 292
#     4  10  20  36  52  69  96 135 174 203 237 286
#     4  11  21  32  49  74 100 126 158 204 252 292
#     4  10  19  33  51  71  95 131 168 200 241 291
#     4   9  17  31  49  70  96 126 161 201 242 286
#     4  11  20  34  52  71  98 133 167 199 241 299
#     4  10  21  35  53  70  94 134 175 205 235 285
#
# _framework density 16.664262999999998
#
# number of rings (size 3 to 8) (size 9 to 14) (size 15 to 20)
#    0.000    1.750    2.500    4.125    0.000    4.000 
#    0.000    0.000    0.000    0.000    0.000    0.875 
#    0.000    0.000    0.000    0.000    0.000    0.000 
#
# Total GULP energy -396852.664354 kJ/mol
# GULP energy per Si atom -12401.645761 kJ/mol
# Density = 1.662633 g / cm^3
# Si number density = 16.664263 Si / 1000 Ang^3
#
#
#
# Elastic Constant Matrix: (Units=GPa)
#
#
# Indices 1 2 3 4 5 6 
#
# 1 105.8281 18.1497 42.9070 0.0014 17.5567 0.0130
# 2 18.1497 43.6798 14.8715 0.0538 6.8884 -0.0301
# 3 42.9070 14.8715 76.4953 -0.0011 16.5975 0.0093
# 4 0.0014 0.0538 -0.0011 17.7745 0.0007 7.7397
# 5 17.5567 6.8884 16.5975 0.0007 25.4336 0.0009
# 6 0.0130 -0.0301 0.0093 7.7397 0.0009 20.2947
#
#
#
# Elastic Compliance Matrix: (Units=1/GPa)
#
#
# Indices 1 2 3 4 5 6 
#
# 1 0.013007 -0.002728 -0.005799 0.000013 -0.004456 -0.000015
# 2 -0.002728 0.025464 -0.002717 -0.000114 -0.003240 0.000084
# 3 -0.005799 -0.002717 0.018436 0.000017 -0.007292 -0.000015
# 4 0.000013 -0.000114 0.000017 0.067464 0.000010 -0.025729
# 5 -0.004456 -0.003240 -0.007292 0.000010 0.048030 -0.000005
# 6 -0.000015 0.000084 -0.000015 -0.025729 -0.000005 0.059086
#
#
# Mechanical properties :
#
#
# Convention : Reuss Voigt Hill
#
# Bulk Modulus (GPa) = 29.05376 41.98440 35.51908
# Shear Modulus (GPa) = 18.83605 22.70556 20.77080
#
# Velocity S-wave (km/s) = 3.36568 3.69525 3.53431
# Velocity P-wave (km/s) = 5.70757 6.59208 6.16570
#
# Compressibility (1/GPa) = 0.03441895
#
# Stress axis : x y z
#
# Youngs Moduli (GPa) = 76.87914 39.27161 54.24232
#
# Poissons Ratio (x) = 0.10713 0.31454
# Poissons Ratio (y) = 0.20971 0.14739
# Poissons Ratio (z) = 0.44581 0.10671
#
# Static dielectric constant tensor:
#      x y z
#    x 3.106670 -0.000070 0.150640 
#    y -0.000070 3.112740 0.000110 
#    z 0.150640 0.000110 3.234900 
# 
# 
# High freq. dielectric constant tensor:
#      x y z
#    x 1.621020 -0.000010 0.014880 
#    y -0.000010 1.645640 0.000010 
#    z 0.014880 0.000010 1.628870 
# 
# From -- ./inp_files/384558.got.cif
#   From: 2010.06.25/outbox.cif.g09.slc.cpg/sg12_193_cif.got.tgz:384558.got - 2010.06.28 00:19:55.
