data_PCOD8089786
_publ_section_title
;
Structure prediction by ZEFSAII (Michael W. Deem and Ramdas Pophale) SiO2 
 PCOD8089786
Probable space group: C 2/M
;
_chemical_formula_sum "Si O2"
_cell_formula_units_Z 56
_cell_length_a 22.232182
_cell_length_b 9.213900
_cell_length_c 28.826533
_cell_angle_alpha 90.000000
_cell_angle_beta 150.090636
_cell_angle_gamma 90.000000
_cell_volume 2944.393758
_symmetry_space_group_name_H-M "C 2/M"
_symmetry_group_IT_number 12
_symmetry_cell_setting 'monoclinic'
loop_
_space_group_symop_operation_xyz
x,y,z
-x,y,-z
-x,-y,-z
x,-y,z
1/2+x,1/2+y,z
1/2-x,1/2+y,-z
1/2-x,1/2-y,-z
1/2+x,1/2-y,z
loop_
_atom_site_type_symbol
_atom_site_label
_atom_site_fract_x
_atom_site_fract_y
_atom_site_fract_z
Si Si1 0.051225 0.829440 0.329238
Si Si2 0.687513 0.168289 0.834312
Si Si3 0.110085 0.829656 0.213490
Si Si4 0.164612 0.168324 0.978307
Si Si5 0.474953 0.665868 0.582136
Si Si6 0.708692 0.832266 0.743900
Si Si7 0.279132 0.170218 0.625930
O O1 0.064872 0.792280 0.392446
O O2 0.160009 0.749895 0.376568
O O3 0.925599 0.765937 0.225871
O O4 0.055921 0.000000 0.321579
O O5 0.732655 0.214596 0.813206
O O6 0.647913 0.000000 0.808971
O O7 0.795463 0.199118 0.942168
O O8 0.172849 0.793372 0.206394
O O9 0.176732 0.737347 0.296807
O O10 0.972240 0.777136 0.118297
O O11 0.119196 0.000000 0.231587
O O12 0.174446 0.000000 0.972802
O O13 0.250000 0.250000 0.000000
O O14 0.515052 0.500000 0.607316
O O15 0.591422 0.755091 0.643949
O O16 0.364333 0.697014 0.473647
O O17 0.678545 0.000000 0.720589
O O18 0.310118 0.000000 0.644638
#
# Coordination Sequence:
#
# PCOD8089786 Si02
#       7
#     8   8   8   8   8   8   8
#     4  10  19  33  54  80 108 137 171 217 266 313
#     4   9  18  34  56  80 105 138 175 214 259 310
#     4  10  22  38  54  77 107 139 175 218 262 307
#     4  10  21  36  55  79 108 138 171 211 259 312
#     4   9  20  36  54  77 106 139 175 215 263 313
#     4   9  19  36  57  79 104 135 176 219 260 307
#     4  11  22  35  52  76 106 142 179 217 261 311
#
# _framework density 19.019195
#
# number of rings (size 3 to 8) (size 9 to 14) (size 15 to 20)
#    0.000    2.286    0.000    2.143    0.000    6.857 
#    0.000    5.714    0.000    0.000    0.000    6.000 
#    0.000    0.000    0.000    0.000    0.000    0.000 
#
# Total GULP energy -347259.349626 kJ/mol
# GULP energy per Si atom -12402.119630 kJ/mol
# Density = 1.897591 g / cm^3
# Si number density = 19.019195 Si / 1000 Ang^3
#
#
#
# Elastic Constant Matrix: (Units=GPa)
#
#
# Indices 1 2 3 4 5 6 
#
# 1 95.6246 45.1562 66.5424 0.0002 17.5939 0.0000
# 2 45.1562 68.6202 52.4096 -0.0003 4.6624 -0.0003
# 3 66.5424 52.4096 137.1629 -0.0011 -1.9517 -0.0002
# 4 0.0002 -0.0003 -0.0011 29.8441 -0.0003 -0.0075
# 5 17.5939 4.6624 -1.9517 -0.0003 28.3579 0.0000
# 6 0.0000 -0.0003 -0.0002 -0.0075 0.0000 29.8298
#
#
#
# Elastic Compliance Matrix: (Units=1/GPa)
#
#
# Indices 1 2 3 4 5 6 
#
# 1 0.021883 -0.007450 -0.007953 -0.000001 -0.012900 0.000000
# 2 -0.007450 0.023561 -0.005383 0.000000 0.000378 0.000000
# 3 -0.007953 -0.005383 0.013302 0.000001 0.006735 0.000000
# 4 -0.000001 0.000000 0.000001 0.033508 0.000001 0.000008
# 5 -0.012900 0.000378 0.006735 0.000001 0.043668 0.000000
# 6 0.000000 0.000000 0.000000 0.000008 0.000000 0.033523
#
#
# Mechanical properties :
#
#
# Convention : Reuss Voigt Hill
#
# Bulk Modulus (GPa) = 58.22816 69.95823 64.09319
# Shear Modulus (GPa) = 23.06886 26.75967 24.91426
#
# Velocity S-wave (km/s) = 3.48649 3.75505 3.62325
# Velocity P-wave (km/s) = 6.84758 7.46078 7.16075
#
# Compressibility (1/GPa) = 0.01717382
#
# Stress axis : x y z
#
# Youngs Moduli (GPa) = 45.69685 42.44293 75.17754
#
# Poissons Ratio (x) = 0.31618 0.59792
# Poissons Ratio (y) = 0.34042 0.40470
# Poissons Ratio (z) = 0.36345 0.22848
#
# Static dielectric constant tensor:
#      x y z
#    x 3.563620 0.000000 -0.048460 
#    y 0.000000 3.535610 0.000000 
#    z -0.048460 0.000000 3.579650 
# 
# 
# High freq. dielectric constant tensor:
#      x y z
#    x 1.738760 0.000000 -0.002250 
#    y 0.000000 1.737100 0.000000 
#    z -0.002250 0.000000 1.742450 
# 
# From -- ./inp_files/237467.got.cif
#   From: 2010.06.25/outbox.cif.g09.slc.cpg/sg12_119_cif.got.tgz:237467.got - 2010.06.28 00:19:55.
