data_PCOD8089363
_publ_section_title
;
Structure prediction by ZEFSAII (Michael W. Deem and Ramdas Pophale) SiO2 
 PCOD8089363
Probable space group: C 2/M
;
_chemical_formula_sum "Si O2"
_cell_formula_units_Z 56
_cell_length_a 26.428850
_cell_length_b 9.315225
_cell_length_c 13.709905
_cell_angle_alpha 90.000000
_cell_angle_beta 62.606702
_cell_angle_gamma 90.000000
_cell_volume 2996.781342
_symmetry_space_group_name_H-M "C 2/M"
_symmetry_group_IT_number 12
_symmetry_cell_setting 'monoclinic'
loop_
_space_group_symop_operation_xyz
x,y,z
-x,y,-z
-x,-y,-z
x,-y,z
1/2+x,1/2+y,z
1/2-x,1/2+y,-z
1/2-x,1/2-y,-z
1/2+x,1/2-y,z
loop_
_atom_site_type_symbol
_atom_site_label
_atom_site_fract_x
_atom_site_fract_y
_atom_site_fract_z
Si Si1 0.871251 0.339058 0.279100
Si Si2 0.220800 0.331186 0.113605
Si Si3 0.414706 0.329374 0.532139
Si Si4 0.817148 0.659789 0.532231
Si Si5 0.406876 0.835351 0.731829
Si Si6 0.474142 0.834559 0.311897
Si Si7 0.713677 0.662617 0.751240
O O1 0.875266 0.500000 0.235850
O O2 0.827337 0.326513 0.408278
O O3 0.934684 0.284557 0.255265
O O4 0.845540 0.247090 0.212846
O O5 0.228034 0.500000 0.091643
O O6 0.154060 0.287244 0.171832
O O7 0.250500 0.279972 0.187811
O O8 0.250000 0.250000 0.000000
O O9 0.420819 0.500000 0.526639
O O10 0.351348 0.282533 0.558493
O O11 0.426851 0.268565 0.628097
O O12 0.459888 0.262005 0.417753
O O13 0.836512 0.500000 0.550767
O O14 0.751296 0.680147 0.619604
O O15 0.457692 0.821588 0.768258
O O16 0.402810 0.000000 0.698199
O O17 0.456977 0.000000 0.350105
O O18 0.695659 0.500000 0.786001
#
# Coordination Sequence:
#
# PCOD8089363 Si02
#       7
#     8   8   8   8   8   8   8
#     4   9  18  30  48  77 107 136 173 212 250 300
#     4  10  22  39  59  81 102 129 173 224 272 317
#     4  11  20  28  45  77 112 140 173 216 260 304
#     4   9  17  32  49  69 104 144 182 212 246 308
#     4  10  19  36  57  72  98 141 179 213 260 314
#     4   9  19  34  52  73 103 145 182 208 245 308
#     4  10  19  33  53  74 102 138 173 212 262 315
#
# _framework density 18.686716000000001
#
# number of rings (size 3 to 8) (size 9 to 14) (size 15 to 20)
#    0.000    2.286    1.429    3.000    0.000    6.286 
#    0.000    0.000    0.000    0.857    0.000    6.000 
#    0.000    0.000    0.000    0.000    0.000    0.000 
#
# Total GULP energy -346982.629029 kJ/mol
# GULP energy per Si atom -12392.236751 kJ/mol
# Density = 1.864418 g / cm^3
# Si number density = 18.686716 Si / 1000 Ang^3
#
#
#
# Elastic Constant Matrix: (Units=GPa)
#
#
# Indices 1 2 3 4 5 6 
#
# 1 163.2755 53.6619 53.6821 0.0000 -15.6623 0.0000
# 2 53.6619 75.0906 25.4815 0.0000 -4.0245 0.0000
# 3 53.6821 25.4815 43.6015 0.0000 -5.5701 0.0000
# 4 0.0000 0.0000 0.0000 22.6357 0.0000 3.9103
# 5 -15.6623 -4.0245 -5.5701 0.0000 13.7368 0.0000
# 6 0.0000 0.0000 0.0000 3.9103 0.0000 28.3647
#
#
#
# Elastic Compliance Matrix: (Units=1/GPa)
#
#
# Indices 1 2 3 4 5 6 
#
# 1 0.011997 -0.004342 -0.011230 0.000000 0.007853 0.000000
# 2 -0.004342 0.018195 -0.005526 0.000000 -0.001860 0.000000
# 3 -0.011230 -0.005526 0.040233 0.000000 0.001890 0.000000
# 4 0.000000 0.000000 0.000000 0.045256 0.000000 -0.006239
# 5 0.007853 -0.001860 0.001890 0.000000 0.081973 0.000000
# 6 0.000000 0.000000 0.000000 -0.006239 0.000000 0.036115
#
#
# Mechanical properties :
#
#
# Convention : Reuss Voigt Hill
#
# Bulk Modulus (GPa) = 35.42396 60.84650 48.13523
# Shear Modulus (GPa) = 17.52083 22.89023 20.20553
#
# Velocity S-wave (km/s) = 3.06536 3.50372 3.29185
# Velocity P-wave (km/s) = 5.61485 7.00001 6.34534
#
# Compressibility (1/GPa) = 0.02822948
#
# Stress axis : x y z
#
# Youngs Moduli (GPa) = 83.35270 54.95886 24.85541
#
# Poissons Ratio (x) = 0.23862 0.27913
# Poissons Ratio (y) = 0.36189 0.13735
# Poissons Ratio (z) = 0.93608 0.30370
#
# Static dielectric constant tensor:
#      x y z
#    x 3.624930 0.000000 -0.092340 
#    y 0.000000 3.335730 0.000000 
#    z -0.092340 0.000000 2.945100 
# 
# 
# High freq. dielectric constant tensor:
#      x y z
#    x 1.742260 0.000000 -0.007580 
#    y 0.000000 1.715800 0.000000 
#    z -0.007580 0.000000 1.667660 
# 
# From -- ./inp_files/243264.got.cif
#   From: 2010.06.25/outbox.cif.g09.slc.cpg/sg12_122_cif.got.tgz:243264.got - 2010.06.28 00:19:55.
