data_PCOD8089340
_publ_section_title
;
Structure prediction by ZEFSAII (Michael W. Deem and Ramdas Pophale) SiO2 
 PCOD8089340
Probable space group: C 2/M
;
_chemical_formula_sum "Si O2"
_cell_formula_units_Z 64
_cell_length_a 11.912255
_cell_length_b 17.732771
_cell_length_c 19.713937
_cell_angle_alpha 90.000000
_cell_angle_beta 49.975121
_cell_angle_gamma 90.000000
_cell_volume 3188.890534
_symmetry_space_group_name_H-M "C 2/M"
_symmetry_group_IT_number 12
_symmetry_cell_setting 'monoclinic'
loop_
_space_group_symop_operation_xyz
x,y,z
-x,y,-z
-x,-y,-z
x,-y,z
1/2+x,1/2+y,z
1/2-x,1/2+y,-z
1/2-x,1/2-y,-z
1/2+x,1/2-y,z
loop_
_atom_site_type_symbol
_atom_site_label
_atom_site_fract_x
_atom_site_fract_y
_atom_site_fract_z
Si Si1 0.764292 0.163120 0.511142
Si Si2 0.979545 0.411086 0.583565
Si Si3 0.735497 0.589350 0.779839
Si Si4 0.736562 0.412044 0.355308
Si Si5 0.997561 0.912681 0.667792
Si Si6 0.882991 0.409938 0.990110
Si Si7 0.556821 0.089565 0.183653
Si Si8 0.433178 0.589869 0.842502
O O1 0.750000 0.250000 0.500000
O O2 0.605591 0.125300 0.579573
O O3 0.831126 0.141156 0.558883
O O4 0.857786 0.128326 0.414242
O O5 0.000909 0.500000 0.576577
O O6 0.000000 0.378467 0.500000
O O7 0.824666 0.387421 0.676966
O O8 0.734710 0.500000 0.785870
O O9 0.814870 0.621780 0.816567
O O10 0.568422 0.619135 0.837094
O O11 0.729678 0.500000 0.380273
O O12 0.639954 0.397626 0.326725
O O13 0.899957 0.385461 0.273142
O O14 0.956339 0.880003 0.757328
O O15 0.038659 0.000000 0.656744
O O16 0.884122 0.500000 0.990322
O O17 0.720877 0.378452 0.070260
O O18 0.923187 0.378166 0.900055
O O19 0.000000 0.379642 0.000000
O O20 0.565190 0.000000 0.177847
O O21 0.429306 0.500000 0.843812
#
# Coordination Sequence:
#
# PCOD8089340 Si02
#       8
#     8   8   8   8   8   8   8   8
#     4  12  24  35  50  76 109 140 174 223 276 324
#     4  10  19  33  53  72  97 138 183 221 259 313
#     4   9  16  27  44  68 100 135 176 219 259 317
#     4  10  19  35  57  78 105 140 183 226 265 323
#     4  10  20  35  56  78 104 142 183 225 269 319
#     4   9  16  26  42  70 107 140 171 213 270 327
#     4   9  16  27  47  73 103 139 174 215 269 321
#     4   9  17  29  46  73 106 136 173 218 268 321
#
# _framework density 20.069675
#
# number of rings (size 3 to 8) (size 9 to 14) (size 15 to 20)
#    0.000    2.250    1.250    3.000    0.000    7.500 
#    0.000    2.500    0.000    0.000    0.000    0.875 
#    0.000    0.250    0.000    0.000    0.000    0.000 
#
# Total GULP energy -396688.651815 kJ/mol
# GULP energy per Si atom -12396.520369 kJ/mol
# Density = 2.002400 g / cm^3
# Si number density = 20.069675 Si / 1000 Ang^3
#
#
#
# Elastic Constant Matrix: (Units=GPa)
#
#
# Indices 1 2 3 4 5 6 
#
# 1 123.4842 21.0109 49.7047 0.0002 -1.2274 -0.0001
# 2 21.0109 23.4208 25.8162 0.0003 2.6419 -0.0002
# 3 49.7047 25.8162 121.6569 0.0014 3.9534 -0.0006
# 4 0.0002 0.0003 0.0014 1.8847 -0.0005 0.8693
# 5 -1.2274 2.6419 3.9534 -0.0005 44.9901 0.0002
# 6 -0.0001 -0.0002 -0.0006 0.8693 0.0002 3.8765
#
#
#
# Elastic Compliance Matrix: (Units=1/GPa)
#
#
# Indices 1 2 3 4 5 6 
#
# 1 0.010337 -0.006119 -0.002954 0.000003 0.000901 -0.000001
# 2 -0.006119 0.059582 -0.010053 -0.000003 -0.002782 0.000002
# 3 -0.002954 -0.010053 0.011577 -0.000008 -0.000508 0.000003
# 4 0.000003 -0.000003 -0.000008 0.591788 0.000009 -0.132711
# 5 0.000901 -0.002782 -0.000508 0.000009 0.022460 -0.000003
# 6 -0.000001 0.000002 0.000003 -0.132711 -0.000003 0.287727
#
#
# Mechanical properties :
#
#
# Convention : Reuss Voigt Hill
#
# Bulk Modulus (GPa) = 23.12513 51.29169 37.20841
# Shear Modulus (GPa) = 4.82561 21.61895 13.22228
#
# Velocity S-wave (km/s) = 1.55230 3.28562 2.56953
# Velocity P-wave (km/s) = 3.84191 6.32504 5.23289
#
# Compressibility (1/GPa) = 0.04324301
#
# Stress axis : x y z
#
# Youngs Moduli (GPa) = 96.73556 16.78372 86.38052
#
# Poissons Ratio (x) = 0.10270 0.25520
# Poissons Ratio (y) = 0.59192 0.86839
# Poissons Ratio (z) = 0.28579 0.16873
#
# Static dielectric constant tensor:
#      x y z
#    x 4.029510 0.000000 0.052840 
#    y 0.000000 2.889560 0.000000 
#    z 0.052840 0.000000 3.867200 
# 
# 
# High freq. dielectric constant tensor:
#      x y z
#    x 1.803130 0.000000 0.001140 
#    y 0.000000 1.700130 0.000000 
#    z 0.001140 0.000000 1.791900 
# 
# From -- ./inp_files/306170.got.cif
#   From: 2010.06.25/outbox.cif.g09.slc.cpg/sg12_154_cif.got.tgz:306170.got - 2010.06.28 00:19:55.
