data_PCOD8089775
_publ_section_title
;
Structure prediction by ZEFSAII (Michael W. Deem and Ramdas Pophale) SiO2 
 PCOD8089775
Probable space group: C 2/M
;
_chemical_formula_sum "Si O2"
_cell_formula_units_Z 64
_cell_length_a 29.519279
_cell_length_b 9.087721
_cell_length_c 15.109420
_cell_angle_alpha 90.000000
_cell_angle_beta 120.493214
_cell_angle_gamma 90.000000
_cell_volume 3492.683301
_symmetry_space_group_name_H-M "C 2/M"
_symmetry_group_IT_number 12
_symmetry_cell_setting 'monoclinic'
loop_
_space_group_symop_operation_xyz
x,y,z
-x,y,-z
-x,-y,-z
x,-y,z
1/2+x,1/2+y,z
1/2-x,1/2+y,-z
1/2-x,1/2-y,-z
1/2+x,1/2-y,z
loop_
_atom_site_type_symbol
_atom_site_label
_atom_site_fract_x
_atom_site_fract_y
_atom_site_fract_z
Si Si1 0.468767 0.325381 0.224580
Si Si2 0.111669 0.170586 0.001606
Si Si3 0.770318 0.830391 0.934408
Si Si4 0.637751 0.326424 0.552415
Si Si5 0.448247 0.675395 0.398745
Si Si6 0.911616 0.174913 0.677860
Si Si7 0.253399 0.670903 0.262851
Si Si8 0.862905 0.327866 0.798045
O O1 0.465805 0.500000 0.224439
O O2 0.432099 0.266652 0.109021
O O3 0.448150 0.262497 0.298281
O O4 0.528082 0.273025 0.266209
O O5 0.102118 0.000000 0.015977
O O6 0.167459 0.193646 0.010185
O O7 0.107487 0.263617 0.087098
O O8 0.741239 0.763339 0.821000
O O9 0.755079 0.000000 0.925664
O O10 0.750000 0.750000 0.000000
O O11 0.630275 0.500000 0.542947
O O12 0.602638 0.264215 0.598861
O O13 0.617490 0.264386 0.438742
O O14 0.698531 0.281840 0.625983
O O15 0.500000 0.733393 0.500000
O O16 0.448673 0.500000 0.396777
O O17 0.884064 0.248948 0.733051
O O18 0.906992 0.000000 0.682497
O O19 0.256997 0.500000 0.240209
O O20 0.199265 0.706360 0.259274
O O21 0.874591 0.500000 0.804618
#
# Coordination Sequence:
#
# PCOD8089775 Si02
#       8
#     8   8   8   8   8   8   8   8
#     4   9  17  29  49  80 108 130 164 212 261 303
#     4   9  19  35  54  76 101 133 173 215 258 302
#     4  10  20  33  51  76 105 137 173 211 255 304
#     4   9  17  29  50  79 107 134 167 208 257 306
#     4   9  14  24  45  76 110 133 156 204 262 306
#     4  10  19  33  54  80 105 131 169 216 261 306
#     4   9  19  35  53  74 102 136 175 214 253 300
#     4  10  21  37  53  71 101 139 175 215 260 304
#
# _framework density 18.324020999999998
#
# number of rings (size 3 to 8) (size 9 to 14) (size 15 to 20)
#    0.000    2.625    1.250    0.750    1.750    2.000 
#    0.000    3.750    0.000    0.000    0.000    0.875 
#    0.000    0.000    0.000    0.000    0.000    0.000 
#
# Total GULP energy -396784.148820 kJ/mol
# GULP energy per Si atom -12399.504651 kJ/mol
# Density = 1.828231 g / cm^3
# Si number density = 18.324021 Si / 1000 Ang^3
#
#
#
# Elastic Constant Matrix: (Units=GPa)
#
#
# Indices 1 2 3 4 5 6 
#
# 1 121.3899 39.9959 99.8582 0.0000 -18.5329 0.0000
# 2 39.9959 46.5380 44.1531 0.0000 -8.5293 0.0000
# 3 99.8582 44.1531 177.7302 0.0000 3.3076 0.0000
# 4 0.0000 0.0000 0.0000 17.0130 0.0000 -2.7997
# 5 -18.5329 -8.5293 3.3076 0.0000 36.0421 0.0000
# 6 0.0000 0.0000 0.0000 -2.7997 0.0000 22.8954
#
#
#
# Elastic Compliance Matrix: (Units=1/GPa)
#
#
# Indices 1 2 3 4 5 6 
#
# 1 0.019694 -0.005877 -0.009784 0.000000 0.009634 0.000000
# 2 -0.005877 0.031930 -0.004723 0.000000 0.004968 0.000000
# 3 -0.009784 -0.004723 0.012433 0.000000 -0.007290 0.000000
# 4 0.000000 0.000000 0.000000 0.059986 0.000000 0.007335
# 5 0.009634 0.004968 -0.007290 0.000000 0.034544 0.000000
# 6 0.000000 0.000000 0.000000 0.007335 0.000000 0.044574
#
#
# Mechanical properties :
#
#
# Convention : Reuss Voigt Hill
#
# Bulk Modulus (GPa) = 42.93970 79.29694 61.11832
# Shear Modulus (GPa) = 19.86567 25.96681 22.91624
#
# Velocity S-wave (km/s) = 3.29619 3.76851 3.54024
# Velocity P-wave (km/s) = 6.16205 7.89331 7.08079
#
# Compressibility (1/GPa) = 0.02328847
#
# Stress axis : x y z
#
# Youngs Moduli (GPa) = 50.77699 31.31883 80.43219
#
# Poissons Ratio (x) = 0.18406 0.78698
# Poissons Ratio (y) = 0.29841 0.37986
# Poissons Ratio (z) = 0.49682 0.14791
#
# Static dielectric constant tensor:
#      x y z
#    x 3.467090 0.000000 -0.012420 
#    y 0.000000 3.015730 0.000000 
#    z -0.012420 0.000000 3.825900 
# 
# 
# High freq. dielectric constant tensor:
#      x y z
#    x 1.716030 0.000000 -0.000610 
#    y 0.000000 1.667030 0.000000 
#    z -0.000610 0.000000 1.721730 
# 
# From -- ./inp_files/249236.got.cif
#   From: 2010.06.25/outbox.cif.g09.slc.cpg/sg12_125_cif.got.tgz:249236.got - 2010.06.28 00:19:55.
