data_PCOD8089238
_publ_section_title
;
Structure prediction by ZEFSAII (Michael W. Deem and Ramdas Pophale) SiO2 
 PCOD8089238
Probable space group: C 2/M
;
_chemical_formula_sum "Si O2"
_cell_formula_units_Z 56
_cell_length_a 17.519102
_cell_length_b 15.080139
_cell_length_c 13.029988
_cell_angle_alpha 90.000000
_cell_angle_beta 126.766272
_cell_angle_gamma 90.000000
_cell_volume 2757.650232
_symmetry_space_group_name_H-M "C 2/M"
_symmetry_group_IT_number 12
_symmetry_cell_setting 'monoclinic'
loop_
_space_group_symop_operation_xyz
x,y,z
-x,y,-z
-x,-y,-z
x,-y,z
1/2+x,1/2+y,z
1/2-x,1/2+y,-z
1/2-x,1/2-y,-z
1/2+x,1/2-y,z
loop_
_atom_site_type_symbol
_atom_site_label
_atom_site_fract_x
_atom_site_fract_y
_atom_site_fract_z
Si Si1 0.939036 0.281969 0.044517
Si Si2 0.714042 0.099186 0.991696
Si Si3 0.410018 0.404453 0.068850
Si Si4 0.377851 0.101513 0.298007
Si Si5 0.702916 0.101262 0.548722
Si Si6 0.539553 0.784997 0.345529
Si Si7 0.414244 0.596599 0.646776
O O1 0.840390 0.335738 0.974705
O O2 0.911998 0.179833 0.994699
O O3 0.998412 0.288168 0.197258
O O4 0.000000 0.322201 0.000000
O O5 0.688349 0.119338 0.853016
O O6 0.683905 0.000000 0.998955
O O7 0.828342 0.112718 0.090367
O O8 0.387401 0.500000 0.994623
O O9 0.511935 0.413362 0.202065
O O10 0.316200 0.125212 0.347971
O O11 0.469813 0.165371 0.368527
O O12 0.414676 0.000000 0.329975
O O13 0.640055 0.163994 0.424974
O O14 0.812905 0.119225 0.614902
O O15 0.675033 0.000000 0.502386
O O16 0.554639 0.682460 0.395448
O O17 0.411258 0.500000 0.585174
#
# Coordination Sequence:
#
# PCOD8089238 Si02
#       7
#     8   8   8   8   8   8   8
#     4  10  21  34  50  77 107 132 165 208 249 297
#     4   9  18  33  53  76 104 136 166 201 247 298
#     4   9  18  34  54  74 100 135 171 207 250 295
#     4   9  18  32  53  82 105 123 160 212 259 300
#     4  10  19  33  55  79 101 126 163 214 261 297
#     4  10  19  33  52  75 103 135 165 201 255 305
#     4   9  19  34  51  74 104 136 170 205 243 295
#
# _framework density 20.307144999999998
#
# number of rings (size 3 to 8) (size 9 to 14) (size 15 to 20)
#    0.000    2.571    0.000    1.714    0.000    4.571 
#    0.000    4.286    0.000    1.714    0.000   14.000 
#    0.000    0.000    0.000    0.000    0.000    0.000 
#
# Total GULP energy -346972.551446 kJ/mol
# GULP energy per Si atom -12391.876837 kJ/mol
# Density = 2.026092 g / cm^3
# Si number density = 20.307145 Si / 1000 Ang^3
#
#
#
# Elastic Constant Matrix: (Units=GPa)
#
#
# Indices 1 2 3 4 5 6 
#
# 1 82.5797 40.3761 24.9137 0.0000 18.8421 0.0000
# 2 40.3761 124.6217 22.7842 0.0000 10.0523 0.0000
# 3 24.9137 22.7842 35.2758 0.0000 17.8908 0.0000
# 4 0.0000 0.0000 0.0000 12.4480 0.0000 8.0594
# 5 18.8421 10.0523 17.8908 0.0000 33.2346 0.0000
# 6 0.0000 0.0000 0.0000 8.0594 0.0000 26.6304
#
#
#
# Elastic Compliance Matrix: (Units=1/GPa)
#
#
# Indices 1 2 3 4 5 6 
#
# 1 0.017287 -0.003884 -0.007326 0.000000 -0.004682 0.000000
# 2 -0.003884 0.009979 -0.004523 0.000000 0.001619 0.000000
# 3 -0.007326 -0.004523 0.046278 0.000000 -0.019391 0.000000
# 4 0.000000 0.000000 0.000000 0.099911 0.000000 -0.030237
# 5 -0.004682 0.001619 -0.019391 0.000000 0.042693 0.000000
# 6 0.000000 0.000000 0.000000 -0.030237 0.000000 0.046702
#
#
# Mechanical properties :
#
#
# Convention : Reuss Voigt Hill
#
# Bulk Modulus (GPa) = 23.76518 46.51391 35.13955
# Shear Modulus (GPa) = 16.21580 24.75614 20.48597
#
# Velocity S-wave (km/s) = 2.82889 3.49533 3.17962
# Velocity P-wave (km/s) = 4.73270 6.26456 5.55172
#
# Compressibility (1/GPa) = 0.04207837
#
# Stress axis : x y z
#
# Youngs Moduli (GPa) = 57.84726 100.21047 21.60858
#
# Poissons Ratio (x) = 0.38919 0.15830
# Poissons Ratio (y) = 0.22466 0.09774
# Poissons Ratio (z) = 0.42377 0.45328
#
# Static dielectric constant tensor:
#      x y z
#    x 3.593100 0.000000 0.389720 
#    y 0.000000 4.335930 0.000000 
#    z 0.389720 0.000000 3.377030 
# 
# 
# High freq. dielectric constant tensor:
#      x y z
#    x 1.780810 0.000000 0.040430 
#    y 0.000000 1.813550 0.000000 
#    z 0.040430 0.000000 1.758860 
# 
# From -- ./inp_files/225390.got.cif
#   From: 2010.06.25/outbox.cif.g09.slc.cpg/sg12_113_cif.got.tgz:225390.got - 2010.06.28 00:19:55.
