data_PCOD8089480
_publ_section_title
;
Structure prediction by ZEFSAII (Michael W. Deem and Ramdas Pophale) SiO2 
 PCOD8089480
Probable space group: C 2/M
;
_chemical_formula_sum "Si O2"
_cell_formula_units_Z 64
_cell_length_a 29.060799
_cell_length_b 9.174896
_cell_length_c 18.883731
_cell_angle_alpha 90.000000
_cell_angle_beta 40.805409
_cell_angle_gamma 90.000000
_cell_volume 3290.310055
_symmetry_space_group_name_H-M "C 2/M"
_symmetry_group_IT_number 12
_symmetry_cell_setting 'monoclinic'
loop_
_space_group_symop_operation_xyz
x,y,z
-x,y,-z
-x,-y,-z
x,-y,z
1/2+x,1/2+y,z
1/2-x,1/2+y,-z
1/2-x,1/2-y,-z
1/2+x,1/2-y,z
loop_
_atom_site_type_symbol
_atom_site_label
_atom_site_fract_x
_atom_site_fract_y
_atom_site_fract_z
Si Si1 0.104516 0.832848 0.615626
Si Si2 0.629002 0.337867 0.954591
Si Si3 0.551865 0.326932 0.179963
Si Si4 0.706876 0.668292 0.375355
Si Si5 0.787898 0.665545 0.777729
Si Si6 0.424661 0.165787 0.103045
Si Si7 0.315254 0.325515 0.884106
Si Si8 0.829113 0.333699 0.338346
O O1 0.132362 0.817311 0.503043
O O2 0.161406 0.757278 0.601252
O O3 0.025803 0.763563 0.711049
O O4 0.101847 0.000000 0.642766
O O5 0.605058 0.500000 0.961509
O O6 0.706742 0.338979 0.896391
O O7 0.632650 0.242292 0.879738
O O8 0.575180 0.270869 0.075014
O O9 0.549754 0.500000 0.182711
O O10 0.611133 0.276287 0.166246
O O11 0.722319 0.500000 0.336132
O O12 0.702005 0.767588 0.311930
O O13 0.767254 0.724724 0.359203
O O14 0.818168 0.500000 0.742460
O O15 0.824991 0.767151 0.792663
O O16 0.402810 0.181228 0.210010
O O17 0.426820 0.000000 0.075627
O O18 0.500000 0.240799 0.000000
O O19 0.304229 0.500000 0.897518
O O20 0.250000 0.250000 0.000000
O O21 0.812929 0.500000 0.378347
#
# Coordination Sequence:
#
# PCOD8089480 Si02
#       8
#     8   8   8   8   8   8   8   8
#     4  10  21  37  59  82 108 147 193 232 274 328
#     4  10  19  33  53  77 108 142 180 225 272 327
#     4   9  19  37  57  82 114 144 181 231 277 330
#     4  10  21  38  58  82 111 149 192 232 275 327
#     4  11  22  37  58  86 113 142 184 231 280 332
#     4  10  20  32  47  73 111 149 181 219 274 335
#     4  11  21  37  61  87 117 148 182 228 280 335
#     4  10  20  34  52  78 114 146 185 235 277 326
#
# _framework density 19.451053999999999
#
# number of rings (size 3 to 8) (size 9 to 14) (size 15 to 20)
#    0.000    1.875    2.500    1.875    0.000    2.250 
#    0.000    1.875    0.000    3.750    0.000    0.000 
#    0.000    0.000    0.000    0.000    0.000    0.000 
#
# Total GULP energy -396711.952440 kJ/mol
# GULP energy per Si atom -12397.248514 kJ/mol
# Density = 1.940678 g / cm^3
# Si number density = 19.451054 Si / 1000 Ang^3
#
#
#
# Elastic Constant Matrix: (Units=GPa)
#
#
# Indices 1 2 3 4 5 6 
#
# 1 91.3760 38.8861 27.6078 -0.0025 13.8562 0.0009
# 2 38.8861 72.7338 26.5201 0.0020 13.1157 0.0047
# 3 27.6078 26.5201 89.4251 -0.0017 6.0900 -0.0052
# 4 -0.0025 0.0020 -0.0017 24.6663 0.0012 5.2790
# 5 13.8562 13.1157 6.0900 0.0012 26.6415 0.0019
# 6 0.0009 0.0047 -0.0052 5.2790 0.0019 29.4615
#
#
#
# Elastic Compliance Matrix: (Units=1/GPa)
#
#
# Indices 1 2 3 4 5 6 
#
# 1 0.015034 -0.006399 -0.002464 0.000002 -0.004106 0.000000
# 2 -0.006399 0.019392 -0.003405 -0.000002 -0.005441 -0.000003
# 3 -0.002464 -0.003405 0.012953 0.000000 -0.000003 0.000003
# 4 0.000002 -0.000002 0.000000 0.042158 -0.000002 -0.007554
# 5 -0.004106 -0.005441 -0.000003 -0.000002 0.042350 -0.000001
# 6 0.000000 -0.000003 0.000003 -0.007554 -0.000001 0.035296
#
#
# Mechanical properties :
#
#
# Convention : Reuss Voigt Hill
#
# Bulk Modulus (GPa) = 43.77584 48.84030 46.30807
# Shear Modulus (GPa) = 25.08351 26.85527 25.96939
#
# Velocity S-wave (km/s) = 3.59496 3.71975 3.65789
# Velocity P-wave (km/s) = 6.30762 6.60398 6.45750
#
# Compressibility (1/GPa) = 0.02284365
#
# Stress axis : x y z
#
# Youngs Moduli (GPa) = 66.51602 51.56648 77.20042
#
# Poissons Ratio (x) = 0.32997 0.19023
# Poissons Ratio (y) = 0.42563 0.26287
# Poissons Ratio (z) = 0.16390 0.17559
#
# Static dielectric constant tensor:
#      x y z
#    x 3.509290 -0.000010 -0.135870 
#    y -0.000010 3.382520 0.000020 
#    z -0.135870 0.000020 3.669200 
# 
# 
# High freq. dielectric constant tensor:
#      x y z
#    x 1.747190 0.000000 0.002600 
#    y 0.000000 1.739980 0.000000 
#    z 0.002600 0.000000 1.762740 
# 
# From -- ./inp_files/295521.got.cif
#   From: 2010.06.25/outbox.cif.g09.slc.cpg/sg12_148_cif.got.tgz:295521.got - 2010.06.28 00:19:55.
