data_PCOD8089078
_publ_section_title
;
Structure prediction by ZEFSAII (Michael W. Deem and Ramdas Pophale) SiO2 
 PCOD8089078
Probable space group: C 2/M
;
_chemical_formula_sum "Si O2"
_cell_formula_units_Z 64
_cell_length_a 23.470680
_cell_length_b 9.538721
_cell_length_c 21.297827
_cell_angle_alpha 90.000000
_cell_angle_beta 124.629787
_cell_angle_gamma 90.000000
_cell_volume 3923.440412
_symmetry_space_group_name_H-M "C 2/M"
_symmetry_group_IT_number 12
_symmetry_cell_setting 'monoclinic'
loop_
_space_group_symop_operation_xyz
x,y,z
-x,y,-z
-x,-y,-z
x,-y,z
1/2+x,1/2+y,z
1/2-x,1/2+y,-z
1/2-x,1/2-y,-z
1/2+x,1/2-y,z
loop_
_atom_site_type_symbol
_atom_site_label
_atom_site_fract_x
_atom_site_fract_y
_atom_site_fract_z
Si Si1 0.421383 0.342487 0.214174
Si Si2 0.787594 0.841579 0.209626
Si Si3 0.215482 0.158819 0.067357
Si Si4 0.853624 0.341240 0.072739
Si Si5 0.805602 0.160997 0.498252
Si Si6 0.170905 0.842121 0.628526
Si Si7 0.048286 0.349764 0.586624
Si Si8 0.961221 0.841011 0.621826
O O1 0.406301 0.500000 0.179739
O O2 0.367055 0.310287 0.237335
O O3 0.411850 0.232622 0.151916
O O4 0.501548 0.332243 0.286739
O O5 0.734439 0.733616 0.144692
O O6 0.779428 0.822686 0.279771
O O7 0.767352 0.000000 0.177065
O O8 0.282005 0.155941 0.064884
O O9 0.189505 0.000000 0.063976
O O10 0.155429 0.249789 0.996209
O O11 0.877066 0.500000 0.070945
O O12 0.750000 0.250000 0.500000
O O13 0.792379 0.184264 0.415466
O O14 0.881789 0.210224 0.569937
O O15 0.794514 0.000000 0.509622
O O16 0.111754 0.729776 0.596267
O O17 0.139899 0.000000 0.609992
O O18 0.071448 0.500000 0.631729
O O19 0.000000 0.388766 0.500000
O O20 0.008287 0.256765 0.610271
O O21 0.964307 0.000000 0.597655
#
# Coordination Sequence:
#
# PCOD8089078 Si02
#       8
#     8   8   8   8   8   8   8   8
#     4   9  16  26  42  64  88 116 152 191 227 268
#     4   9  16  26  42  64  88 116 152 191 227 268
#     4   9  16  25  37  55  84 122 157 186 218 262
#     4   9  16  25  37  55  84 122 157 186 218 262
#     4  10  22  37  54  69  89 122 162 200 239 282
#     4  10  19  33  51  68  90 125 161 193 232 288
#     4  11  21  29  43  71  98 119 146 193 243 279
#     4  10  19  33  51  68  90 125 161 193 232 288
#
# _framework density 16.312214999999998
#
# number of rings (size 3 to 8) (size 9 to 14) (size 15 to 20)
#    0.000    2.375    2.500    1.125    0.000    5.500 
#    0.000    0.000    0.000    0.000    0.000    0.000 
#    0.000    1.000    0.000   11.500    0.000    4.000 
#
# Total GULP energy -396540.823922 kJ/mol
# GULP energy per Si atom -12391.900748 kJ/mol
# Density = 1.627509 g / cm^3
# Si number density = 16.312215 Si / 1000 Ang^3
#
#
#
# Elastic Constant Matrix: (Units=GPa)
#
#
# Indices 1 2 3 4 5 6 
#
# 1 47.8954 34.1007 27.0438 0.0000 -6.2089 0.0000
# 2 34.1007 108.3360 52.8466 0.0000 -9.2687 0.0000
# 3 27.0438 52.8466 109.3690 0.0000 -13.5542 0.0000
# 4 0.0000 0.0000 0.0000 26.6175 0.0000 -1.0054
# 5 -6.2089 -9.2687 -13.5542 0.0000 8.0533 0.0000
# 6 0.0000 0.0000 0.0000 -1.0054 0.0000 20.7131
#
#
#
# Elastic Compliance Matrix: (Units=1/GPa)
#
#
# Indices 1 2 3 4 5 6 
#
# 1 0.028475 -0.006911 -0.002485 0.000000 0.009817 0.000000
# 2 -0.006911 0.013926 -0.004668 0.000000 0.002844 0.000000
# 3 -0.002485 -0.004668 0.014038 0.000000 0.016339 0.000000
# 4 0.000000 0.000000 0.000000 0.037638 0.000000 0.001827
# 5 0.009817 0.002844 0.016339 0.000000 0.162515 0.000000
# 6 0.000000 0.000000 0.000000 0.001827 0.000000 0.048367
#
#
# Mechanical properties :
#
#
# Convention : Reuss Voigt Hill
#
# Bulk Modulus (GPa) = 35.32082 54.84252 45.08167
# Shear Modulus (GPa) = 14.59750 21.18407 17.89079
#
# Velocity S-wave (km/s) = 2.99470 3.60761 3.31535
# Velocity P-wave (km/s) = 5.80152 7.14469 6.50785
#
# Compressibility (1/GPa) = 0.02831191
#
# Stress axis : x y z
#
# Youngs Moduli (GPa) = 35.11840 71.80756 71.23411
#
# Poissons Ratio (x) = 0.49626 0.17702
# Poissons Ratio (y) = 0.24270 0.33250
# Poissons Ratio (z) = 0.08727 0.33518
#
# Static dielectric constant tensor:
#      x y z
#    x 2.511530 0.000000 -0.065850 
#    y 0.000000 3.104020 0.000000 
#    z -0.065850 0.000000 3.244570 
# 
# 
# High freq. dielectric constant tensor:
#      x y z
#    x 1.549130 0.000000 -0.011200 
#    y 0.000000 1.645130 0.000000 
#    z -0.011200 0.000000 1.635730 
# 
# From -- ./inp_files/348595.got.cif
#   From: 2010.06.25/outbox.cif.g09.slc.cpg/sg12_175_cif.got.tgz:348595.got - 2010.06.28 00:19:55.
