data_PCOD8089240
_publ_section_title
;
Structure prediction by ZEFSAII (Michael W. Deem and Ramdas Pophale) SiO2 
 PCOD8089240
Probable space group: C 2/M
;
_chemical_formula_sum "Si O2"
_cell_formula_units_Z 56
_cell_length_a 29.680544
_cell_length_b 8.802530
_cell_length_c 15.755077
_cell_angle_alpha 90.000000
_cell_angle_beta 134.048094
_cell_angle_gamma 90.000000
_cell_volume 2958.568688
_symmetry_space_group_name_H-M "C 2/M"
_symmetry_group_IT_number 12
_symmetry_cell_setting 'monoclinic'
loop_
_space_group_symop_operation_xyz
x,y,z
-x,y,-z
-x,-y,-z
x,-y,z
1/2+x,1/2+y,z
1/2-x,1/2+y,-z
1/2-x,1/2-y,-z
1/2+x,1/2-y,z
loop_
_atom_site_type_symbol
_atom_site_label
_atom_site_fract_x
_atom_site_fract_y
_atom_site_fract_z
Si Si1 0.891457 0.680680 0.606658
Si Si2 0.341276 0.176137 0.098185
Si Si3 0.759060 0.676627 0.148094
Si Si4 0.439521 0.819175 0.970298
Si Si5 0.710875 0.321026 0.634781
Si Si6 0.664963 0.819831 0.290737
Si Si7 0.031167 0.678331 0.807291
O O1 0.889893 0.500000 0.601665
O O2 0.854172 0.743591 0.476904
O O3 0.858815 0.743973 0.649968
O O4 0.962806 0.744807 0.693682
O O5 0.316593 0.213069 0.159749
O O6 0.415664 0.215852 0.193331
O O7 0.329824 0.000000 0.059892
O O8 0.305590 0.274919 0.980971
O O9 0.756046 0.500000 0.167498
O O10 0.769947 0.772875 0.246203
O O11 0.378553 0.754670 0.842058
O O12 0.437186 0.000000 0.968669
O O13 0.500000 0.760090 0.000000
O O14 0.443456 0.753459 0.070638
O O15 0.702450 0.500000 0.622397
O O16 0.764265 0.268141 0.637395
O O17 0.659276 0.000000 0.285025
O O18 0.021621 0.500000 0.806239
#
# Coordination Sequence:
#
# PCOD8089240 Si02
#       7
#     8   8   8   8   8   8   8
#     4  10  19  33  52  75 103 135 174 214 253 301
#     4   9  18  34  57  83 106 129 161 207 260 308
#     4  10  20  35  55  79 105 132 167 210 255 303
#     4   9  13  21  41  72 103 125 152 196 246 296
#     4  11  22  35  51  72 102 139 177 214 254 298
#     4   9  17  29  48  75 102 132 169 211 256 302
#     4   9  16  28  50  78 106 134 165 205 254 304
#
# _framework density 18.928070999999999
#
# number of rings (size 3 to 8) (size 9 to 14) (size 15 to 20)
#    0.000    2.429    1.429    2.143    0.000    2.857 
#    0.000    2.143    0.000    4.286    0.000    2.000 
#    0.000    0.000    0.000    0.000    0.000    0.000 
#
# Total GULP energy -347112.783784 kJ/mol
# GULP energy per Si atom -12396.885135 kJ/mol
# Density = 1.888499 g / cm^3
# Si number density = 18.928071 Si / 1000 Ang^3
#
#
#
# Elastic Constant Matrix: (Units=GPa)
#
#
# Indices 1 2 3 4 5 6 
#
# 1 123.5893 24.6478 45.0071 0.0000 15.3320 0.0000
# 2 24.6478 25.4193 18.1499 0.0000 4.4567 0.0000
# 3 45.0071 18.1499 84.9957 0.0000 16.5330 0.0000
# 4 0.0000 0.0000 0.0000 22.3563 0.0000 -0.2387
# 5 15.3320 4.4567 16.5330 0.0000 27.6456 0.0000
# 6 0.0000 0.0000 0.0000 -0.2387 0.0000 17.8025
#
#
#
# Elastic Compliance Matrix: (Units=1/GPa)
#
#
# Indices 1 2 3 4 5 6 
#
# 1 0.011387 -0.007829 -0.003819 0.000000 -0.002769 0.000000
# 2 -0.007829 0.051876 -0.006959 0.000000 0.000141 0.000000
# 3 -0.003819 -0.006959 0.016571 0.000000 -0.006670 0.000000
# 4 0.000000 0.000000 0.000000 0.044737 0.000000 0.000600
# 5 -0.002769 0.000141 -0.006670 0.000000 0.041674 0.000000
# 6 0.000000 0.000000 0.000000 0.000600 0.000000 0.056180
#
#
# Mechanical properties :
#
#
# Convention : Reuss Voigt Hill
#
# Bulk Modulus (GPa) = 23.46371 45.51267 34.48819
# Shear Modulus (GPa) = 18.25844 23.30751 20.78298
#
# Velocity S-wave (km/s) = 3.10921 3.51290 3.31720
# Velocity P-wave (km/s) = 5.03117 6.36798 5.73864
#
# Compressibility (1/GPa) = 0.04261901
#
# Stress axis : x y z
#
# Youngs Moduli (GPa) = 87.81929 19.27680 60.34553
#
# Poissons Ratio (x) = 0.15092 0.23048
# Poissons Ratio (y) = 0.68753 0.41997
# Poissons Ratio (z) = 0.33541 0.13415
#
# Static dielectric constant tensor:
#      x y z
#    x 3.687740 0.000000 0.124220 
#    y 0.000000 2.995040 0.000000 
#    z 0.124220 0.000000 3.482270 
# 
# 
# High freq. dielectric constant tensor:
#      x y z
#    x 1.742780 0.000000 0.007780 
#    y 0.000000 1.688140 0.000000 
#    z 0.007780 0.000000 1.732510 
# 
# From -- ./inp_files/237875.got.cif
#   From: 2010.06.25/outbox.cif.g09.slc.cpg/sg12_119_cif.got.tgz:237875.got - 2010.06.28 00:19:55.
