data_PCOD8089158
_publ_section_title
;
Structure prediction by ZEFSAII (Michael W. Deem and Ramdas Pophale) SiO2 
 PCOD8089158
Probable space group: C 2/M
;
_chemical_formula_sum "Si O2"
_cell_formula_units_Z 56
_cell_length_a 26.913024
_cell_length_b 9.401267
_cell_length_c 14.020742
_cell_angle_alpha 90.000000
_cell_angle_beta 122.365922
_cell_angle_gamma 90.000000
_cell_volume 2996.365967
_symmetry_space_group_name_H-M "C 2/M"
_symmetry_group_IT_number 12
_symmetry_cell_setting 'monoclinic'
loop_
_space_group_symop_operation_xyz
x,y,z
-x,y,-z
-x,-y,-z
x,-y,z
1/2+x,1/2+y,z
1/2-x,1/2+y,-z
1/2-x,1/2-y,-z
1/2+x,1/2-y,z
loop_
_atom_site_type_symbol
_atom_site_label
_atom_site_fract_x
_atom_site_fract_y
_atom_site_fract_z
Si Si1 0.685795 0.340987 0.351866
Si Si2 0.622917 0.834992 0.446486
Si Si3 0.215817 0.666375 0.682129
Si Si4 0.068552 0.843084 0.131285
Si Si5 0.509115 0.833314 0.228313
Si Si6 0.726693 0.668999 0.067176
Si Si7 0.591659 0.662489 0.940604
O O1 0.697437 0.500000 0.403313
O O2 0.664937 0.245684 0.417134
O O3 0.743355 0.272543 0.361360
O O4 0.638118 0.345120 0.218486
O O5 0.647666 0.803535 0.579641
O O6 0.553903 0.793233 0.361992
O O7 0.630008 0.000000 0.428919
O O8 0.229691 0.500000 0.702201
O O9 0.233199 0.727876 0.803424
O O10 0.039856 0.717612 0.162644
O O11 0.042802 0.000000 0.133479
O O12 0.058958 0.815809 0.008968
O O13 0.446293 0.753965 0.175135
O O14 0.496743 0.000000 0.210621
O O15 0.733212 0.500000 0.059818
O O16 0.750000 0.750000 0.000000
O O17 0.658926 0.714544 0.013810
O O18 0.589870 0.500000 0.905435
#
# Coordination Sequence:
#
# PCOD8089158 Si02
#       7
#     8   8   8   8   8   8   8
#     4   9  15  26  46  71  98 131 169 202 234 286
#     4   9  18  30  45  70 104 137 164 195 238 290
#     4   9  16  31  53  71  95 131 166 201 246 299
#     4   9  16  28  46  69  97 133 173 202 231 287
#     4  10  20  30  43  71 107 136 164 199 239 285
#     4  10  21  38  58  79  98 122 164 215 263 303
#     4  10  19  33  52  70  94 131 170 204 242 296
#
# _framework density 18.689305999999998
#
# number of rings (size 3 to 8) (size 9 to 14) (size 15 to 20)
#    0.000    2.571    1.429    1.286    0.000    3.429 
#    0.000    1.429    0.000    0.857    0.000    6.000 
#    0.000    0.000    0.000    0.000    0.000    0.000 
#
# Total GULP energy -346913.200573 kJ/mol
# GULP energy per Si atom -12389.757163 kJ/mol
# Density = 1.864677 g / cm^3
# Si number density = 18.689306 Si / 1000 Ang^3
#
#
#
# Elastic Constant Matrix: (Units=GPa)
#
#
# Indices 1 2 3 4 5 6 
#
# 1 40.4558 25.0081 47.7118 0.0000 9.0241 0.0000
# 2 25.0081 49.3656 47.4572 0.0000 9.1087 0.0000
# 3 47.7118 47.4572 161.6922 0.0000 30.4208 0.0000
# 4 0.0000 0.0000 0.0000 22.6565 0.0000 2.7633
# 5 9.0241 9.1087 30.4208 0.0000 26.2546 0.0000
# 6 0.0000 0.0000 0.0000 2.7633 0.0000 24.7840
#
#
#
# Elastic Compliance Matrix: (Units=1/GPa)
#
#
# Indices 1 2 3 4 5 6 
#
# 1 0.043555 -0.013525 -0.008886 0.000000 0.000018 0.000000
# 2 -0.013525 0.032421 -0.005477 0.000000 -0.000253 0.000000
# 3 -0.008886 -0.005477 0.012125 0.000000 -0.009095 0.000000
# 4 0.000000 0.000000 0.000000 0.044746 0.000000 -0.004989
# 5 0.000018 -0.000253 -0.009095 0.000000 0.048708 0.000000
# 6 0.000000 0.000000 0.000000 -0.004989 0.000000 0.040905
#
#
# Mechanical properties :
#
#
# Convention : Reuss Voigt Hill
#
# Bulk Modulus (GPa) = 30.93623 54.65198 42.79410
# Shear Modulus (GPa) = 17.30042 23.49478 20.39760
#
# Velocity S-wave (km/s) = 3.04581 3.54944 3.30723
# Velocity P-wave (km/s) = 5.38127 6.78999 6.12626
#
# Compressibility (1/GPa) = 0.03232456
#
# Stress axis : x y z
#
# Youngs Moduli (GPa) = 22.95973 30.84445 82.47319
#
# Poissons Ratio (x) = 0.41718 0.73282
# Poissons Ratio (y) = 0.31054 0.45170
# Poissons Ratio (z) = 0.20401 0.16893
#
# Static dielectric constant tensor:
#      x y z
#    x 3.142680 0.000000 0.472830 
#    y 0.000000 3.250280 0.000000 
#    z 0.472830 0.000000 3.891310 
# 
# 
# High freq. dielectric constant tensor:
#      x y z
#    x 1.685370 0.000000 0.040610 
#    y 0.000000 1.703970 0.000000 
#    z 0.040610 0.000000 1.740710 
# 
# From -- ./inp_files/244292.got.cif
#   From: 2010.06.25/outbox.cif.g09.slc.cpg/sg12_123_cif.got.tgz:244292.got - 2010.06.28 00:19:55.
