data_PCOD8089042
_publ_section_title
;
Structure prediction by ZEFSAII (Michael W. Deem and Ramdas Pophale) SiO2 
 PCOD8089042
Probable space group: C 2/M
;
_chemical_formula_sum "Si O2"
_cell_formula_units_Z 64
_cell_length_a 10.072735
_cell_length_b 19.792917
_cell_length_c 19.521718
_cell_angle_alpha 90.000000
_cell_angle_beta 97.507455
_cell_angle_gamma 90.000000
_cell_volume 3858.658727
_symmetry_space_group_name_H-M "C 2/M"
_symmetry_group_IT_number 12
_symmetry_cell_setting 'monoclinic'
loop_
_space_group_symop_operation_xyz
x,y,z
-x,y,-z
-x,-y,-z
x,-y,z
1/2+x,1/2+y,z
1/2-x,1/2+y,-z
1/2-x,1/2-y,-z
1/2+x,1/2-y,z
loop_
_atom_site_type_symbol
_atom_site_label
_atom_site_fract_x
_atom_site_fract_y
_atom_site_fract_z
Si Si1 0.112763 0.926132 0.818266
Si Si2 0.366578 0.311320 0.079133
Si Si3 0.366634 0.325859 0.451786
Si Si4 0.863412 0.329415 0.455564
Si Si5 0.826592 0.188289 0.920484
Si Si6 0.297761 0.425850 0.816804
Si Si7 0.073072 0.078560 0.662880
Si Si8 0.764983 0.921344 0.661851
O O1 0.176452 0.872135 0.873976
O O2 0.955537 0.930270 0.818779
O O3 0.139917 0.906590 0.741180
O O4 0.175547 0.000000 0.838317
O O5 0.274742 0.249669 0.096255
O O6 0.524310 0.292329 0.096335
O O7 0.333332 0.334318 0.999859
O O8 0.500000 0.346937 0.500000
O O9 0.246354 0.340407 0.494227
O O10 0.369469 0.247643 0.428991
O O11 0.349311 0.373520 0.384746
O O12 0.836927 0.376777 0.388885
O O13 0.000000 0.351973 0.500000
O O14 0.761188 0.127347 0.873170
O O15 0.243416 0.500000 0.834880
O O16 0.235055 0.404583 0.739493
O O17 0.916725 0.098207 0.652878
O O18 0.091249 0.000000 0.643970
O O19 0.739302 0.000000 0.645050
#
# Coordination Sequence:
#
# PCOD8089042 Si02
#       8
#     8   8   8   8   8   8   8   8
#     4   8  15  28  46  71  97 119 152 199 239 267
#     4   9  17  29  47  71  99 127 155 190 231 274
#     4  10  19  33  50  69  93 121 156 193 228 278
#     4  10  21  33  47  70  98 124 150 189 238 281
#     4   9  17  29  47  72  98 125 157 192 229 273
#     4   8  15  28  47  70  94 121 157 196 231 272
#     4   9  17  30  51  73  90 117 160 200 230 270
#     4   9  17  31  50  70  93 122 155 193 235 279
#
# _framework density 16.586074
#
# number of rings (size 3 to 8) (size 9 to 14) (size 15 to 20)
#    0.000    3.000    1.250    1.500    0.000    2.500 
#    0.000    2.500    2.750    0.750    0.000    3.500 
#    0.000    0.000    0.000    0.000    0.000    0.000 
#
# Total GULP energy -396697.859155 kJ/mol
# GULP energy per Si atom -12396.808099 kJ/mol
# Density = 1.654832 g / cm^3
# Si number density = 16.586074 Si / 1000 Ang^3
#
#
#
# Elastic Constant Matrix: (Units=GPa)
#
#
# Indices 1 2 3 4 5 6 
#
# 1 55.9334 38.3423 36.3707 0.0000 5.8639 0.0000
# 2 38.3423 116.9602 94.2220 0.0000 2.7395 0.0000
# 3 36.3707 94.2220 119.1809 0.0000 4.2415 0.0000
# 4 0.0000 0.0000 0.0000 33.6109 0.0000 -1.6880
# 5 5.8639 2.7395 4.2415 0.0000 18.4484 0.0000
# 6 0.0000 0.0000 0.0000 -1.6880 0.0000 23.6709
#
#
#
# Elastic Compliance Matrix: (Units=1/GPa)
#
#
# Indices 1 2 3 4 5 6 
#
# 1 0.024121 -0.005536 -0.002764 0.000000 -0.006210 0.000000
# 2 -0.005536 0.024828 -0.018018 0.000000 0.002215 0.000000
# 3 -0.002764 -0.018018 0.023545 0.000000 -0.001859 0.000000
# 4 0.000000 0.000000 0.000000 0.029859 0.000000 0.002129
# 5 -0.006210 0.002215 -0.001859 0.000000 0.056277 0.000000
# 6 0.000000 0.000000 0.000000 0.002129 0.000000 0.042398
#
#
# Mechanical properties :
#
#
# Convention : Reuss Voigt Hill
#
# Bulk Modulus (GPa) = 50.35438 69.99384 60.17411
# Shear Modulus (GPa) = 19.20992 23.35534 21.28263
#
# Velocity S-wave (km/s) = 3.40692 3.75658 3.58601
# Velocity P-wave (km/s) = 6.77506 7.81715 7.31469
#
# Compressibility (1/GPa) = 0.01985925
#
# Stress axis : x y z
#
# Youngs Moduli (GPa) = 41.45726 40.27760 42.47230
#
# Poissons Ratio (x) = 0.22296 0.11739
# Poissons Ratio (y) = 0.22949 0.76526
# Poissons Ratio (z) = 0.11458 0.72571
#
# Static dielectric constant tensor:
#      x y z
#    x 2.803740 0.000000 -0.004850 
#    y 0.000000 3.390480 0.000000 
#    z -0.004850 0.000000 3.212550 
# 
# 
# High freq. dielectric constant tensor:
#      x y z
#    x 1.604150 0.000000 -0.000820 
#    y 0.000000 1.639260 0.000000 
#    z -0.000820 0.000000 1.644400 
# 
# From -- ./inp_files/263949.got.cif
#   From: 2010.06.25/outbox.cif.g09.slc.cpg/sg12_132_cif.got.tgz:263949.got - 2010.06.28 00:19:55.
