data_PCOD8089047
_publ_section_title
;
Structure prediction by ZEFSAII (Michael W. Deem and Ramdas Pophale) SiO2 
 PCOD8089047
Probable space group: C 2/M
;
_chemical_formula_sum "Si O2"
_cell_formula_units_Z 64
_cell_length_a 20.539110
_cell_length_b 9.153198
_cell_length_c 25.225929
_cell_angle_alpha 90.000000
_cell_angle_beta 50.314157
_cell_angle_gamma 90.000000
_cell_volume 3649.577952
_symmetry_space_group_name_H-M "C 2/M"
_symmetry_group_IT_number 12
_symmetry_cell_setting 'monoclinic'
loop_
_space_group_symop_operation_xyz
x,y,z
-x,y,-z
-x,-y,-z
x,-y,z
1/2+x,1/2+y,z
1/2-x,1/2+y,-z
1/2-x,1/2-y,-z
1/2+x,1/2-y,z
loop_
_atom_site_type_symbol
_atom_site_label
_atom_site_fract_x
_atom_site_fract_y
_atom_site_fract_z
Si Si1 0.422971 0.828416 0.768909
Si Si2 0.023307 0.174317 0.358677
Si Si3 0.160346 0.328165 0.797788
Si Si4 0.026695 0.671289 0.139324
Si Si5 0.175839 0.170454 0.007409
Si Si6 0.179288 0.826008 0.347482
Si Si7 0.230014 0.168908 0.860881
Si Si8 0.082623 0.839379 0.493075
O O1 0.483198 0.747183 0.695504
O O2 0.455083 0.783056 0.810009
O O3 0.326486 0.774630 0.812881
O O4 0.431390 0.000000 0.755533
O O5 0.112135 0.225373 0.338189
O O6 0.945803 0.235144 0.436370
O O7 0.018598 0.000000 0.356079
O O8 0.170051 0.500000 0.800435
O O9 0.228566 0.271407 0.718856
O O10 0.176002 0.256715 0.846349
O O11 0.068851 0.284131 0.824162
O O12 0.044207 0.500000 0.121328
O O13 0.085880 0.762807 0.069654
O O14 0.179492 0.000000 0.019858
O O15 0.250000 0.250000 0.000000
O O16 0.186505 0.196793 0.939690
O O17 0.154421 0.759650 0.419056
O O18 0.174672 0.000000 0.355031
O O19 0.228055 0.000000 0.846167
O O20 0.000000 0.853957 0.500000
O O21 0.116353 0.000000 0.490338
#
# Coordination Sequence:
#
# PCOD8089047 Si02
#       8
#     8   8   8   8   8   8   8   8
#     4  10  19  33  50  70 102 138 165 201 253 307
#     4   9  15  25  46  75  99 123 167 218 251 289
#     4  10  20  34  55  79 103 133 173 217 249 295
#     4  10  22  39  54  75 106 137 171 209 255 306
#     4  11  22  38  59  80 103 135 171 211 255 303
#     4   8  13  24  44  72 100 127 162 206 256 295
#     4  10  21  36  54  75 102 134 165 204 259 309
#     4   7  11  20  38  67 101 127 153 205 260 291
#
# _framework density 17.536273999999999
#
# number of rings (size 3 to 8) (size 9 to 14) (size 15 to 20)
#    0.000    2.625    2.500    1.875    0.000    2.500 
#    0.000    2.500    0.000    4.875    0.000    0.000 
#    0.000    0.000    0.000    0.000    0.000    0.000 
#
# Total GULP energy -396581.748700 kJ/mol
# GULP energy per Si atom -12393.179647 kJ/mol
# Density = 1.749636 g / cm^3
# Si number density = 17.536274 Si / 1000 Ang^3
#
#
#
# Elastic Constant Matrix: (Units=GPa)
#
#
# Indices 1 2 3 4 5 6 
#
# 1 93.8212 30.6532 62.8503 0.0000 1.2343 0.0004
# 2 30.6532 36.1328 47.5594 -0.0001 2.4648 0.0008
# 3 62.8503 47.5594 165.0214 0.0000 4.9237 0.0002
# 4 0.0000 -0.0001 0.0000 23.4308 0.0000 4.8630
# 5 1.2343 2.4648 4.9237 0.0000 23.2356 0.0001
# 6 0.0004 0.0008 0.0002 4.8630 0.0001 21.6894
#
#
#
# Elastic Compliance Matrix: (Units=1/GPa)
#
#
# Indices 1 2 3 4 5 6 
#
# 1 0.015922 -0.008942 -0.003512 0.000000 0.000847 0.000000
# 2 -0.008942 0.049708 -0.010845 0.000000 -0.002500 -0.000002
# 3 -0.003512 -0.010845 0.010550 0.000000 -0.000899 0.000000
# 4 0.000000 0.000000 0.000000 0.044762 0.000000 -0.010036
# 5 0.000847 -0.002500 -0.000899 0.000000 0.043448 0.000000
# 6 0.000000 -0.000002 0.000000 -0.010036 0.000000 0.048356
#
#
# Mechanical properties :
#
#
# Convention : Reuss Voigt Hill
#
# Bulk Modulus (GPa) = 33.80700 64.12235 48.96467
# Shear Modulus (GPa) = 18.57327 23.93201 21.25264
#
# Velocity S-wave (km/s) = 3.25797 3.69821 3.48505
# Velocity P-wave (km/s) = 5.78555 7.40815 6.64655
#
# Compressibility (1/GPa) = 0.02957968
#
# Stress axis : x y z
#
# Youngs Moduli (GPa) = 62.80710 20.11767 94.78735
#
# Poissons Ratio (x) = 0.17990 0.33290
# Poissons Ratio (y) = 0.56164 1.02801
# Poissons Ratio (z) = 0.22058 0.21819
#
# Static dielectric constant tensor:
#      x y z
#    x 3.003860 0.000000 0.006220 
#    y 0.000000 2.966110 0.000000 
#    z 0.006220 0.000000 3.749390 
# 
# 
# High freq. dielectric constant tensor:
#      x y z
#    x 1.646320 0.000000 0.007570 
#    y 0.000000 1.645620 0.000000 
#    z 0.007570 0.000000 1.702710 
# 
# From -- ./inp_files/365184.got.cif
#   From: 2010.06.25/outbox.cif.g09.slc.cpg/sg12_183_cif.got.tgz:365184.got - 2010.06.28 00:19:55.
