data_PCOD8089900
_publ_section_title
;
Structure prediction by ZEFSAII (Michael W. Deem and Ramdas Pophale) SiO2 
 PCOD8089900
Probable space group: C 2/M
;
_chemical_formula_sum "Si O2"
_cell_formula_units_Z 40
_cell_length_a 12.069076
_cell_length_b 20.602119
_cell_length_c 9.234264
_cell_angle_alpha 90.000000
_cell_angle_beta 80.476103
_cell_angle_gamma 90.000000
_cell_volume 2264.438564
_symmetry_space_group_name_H-M "C 2/M"
_symmetry_group_IT_number 12
_symmetry_cell_setting 'monoclinic'
loop_
_space_group_symop_operation_xyz
x,y,z
-x,y,-z
-x,-y,-z
x,-y,z
1/2+x,1/2+y,z
1/2-x,1/2+y,-z
1/2-x,1/2-y,-z
1/2+x,1/2-y,z
loop_
_atom_site_type_symbol
_atom_site_label
_atom_site_fract_x
_atom_site_fract_y
_atom_site_fract_z
Si Si1 0.222258 0.693646 0.301945
Si Si2 0.791163 0.665490 0.363960
Si Si3 0.991757 0.691197 0.828988
Si Si4 0.964309 0.835023 0.171664
Si Si5 0.412873 0.424292 0.645191
O O1 0.185956 0.675929 0.471719
O O2 0.240761 0.771339 0.293232
O O3 0.128731 0.669856 0.207178
O O4 0.332040 0.653852 0.227205
O O5 0.707949 0.605329 0.364285
O O6 0.909772 0.647666 0.263152
O O7 0.007188 0.764769 0.767621
O O8 0.000000 0.684478 0.000000
O O9 0.036281 0.892623 0.223156
O O10 0.000000 0.834156 0.000000
O O11 0.500000 0.408265 0.500000
O O12 0.396728 0.500000 0.675376
#
# Coordination Sequence:
#
# PCOD8089900 Si02
#       5
#     8   8   8   8   8
#     4  10  19  33  54  83 112 140 177 224 276 328
#     4  10  20  33  56  79 111 144 180 221 270 326
#     4  10  21  32  54  86 114 142 172 225 282 323
#     4  10  21  33  54  83 116 141 176 224 276 324
#     4  11  22  38  57  79 110 144 187 223 261 319
#
# _framework density 17.664424
#
# number of rings (size 3 to 8) (size 9 to 14) (size 15 to 20)
#    0.000    1.800    4.000    0.600    2.800    2.800 
#    0.000    0.000    0.000    4.200    0.000    0.000 
#    0.000    0.000    0.000    0.000    0.000    0.000 
#
# Total GULP energy -247997.953715 kJ/mol
# GULP energy per Si atom -12399.897686 kJ/mol
# Density = 1.762422 g / cm^3
# Si number density = 17.664424 Si / 1000 Ang^3
#
#
#
# Elastic Constant Matrix: (Units=GPa)
#
#
# Indices 1 2 3 4 5 6 
#
# 1 113.8803 21.2229 43.1650 0.0000 9.4781 0.0000
# 2 21.2229 54.6033 15.1795 0.0000 3.4836 0.0000
# 3 43.1650 15.1795 81.0303 0.0000 -5.7689 0.0000
# 4 0.0000 0.0000 0.0000 215.6575 0.0000 58.1105
# 5 9.4781 3.4836 -5.7689 0.0000 32.2548 0.0000
# 6 0.0000 0.0000 0.0000 58.1105 0.0000 41.6043
#
#
#
# Elastic Compliance Matrix: (Units=1/GPa)
#
#
# Indices 1 2 3 4 5 6 
#
# 1 0.011987 -0.002659 -0.006197 0.000000 -0.004343 0.000000
# 2 -0.002659 0.020157 -0.002491 0.000000 -0.001841 0.000000
# 3 -0.006197 -0.002491 0.016467 0.000000 0.005035 0.000000
# 4 0.000000 0.000000 0.000000 0.007435 0.000000 -0.010385
# 5 -0.004343 -0.001841 0.005035 0.000000 0.033379 0.000000
# 6 0.000000 0.000000 0.000000 -0.010385 0.000000 0.038542
#
#
# Mechanical properties :
#
#
# Convention : Reuss Voigt Hill
#
# Bulk Modulus (GPa) = 38.58246 45.40540 41.99393
# Shear Modulus (GPa) = 31.38745 69.23310 50.31027
#
# Velocity S-wave (km/s) = 4.21987 6.26726 5.34256
# Velocity P-wave (km/s) = 6.75518 8.83921 7.86651
#
# Compressibility (1/GPa) = 0.02591851
#
# Stress axis : x y z
#
# Youngs Moduli (GPa) = 83.42394 49.60977 60.72759
#
# Poissons Ratio (x) = 0.13193 0.37630
# Poissons Ratio (y) = 0.22185 0.15124
# Poissons Ratio (z) = 0.51694 0.12356
#
# Static dielectric constant tensor:
#      x y z
#    x 3.368530 0.000000 -0.106310 
#    y 0.000000 2.930250 0.000000 
#    z -0.106310 0.000000 3.156020 
# 
# 
# High freq. dielectric constant tensor:
#      x y z
#    x 1.696420 0.000000 -0.005820 
#    y 0.000000 1.632840 0.000000 
#    z -0.005820 0.000000 1.692750 
# 
# From -- ./inp_files/46921.got.cif
#   From: 2010.06.25/outbox.cif.g09.slc.cpg/sg12_24_cif.got.tgz:46921.got - 2010.06.28 00:19:55.
