data_PCOD8089782
_publ_section_title
;
Structure prediction by ZEFSAII (Michael W. Deem and Ramdas Pophale) SiO2 
 PCOD8089782
Probable space group: C 2/M
;
_chemical_formula_sum "Si O2"
_cell_formula_units_Z 64
_cell_length_a 20.040491
_cell_length_b 9.119601
_cell_length_c 22.100919
_cell_angle_alpha 90.000000
_cell_angle_beta 63.240602
_cell_angle_gamma 90.000000
_cell_volume 3606.615405
_symmetry_space_group_name_H-M "C 2/M"
_symmetry_group_IT_number 12
_symmetry_cell_setting 'monoclinic'
loop_
_space_group_symop_operation_xyz
x,y,z
-x,y,-z
-x,-y,-z
x,-y,z
1/2+x,1/2+y,z
1/2-x,1/2+y,-z
1/2-x,1/2-y,-z
1/2+x,1/2-y,z
loop_
_atom_site_type_symbol
_atom_site_label
_atom_site_fract_x
_atom_site_fract_y
_atom_site_fract_z
Si Si1 0.572182 0.826159 0.680336
Si Si2 0.489382 0.671518 0.179835
Si Si3 0.313697 0.830002 0.049418
Si Si4 0.506923 0.673840 0.596094
Si Si5 0.266599 0.171975 0.430902
Si Si6 0.152497 0.169739 0.084276
Si Si7 0.055108 0.668676 0.921854
Si Si8 0.612391 0.671638 0.447071
O O1 0.555934 0.763705 0.752850
O O2 0.514163 0.757990 0.656336
O O3 0.655979 0.775097 0.629366
O O4 0.563917 0.000000 0.684325
O O5 0.471945 0.500000 0.194715
O O6 0.577805 0.704768 0.152745
O O7 0.463355 0.721561 0.124435
O O8 0.226429 0.782787 0.092289
O O9 0.360028 0.794570 0.091248
O O10 0.320556 0.000000 0.031348
O O11 0.351980 0.751452 0.977378
O O12 0.509830 0.500000 0.607582
O O13 0.572810 0.730183 0.524478
O O14 0.428479 0.725931 0.597464
O O15 0.250000 0.250000 0.500000
O O16 0.199826 0.214034 0.411308
O O17 0.267252 0.000000 0.443675
O O18 0.156151 0.000000 0.066337
O O19 0.048358 0.500000 0.902682
O O20 0.000000 0.698574 0.000000
O O21 0.598789 0.500000 0.454730
#
# Coordination Sequence:
#
# PCOD8089782 Si02
#       8
#     8   8   8   8   8   8   8   8
#     4  11  23  36  52  77 109 143 177 217 270 322
#     4  11  23  37  54  75 105 145 184 220 259 312
#     4   9  17  31  53  79 106 132 164 211 264 311
#     4   9  16  31  55  78 102 135 172 213 257 311
#     4  10  19  33  54  80 107 137 175 219 265 315
#     4   9  18  32  51  77 103 132 173 215 254 303
#     4  10  19  33  55  82 109 138 171 214 270 321
#     4   8  15  29  53  81 104 130 170 215 258 306
#
# _framework density 17.745168
#
# number of rings (size 3 to 8) (size 9 to 14) (size 15 to 20)
#    0.000    2.375    2.500    1.500    0.000    1.750 
#    0.000    3.125    0.000    7.500    0.000    0.000 
#    0.000    0.000    0.000    0.000    0.000    0.000 
#
# Total GULP energy -396677.092158 kJ/mol
# GULP energy per Si atom -12396.159130 kJ/mol
# Density = 1.770478 g / cm^3
# Si number density = 17.745168 Si / 1000 Ang^3
#
#
#
# Elastic Constant Matrix: (Units=GPa)
#
#
# Indices 1 2 3 4 5 6 
#
# 1 124.1247 38.7402 53.1802 0.0000 -2.1182 -0.0002
# 2 38.7402 52.3844 38.8736 0.0000 -1.8900 -0.0007
# 3 53.1802 38.8736 90.6259 0.0000 -1.9011 0.0000
# 4 0.0000 0.0000 0.0000 28.6539 0.0000 4.5827
# 5 -2.1182 -1.8900 -1.9011 0.0000 23.4857 0.0000
# 6 -0.0002 -0.0007 0.0000 4.5827 0.0000 23.9462
#
#
#
# Elastic Compliance Matrix: (Units=1/GPa)
#
#
# Indices 1 2 3 4 5 6 
#
# 1 0.011655 -0.005191 -0.004607 0.000000 0.000260 0.000000
# 2 -0.005191 0.030354 -0.009950 0.000000 0.001169 0.000001
# 3 -0.004607 -0.009950 0.018011 0.000000 0.000242 0.000000
# 4 0.000000 0.000000 0.000000 0.036001 0.000000 -0.006890
# 5 0.000260 0.001169 0.000242 0.000000 0.042716 0.000000
# 6 0.000000 0.000001 0.000000 -0.006890 0.000000 0.043079
#
#
# Mechanical properties :
#
#
# Convention : Reuss Voigt Hill
#
# Bulk Modulus (GPa) = 48.72241 58.74702 53.73471
# Shear Modulus (GPa) = 21.91510 24.30655 23.11083
#
# Velocity S-wave (km/s) = 3.51805 3.70504 3.61276
# Velocity P-wave (km/s) = 6.63465 7.17502 6.91012
#
# Compressibility (1/GPa) = 0.02052444
#
# Stress axis : x y z
#
# Youngs Moduli (GPa) = 85.80106 32.94429 55.52218
#
# Poissons Ratio (x) = 0.17101 0.25580
# Poissons Ratio (y) = 0.44539 0.55243
# Poissons Ratio (z) = 0.39529 0.32779
#
# Static dielectric constant tensor:
#      x y z
#    x 4.166040 0.000000 -0.123220 
#    y 0.000000 3.151790 0.000000 
#    z -0.123220 0.000000 3.051710 
# 
# 
# High freq. dielectric constant tensor:
#      x y z
#    x 1.705800 0.000000 -0.002650 
#    y 0.000000 1.673950 0.000000 
#    z -0.002650 0.000000 1.655850 
# 
# From -- ./inp_files/319819.got.cif
#   From: 2010.06.25/outbox.cif.g09.slc.cpg/sg12_160_cif.got.tgz:319819.got - 2010.06.28 00:19:55.
