data_PCOD8089430
_publ_section_title
;
Structure prediction by ZEFSAII (Michael W. Deem and Ramdas Pophale) SiO2 
 PCOD8089430
Probable space group: C 2/M
;
_chemical_formula_sum "Si O2"
_cell_formula_units_Z 64
_cell_length_a 24.784858
_cell_length_b 12.782666
_cell_length_c 12.082400
_cell_angle_alpha 90.000000
_cell_angle_beta 115.210724
_cell_angle_gamma 90.000000
_cell_volume 3463.286361
_symmetry_space_group_name_H-M "C 2/M"
_symmetry_group_IT_number 12
_symmetry_cell_setting 'monoclinic'
loop_
_space_group_symop_operation_xyz
x,y,z
-x,y,-z
-x,-y,-z
x,-y,z
1/2+x,1/2+y,z
1/2-x,1/2+y,-z
1/2-x,1/2-y,-z
1/2+x,1/2-y,z
loop_
_atom_site_type_symbol
_atom_site_label
_atom_site_fract_x
_atom_site_fract_y
_atom_site_fract_z
Si Si1 0.006016 0.619463 0.628361
Si Si2 0.313344 0.379571 0.253424
Si Si3 0.374824 0.117615 0.606373
Si Si4 0.314084 0.120299 0.953062
Si Si5 0.722951 0.774225 0.595451
Si Si6 0.894010 0.246128 0.168268
Si Si7 0.655138 0.740034 0.216049
Si Si8 0.437236 0.377780 0.993442
O O1 0.028413 0.500000 0.642692
O O2 0.053275 0.683411 0.739609
O O3 0.000000 0.666112 0.500000
O O4 0.942320 0.627977 0.629421
O O5 0.327189 0.500000 0.289686
O O6 0.257060 0.367296 0.121368
O O7 0.302612 0.328082 0.364386
O O8 0.370404 0.329145 0.244103
O O9 0.329855 0.140649 0.463626
O O10 0.364125 0.206342 0.687185
O O11 0.361494 0.000000 0.638066
O O12 0.346862 0.166917 0.874672
O O13 0.332897 0.000000 0.980413
O O14 0.338378 0.181840 0.081387
O O15 0.750000 0.750000 0.500000
O O16 0.779230 0.813736 0.717892
O O17 0.921386 0.179022 0.093112
O O18 0.611045 0.647352 0.143504
O O19 0.438132 0.500000 0.018897
O O20 0.500000 0.337948 0.000000
#
# Coordination Sequence:
#
# PCOD8089430 Si02
#       8
#     8   8   8   8   8   8   8   8
#     4  10  21  35  52  75 103 135 170 214 267 316
#     4  10  20  35  54  77 107 140 175 216 259 309
#     4  10  19  33  53  76 103 135 172 215 265 318
#     4   9  18  32  52  79 108 134 164 211 266 316
#     4   9  19  34  54  79 105 135 172 213 262 311
#     4  11  20  34  56  77 104 140 179 217 261 315
#     4   9  18  33  53  78 104 135 174 213 260 317
#     4  10  21  36  53  75 106 143 181 222 264 306
#
# _framework density 18.479558000000001
#
# number of rings (size 3 to 8) (size 9 to 14) (size 15 to 20)
#    0.000    2.250    0.000    3.000    0.000    3.500 
#    0.000    2.500    0.000   16.500    0.000    0.000 
#    0.000    0.000    0.000    0.000    0.000    0.000 
#
# Total GULP energy -396703.566402 kJ/mol
# GULP energy per Si atom -12396.986450 kJ/mol
# Density = 1.843750 g / cm^3
# Si number density = 18.479558 Si / 1000 Ang^3
#
#
#
# Elastic Constant Matrix: (Units=GPa)
#
#
# Indices 1 2 3 4 5 6 
#
# 1 95.5608 47.4107 42.3034 0.0000 3.1279 0.0000
# 2 47.4107 75.8264 45.1725 0.0000 4.1007 0.0000
# 3 42.3034 45.1725 95.4333 0.0000 4.6547 0.0000
# 4 0.0000 0.0000 0.0000 29.0076 0.0000 -0.3170
# 5 3.1279 4.1007 4.6547 0.0000 30.2488 0.0000
# 6 0.0000 0.0000 0.0000 -0.3170 0.0000 17.7075
#
#
#
# Elastic Compliance Matrix: (Units=1/GPa)
#
#
# Indices 1 2 3 4 5 6 
#
# 1 0.015865 -0.007978 -0.003253 0.000000 -0.000058 0.000000
# 2 -0.007978 0.022420 -0.007020 0.000000 -0.001134 0.000000
# 3 -0.003253 -0.007020 0.015296 0.000000 -0.001066 0.000000
# 4 0.000000 0.000000 0.000000 0.034480 0.000000 0.000617
# 5 -0.000058 -0.001134 -0.001066 0.000000 0.033383 0.000000
# 6 0.000000 0.000000 0.000000 0.000617 0.000000 0.056484
#
#
# Mechanical properties :
#
#
# Convention : Reuss Voigt Hill
#
# Bulk Modulus (GPa) = 58.55946 59.62152 59.09049
# Shear Modulus (GPa) = 22.71439 24.18838 23.45139
#
# Velocity S-wave (km/s) = 3.50975 3.62183 3.56623
# Velocity P-wave (km/s) = 6.94133 7.05860 7.00021
#
# Compressibility (1/GPa) = 0.01707666
#
# Stress axis : x y z
#
# Youngs Moduli (GPa) = 63.03217 44.60265 65.37805
#
# Poissons Ratio (x) = 0.35586 0.21269
# Poissons Ratio (y) = 0.50289 0.45898
# Poissons Ratio (z) = 0.20506 0.31313
#
# Static dielectric constant tensor:
#      x y z
#    x 3.499070 0.000000 0.183610 
#    y 0.000000 3.345340 0.000000 
#    z 0.183610 0.000000 3.538310 
# 
# 
# High freq. dielectric constant tensor:
#      x y z
#    x 1.724640 0.000000 0.003730 
#    y 0.000000 1.707570 0.000000 
#    z 0.003730 0.000000 1.718420 
# 
# From -- ./inp_files/175287.got.cif
#   From: 2010.06.25/outbox.cif.g09.slc.cpg/sg12_88_cif.got.tgz:175287.got - 2010.06.28 00:19:55.
