data_PCOD8089021
_publ_section_title
;
Structure prediction by ZEFSAII (Michael W. Deem and Ramdas Pophale) SiO2 
 PCOD8089021
Probable space group: C 2/M
;
_chemical_formula_sum "Si O2"
_cell_formula_units_Z 64
_cell_length_a 13.092970
_cell_length_b 21.373461
_cell_length_c 18.055740
_cell_angle_alpha 90.000000
_cell_angle_beta 134.982656
_cell_angle_gamma 90.000000
_cell_volume 3573.919333
_symmetry_space_group_name_H-M "C 2/M"
_symmetry_group_IT_number 12
_symmetry_cell_setting 'monoclinic'
loop_
_space_group_symop_operation_xyz
x,y,z
-x,y,-z
-x,-y,-z
x,-y,z
1/2+x,1/2+y,z
1/2-x,1/2+y,-z
1/2-x,1/2-y,-z
1/2+x,1/2-y,z
loop_
_atom_site_type_symbol
_atom_site_label
_atom_site_fract_x
_atom_site_fract_y
_atom_site_fract_z
Si Si1 0.671108 0.358122 0.799126
Si Si2 0.111753 0.431271 0.992129
Si Si3 0.061281 0.220364 0.244653
Si Si4 0.124177 0.269545 0.612987
Si Si5 0.049386 0.425524 0.238098
Si Si6 0.367741 0.621489 0.380343
Si Si7 0.371646 0.742228 0.884446
Si Si8 0.891068 0.325985 0.233382
O O1 0.523437 0.336094 0.761047
O O2 0.630659 0.401036 0.706244
O O3 0.764411 0.300163 0.814607
O O4 0.754201 0.391202 0.909402
O O5 0.171049 0.500000 0.000829
O O6 0.024425 0.402735 0.877205
O O7 0.000000 0.437223 0.000000
O O8 0.227813 0.213892 0.353315
O O9 0.055971 0.217163 0.153125
O O10 0.999796 0.286764 0.238225
O O11 0.110111 0.195361 0.613095
O O12 0.104432 0.304739 0.679865
O O13 0.000000 0.298601 0.500000
O O14 0.052085 0.500000 0.246380
O O15 0.212798 0.400115 0.332770
O O16 0.944481 0.397272 0.248651
O O17 0.500000 0.594187 0.500000
O O18 0.277022 0.687106 0.876120
O O19 0.500000 0.767252 0.000000
#
# Coordination Sequence:
#
# PCOD8089021 Si02
#       8
#     8   8   8   8   8   8   8   8
#     4  11  20  33  55  79 112 147 177 224 271 339
#     4  10  21  35  56  79 107 147 182 222 273 330
#     4  10  19  33  48  80 110 142 178 220 279 327
#     4  10  20  35  55  81 115 146 181 229 280 330
#     4  11  23  39  58  80 112 150 189 228 267 331
#     4  11  21  35  54  82 116 147 179 226 282 328
#     4  10  21  31  48  80 113 142 174 224 279 325
#     4  10  20  35  53  80 111 144 184 224 271 338
#
# _framework density 17.907511
#
# number of rings (size 3 to 8) (size 9 to 14) (size 15 to 20)
#    0.000    1.625    6.250    0.375    3.500    2.750 
#    0.000    0.000    0.000    3.750    0.000    0.000 
#    0.000    0.000    0.000    0.000    0.000    0.000 
#
# Total GULP energy -396431.107118 kJ/mol
# GULP energy per Si atom -12388.472097 kJ/mol
# Density = 1.786675 g / cm^3
# Si number density = 17.907511 Si / 1000 Ang^3
#
#
#
# Elastic Constant Matrix: (Units=GPa)
#
#
# Indices 1 2 3 4 5 6 
#
# 1 102.8098 22.6524 34.0563 0.0000 5.5158 0.0000
# 2 22.6524 43.0133 19.4484 -0.0001 -4.4610 0.0000
# 3 34.0563 19.4484 130.9339 0.0000 15.7635 -0.0001
# 4 0.0000 -0.0001 0.0000 13.2647 0.0000 9.0908
# 5 5.5158 -4.4610 15.7635 0.0000 16.6915 -0.0001
# 6 0.0000 0.0000 -0.0001 9.0908 -0.0001 21.5440
#
#
#
# Elastic Compliance Matrix: (Units=1/GPa)
#
#
# Indices 1 2 3 4 5 6 
#
# 1 0.011790 -0.005814 -0.001745 0.000000 -0.003802 0.000000
# 2 -0.005814 0.029897 -0.004651 0.000000 0.014304 0.000000
# 3 -0.001745 -0.004651 0.009999 0.000000 -0.010110 0.000000
# 4 0.000000 0.000000 0.000000 0.106059 0.000000 -0.044753
# 5 -0.003802 0.014304 -0.010110 0.000000 0.074538 0.000000
# 6 0.000000 0.000000 0.000000 -0.044753 0.000000 0.065301
#
#
# Mechanical properties :
#
#
# Convention : Reuss Voigt Hill
#
# Bulk Modulus (GPa) = 36.67566 47.67458 42.17512
# Shear Modulus (GPa) = 15.10153 23.67336 19.38745
#
# Velocity S-wave (km/s) = 2.90713 3.63985 3.29392
# Velocity P-wave (km/s) = 5.63858 6.65921 6.17004
#
# Compressibility (1/GPa) = 0.02726604
#
# Stress axis : x y z
#
# Youngs Moduli (GPa) = 84.81884 33.44841 100.00713
#
# Poissons Ratio (x) = 0.19447 0.17454
# Poissons Ratio (y) = 0.49315 0.46509
# Poissons Ratio (z) = 0.14803 0.15555
#
# Static dielectric constant tensor:
#      x y z
#    x 3.383990 0.000000 0.170340 
#    y 0.000000 1.931900 0.000000 
#    z 0.170340 0.000000 3.752130 
# 
# 
# High freq. dielectric constant tensor:
#      x y z
#    x 1.688610 0.000000 0.005100 
#    y 0.000000 1.656140 0.000000 
#    z 0.005100 0.000000 1.705180 
# 
# From -- ./inp_files/265076.got.cif
#   From: 2010.06.25/outbox.cif.g09.slc.cpg/sg12_133_cif.got.tgz:265076.got - 2010.06.28 00:19:55.
