data_PCOD8089710
_publ_section_title
;
Structure prediction by ZEFSAII (Michael W. Deem and Ramdas Pophale) SiO2 
 PCOD8089710
Probable space group: C 2/M
;
_chemical_formula_sum "Si O2"
_cell_formula_units_Z 64
_cell_length_a 22.960867
_cell_length_b 17.876069
_cell_length_c 12.695393
_cell_angle_alpha 90.000000
_cell_angle_beta 42.637142
_cell_angle_gamma 90.000000
_cell_volume 3529.567688
_symmetry_space_group_name_H-M "C 2/M"
_symmetry_group_IT_number 12
_symmetry_cell_setting 'monoclinic'
loop_
_space_group_symop_operation_xyz
x,y,z
-x,y,-z
-x,-y,-z
x,-y,z
1/2+x,1/2+y,z
1/2-x,1/2+y,-z
1/2-x,1/2-y,-z
1/2+x,1/2-y,z
loop_
_atom_site_type_symbol
_atom_site_label
_atom_site_fract_x
_atom_site_fract_y
_atom_site_fract_z
Si Si1 0.518941 0.157759 0.293346
Si Si2 0.724095 0.086321 0.536435
Si Si3 0.472381 0.914175 0.149019
Si Si4 0.182251 0.087737 0.182133
Si Si5 0.019123 0.181118 0.356180
Si Si6 0.170180 0.840524 0.419683
Si Si7 0.322814 0.165107 0.606597
Si Si8 0.820149 0.412774 0.822677
O O1 0.524746 0.132474 0.165017
O O2 0.546599 0.244574 0.257117
O O3 0.423226 0.144290 0.464254
O O4 0.582361 0.108300 0.279178
O O5 0.628815 0.095891 0.706868
O O6 0.786678 0.125651 0.535110
O O7 0.732141 0.126071 0.412553
O O8 0.750137 0.000000 0.489306
O O9 0.500714 0.000000 0.124043
O O10 0.500000 0.881715 0.000000
O O11 0.094716 0.120982 0.250121
O O12 0.203638 0.119806 0.269041
O O13 0.168614 0.000000 0.210690
O O14 0.259858 0.108548 0.001324
O O15 0.000000 0.208326 0.500000
O O16 0.931639 0.145433 0.427157
O O17 0.191987 0.753327 0.380519
O O18 0.288551 0.134014 0.763431
O O19 0.814534 0.500000 0.802532
#
# Coordination Sequence:
#
# PCOD8089710 Si02
#       8
#     8   8   8   8   8   8   8   8
#     4  10  19  33  54  78 105 140 179 211 255 320
#     4  10  20  34  55  79 106 141 181 218 258 314
#     4   9  19  33  48  73 112 144 167 212 264 305
#     4  10  22  36  52  80 110 137 174 223 276 314
#     4   9  19  36  56  77 105 135 170 225 271 310
#     4  10  20  35  58  80 103 138 181 224 262 316
#     4  10  21  37  53  78 111 143 175 217 267 307
#     4  11  22  34  53  79 110 143 177 216 259 321
#
# _framework density 18.132532000000001
#
# number of rings (size 3 to 8) (size 9 to 14) (size 15 to 20)
#    0.000    2.125    0.000    4.125    1.750    6.750 
#    0.000    0.000    0.000    0.000    0.000    2.625 
#    0.000    0.000    0.000    0.000    0.000    0.000 
#
# Total GULP energy -396893.862179 kJ/mol
# GULP energy per Si atom -12402.933193 kJ/mol
# Density = 1.809126 g / cm^3
# Si number density = 18.132532 Si / 1000 Ang^3
#
#
#
# Elastic Constant Matrix: (Units=GPa)
#
#
# Indices 1 2 3 4 5 6 
#
# 1 135.5779 70.2214 46.8358 0.0000 22.4800 0.0000
# 2 70.2214 111.3821 49.5027 0.0000 12.1258 0.0000
# 3 46.8358 49.5027 73.7441 0.0000 18.5662 0.0000
# 4 0.0000 0.0000 0.0000 24.0204 0.0000 11.2901
# 5 22.4800 12.1258 18.5662 0.0000 23.6025 0.0000
# 6 0.0000 0.0000 0.0000 11.2901 0.0000 32.2320
#
#
#
# Elastic Compliance Matrix: (Units=1/GPa)
#
#
# Indices 1 2 3 4 5 6 
#
# 1 0.012444 -0.006206 -0.001940 0.000000 -0.007137 0.000000
# 2 -0.006206 0.015891 -0.007680 0.000000 0.003787 0.000000
# 3 -0.001940 -0.007680 0.023055 0.000000 -0.012342 0.000000
# 4 0.000000 0.000000 0.000000 0.049836 0.000000 -0.017456
# 5 -0.007137 0.003787 -0.012342 0.000000 0.056929 0.000000
# 6 0.000000 0.000000 0.000000 -0.017456 0.000000 0.037140
#
#
# Mechanical properties :
#
#
# Convention : Reuss Voigt Hill
#
# Bulk Modulus (GPa) = 50.66203 72.64709 61.65456
# Shear Modulus (GPa) = 21.41080 26.24729 23.82904
#
# Velocity S-wave (km/s) = 3.44000 3.80876 3.62907
# Velocity P-wave (km/s) = 6.61654 7.71322 7.18583
#
# Compressibility (1/GPa) = 0.01973865
#
# Stress axis : x y z
#
# Youngs Moduli (GPa) = 80.36074 62.92686 43.37388
#
# Poissons Ratio (x) = 0.39052 0.08417
# Poissons Ratio (y) = 0.49871 0.33310
# Poissons Ratio (z) = 0.15594 0.48326
#
# Static dielectric constant tensor:
#      x y z
#    x 3.449300 0.000000 0.087640 
#    y 0.000000 3.367600 0.000000 
#    z 0.087640 0.000000 3.309400 
# 
# 
# High freq. dielectric constant tensor:
#      x y z
#    x 1.706530 0.000000 0.010010 
#    y 0.000000 1.709000 0.000000 
#    z 0.010010 0.000000 1.688510 
# 
# From -- ./inp_files/177121.got.cif
#   From: 2010.06.25/outbox.cif.g09.slc.cpg/sg12_89_cif.got.tgz:177121.got - 2010.06.28 00:19:55.
