data_PCOD8089823
_publ_section_title
;
Structure prediction by ZEFSAII (Michael W. Deem and Ramdas Pophale) SiO2 
 PCOD8089823
Probable space group: C 2/M
;
_chemical_formula_sum "Si O2"
_cell_formula_units_Z 64
_cell_length_a 29.917346
_cell_length_b 8.916354
_cell_length_c 19.713690
_cell_angle_alpha 90.000000
_cell_angle_beta 36.632030
_cell_angle_gamma 90.000000
_cell_volume 3137.726589
_symmetry_space_group_name_H-M "C 2/M"
_symmetry_group_IT_number 12
_symmetry_cell_setting 'monoclinic'
loop_
_space_group_symop_operation_xyz
x,y,z
-x,y,-z
-x,-y,-z
x,-y,z
1/2+x,1/2+y,z
1/2-x,1/2+y,-z
1/2-x,1/2-y,-z
1/2+x,1/2-y,z
loop_
_atom_site_type_symbol
_atom_site_label
_atom_site_fract_x
_atom_site_fract_y
_atom_site_fract_z
Si Si1 0.508957 0.826371 0.662263
Si Si2 0.357300 0.828014 0.594004
Si Si3 0.101935 0.327329 0.312950
Si Si4 0.704020 0.823825 0.755336
Si Si5 0.967830 0.826281 0.229560
Si Si6 0.685268 0.177610 0.624170
Si Si7 0.621463 0.674496 0.975956
Si Si8 0.739419 0.673668 0.940949
O O1 0.594462 0.813009 0.532729
O O2 0.454197 0.751284 0.672453
O O3 0.497979 0.722618 0.740428
O O4 0.489794 0.000000 0.702969
O O5 0.409033 0.778095 0.595300
O O6 0.286722 0.720476 0.677277
O O7 0.330023 0.000000 0.637985
O O8 0.080823 0.500000 0.331822
O O9 0.187649 0.292718 0.191961
O O10 0.692104 0.765942 0.693205
O O11 0.642302 0.753378 0.880131
O O12 0.694609 0.000000 0.770943
O O13 0.896253 0.725192 0.301833
O O14 0.944116 0.000000 0.260486
O O15 0.033146 0.798005 0.094989
O O16 0.750000 0.250000 0.500000
O O17 0.693324 0.000000 0.608293
O O18 0.640472 0.500000 0.944969
O O19 0.669611 0.737457 0.981594
O O20 0.727534 0.500000 0.970577
O O21 0.750000 0.750000 0.000000
#
# Coordination Sequence:
#
# PCOD8089823 Si02
#       8
#     8   8   8   8   8   8   8   8
#     4  10  20  34  58  88 118 159 205 250 302 356
#     4  10  19  35  58  84 119 159 200 246 296 364
#     4   9  17  32  54  82 115 154 201 247 293 352
#     4  11  24  40  62  91 120 153 198 256 309 357
#     4  11  24  41  62  89 123 159 199 248 300 359
#     4  11  25  45  68  95 125 157 198 246 303 366
#     4  10  22  41  62  86 120 163 205 245 299 365
#     4  10  19  33  54  80 115 158 202 249 295 346
#
# _framework density 20.396933000000001
#
# number of rings (size 3 to 8) (size 9 to 14) (size 15 to 20)
#    0.000    1.750    1.250    3.000    0.000    8.000 
#    0.000    3.125    0.000    1.500    0.000    0.000 
#    0.000    0.000    0.000    0.000    0.000    0.000 
#
# Total GULP energy -396796.481537 kJ/mol
# GULP energy per Si atom -12399.890048 kJ/mol
# Density = 2.035051 g / cm^3
# Si number density = 20.396933 Si / 1000 Ang^3
#
#
#
# Elastic Constant Matrix: (Units=GPa)
#
#
# Indices 1 2 3 4 5 6 
#
# 1 99.5972 27.4844 65.2850 0.0129 4.7974 -0.0130
# 2 27.4844 51.8317 48.0626 0.0282 7.9468 -0.0229
# 3 65.2850 48.0626 97.0867 0.0076 16.6686 -0.0070
# 4 0.0129 0.0282 0.0076 28.8383 -0.0036 3.1294
# 5 4.7974 7.9468 16.6686 -0.0036 37.9177 0.0024
# 6 -0.0130 -0.0229 -0.0070 3.1294 0.0024 29.4212
#
#
#
# Elastic Compliance Matrix: (Units=1/GPa)
#
#
# Indices 1 2 3 4 5 6 
#
# 1 0.018632 0.003250 -0.014728 -0.000008 0.003436 0.000008
# 2 0.003250 0.036236 -0.020280 -0.000035 0.000910 0.000028
# 3 -0.014728 -0.020280 0.031577 0.000019 -0.007767 -0.000016
# 4 -0.000008 -0.000035 0.000019 0.035081 0.000004 -0.003731
# 5 0.003436 0.000910 -0.007767 0.000004 0.029162 -0.000002
# 6 0.000008 0.000028 -0.000016 -0.003731 -0.000002 0.034386
#
#
# Mechanical properties :
#
#
# Convention : Reuss Voigt Hill
#
# Bulk Modulus (GPa) = 43.61273 58.90884 51.26079
# Shear Modulus (GPa) = 19.51354 26.41435 22.96394
#
# Velocity S-wave (km/s) = 3.09640 3.60254 3.35901
# Velocity P-wave (km/s) = 5.84910 6.80061 6.34272
#
# Compressibility (1/GPa) = 0.02292908
#
# Stress axis : x y z
#
# Youngs Moduli (GPa) = 53.67124 27.59704 31.66872
#
# Poissons Ratio (x) = -0.08970 0.46641
# Poissons Ratio (y) = -0.17444 0.64225
# Poissons Ratio (z) = 0.79046 0.55967
#
# Static dielectric constant tensor:
#      x y z
#    x 3.832840 -0.000020 0.084490 
#    y -0.000020 3.465100 0.000050 
#    z 0.084490 0.000050 3.760070 
# 
# 
# High freq. dielectric constant tensor:
#      x y z
#    x 1.806180 0.000000 0.003960 
#    y 0.000000 1.771380 0.000000 
#    z 0.003960 0.000000 1.809260 
# 
# From -- ./inp_files/295655.got.cif
#   From: 2010.06.25/outbox.cif.g09.slc.cpg/sg12_148_cif.got.tgz:295655.got - 2010.06.28 00:19:55.
