data_PCOD8089653
_publ_section_title
;
Structure prediction by ZEFSAII (Michael W. Deem and Ramdas Pophale) SiO2 
 PCOD8089653
Probable space group: C 2/M
;
_chemical_formula_sum "Si O2"
_cell_formula_units_Z 64
_cell_length_a 20.745332
_cell_length_b 8.981771
_cell_length_c 21.610968
_cell_angle_alpha 90.000000
_cell_angle_beta 121.240950
_cell_angle_gamma 90.000000
_cell_volume 3442.861514
_symmetry_space_group_name_H-M "C 2/M"
_symmetry_group_IT_number 12
_symmetry_cell_setting 'monoclinic'
loop_
_space_group_symop_operation_xyz
x,y,z
-x,y,-z
-x,-y,-z
x,-y,z
1/2+x,1/2+y,z
1/2-x,1/2+y,-z
1/2-x,1/2-y,-z
1/2+x,1/2-y,z
loop_
_atom_site_type_symbol
_atom_site_label
_atom_site_fract_x
_atom_site_fract_y
_atom_site_fract_z
Si Si1 0.460583 0.672740 0.165289
Si Si2 0.778958 0.322525 0.576820
Si Si3 0.961937 0.822099 0.918526
Si Si4 0.161824 0.335581 0.830453
Si Si5 0.703887 0.823557 0.654205
Si Si6 0.794266 0.822379 0.818306
Si Si7 0.938273 0.335297 0.341250
Si Si8 0.939011 0.826311 0.666011
O O1 0.448321 0.500000 0.151484
O O2 0.491870 0.740607 0.116987
O O3 0.377918 0.738679 0.136661
O O4 0.518919 0.708471 0.248942
O O5 0.776862 0.500000 0.571037
O O6 0.750000 0.250000 0.500000
O O7 0.722843 0.268569 0.602611
O O8 0.863494 0.268622 0.631397
O O9 0.877401 0.758247 0.870926
O O10 0.959697 0.000000 0.916727
O O11 0.000000 0.761383 0.000000
O O12 0.173703 0.500000 0.864063
O O13 0.241532 0.264265 0.848586
O O14 0.110423 0.343474 0.744561
O O15 0.762493 0.769577 0.736220
O O16 0.617708 0.783750 0.631323
O O17 0.712070 0.000000 0.646061
O O18 0.791829 0.000000 0.818043
O O19 0.970681 0.500000 0.372240
O O20 0.008499 0.223410 0.365956
O O21 0.919833 0.000000 0.648993
#
# Coordination Sequence:
#
# PCOD8089653 Si02
#       8
#     8   8   8   8   8   8   8   8
#     4   9  17  29  48  73  98 125 159 204 251 290
#     4  12  25  39  54  74 103 135 169 206 245 293
#     4   9  16  26  42  66  96 130 170 210 243 283
#     4   8  14  26  46  70  95 124 158 197 242 295
#     4   9  17  33  56  78 102 131 165 207 254 301
#     4   8  14  27  48  71  95 127 165 202 243 292
#     4   8  15  29  51  78 103 127 159 202 251 301
#     4  10  19  33  54  77 102 131 165 207 253 299
#
# _framework density 18.589188
#
# number of rings (size 3 to 8) (size 9 to 14) (size 15 to 20)
#    0.000    2.875    0.000    3.750    0.000    3.000 
#    0.000    3.125    0.000    4.875    0.000    0.000 
#    0.000    0.000    0.000    0.000    0.000    0.000 
#
# Total GULP energy -396635.141037 kJ/mol
# GULP energy per Si atom -12394.848157 kJ/mol
# Density = 1.854688 g / cm^3
# Si number density = 18.589188 Si / 1000 Ang^3
#
#
#
# Elastic Constant Matrix: (Units=GPa)
#
#
# Indices 1 2 3 4 5 6 
#
# 1 171.0159 52.5790 57.0850 0.0000 -30.8071 0.0000
# 2 52.5790 66.2355 36.3592 0.0000 -11.5270 0.0000
# 3 57.0850 36.3592 65.6474 0.0000 -19.6263 0.0000
# 4 0.0000 0.0000 0.0000 13.0891 0.0000 -3.6293
# 5 -30.8071 -11.5270 -19.6263 0.0000 12.7761 0.0000
# 6 0.0000 0.0000 0.0000 -3.6293 0.0000 33.3146
#
#
#
# Elastic Compliance Matrix: (Units=1/GPa)
#
#
# Indices 1 2 3 4 5 6 
#
# 1 0.011675 -0.004985 -0.000591 0.000000 0.022746 0.000000
# 2 -0.004985 0.023851 -0.011162 0.000000 -0.007647 0.000000
# 3 -0.000591 -0.011162 0.034198 0.000000 0.041039 0.000000
# 4 0.000000 0.000000 0.000000 0.078779 0.000000 0.008582
# 5 0.022746 -0.007647 0.041039 0.000000 0.189262 0.000000
# 6 0.000000 0.000000 0.000000 0.008582 0.000000 0.030952
#
#
# Mechanical properties :
#
#
# Convention : Reuss Voigt Hill
#
# Bulk Modulus (GPa) = 27.58688 66.10502 46.84595
# Shear Modulus (GPa) = 12.06931 22.29433 17.18182
#
# Velocity S-wave (km/s) = 2.55083 3.46687 3.04351
# Velocity P-wave (km/s) = 4.85264 7.18775 6.13237
#
# Compressibility (1/GPa) = 0.03624911
#
# Stress axis : x y z
#
# Youngs Moduli (GPa) = 85.65480 41.92717 29.24184
#
# Poissons Ratio (x) = 0.20900 0.01727
# Poissons Ratio (y) = 0.42697 0.32638
# Poissons Ratio (z) = 0.05060 0.46797
#
# Static dielectric constant tensor:
#      x y z
#    x 3.932940 0.000000 -0.062930 
#    y 0.000000 3.210100 0.000000 
#    z -0.062930 0.000000 3.245740 
# 
# 
# High freq. dielectric constant tensor:
#      x y z
#    x 1.744140 0.000000 -0.005240 
#    y 0.000000 1.688530 0.000000 
#    z -0.005240 0.000000 1.688680 
# 
# From -- ./inp_files/320144.got.cif
#   From: 2010.06.25/outbox.cif.g09.slc.cpg/sg12_161_cif.got.tgz:320144.got - 2010.06.28 00:19:55.
