data_PCOD8089956
_publ_section_title
;
Structure prediction by ZEFSAII (Michael W. Deem and Ramdas Pophale) SiO2 
 PCOD8089956
Probable space group: C 2/M
;
_chemical_formula_sum "Si O2"
_cell_formula_units_Z 64
_cell_length_a 19.510323
_cell_length_b 9.391282
_cell_length_c 18.989181
_cell_angle_alpha 90.000000
_cell_angle_beta 90.677620
_cell_angle_gamma 90.000000
_cell_volume 3479.086301
_symmetry_space_group_name_H-M "C 2/M"
_symmetry_group_IT_number 12
_symmetry_cell_setting 'monoclinic'
loop_
_space_group_symop_operation_xyz
x,y,z
-x,y,-z
-x,-y,-z
x,-y,z
1/2+x,1/2+y,z
1/2-x,1/2+y,-z
1/2-x,1/2-y,-z
1/2+x,1/2-y,z
loop_
_atom_site_type_symbol
_atom_site_label
_atom_site_fract_x
_atom_site_fract_y
_atom_site_fract_z
Si Si1 0.171931 0.665213 0.930765
Si Si2 0.928654 0.331103 0.196919
Si Si3 0.898407 0.837276 0.653258
Si Si4 0.994121 0.339742 0.422869
Si Si5 0.738981 0.670287 0.426453
Si Si6 0.638515 0.159759 0.663272
Si Si7 0.171713 0.833692 0.069042
Si Si8 0.930064 0.164593 0.809636
O O1 0.165521 0.500000 0.949570
O O2 0.121259 0.707825 0.867565
O O3 0.249817 0.703864 0.909516
O O4 0.148725 0.752353 0.998689
O O5 0.941538 0.500000 0.204671
O O6 0.892047 0.266689 0.266801
O O7 0.001463 0.257494 0.186057
O O8 0.833608 0.785754 0.607356
O O9 0.888207 0.814507 0.736435
O O10 0.964270 0.747651 0.633520
O O11 0.914318 0.000000 0.635704
O O12 0.023629 0.500000 0.424829
O O13 0.915412 0.337248 0.400577
O O14 0.000000 0.269292 0.500000
O O15 0.746482 0.500000 0.437792
O O16 0.750000 0.750000 0.500000
O O17 0.793525 0.729499 0.369400
O O18 0.657626 0.000000 0.686365
O O19 0.122033 0.782936 0.130878
O O20 0.163432 0.000000 0.054226
O O21 0.950900 0.000000 0.820123
#
# Coordination Sequence:
#
# PCOD8089956 Si02
#       8
#     8   8   8   8   8   8   8   8
#     4   9  19  35  57  83 107 136 178 222 259 305
#     4  10  20  35  56  80 106 140 180 220 261 307
#     4  10  21  35  53  79 108 138 173 218 266 312
#     4  10  19  33  55  78 102 137 178 216 257 309
#     4  10  21  37  56  78 105 137 176 221 267 316
#     4   9  18  33  53  77 103 136 176 216 258 308
#     4   9  19  36  57  80 108 142 176 213 262 316
#     4  10  21  36  54  79 110 143 177 214 261 317
#
# _framework density 18.395634999999999
#
# number of rings (size 3 to 8) (size 9 to 14) (size 15 to 20)
#    0.000    2.375    1.250    0.750    1.750    3.250 
#    0.000    3.750    0.000    0.000    0.000    0.000 
#    0.000    0.000    0.000    0.000    0.000    0.000 
#
# Total GULP energy -396754.144061 kJ/mol
# GULP energy per Si atom -12398.567002 kJ/mol
# Density = 1.835377 g / cm^3
# Si number density = 18.395635 Si / 1000 Ang^3
#
#
#
# Elastic Constant Matrix: (Units=GPa)
#
#
# Indices 1 2 3 4 5 6 
#
# 1 93.7819 32.5705 50.2183 0.0000 -5.5918 0.0000
# 2 32.5705 38.0993 35.0037 0.0000 -2.0687 0.0000
# 3 50.2183 35.0037 124.4458 0.0000 -4.0888 0.0000
# 4 0.0000 0.0000 0.0000 30.0876 0.0000 -0.6314
# 5 -5.5918 -2.0687 -4.0888 0.0000 39.7617 0.0000
# 6 0.0000 0.0000 0.0000 -0.6314 0.0000 25.2393
#
#
#
# Elastic Compliance Matrix: (Units=1/GPa)
#
#
# Indices 1 2 3 4 5 6 
#
# 1 0.016342 -0.010624 -0.003561 0.000000 0.001379 0.000000
# 2 -0.010624 0.042327 -0.007621 0.000000 -0.000076 0.000000
# 3 -0.003561 -0.007621 0.011626 0.000000 0.000298 0.000000
# 4 0.000000 0.000000 0.000000 0.033254 0.000000 0.000832
# 5 0.001379 -0.000076 0.000298 0.000000 0.025371 0.000000
# 6 0.000000 0.000000 0.000000 0.000832 0.000000 0.039642
#
#
# Mechanical properties :
#
#
# Convention : Reuss Voigt Hill
#
# Bulk Modulus (GPa) = 37.47668 54.65689 46.06679
# Shear Modulus (GPa) = 22.61764 28.25337 25.43550
#
# Velocity S-wave (km/s) = 3.51024 3.92327 3.72249
# Velocity P-wave (km/s) = 6.07008 7.09219 6.60095
#
# Compressibility (1/GPa) = 0.02668326
#
# Stress axis : x y z
#
# Youngs Moduli (GPa) = 61.19299 23.62559 86.01416
#
# Poissons Ratio (x) = 0.25099 0.30629
# Poissons Ratio (y) = 0.65010 0.65551
# Poissons Ratio (z) = 0.21790 0.18005
#
# Static dielectric constant tensor:
#      x y z
#    x 3.409020 0.000000 -0.036890 
#    y 0.000000 3.203290 0.000000 
#    z -0.036890 0.000000 3.526050 
# 
# 
# High freq. dielectric constant tensor:
#      x y z
#    x 1.718420 0.000000 0.000150 
#    y 0.000000 1.688740 0.000000 
#    z 0.000150 0.000000 1.725680 
# 
# From -- ./inp_files/281397.got.cif
#   From: 2010.06.25/outbox.cif.g09.slc.cpg/sg12_141_cif.got.tgz:281397.got - 2010.06.28 00:19:55.
