data_PCOD8089343
_publ_section_title
;
Structure prediction by ZEFSAII (Michael W. Deem and Ramdas Pophale) SiO2 
 PCOD8089343
Probable space group: C 2/M
;
_chemical_formula_sum "Si O2"
_cell_formula_units_Z 56
_cell_length_a 18.206096
_cell_length_b 9.133538
_cell_length_c 29.151376
_cell_angle_alpha 90.000000
_cell_angle_beta 141.309192
_cell_angle_gamma 90.000000
_cell_volume 3030.236640
_symmetry_space_group_name_H-M "C 2/M"
_symmetry_group_IT_number 12
_symmetry_cell_setting 'monoclinic'
loop_
_space_group_symop_operation_xyz
x,y,z
-x,y,-z
-x,-y,-z
x,-y,z
1/2+x,1/2+y,z
1/2-x,1/2+y,-z
1/2-x,1/2-y,-z
1/2+x,1/2-y,z
loop_
_atom_site_type_symbol
_atom_site_label
_atom_site_fract_x
_atom_site_fract_y
_atom_site_fract_z
Si Si1 0.977399 0.669735 0.346485
Si Si2 0.818034 0.329042 0.492772
Si Si3 0.217384 0.825744 0.211131
Si Si4 0.291200 0.827999 0.065738
Si Si5 0.938419 0.670587 0.790558
Si Si6 0.348349 0.172714 0.646964
Si Si7 0.631100 0.673978 0.070533
O O1 0.960813 0.500000 0.327546
O O2 0.847409 0.739036 0.285352
O O3 0.043520 0.694111 0.427743
O O4 0.053337 0.732859 0.340857
O O5 0.786692 0.500000 0.476376
O O6 0.750000 0.250000 0.500000
O O7 0.776362 0.253237 0.425016
O O8 0.125540 0.762254 0.201971
O O9 0.182200 0.769742 0.143573
O O10 0.212291 0.000000 0.212406
O O11 0.425030 0.788562 0.142154
O O12 0.213121 0.767178 0.069642
O O13 0.272955 0.000000 0.050312
O O14 0.250000 0.750000 0.000000
O O15 0.918123 0.500000 0.790022
O O16 0.886820 0.717225 0.716371
O O17 0.329589 0.000000 0.632188
O O18 0.629669 0.500000 0.069271
O O19 0.500000 0.737062 0.000000
#
# Coordination Sequence:
#
# PCOD8089343 Si02
#       7
#     8   8   8   8   8   8   8
#     4   8  15  29  50  73  94 123 165 209 248 288
#     4   9  16  28  48  74 101 128 165 211 256 301
#     4  10  19  33  53  73  96 130 171 209 244 291
#     4  10  20  35  55  78 104 133 165 203 248 296
#     4  10  21  35  50  72 104 136 163 201 255 303
#     4   9  17  32  52  72  98 132 169 207 251 303
#     4   9  17  30  51  77  99 123 161 204 240 281
#
# _framework density 18.480405999999999
#
# number of rings (size 3 to 8) (size 9 to 14) (size 15 to 20)
#    0.000    2.714    0.000    3.000    0.000    5.714 
#    0.000    5.000    0.000    8.571    0.000    0.000 
#    0.000    0.000    0.000    0.000    0.000    0.000 
#
# Total GULP energy -347080.461140 kJ/mol
# GULP energy per Si atom -12395.730755 kJ/mol
# Density = 1.843834 g / cm^3
# Si number density = 18.480406 Si / 1000 Ang^3
#
#
#
# Elastic Constant Matrix: (Units=GPa)
#
#
# Indices 1 2 3 4 5 6 
#
# 1 135.2382 34.4606 86.4228 0.0000 -2.4594 0.0000
# 2 34.4606 38.6202 50.2293 0.0000 -3.9316 -0.0002
# 3 86.4228 50.2293 191.1095 0.0000 -5.3748 0.0000
# 4 0.0000 0.0000 0.0000 27.0630 0.0000 -2.2377
# 5 -2.4594 -3.9316 -5.3748 0.0000 32.6699 0.0000
# 6 0.0000 -0.0002 0.0000 -2.2377 0.0000 25.2186
#
#
#
# Elastic Compliance Matrix: (Units=1/GPa)
#
#
# Indices 1 2 3 4 5 6 
#
# 1 0.011027 -0.005134 -0.003648 0.000000 -0.000388 0.000000
# 2 -0.005134 0.042036 -0.008635 0.000000 0.003252 0.000000
# 3 -0.003648 -0.008635 0.009157 0.000000 0.000193 0.000000
# 4 0.000000 0.000000 0.000000 0.037224 0.000000 0.003303
# 5 -0.000388 0.003252 0.000193 0.000000 0.031003 0.000000
# 6 0.000000 0.000000 0.000000 0.003303 0.000000 0.039946
#
#
# Mechanical properties :
#
#
# Convention : Reuss Voigt Hill
#
# Bulk Modulus (GPa) = 36.51534 78.57703 57.54619
# Shear Modulus (GPa) = 23.32560 29.91398 26.61979
#
# Velocity S-wave (km/s) = 3.55657 4.02765 3.79942
# Velocity P-wave (km/s) = 6.05537 8.01503 7.10310
#
# Compressibility (1/GPa) = 0.02738575
#
# Stress axis : x y z
#
# Youngs Moduli (GPa) = 90.68841 23.78900 109.20239
#
# Poissons Ratio (x) = 0.12213 0.39837
# Poissons Ratio (y) = 0.46560 0.94299
# Poissons Ratio (z) = 0.33083 0.20542
#
# Static dielectric constant tensor:
#      x y z
#    x 3.363230 0.000000 0.032060 
#    y 0.000000 3.134350 0.000000 
#    z 0.032060 0.000000 4.028920 
# 
# 
# High freq. dielectric constant tensor:
#      x y z
#    x 1.701570 0.000000 -0.000130 
#    y 0.000000 1.681490 0.000000 
#    z -0.000130 0.000000 1.742240 
# 
# From -- ./inp_files/275085.got.cif
#   From: 2010.06.25/outbox.cif.g09.slc.cpg/sg12_138_cif.got.tgz:275085.got - 2010.06.28 00:19:55.
