data_PCOD8089796
_publ_section_title
;
Structure prediction by ZEFSAII (Michael W. Deem and Ramdas Pophale) SiO2 
 PCOD8089796
Probable space group: C 2/M
;
_chemical_formula_sum "Si O2"
_cell_formula_units_Z 56
_cell_length_a 14.486834
_cell_length_b 8.994641
_cell_length_c 21.535830
_cell_angle_alpha 90.000000
_cell_angle_beta 87.217801
_cell_angle_gamma 90.000000
_cell_volume 2802.894250
_symmetry_space_group_name_H-M "C 2/M"
_symmetry_group_IT_number 12
_symmetry_cell_setting 'monoclinic'
loop_
_space_group_symop_operation_xyz
x,y,z
-x,y,-z
-x,-y,-z
x,-y,z
1/2+x,1/2+y,z
1/2-x,1/2+y,-z
1/2-x,1/2-y,-z
1/2+x,1/2-y,z
loop_
_atom_site_type_symbol
_atom_site_label
_atom_site_fract_x
_atom_site_fract_y
_atom_site_fract_z
Si Si1 0.370559 0.665134 0.044489
Si Si2 0.888322 0.827353 0.802102
Si Si3 0.752740 0.327428 0.404505
Si Si4 0.344976 0.835058 0.928778
Si Si5 0.893507 0.672380 0.508693
Si Si6 0.094135 0.172569 0.822761
Si Si7 0.748520 0.323047 0.724751
O O1 0.413259 0.500000 0.035394
O O2 0.260709 0.653540 0.048707
O O3 0.405251 0.742730 0.107748
O O4 0.402523 0.761755 0.983883
O O5 0.851527 0.766088 0.868131
O O6 0.846367 0.738762 0.745267
O O7 0.997275 0.800802 0.792679
O O8 0.862117 0.000000 0.798533
O O9 0.738395 0.500000 0.390337
O O10 0.840849 0.299815 0.445729
O O11 0.657441 0.267121 0.436786
O O12 0.775791 0.239454 0.341573
O O13 0.384758 0.000000 0.914020
O O14 0.888799 0.500000 0.528295
O O15 0.000000 0.725327 0.500000
O O16 0.172324 0.240052 0.775548
O O17 0.117380 0.000000 0.831827
O O18 0.750335 0.500000 0.721455
#
# Coordination Sequence:
#
# PCOD8089796 Si02
#       7
#     8   8   8   8   8   8   8
#     4   9  17  34  56  76 103 142 187 229 282 346
#     4  11  22  37  58  83 109 143 190 238 288 342
#     4  10  21  37  59  90 122 154 193 231 276 330
#     4  10  19  33  54  80 109 141 182 231 289 346
#     4   9  19  38  63  91 124 157 191 232 276 321
#     4   9  20  38  58  79 107 147 190 232 283 346
#     4  11  22  41  61  80 114 155 192 233 281 331
#
# _framework density 19.979347000000001
#
# number of rings (size 3 to 8) (size 9 to 14) (size 15 to 20)
#    0.000    2.143    1.429    1.714    0.000    3.143 
#    0.000   10.000    0.000    0.000    0.000    0.000 
#    0.000    0.000    0.000    0.000    0.000    0.000 
#
# Total GULP energy -347217.885219 kJ/mol
# GULP energy per Si atom -12400.638758 kJ/mol
# Density = 1.993387 g / cm^3
# Si number density = 19.979347 Si / 1000 Ang^3
#
#
#
# Elastic Constant Matrix: (Units=GPa)
#
#
# Indices 1 2 3 4 5 6 
#
# 1 79.1737 33.9609 33.7600 0.0000 7.7004 0.0000
# 2 33.9609 93.4065 48.4352 0.0000 4.3985 0.0000
# 3 33.7600 48.4352 118.7228 0.0000 10.2973 0.0000
# 4 0.0000 0.0000 0.0000 36.6918 0.0000 1.6769
# 5 7.7004 4.3985 10.2973 0.0000 18.9270 0.0000
# 6 0.0000 0.0000 0.0000 1.6769 0.0000 19.8015
#
#
#
# Elastic Compliance Matrix: (Units=1/GPa)
#
#
# Indices 1 2 3 4 5 6 
#
# 1 0.015922 -0.004353 -0.002390 0.000000 -0.004166 0.000000
# 2 -0.004353 0.014769 -0.004873 0.000000 0.000990 0.000000
# 3 -0.002390 -0.004873 0.011448 0.000000 -0.004124 0.000000
# 4 0.000000 0.000000 0.000000 0.027360 0.000000 -0.002317
# 5 -0.004166 0.000990 -0.004124 0.000000 0.056543 0.000000
# 6 0.000000 0.000000 0.000000 -0.002317 0.000000 0.050697
#
#
# Mechanical properties :
#
#
# Convention : Reuss Voigt Hill
#
# Bulk Modulus (GPa) = 52.89369 58.17948 55.53659
# Shear Modulus (GPa) = 24.23943 26.76052 25.49998
#
# Velocity S-wave (km/s) = 3.48692 3.66376 3.57643
# Velocity P-wave (km/s) = 6.53782 6.86153 6.70163
#
# Compressibility (1/GPa) = 0.01890585
#
# Stress axis : x y z
#
# Youngs Moduli (GPa) = 62.80546 67.70903 87.34774
#
# Poissons Ratio (x) = 0.29476 0.20879
# Poissons Ratio (y) = 0.27342 0.42567
# Poissons Ratio (z) = 0.15012 0.32997
#
# Static dielectric constant tensor:
#      x y z
#    x 3.581950 0.000000 0.092650 
#    y 0.000000 3.694030 0.000000 
#    z 0.092650 0.000000 3.630050 
# 
# 
# High freq. dielectric constant tensor:
#      x y z
#    x 1.777610 0.000000 0.007340 
#    y 0.000000 1.771090 0.000000 
#    z 0.007340 0.000000 1.779820 
# 
# From -- ./inp_files/309056.got.cif
#   From: 2010.06.25/outbox.cif.g09.slc.cpg/sg12_155_cif.got.tgz:309056.got - 2010.06.28 00:19:55.
