data_PCOD8089421
_publ_section_title
;
Structure prediction by ZEFSAII (Michael W. Deem and Ramdas Pophale) SiO2 
 PCOD8089421
Probable space group: C 2/M
;
_chemical_formula_sum "Si O2"
_cell_formula_units_Z 60
_cell_length_a 27.165361
_cell_length_b 9.699793
_cell_length_c 27.659875
_cell_angle_alpha 90.000000
_cell_angle_beta 151.865406
_cell_angle_gamma 90.000000
_cell_volume 3436.772277
_symmetry_space_group_name_H-M "C 2/M"
_symmetry_group_IT_number 12
_symmetry_cell_setting 'monoclinic'
loop_
_space_group_symop_operation_xyz
x,y,z
-x,y,-z
-x,-y,-z
x,-y,z
1/2+x,1/2+y,z
1/2-x,1/2+y,-z
1/2-x,1/2-y,-z
1/2+x,1/2-y,z
loop_
_atom_site_type_symbol
_atom_site_label
_atom_site_fract_x
_atom_site_fract_y
_atom_site_fract_z
Si Si1 0.055028 0.160079 0.996842
Si Si2 0.118454 0.658578 0.423993
Si Si3 0.000000 0.256699 0.500000
Si Si4 0.056459 0.345534 0.651853
Si Si5 0.119035 0.841494 0.230136
Si Si6 0.642054 0.342383 0.357700
Si Si7 0.276946 0.652023 0.318380
Si Si8 0.748596 0.160948 0.183013
O O1 0.977564 0.202815 0.886672
O O2 0.089494 0.000000 0.023015
O O3 0.153711 0.259550 0.075318
O O4 0.000000 0.189239 0.000000
O O5 0.106661 0.500000 0.398943
O O6 0.235753 0.694601 0.541576
O O7 0.086316 0.747535 0.349255
O O8 0.044465 0.697228 0.404582
O O9 0.972299 0.349476 0.429741
O O10 0.901950 0.161163 0.428294
O O11 0.094761 0.500000 0.698505
O O12 0.144596 0.233935 0.741102
O O13 0.088721 0.814184 0.259611
O O14 0.223857 0.760035 0.307977
O O15 0.148358 0.000000 0.246748
O O16 0.626880 0.500000 0.360680
O O17 0.245012 0.500000 0.308161
O O18 0.234221 0.678649 0.227682
O O19 0.750851 0.000000 0.169636
#
# Coordination Sequence:
#
# PCOD8089421 Si02
#       8
#     8   8   4   8   8   8   8   8
#     4  10  19  33  53  76 101 134 171 212 257 304
#     4   9  18  33  52  75 103 134 169 206 248 299
#     4  10  20  32  48  74 104 136 170 206 244 298
#     4  10  20  34  53  75 101 136 173 210 250 301
#     4  10  20  33  52  76 102 130 169 215 255 300
#     4   9  18  33  52  76 103 132 167 209 255 300
#     4  10  20  32  46  68 102 139 170 203 247 298
#     4  10  21  34  49  72 103 137 171 206 249 306
#
# _framework density 17.458241000000001
#
# number of rings (size 3 to 8) (size 9 to 14) (size 15 to 20)
#    0.000    2.267    1.333    1.600    0.000    6.133 
#    0.000    2.667    0.000    0.800    0.000    0.000 
#    0.000    0.000    0.000    0.000    0.000    0.000 
#
# Total GULP energy -372019.705918 kJ/mol
# GULP energy per Si atom -12400.656864 kJ/mol
# Density = 1.741851 g / cm^3
# Si number density = 17.458241 Si / 1000 Ang^3
#
#
#
# Elastic Constant Matrix: (Units=GPa)
#
#
# Indices 1 2 3 4 5 6 
#
# 1 90.0337 47.0265 41.0554 0.0000 -0.8552 0.0000
# 2 47.0265 89.3796 45.4256 0.0001 4.8952 0.0001
# 3 41.0554 45.4256 96.2291 0.0000 -4.4783 0.0000
# 4 0.0000 0.0001 0.0000 23.8219 0.0001 0.9933
# 5 -0.8552 4.8952 -4.4783 0.0001 24.0555 0.0000
# 6 0.0000 0.0001 0.0000 0.9933 0.0000 25.5090
#
#
#
# Elastic Compliance Matrix: (Units=1/GPa)
#
#
# Indices 1 2 3 4 5 6 
#
# 1 0.016359 -0.006788 -0.003716 0.000000 0.001271 0.000000
# 2 -0.006788 0.017997 -0.005832 0.000000 -0.004989 0.000000
# 3 -0.003716 -0.005832 0.014908 0.000000 0.003830 0.000000
# 4 0.000000 0.000000 0.000000 0.042046 0.000000 -0.001637
# 5 0.001271 -0.004989 0.003830 0.000000 0.043344 0.000000
# 6 0.000000 0.000000 0.000000 -0.001637 0.000000 0.039266
#
#
# Mechanical properties :
#
#
# Convention : Reuss Voigt Hill
#
# Bulk Modulus (GPa) = 60.26710 60.29528 60.28119
# Shear Modulus (GPa) = 23.57123 24.15294 23.86209
#
# Velocity S-wave (km/s) = 3.67842 3.72354 3.70105
# Velocity P-wave (km/s) = 7.25512 7.28685 7.27100
#
# Compressibility (1/GPa) = 0.01659280
#
# Stress axis : x y z
#
# Youngs Moduli (GPa) = 61.12782 55.56495 67.07684
#
# Poissons Ratio (x) = 0.37720 0.24925
# Poissons Ratio (y) = 0.41496 0.39116
# Poissons Ratio (z) = 0.22714 0.32403
#
# Static dielectric constant tensor:
#      x y z
#    x 3.102580 0.000000 -0.089590 
#    y 0.000000 3.242630 0.000000 
#    z -0.089590 0.000000 3.210000 
# 
# 
# High freq. dielectric constant tensor:
#      x y z
#    x 1.654850 0.000000 -0.001570 
#    y 0.000000 1.679400 0.000000 
#    z -0.001570 0.000000 1.663020 
# 
# From -- ./inp_files/368914.got.cif
#   From: 2010.06.25/outbox.cif.g09.slc.cpg/sg12_185_cif.got.tgz:368914.got - 2010.06.28 00:19:55.
