data_PCOD8089381
_publ_section_title
;
Structure prediction by ZEFSAII (Michael W. Deem and Ramdas Pophale) SiO2 
 PCOD8089381
Probable space group: C 2/M
;
_chemical_formula_sum "Si O2"
_cell_formula_units_Z 56
_cell_length_a 9.926181
_cell_length_b 18.747860
_cell_length_c 17.785382
_cell_angle_alpha 90.000000
_cell_angle_beta 110.989271
_cell_angle_gamma 90.000000
_cell_volume 3090.153378
_symmetry_space_group_name_H-M "C 2/M"
_symmetry_group_IT_number 12
_symmetry_cell_setting 'monoclinic'
loop_
_space_group_symop_operation_xyz
x,y,z
-x,y,-z
-x,-y,-z
x,-y,z
1/2+x,1/2+y,z
1/2-x,1/2+y,-z
1/2-x,1/2-y,-z
1/2+x,1/2-y,z
loop_
_atom_site_type_symbol
_atom_site_label
_atom_site_fract_x
_atom_site_fract_y
_atom_site_fract_z
Si Si1 0.088462 0.800069 0.093603
Si Si2 0.438299 0.920086 0.262283
Si Si3 0.251928 0.917335 0.620166
Si Si4 0.094260 0.721845 0.822537
Si Si5 0.134645 0.188533 0.480047
Si Si6 0.549345 0.658864 0.695439
Si Si7 0.881907 0.080220 0.786703
O O1 0.248250 0.771079 0.108876
O O2 0.095084 0.878307 0.130827
O O3 0.020579 0.747425 0.140621
O O4 0.000000 0.802308 0.000000
O O5 0.574373 0.910053 0.345003
O O6 0.446505 0.860550 0.199548
O O7 0.284815 0.910557 0.275101
O O8 0.445350 0.000000 0.227700
O O9 0.195959 0.882958 0.531566
O O10 0.185093 0.874882 0.678179
O O11 0.203131 0.000000 0.613013
O O12 0.091665 0.766441 0.743612
O O13 0.250000 0.250000 0.500000
O O14 0.000000 0.218857 0.500000
O O15 0.085847 0.170533 0.386413
O O16 0.495188 0.604097 0.746994
O O17 0.918840 0.000000 0.814445
#
# Coordination Sequence:
#
# PCOD8089381 Si02
#       7
#     8   8   8   8   8   8   8
#     4  10  20  33  52  76 101 129 159 202 253 300
#     4   9  18  33  52  73 100 133 169 207 245 291
#     4  10  20  34  52  75 103 135 170 208 251 292
#     4  10  19  33  53  75 100 129 168 204 244 298
#     4  10  22  35  51  74 102 135 171 211 254 294
#     4  10  20  33  53  75  99 134 169 209 248 291
#     4   9  19  34  52  75 100 130 167 204 247 299
#
# _framework density 18.122077000000001
#
# number of rings (size 3 to 8) (size 9 to 14) (size 15 to 20)
#    0.000    2.286    0.000    2.571    0.000   10.286 
#    0.000    0.000    0.000    3.429    0.000    0.000 
#    0.000    0.000    0.000    0.000    0.000    0.000 
#
# Total GULP energy -347124.655224 kJ/mol
# GULP energy per Si atom -12397.309115 kJ/mol
# Density = 1.808083 g / cm^3
# Si number density = 18.122077 Si / 1000 Ang^3
#
#
#
# Elastic Constant Matrix: (Units=GPa)
#
#
# Indices 1 2 3 4 5 6 
#
# 1 50.4140 34.3881 15.9912 0.0000 17.6457 0.0000
# 2 34.3881 114.4560 36.7931 0.0000 7.4234 0.0000
# 3 15.9912 36.7931 94.8732 0.0000 16.6830 0.0000
# 4 0.0000 0.0000 0.0000 11.0118 0.0000 7.6087
# 5 17.6457 7.4234 16.6830 0.0000 27.4070 0.0000
# 6 0.0000 0.0000 0.0000 7.6087 0.0000 25.6926
#
#
#
# Elastic Compliance Matrix: (Units=1/GPa)
#
#
# Indices 1 2 3 4 5 6 
#
# 1 0.032137 -0.008859 0.001383 0.000000 -0.019134 0.000000
# 2 -0.008859 0.012427 -0.004185 0.000000 0.004886 0.000000
# 3 0.001383 -0.004185 0.013313 0.000000 -0.007861 0.000000
# 4 0.000000 0.000000 0.000000 0.114174 0.000000 -0.033812
# 5 -0.019134 0.004886 -0.007861 0.000000 0.052268 0.000000
# 6 0.000000 0.000000 0.000000 -0.033812 0.000000 0.048935
#
#
# Mechanical properties :
#
#
# Convention : Reuss Voigt Hill
#
# Bulk Modulus (GPa) = 28.93962 48.23202 38.58582
# Shear Modulus (GPa) = 16.22880 24.32699 20.27789
#
# Velocity S-wave (km/s) = 2.99578 3.66785 3.34872
# Velocity P-wave (km/s) = 5.28869 6.67909 6.02414
#
# Compressibility (1/GPa) = 0.03455471
#
# Stress axis : x y z
#
# Youngs Moduli (GPa) = 31.11669 80.46807 75.11700
#
# Poissons Ratio (x) = 0.71289 -0.10392
# Poissons Ratio (y) = 0.27567 0.31439
# Poissons Ratio (z) = -0.04305 0.33678
#
# Static dielectric constant tensor:
#      x y z
#    x 3.560230 0.000000 0.112390 
#    y 0.000000 3.513850 0.000000 
#    z 0.112390 0.000000 3.235760 
# 
# 
# High freq. dielectric constant tensor:
#      x y z
#    x 1.712890 0.000000 0.015980 
#    y 0.000000 1.711960 0.000000 
#    z 0.015980 0.000000 1.681140 
# 
# From -- ./inp_files/257167.got.cif
#   From: 2010.06.25/outbox.cif.g09.slc.cpg/sg12_129_cif.got.tgz:257167.got - 2010.06.28 00:19:55.
