data_PCOD8089878
_publ_section_title
;
Structure prediction by ZEFSAII (Michael W. Deem and Ramdas Pophale) SiO2 
 PCOD8089878
Probable space group: C 2/M
;
_chemical_formula_sum "Si O2"
_cell_formula_units_Z 56
_cell_length_a 26.523903
_cell_length_b 9.534271
_cell_length_c 11.536249
_cell_angle_alpha 90.000000
_cell_angle_beta 73.697325
_cell_angle_gamma 90.000000
_cell_volume 2800.056243
_symmetry_space_group_name_H-M "C 2/M"
_symmetry_group_IT_number 12
_symmetry_cell_setting 'monoclinic'
loop_
_space_group_symop_operation_xyz
x,y,z
-x,y,-z
-x,-y,-z
x,-y,z
1/2+x,1/2+y,z
1/2-x,1/2+y,-z
1/2-x,1/2-y,-z
1/2+x,1/2-y,z
loop_
_atom_site_type_symbol
_atom_site_label
_atom_site_fract_x
_atom_site_fract_y
_atom_site_fract_z
Si Si1 0.969944 0.651524 0.400119
Si Si2 0.179242 0.834430 0.820638
Si Si3 0.869813 0.669437 0.953067
Si Si4 0.054902 0.840081 0.251861
Si Si5 0.207068 0.657701 0.189680
Si Si6 0.874288 0.762496 0.583903
Si Si7 0.201162 0.847416 0.554441
O O1 0.974237 0.500000 0.332667
O O2 0.909115 0.678235 0.468604
O O3 0.000000 0.639053 0.500000
O O4 0.996574 0.777019 0.309825
O O5 0.237403 0.772036 0.814290
O O6 0.169852 0.802293 0.690962
O O7 0.171861 0.000000 0.854645
O O8 0.137156 0.739382 0.916588
O O9 0.876110 0.500000 0.954567
O O10 0.920586 0.738515 0.860850
O O11 0.819398 0.720141 0.909490
O O12 0.089003 0.845165 0.348617
O O13 0.049599 0.000000 0.210398
O O14 0.221230 0.500000 0.153309
O O15 0.164991 0.661596 0.321007
O O16 0.838047 0.862380 0.528976
O O17 0.250000 0.750000 0.500000
O O18 0.225771 0.000000 0.562992
#
# Coordination Sequence:
#
# PCOD8089878 Si02
#       7
#     8   8   8   8   8   8   8
#     4   9  18  32  54  82 111 142 177 219 271 328
#     4  10  20  35  52  73 105 144 184 222 265 313
#     4  10  20  34  53  77 104 137 181 227 273 322
#     4  10  20  34  55  82 112 141 174 223 278 327
#     4   9  17  31  51  76 106 140 177 222 270 318
#     4  10  19  33  54  82 112 145 181 220 267 320
#     4  11  23  37  54  77 110 150 188 224 261 313
#
# _framework density 19.999599
#
# number of rings (size 3 to 8) (size 9 to 14) (size 15 to 20)
#    0.000    2.143    1.429    2.143    0.000    7.714 
#    0.000    0.714    0.000    0.857    0.000    5.000 
#    0.000    0.000    0.000    0.000    0.000    0.000 
#
# Total GULP energy -346926.713068 kJ/mol
# GULP energy per Si atom -12390.239752 kJ/mol
# Density = 1.995408 g / cm^3
# Si number density = 19.999599 Si / 1000 Ang^3
#
#
#
# Elastic Constant Matrix: (Units=GPa)
#
#
# Indices 1 2 3 4 5 6 
#
# 1 40.2162 19.3678 28.1001 0.0000 -15.9095 0.0000
# 2 19.3678 118.1891 52.5687 0.0000 -14.6032 0.0000
# 3 28.1001 52.5687 122.9914 0.0000 -13.7689 0.0000
# 4 0.0000 0.0000 0.0000 30.9802 0.0000 -13.2824
# 5 -15.9095 -14.6032 -13.7689 0.0000 27.5913 0.0000
# 6 0.0000 0.0000 0.0000 -13.2824 0.0000 5.0473
#
#
#
# Elastic Compliance Matrix: (Units=1/GPa)
#
#
# Indices 1 2 3 4 5 6 
#
# 1 0.036444 -0.001212 -0.005855 0.000000 0.017451 0.000000
# 2 -0.001212 0.010816 -0.004007 0.000000 0.003026 0.000000
# 3 -0.005855 -0.004007 0.011191 0.000000 0.000088 0.000000
# 4 0.000000 0.000000 0.000000 -0.251681 0.000000 -0.662315
# 5 0.017451 0.003026 0.000088 0.000000 0.047951 0.000000
# 6 0.000000 0.000000 0.000000 -0.662315 0.000000 -1.544800
#
#
# Mechanical properties :
#
#
# Convention : Reuss Voigt Hill
#
# Bulk Modulus (GPa) = 27.54620 53.49663 40.52142
# Shear Modulus (GPa) = -3.01963 24.81444 10.89741
#
# Velocity S-wave (km/s) = -1.23009 3.52625 2.33680
# Velocity P-wave (km/s) = 3.43304 6.58681 5.25223
#
# Compressibility (1/GPa) = 0.03630265
#
# Stress axis : x y z
#
# Youngs Moduli (GPa) = 27.43971 92.45689 89.35822
#
# Poissons Ratio (x) = 0.11203 0.52318
# Poissons Ratio (y) = 0.03325 0.35808
# Poissons Ratio (z) = 0.16065 0.37050
#
# Static dielectric constant tensor:
#      x y z
#    x 3.693040 0.000000 -0.118350 
#    y 0.000000 3.486900 0.000000 
#    z -0.118350 0.000000 3.611850 
# 
# 
# High freq. dielectric constant tensor:
#      x y z
#    x 1.754610 0.000000 -0.017180 
#    y 0.000000 1.770670 0.000000 
#    z -0.017180 0.000000 1.773360 
# 
# From -- ./inp_files/186484.got.cif
#   From: 2010.06.25/outbox.cif.g09.slc.cpg/sg12_94_cif.got.tgz:186484.got - 2010.06.28 00:19:55.
