data_PCOD8089913
_publ_section_title
;
Structure prediction by ZEFSAII (Michael W. Deem and Ramdas Pophale) SiO2 
 PCOD8089913
Probable space group: C 2/M
;
_chemical_formula_sum "Si O2"
_cell_formula_units_Z 56
_cell_length_a 20.240611
_cell_length_b 8.609829
_cell_length_c 26.258628
_cell_angle_alpha 90.000000
_cell_angle_beta 140.464266
_cell_angle_gamma 90.000000
_cell_volume 2912.923438
_symmetry_space_group_name_H-M "C 2/M"
_symmetry_group_IT_number 12
_symmetry_cell_setting 'monoclinic'
loop_
_space_group_symop_operation_xyz
x,y,z
-x,y,-z
-x,-y,-z
x,-y,z
1/2+x,1/2+y,z
1/2-x,1/2+y,-z
1/2-x,1/2-y,-z
1/2+x,1/2-y,z
loop_
_atom_site_type_symbol
_atom_site_label
_atom_site_fract_x
_atom_site_fract_y
_atom_site_fract_z
Si Si1 0.591910 0.183398 0.169227
Si Si2 0.558182 0.680697 0.682926
Si Si3 0.413978 0.821401 0.407900
Si Si4 0.415360 0.171295 0.993521
Si Si5 0.191339 0.820638 0.323046
Si Si6 0.733009 0.679951 0.166442
Si Si7 0.158528 0.682084 0.411610
O O1 0.605705 0.272697 0.230468
O O2 0.681296 0.227790 0.182234
O O3 0.598835 0.000000 0.182149
O O4 0.477222 0.231665 0.080231
O O5 0.569241 0.500000 0.701043
O O6 0.569661 0.710084 0.629915
O O7 0.647404 0.770725 0.767197
O O8 0.448001 0.738429 0.636336
O O9 0.500000 0.777763 0.500000
O O10 0.303356 0.787664 0.366435
O O11 0.424053 0.000000 0.395970
O O12 0.323069 0.285145 0.921030
O O13 0.368016 0.000000 0.975170
O O14 0.500000 0.160128 0.000000
O O15 0.180217 0.713924 0.365571
O O16 0.176400 0.000000 0.329344
O O17 0.723760 0.500000 0.173832
O O18 0.150814 0.500000 0.417227
O O19 0.250000 0.750000 0.500000
#
# Coordination Sequence:
#
# PCOD8089913 Si02
#       7
#     8   8   8   8   8   8   8
#     4  10  19  33  54  83 119 156 195 240 291 346
#     4  12  24  39  61  86 117 154 198 243 293 352
#     4  10  21  37  58  85 117 149 186 239 297 347
#     4   8  16  30  49  77 115 155 192 235 288 345
#     4  11  22  37  60  88 120 155 196 243 294 350
#     4  11  20  32  53  84 119 154 195 242 294 346
#     4  12  26  45  65  86 117 154 200 245 294 354
#
# _framework density 19.224672000000002
#
# number of rings (size 3 to 8) (size 9 to 14) (size 15 to 20)
#    0.000    1.429    1.429    6.429    0.000    5.143 
#    0.000    0.000    0.000    0.857    0.000    0.000 
#    0.000    0.000    0.000    0.000    0.000    0.000 
#
# Total GULP energy -347261.884081 kJ/mol
# GULP energy per Si atom -12402.210146 kJ/mol
# Density = 1.918092 g / cm^3
# Si number density = 19.224672 Si / 1000 Ang^3
#
#
#
# Elastic Constant Matrix: (Units=GPa)
#
#
# Indices 1 2 3 4 5 6 
#
# 1 60.5702 22.6437 44.5011 0.0000 0.4393 0.0000
# 2 22.6437 72.4933 29.3939 0.0000 5.0944 0.0003
# 3 44.5011 29.3939 155.8027 0.0000 -3.1826 0.0000
# 4 0.0000 0.0000 0.0000 34.1259 0.0000 -2.1665
# 5 0.4393 5.0944 -3.1826 0.0000 29.6564 0.0000
# 6 0.0000 0.0003 0.0000 -2.1665 0.0000 28.3319
#
#
#
# Elastic Compliance Matrix: (Units=1/GPa)
#
#
# Indices 1 2 3 4 5 6 
#
# 1 0.022308 -0.004739 -0.005480 0.000000 -0.000104 0.000000
# 2 -0.004739 0.016192 -0.001761 0.000000 -0.002900 0.000000
# 3 -0.005480 -0.001761 0.008342 0.000000 0.001279 0.000000
# 4 0.000000 0.000000 0.000000 0.029446 0.000000 0.002252
# 5 -0.000104 -0.002900 0.001279 0.000000 0.034356 0.000000
# 6 0.000000 0.000000 0.000000 0.002252 0.000000 0.035468
#
#
# Mechanical properties :
#
#
# Convention : Reuss Voigt Hill
#
# Bulk Modulus (GPa) = 43.69918 53.54932 48.62425
# Shear Modulus (GPa) = 28.13740 31.24468 29.69104
#
# Velocity S-wave (km/s) = 3.82986 4.03580 3.93418
# Velocity P-wave (km/s) = 6.50671 7.04499 6.78119
#
# Compressibility (1/GPa) = 0.02288373
#
# Stress axis : x y z
#
# Youngs Moduli (GPa) = 44.82664 61.75794 119.87772
#
# Poissons Ratio (x) = 0.29266 0.65691
# Poissons Ratio (y) = 0.21243 0.21105
# Poissons Ratio (z) = 0.24564 0.10873
#
# Static dielectric constant tensor:
#      x y z
#    x 3.191650 0.000000 -0.063720 
#    y 0.000000 3.562170 0.000000 
#    z -0.063720 0.000000 4.023020 
# 
# 
# High freq. dielectric constant tensor:
#      x y z
#    x 1.709290 0.000000 -0.005000 
#    y 0.000000 1.755860 0.000000 
#    z -0.005000 0.000000 1.772050 
# 
# From -- ./inp_files/363156.got.cif
#   From: 2010.06.25/outbox.cif.g09.slc.cpg/sg12_182_cif.got.tgz:363156.got - 2010.06.28 00:19:55.
