data_PCOD8089264
_publ_section_title
;
Structure prediction by ZEFSAII (Michael W. Deem and Ramdas Pophale) SiO2 
 PCOD8089264
Probable space group: C 2/M
;
_chemical_formula_sum "Si O2"
_cell_formula_units_Z 64
_cell_length_a 25.934846
_cell_length_b 14.298875
_cell_length_c 14.534663
_cell_angle_alpha 90.000000
_cell_angle_beta 141.698709
_cell_angle_gamma 90.000000
_cell_volume 3340.717711
_symmetry_space_group_name_H-M "C 2/M"
_symmetry_group_IT_number 12
_symmetry_cell_setting 'monoclinic'
loop_
_space_group_symop_operation_xyz
x,y,z
-x,y,-z
-x,-y,-z
x,-y,z
1/2+x,1/2+y,z
1/2-x,1/2+y,-z
1/2-x,1/2-y,-z
1/2+x,1/2-y,z
loop_
_atom_site_type_symbol
_atom_site_label
_atom_site_fract_x
_atom_site_fract_y
_atom_site_fract_z
Si Si1 0.658192 0.199306 0.298910
Si Si2 0.535992 0.099639 0.651441
Si Si3 0.932593 0.203532 0.323509
Si Si4 0.194079 0.890141 0.737879
Si Si5 0.872949 0.608974 0.928558
Si Si6 0.539288 0.105321 0.267365
Si Si7 0.681553 0.392600 0.407062
Si Si8 0.934640 0.105582 0.592964
O O1 0.609264 0.168084 0.139291
O O2 0.604962 0.177120 0.316254
O O3 0.675215 0.311995 0.319358
O O4 0.742235 0.137701 0.420416
O O5 0.500000 0.090211 0.500000
O O6 0.595664 0.189531 0.736765
O O7 0.462301 0.115945 0.623797
O O8 0.581388 0.000000 0.739712
O O9 0.847469 0.150255 0.227314
O O10 0.000000 0.196258 0.500000
O O11 0.979303 0.162618 0.298825
O O12 0.288237 0.853932 0.857477
O O13 0.139528 0.855073 0.575137
O O14 0.194394 0.000000 0.747733
O O15 0.866232 0.500000 0.892143
O O16 0.946888 0.628644 0.102359
O O17 0.565156 0.000000 0.274792
O O18 0.694881 0.500000 0.387971
O O19 0.596051 0.390074 0.345055
O O20 0.954568 0.000000 0.590565
#
# Coordination Sequence:
#
# PCOD8089264 Si02
#       8
#     8   8   8   8   8   8   8   8
#     4  11  20  32  53  77 107 139 173 213 256 309
#     4   9  18  33  49  69  98 129 165 212 258 298
#     4   9  16  26  45  70  95 126 165 201 247 306
#     4   9  16  27  45  70  98 126 160 206 259 305
#     4  10  19  33  52  76 106 135 166 215 267 306
#     4  10  20  33  54  79 101 131 175 216 257 311
#     4  10  20  32  48  75 108 138 169 212 262 304
#     4   9  15  26  44  68 101 129 156 201 257 304
#
# _framework density 19.157561000000001
#
# number of rings (size 3 to 8) (size 9 to 14) (size 15 to 20)
#    0.000    2.375    1.250    2.625    0.000    2.500 
#    0.000    0.625    0.000    1.500    0.000    0.000 
#    0.000    0.000    0.000    0.000    0.000    0.000 
#
# Total GULP energy -396514.969082 kJ/mol
# GULP energy per Si atom -12391.092784 kJ/mol
# Density = 1.911396 g / cm^3
# Si number density = 19.157561 Si / 1000 Ang^3
#
#
#
# Elastic Constant Matrix: (Units=GPa)
#
#
# Indices 1 2 3 4 5 6 
#
# 1 101.8944 33.3386 25.4222 0.0000 4.9674 0.0000
# 2 33.3386 96.9560 23.6376 0.0000 2.8669 0.0000
# 3 25.4222 23.6376 33.2318 0.0000 0.3120 0.0000
# 4 0.0000 0.0000 0.0000 13.7505 0.0000 1.4168
# 5 4.9674 2.8669 0.3120 0.0000 19.8640 0.0000
# 6 0.0000 0.0000 0.0000 1.4168 0.0000 25.8496
#
#
#
# Elastic Compliance Matrix: (Units=1/GPa)
#
#
# Indices 1 2 3 4 5 6 
#
# 1 0.012716 -0.002331 -0.008044 0.000000 -0.002717 0.000000
# 2 -0.002331 0.012960 -0.007424 0.000000 -0.001171 0.000000
# 3 -0.008044 -0.007424 0.041504 0.000000 0.002431 0.000000
# 4 0.000000 0.000000 0.000000 0.073137 0.000000 -0.004009
# 5 -0.002717 -0.001171 0.002431 0.000000 0.051153 0.000000
# 6 0.000000 0.000000 0.000000 -0.004009 0.000000 0.038905
#
#
# Mechanical properties :
#
#
# Convention : Reuss Voigt Hill
#
# Bulk Modulus (GPa) = 31.66490 44.09767 37.88128
# Shear Modulus (GPa) = 18.08311 21.87174 19.97742
#
# Velocity S-wave (km/s) = 3.07565 3.38254 3.23274
# Velocity P-wave (km/s) = 5.40161 6.19062 5.80953
#
# Compressibility (1/GPa) = 0.03158071
#
# Stress axis : x y z
#
# Youngs Moduli (GPa) = 78.63948 77.15989 24.09433
#
# Poissons Ratio (x) = 0.17986 0.19382
# Poissons Ratio (y) = 0.18331 0.17888
# Poissons Ratio (z) = 0.63260 0.57285
#
# Static dielectric constant tensor:
#      x y z
#    x 3.608710 0.000000 0.115800 
#    y 0.000000 3.761270 0.000000 
#    z 0.115800 0.000000 3.020780 
# 
# 
# High freq. dielectric constant tensor:
#      x y z
#    x 1.749320 0.000000 0.008250 
#    y 0.000000 1.751020 0.000000 
#    z 0.008250 0.000000 1.684610 
# 
# From -- ./inp_files/240709.got.cif
#   From: 2010.06.25/outbox.cif.g09.slc.cpg/sg12_121_cif.got.tgz:240709.got - 2010.06.28 00:19:55.
