data_PCOD8089210
_publ_section_title
;
Structure prediction by ZEFSAII (Michael W. Deem and Ramdas Pophale) SiO2 
 PCOD8089210
Probable space group: C 2/M
;
_chemical_formula_sum "Si O2"
_cell_formula_units_Z 64
_cell_length_a 14.689711
_cell_length_b 8.868313
_cell_length_c 26.962155
_cell_angle_alpha 90.000000
_cell_angle_beta 103.906882
_cell_angle_gamma 90.000000
_cell_volume 3409.481641
_symmetry_space_group_name_H-M "C 2/M"
_symmetry_group_IT_number 12
_symmetry_cell_setting 'monoclinic'
loop_
_space_group_symop_operation_xyz
x,y,z
-x,y,-z
-x,-y,-z
x,-y,z
1/2+x,1/2+y,z
1/2-x,1/2+y,-z
1/2-x,1/2-y,-z
1/2+x,1/2-y,z
loop_
_atom_site_type_symbol
_atom_site_label
_atom_site_fract_x
_atom_site_fract_y
_atom_site_fract_z
Si Si1 0.393970 0.822028 0.494930
Si Si2 0.745637 0.325553 0.764702
Si Si3 0.538583 0.178362 0.056331
Si Si4 0.734794 0.174930 0.122186
Si Si5 0.221355 0.322869 0.424640
Si Si6 0.134366 0.679166 0.309613
Si Si7 0.539184 0.679271 0.756488
Si Si8 0.430014 0.821715 0.137768
O O1 0.500000 0.759547 0.500000
O O2 0.322551 0.753899 0.445285
O O3 0.355413 0.774030 0.544123
O O4 0.393877 0.000000 0.488086
O O5 0.738887 0.500000 0.751015
O O6 0.794816 0.297682 0.824300
O O7 0.805100 0.251933 0.728080
O O8 0.640538 0.259817 0.752200
O O9 0.647736 0.221753 0.076394
O O10 0.479880 0.241694 0.094947
O O11 0.526762 0.000000 0.053785
O O12 0.500000 0.249543 0.000000
O O13 0.821113 0.279377 0.118567
O O14 0.763694 0.000000 0.119098
O O15 0.238229 0.500000 0.428615
O O16 0.182245 0.269117 0.366770
O O17 0.121645 0.500000 0.305509
O O18 0.033213 0.756667 0.293022
O O19 0.535209 0.500000 0.758604
O O20 0.519660 0.744339 0.808758
O O21 0.441766 0.000000 0.145012
#
# Coordination Sequence:
#
# PCOD8089210 Si02
#       8
#     8   8   8   8   8   8   8   8
#     4   9  18  34  53  71  98 135 168 202 249 297
#     4   8  16  31  49  68  94 130 162 191 238 296
#     4   9  18  32  51  74  99 130 165 198 242 301
#     4   9  17  32  52  71  95 128 164 199 240 292
#     4   9  19  33  50  75 101 128 167 209 244 286
#     4  10  19  33  52  74 102 131 163 205 246 285
#     4  10  20  34  51  73 100 130 164 197 240 297
#     4  10  19  33  53  74  97 128 166 204 242 286
#
# _framework density 18.771180999999999
#
# number of rings (size 3 to 8) (size 9 to 14) (size 15 to 20)
#    0.000    2.750    0.000    2.250    0.000    4.250 
#    0.000    6.875    0.000    2.625    0.000    0.000 
#    0.000    0.000    0.000    0.000    0.000    0.000 
#
# Total GULP energy -396741.415542 kJ/mol
# GULP energy per Si atom -12398.169236 kJ/mol
# Density = 1.872846 g / cm^3
# Si number density = 18.771181 Si / 1000 Ang^3
#
#
#
# Elastic Constant Matrix: (Units=GPa)
#
#
# Indices 1 2 3 4 5 6 
#
# 1 85.0721 17.9560 46.5436 0.0000 17.8388 0.0000
# 2 17.9560 33.2640 24.2876 0.0000 6.1800 0.0000
# 3 46.5436 24.2876 122.3006 0.0000 24.6956 0.0000
# 4 0.0000 0.0000 0.0000 23.2801 0.0000 6.0952
# 5 17.8388 6.1800 24.6956 0.0000 29.4802 0.0000
# 6 0.0000 0.0000 0.0000 6.0952 0.0000 25.9120
#
#
#
# Elastic Compliance Matrix: (Units=1/GPa)
#
#
# Indices 1 2 3 4 5 6 
#
# 1 0.016119 -0.004700 -0.004129 0.000000 -0.005310 0.000000
# 2 -0.004700 0.036614 -0.005424 0.000000 -0.000287 0.000000
# 3 -0.004129 -0.005424 0.012145 0.000000 -0.006539 0.000000
# 4 0.000000 0.000000 0.000000 0.045774 0.000000 -0.010767
# 5 -0.005310 -0.000287 -0.006539 0.000000 0.042672 0.000000
# 6 0.000000 0.000000 0.000000 -0.010767 0.000000 0.041125
#
#
# Mechanical properties :
#
#
# Convention : Reuss Voigt Hill
#
# Bulk Modulus (GPa) = 27.49390 46.46790 36.98090
# Shear Modulus (GPa) = 21.26944 25.85779 23.56362
#
# Velocity S-wave (km/s) = 3.36979 3.71553 3.54688
# Velocity P-wave (km/s) = 5.46071 6.57385 6.04297
#
# Compressibility (1/GPa) = 0.03637171
#
# Stress axis : x y z
#
# Youngs Moduli (GPa) = 62.03832 27.31227 82.33555
#
# Poissons Ratio (x) = 0.12837 0.33995
# Poissons Ratio (y) = 0.29158 0.44662
# Poissons Ratio (z) = 0.25615 0.14815
#
# Static dielectric constant tensor:
#      x y z
#    x 3.605960 0.000000 -0.048060 
#    y 0.000000 3.102350 0.000000 
#    z -0.048060 0.000000 3.589880 
# 
# 
# High freq. dielectric constant tensor:
#      x y z
#    x 1.735590 0.000000 0.005650 
#    y 0.000000 1.697960 0.000000 
#    z 0.005650 0.000000 1.729690 
# 
# From -- ./inp_files/359998.got.cif
#   From: 2010.06.25/outbox.cif.g09.slc.cpg/sg12_180_cif.got.tgz:359998.got - 2010.06.28 00:19:55.
