data_PCOD8089563
_publ_section_title
;
Structure prediction by ZEFSAII (Michael W. Deem and Ramdas Pophale) SiO2 
 PCOD8089563
Probable space group: C 2/M
;
_chemical_formula_sum "Si O2"
_cell_formula_units_Z 48
_cell_length_a 19.938934
_cell_length_b 8.751055
_cell_length_c 14.448564
_cell_angle_alpha 90.000000
_cell_angle_beta 87.601475
_cell_angle_gamma 90.000000
_cell_volume 2518.873668
_symmetry_space_group_name_H-M "C 2/M"
_symmetry_group_IT_number 12
_symmetry_cell_setting 'monoclinic'
loop_
_space_group_symop_operation_xyz
x,y,z
-x,y,-z
-x,-y,-z
x,-y,z
1/2+x,1/2+y,z
1/2-x,1/2+y,-z
1/2-x,1/2-y,-z
1/2+x,1/2-y,z
loop_
_atom_site_type_symbol
_atom_site_label
_atom_site_fract_x
_atom_site_fract_y
_atom_site_fract_z
Si Si1 0.597126 0.320027 0.110246
Si Si2 0.372290 0.174877 0.710259
Si Si3 0.684789 0.819014 0.957450
Si Si4 0.157705 0.319193 0.752547
Si Si5 0.235994 0.181171 0.401689
Si Si6 0.009324 0.325377 0.773868
O O1 0.605571 0.500000 0.102448
O O2 0.645486 0.256215 0.190366
O O3 0.519902 0.273089 0.137764
O O4 0.618810 0.242546 0.013253
O O5 0.336976 0.263711 0.628628
O O6 0.454051 0.183463 0.693575
O O7 0.347482 0.000000 0.713918
O O8 0.680737 0.762318 0.851920
O O9 0.687327 0.000000 0.963629
O O10 0.750000 0.750000 0.000000
O O11 0.160371 0.500000 0.746373
O O12 0.207697 0.252769 0.672046
O O13 0.081416 0.261059 0.737156
O O14 0.250000 0.250000 0.500000
O O15 0.236982 0.000000 0.407872
O O16 0.017450 0.500000 0.807912
#
# Coordination Sequence:
#
# PCOD8089563 Si02
#       6
#     8   8   8   8   8   8
#     4  10  19  33  53  80 116 152 184 219 276 338
#     4   9  18  35  60  83 109 146 188 231 277 327
#     4  11  21  34  54  82 114 151 194 237 280 327
#     4   9  20  38  59  81 108 147 193 237 277 329
#     4  11  22  38  61  86 114 146 185 233 288 345
#     4   8  17  36  59  81 108 146 193 233 273 326
#
# _framework density 19.056135999999999
#
# number of rings (size 3 to 8) (size 9 to 14) (size 15 to 20)
#    1.000    1.333    0.000    3.500    0.000    2.000 
#    0.000   10.000    0.000    5.000    0.000    0.000 
#    0.000    0.000    0.000    0.000    0.000    0.000 
#
# Total GULP energy -297414.638503 kJ/mol
# GULP energy per Si atom -12392.276604 kJ/mol
# Density = 1.901276 g / cm^3
# Si number density = 19.056136 Si / 1000 Ang^3
#
#
#
# Elastic Constant Matrix: (Units=GPa)
#
#
# Indices 1 2 3 4 5 6 
#
# 1 126.6666 32.9691 61.8208 0.0000 5.5061 0.0000
# 2 32.9691 92.0651 42.8560 0.0000 4.7344 0.0000
# 3 61.8208 42.8560 133.2828 0.0000 7.6659 0.0000
# 4 0.0000 0.0000 0.0000 28.5786 0.0000 2.6842
# 5 5.5061 4.7344 7.6659 0.0000 15.7208 0.0000
# 6 0.0000 0.0000 0.0000 2.6842 0.0000 24.3248
#
#
#
# Elastic Compliance Matrix: (Units=1/GPa)
#
#
# Indices 1 2 3 4 5 6 
#
# 1 0.010456 -0.001717 -0.004235 0.000000 -0.001080 0.000000
# 2 -0.001717 0.013111 -0.003320 0.000000 -0.001728 0.000000
# 3 -0.004235 -0.003320 0.010692 0.000000 -0.002730 0.000000
# 4 0.000000 0.000000 0.000000 0.035358 0.000000 -0.003902
# 5 -0.001080 -0.001728 -0.002730 0.000000 0.065840 0.000000
# 6 0.000000 0.000000 0.000000 -0.003902 0.000000 0.041541
#
#
# Mechanical properties :
#
#
# Convention : Reuss Voigt Hill
#
# Bulk Modulus (GPa) = 63.63875 69.70071 66.66973
# Shear Modulus (GPa) = 24.90287 28.01609 26.45948
#
# Velocity S-wave (km/s) = 3.61891 3.83846 3.73030
# Velocity P-wave (km/s) = 7.13652 7.50340 7.32226
#
# Compressibility (1/GPa) = 0.01571370
#
# Stress axis : x y z
#
# Youngs Moduli (GPa) = 95.64077 76.27145 93.52855
#
# Poissons Ratio (x) = 0.13097 0.39614
# Poissons Ratio (y) = 0.16423 0.31050
# Poissons Ratio (z) = 0.40509 0.25321
#
# Static dielectric constant tensor:
#      x y z
#    x 3.703120 0.000000 -0.077600 
#    y 0.000000 3.323780 0.000000 
#    z -0.077600 0.000000 3.367070 
# 
# 
# High freq. dielectric constant tensor:
#      x y z
#    x 1.744140 0.000000 0.004450 
#    y 0.000000 1.733290 0.000000 
#    z 0.004450 0.000000 1.715070 
# 
# From -- ./inp_files/229331.got.cif
#   From: 2010.06.25/outbox.cif.g09.slc.cpg/sg12_115_cif.got.tgz:229331.got - 2010.06.28 00:19:55.
