data_PCOD8089686
_publ_section_title
;
Structure prediction by ZEFSAII (Michael W. Deem and Ramdas Pophale) SiO2 
 PCOD8089686
Probable space group: C 2/M
;
_chemical_formula_sum "Si O2"
_cell_formula_units_Z 64
_cell_length_a 28.296287
_cell_length_b 14.704709
_cell_length_c 20.035479
_cell_angle_alpha 90.000000
_cell_angle_beta 22.605591
_cell_angle_gamma 90.000000
_cell_volume 3204.442697
_symmetry_space_group_name_H-M "C 2/M"
_symmetry_group_IT_number 12
_symmetry_cell_setting 'monoclinic'
loop_
_space_group_symop_operation_xyz
x,y,z
-x,y,-z
-x,-y,-z
x,-y,z
1/2+x,1/2+y,z
1/2-x,1/2+y,-z
1/2-x,1/2-y,-z
1/2+x,1/2-y,z
loop_
_atom_site_type_symbol
_atom_site_label
_atom_site_fract_x
_atom_site_fract_y
_atom_site_fract_z
Si Si1 0.439891 0.104243 0.696426
Si Si2 0.577148 0.398924 0.339616
Si Si3 0.618558 0.395744 0.514682
Si Si4 0.708218 0.660379 0.908583
Si Si5 0.453045 0.400141 0.247267
Si Si6 0.883495 0.891425 0.195816
Si Si7 0.189689 0.710714 0.365875
Si Si8 0.808353 0.689315 0.980636
O O1 0.328657 0.125137 0.790592
O O2 0.549323 0.175430 0.541389
O O3 0.396747 0.115937 0.830112
O O4 0.483285 0.000000 0.629359
O O5 0.500000 0.349019 0.500000
O O6 0.603917 0.500000 0.330618
O O7 0.510757 0.398289 0.355011
O O8 0.707055 0.353363 0.160821
O O9 0.674734 0.500000 0.438966
O O10 0.591709 0.357381 0.624101
O O11 0.699684 0.318096 0.372170
O O12 0.743564 0.695764 0.790450
O O13 0.601121 0.585720 0.045493
O O14 0.629761 0.740360 0.048768
O O15 0.396076 0.500000 0.323498
O O16 0.400024 0.352062 0.249742
O O17 0.757695 0.848761 0.332916
O O18 0.871913 0.000000 0.209357
O O19 0.000000 0.859446 0.000000
O O20 0.750000 0.750000 0.000000
#
# Coordination Sequence:
#
# PCOD8089686 Si02
#       8
#     8   8   8   8   8   8   8   8
#     4  11  23  36  54  85 125 160 188 232 300 361
#     4  10  19  33  54  77 106 149 196 235 268 316
#     4  10  21  37  57  84 114 148 195 243 287 340
#     4  11  21  34  56  83 115 155 194 239 284 343
#     4  10  20  37  61  84 109 148 198 244 284 334
#     4  10  21  39  61  87 114 145 193 245 291 342
#     4  12  23  37  59  86 119 151 189 239 295 355
#     4  10  20  33  49  73 111 151 189 226 272 335
#
# _framework density 19.972270999999999
#
# number of rings (size 3 to 8) (size 9 to 14) (size 15 to 20)
#    0.000    1.500    1.250    6.000    0.000    3.500 
#    0.000    0.625    0.000    0.375    0.000    0.000 
#    0.000    0.000    0.000    0.000    0.000    0.000 
#
# Total GULP energy -396418.166470 kJ/mol
# GULP energy per Si atom -12388.067702 kJ/mol
# Density = 1.992681 g / cm^3
# Si number density = 19.972271 Si / 1000 Ang^3
#
#
#
# Elastic Constant Matrix: (Units=GPa)
#
#
# Indices 1 2 3 4 5 6 
#
# 1 110.4747 22.7953 20.4383 -0.0001 14.2665 0.0000
# 2 22.7953 85.9761 18.4477 -0.0002 11.0835 0.0001
# 3 20.4383 18.4477 48.2546 -0.0003 14.7800 0.0002
# 4 -0.0001 -0.0002 -0.0003 24.5241 0.0001 5.9443
# 5 14.2665 11.0835 14.7800 0.0001 42.7626 -0.0001
# 6 0.0000 0.0001 0.0002 5.9443 -0.0001 16.0793
#
#
#
# Elastic Compliance Matrix: (Units=1/GPa)
#
#
# Indices 1 2 3 4 5 6 
#
# 1 0.010237 -0.001813 -0.003065 0.000000 -0.001886 0.000000
# 2 -0.001813 0.013117 -0.003792 0.000000 -0.001484 0.000000
# 3 -0.003065 -0.003792 0.025563 0.000000 -0.006830 0.000000
# 4 0.000000 0.000000 0.000000 0.044790 0.000000 -0.016558
# 5 -0.001886 -0.001484 -0.006830 0.000000 0.026759 0.000000
# 6 0.000000 0.000000 0.000000 -0.016558 0.000000 0.068313
#
#
# Mechanical properties :
#
#
# Convention : Reuss Voigt Hill
#
# Bulk Modulus (GPa) = 31.66928 40.89646 36.28287
# Shear Modulus (GPa) = 23.07929 28.87482 25.97706
#
# Velocity S-wave (km/s) = 3.40305 3.80642 3.61037
# Velocity P-wave (km/s) = 5.59750 6.31186 5.96538
#
# Compressibility (1/GPa) = 0.03157634
#
# Stress axis : x y z
#
# Youngs Moduli (GPa) = 97.68908 76.23768 39.11873
#
# Poissons Ratio (x) = 0.13825 0.11989
# Poissons Ratio (y) = 0.17714 0.14834
# Poissons Ratio (z) = 0.29940 0.28909
#
# Static dielectric constant tensor:
#      x y z
#    x 3.878430 0.000000 0.258590 
#    y 0.000000 3.779810 0.000000 
#    z 0.258590 0.000000 3.357480 
# 
# 
# High freq. dielectric constant tensor:
#      x y z
#    x 1.781080 0.000000 0.029880 
#    y 0.000000 1.775970 0.000000 
#    z 0.029880 0.000000 1.757870 
# 
# From -- ./inp_files/330318.got.cif
#   From: 2010.06.25/outbox.cif.g09.slc.cpg/sg12_166_cif.got.tgz:330318.got - 2010.06.28 00:19:55.
