data_PCOD8089768
_publ_section_title
;
Structure prediction by ZEFSAII (Michael W. Deem and Ramdas Pophale) SiO2 
 PCOD8089768
Probable space group: C 2/M
;
_chemical_formula_sum "Si O2"
_cell_formula_units_Z 56
_cell_length_a 20.757258
_cell_length_b 8.869451
_cell_length_c 17.514183
_cell_angle_alpha 90.000000
_cell_angle_beta 61.555276
_cell_angle_gamma 90.000000
_cell_volume 2835.191114
_symmetry_space_group_name_H-M "C 2/M"
_symmetry_group_IT_number 12
_symmetry_cell_setting 'monoclinic'
loop_
_space_group_symop_operation_xyz
x,y,z
-x,y,-z
-x,-y,-z
x,-y,z
1/2+x,1/2+y,z
1/2-x,1/2+y,-z
1/2-x,1/2-y,-z
1/2+x,1/2-y,z
loop_
_atom_site_type_symbol
_atom_site_label
_atom_site_fract_x
_atom_site_fract_y
_atom_site_fract_z
Si Si1 0.674089 0.165732 0.629009
Si Si2 0.342123 0.335069 0.504180
Si Si3 0.080622 0.678514 0.971529
Si Si4 0.172108 0.679088 0.065816
Si Si5 0.195233 0.679816 0.784470
Si Si6 0.574639 0.823443 0.416728
Si Si7 0.649094 0.679128 0.239605
O O1 0.630349 0.268546 0.592868
O O2 0.755645 0.145416 0.552161
O O3 0.674162 0.242622 0.712651
O O4 0.636474 0.000000 0.653177
O O5 0.378693 0.500000 0.495500
O O6 0.360968 0.223372 0.562348
O O7 0.078042 0.500000 0.964963
O O8 0.135838 0.744188 0.877002
O O9 0.111165 0.724259 0.037248
O O10 0.000000 0.746773 0.000000
O O11 0.182134 0.500000 0.064960
O O12 0.141032 0.744654 0.161879
O O13 0.250000 0.750000 0.000000
O O14 0.196768 0.500000 0.780170
O O15 0.274933 0.735755 0.765834
O O16 0.500000 0.773653 0.500000
O O17 0.583552 0.736040 0.331341
O O18 0.577562 0.000000 0.398391
O O19 0.645963 0.500000 0.232054
#
# Coordination Sequence:
#
# PCOD8089768 Si02
#       7
#     8   8   8   8   8   8   8
#     4   9  17  31  52  79 109 143 185 235 284 335
#     4  10  19  33  54  79 109 145 185 229 288 348
#     4   9  18  34  57  85 118 155 196 244 294 350
#     4  11  21  36  61  93 124 158 206 253 303 361
#     4   9  16  31  55  82 110 147 193 238 288 348
#     4  11  24  41  59  82 114 152 199 251 302 358
#     4  11  21  38  62  88 117 152 199 250 304 363
#
# _framework density 19.751754999999999
#
# number of rings (size 3 to 8) (size 9 to 14) (size 15 to 20)
#    0.000    2.000    2.857    1.714    0.000    1.714 
#    2.571    0.000    0.000    1.714    0.000    0.000 
#    0.000    0.000    0.000    0.000    0.000    0.000 
#
# Total GULP energy -347128.336738 kJ/mol
# GULP energy per Si atom -12397.440598 kJ/mol
# Density = 1.970680 g / cm^3
# Si number density = 19.751755 Si / 1000 Ang^3
#
#
#
# Elastic Constant Matrix: (Units=GPa)
#
#
# Indices 1 2 3 4 5 6 
#
# 1 81.0139 33.6368 57.5898 0.0001 11.4834 0.0000
# 2 33.6368 67.4319 48.0825 0.0001 5.9818 0.0000
# 3 57.5898 48.0825 170.2728 0.0000 26.7650 0.0000
# 4 0.0001 0.0001 0.0000 30.0019 0.0000 6.1710
# 5 11.4834 5.9818 26.7650 0.0000 39.5198 0.0000
# 6 0.0000 0.0000 0.0000 6.1710 0.0000 20.7573
#
#
#
# Elastic Compliance Matrix: (Units=1/GPa)
#
#
# Indices 1 2 3 4 5 6 
#
# 1 0.017958 -0.005837 -0.004190 0.000000 -0.001497 0.000000
# 2 -0.005837 0.020490 -0.004019 0.000000 0.001316 0.000000
# 3 -0.004190 -0.004019 0.009108 0.000000 -0.004342 0.000000
# 4 0.000000 0.000000 0.000000 0.035502 0.000000 -0.010555
# 5 -0.001497 0.001316 -0.004342 0.000000 0.028480 0.000000
# 6 0.000000 0.000000 0.000000 -0.010555 0.000000 0.051314
#
#
# Mechanical properties :
#
#
# Convention : Reuss Voigt Hill
#
# Bulk Modulus (GPa) = 51.37852 66.37077 58.87464
# Shear Modulus (GPa) = 25.32512 30.01643 27.67078
#
# Velocity S-wave (km/s) = 3.58463 3.90254 3.74696
# Velocity P-wave (km/s) = 6.57277 7.34723 6.97077
#
# Compressibility (1/GPa) = 0.01946339
#
# Stress axis : x y z
#
# Youngs Moduli (GPa) = 55.68554 48.80314 109.79944
#
# Poissons Ratio (x) = 0.28488 0.46007
# Poissons Ratio (y) = 0.32506 0.44126
# Poissons Ratio (z) = 0.23333 0.19613
#
# Static dielectric constant tensor:
#      x y z
#    x 3.528580 0.000000 0.148850 
#    y 0.000000 3.541630 0.000000 
#    z 0.148850 0.000000 3.800550 
# 
# 
# High freq. dielectric constant tensor:
#      x y z
#    x 1.753070 0.000000 0.019190 
#    y 0.000000 1.746890 0.000000 
#    z 0.019190 0.000000 1.778550 
# 
# From -- ./inp_files/281016.got.cif
#   From: 2010.06.25/outbox.cif.g09.slc.cpg/sg12_141_cif.got.tgz:281016.got - 2010.06.28 00:19:55.
