data_PCOD8089859
_publ_section_title
;
Structure prediction by ZEFSAII (Michael W. Deem and Ramdas Pophale) SiO2 
 PCOD8089859
Probable space group: C 2/M
;
_chemical_formula_sum "Si O2"
_cell_formula_units_Z 56
_cell_length_a 15.602673
_cell_length_b 15.835532
_cell_length_c 14.439640
_cell_angle_alpha 90.000000
_cell_angle_beta 128.768740
_cell_angle_gamma 90.000000
_cell_volume 2781.661422
_symmetry_space_group_name_H-M "C 2/M"
_symmetry_group_IT_number 12
_symmetry_cell_setting 'monoclinic'
loop_
_space_group_symop_operation_xyz
x,y,z
-x,y,-z
-x,-y,-z
x,-y,z
1/2+x,1/2+y,z
1/2-x,1/2+y,-z
1/2-x,1/2-y,-z
1/2+x,1/2-y,z
loop_
_atom_site_type_symbol
_atom_site_label
_atom_site_fract_x
_atom_site_fract_y
_atom_site_fract_z
Si Si1 0.903960 0.590601 0.090054
Si Si2 0.542422 0.761762 0.382979
Si Si3 0.136934 0.651692 0.274497
Si Si4 0.834153 0.094052 0.524083
Si Si5 0.627167 0.770110 0.077897
Si Si6 0.329539 0.095455 0.427275
Si Si7 0.179507 0.342836 0.781252
O O1 0.867603 0.500000 0.025137
O O2 0.862085 0.595763 0.166668
O O3 0.036235 0.591111 0.180579
O O4 0.855441 0.661799 0.990947
O O5 0.596856 0.777281 0.319913
O O6 0.576767 0.667230 0.437618
O O7 0.582012 0.834825 0.480732
O O8 0.410219 0.767073 0.290269
O O9 0.236792 0.598164 0.383029
O O10 0.176462 0.697492 0.208246
O O11 0.783127 0.108189 0.591696
O O12 0.887710 0.000000 0.553399
O O13 0.702923 0.691054 0.103893
O O14 0.500000 0.742642 0.000000
O O15 0.303912 0.105680 0.301897
O O16 0.375429 0.000000 0.476200
#
# Coordination Sequence:
#
# PCOD8089859 Si02
#       7
#     8   8   8   8   8   8   8
#     4  10  21  35  53  79 104 131 175 228 272 308
#     4  10  20  33  52  82 117 144 173 214 264 322
#     4   9  18  33  55  78 104 139 179 223 262 302
#     4  10  19  33  54  81 114 148 178 208 252 321
#     4  10  21  37  57  75  97 136 182 224 264 314
#     4  10  20  34  57  86 111 140 179 219 262 314
#     4  11  21  35  55  78 108 139 172 218 275 320
#
# _framework density 20.131853
#
# number of rings (size 3 to 8) (size 9 to 14) (size 15 to 20)
#    0.000    2.000    0.000    5.143    0.000    7.714 
#    0.000    0.714    0.000    7.714    0.000    0.000 
#    0.000    0.000    0.000    0.000    0.000    0.000 
#
# Total GULP energy -347136.372452 kJ/mol
# GULP energy per Si atom -12397.727588 kJ/mol
# Density = 2.008603 g / cm^3
# Si number density = 20.131853 Si / 1000 Ang^3
#
#
#
# Elastic Constant Matrix: (Units=GPa)
#
#
# Indices 1 2 3 4 5 6 
#
# 1 46.4676 21.8503 16.7198 0.0000 4.6561 0.0000
# 2 21.8503 116.1598 23.2042 0.0000 20.4560 0.0000
# 3 16.7198 23.2042 68.5233 0.0000 -7.7954 0.0000
# 4 0.0000 0.0000 0.0000 23.7470 0.0000 -2.2632
# 5 4.6561 20.4560 -7.7954 0.0000 32.4684 0.0000
# 6 0.0000 0.0000 0.0000 -2.2632 0.0000 -1.3032
#
#
#
# Elastic Compliance Matrix: (Units=1/GPa)
#
#
# Indices 1 2 3 4 5 6 
#
# 1 0.025249 -0.003147 -0.005430 0.000000 -0.002942 0.000000
# 2 -0.003147 0.011332 -0.003938 0.000000 -0.007633 0.000000
# 3 -0.005430 -0.003938 0.018118 0.000000 0.007610 0.000000
# 4 0.000000 0.000000 0.000000 0.036130 0.000000 -0.062748
# 5 -0.002942 -0.007633 0.007610 0.000000 0.037857 0.000000
# 6 0.000000 0.000000 0.000000 -0.062748 0.000000 -0.658392
#
#
# Mechanical properties :
#
#
# Convention : Reuss Voigt Hill
#
# Bulk Modulus (GPa) = 33.70507 39.41106 36.55806
# Shear Modulus (GPa) = -10.10533 22.27420 6.08443
#
# Velocity S-wave (km/s) = -2.24287 3.32989 1.74036
# Velocity P-wave (km/s) = 3.17352 5.86542 4.71563
#
# Compressibility (1/GPa) = 0.02966913
#
# Stress axis : x y z
#
# Youngs Moduli (GPa) = 39.60623 88.24839 55.19479
#
# Poissons Ratio (x) = 0.27769 0.29970
# Poissons Ratio (y) = 0.12463 0.21735
# Poissons Ratio (z) = 0.21506 0.34751
#
# Static dielectric constant tensor:
#      x y z
#    x 3.610800 0.000000 -0.166200 
#    y 0.000000 3.529250 0.000000 
#    z -0.166200 0.000000 3.598510 
# 
# 
# High freq. dielectric constant tensor:
#      x y z
#    x 1.779920 0.000000 -0.020300 
#    y 0.000000 1.772240 0.000000 
#    z -0.020300 0.000000 1.777380 
# 
# From -- ./inp_files/225357.got.cif
#   From: 2010.06.25/outbox.cif.g09.slc.cpg/sg12_113_cif.got.tgz:225357.got - 2010.06.28 00:19:55.
