data_PCOD8089116
_publ_section_title
;
Structure prediction by ZEFSAII (Michael W. Deem and Ramdas Pophale) SiO2 
 PCOD8089116
Probable space group: C 2/M
;
_chemical_formula_sum "Si O2"
_cell_formula_units_Z 64
_cell_length_a 25.834880
_cell_length_b 9.813120
_cell_length_c 25.661775
_cell_angle_alpha 90.000000
_cell_angle_beta 146.319163
_cell_angle_gamma 90.000000
_cell_volume 3607.892617
_symmetry_space_group_name_H-M "C 2/M"
_symmetry_group_IT_number 12
_symmetry_cell_setting 'monoclinic'
loop_
_space_group_symop_operation_xyz
x,y,z
-x,y,-z
-x,-y,-z
x,-y,z
1/2+x,1/2+y,z
1/2-x,1/2+y,-z
1/2-x,1/2-y,-z
1/2+x,1/2-y,z
loop_
_atom_site_type_symbol
_atom_site_label
_atom_site_fract_x
_atom_site_fract_y
_atom_site_fract_z
Si Si1 0.350988 0.835959 0.751641
Si Si2 0.496701 0.843890 0.620244
Si Si3 0.047603 0.340477 0.875142
Si Si4 0.316360 0.154954 0.413548
Si Si5 0.218905 0.353724 0.200888
Si Si6 0.590398 0.714846 0.602552
Si Si7 0.890410 0.339133 0.185636
Si Si8 0.275107 0.162578 0.908892
O O1 0.448592 0.780607 0.811073
O O2 0.268687 0.760414 0.651294
O O3 0.344862 0.786065 0.807366
O O4 0.338350 0.000000 0.736807
O O5 0.387638 0.807928 0.520362
O O6 0.564236 0.767616 0.637361
O O7 0.526392 0.808574 0.704002
O O8 0.513141 0.000000 0.621203
O O9 0.035110 0.500000 0.860631
O O10 0.073868 0.285113 0.840157
O O11 0.126234 0.301913 0.982636
O O12 0.373983 0.168068 0.407477
O O13 0.279496 0.000000 0.386761
O O14 0.174441 0.500000 0.150604
O O15 0.321483 0.380961 0.312130
O O16 0.221184 0.276968 0.147270
O O17 0.500000 0.641056 0.500000
O O18 0.863382 0.500000 0.162131
O O19 0.801405 0.247828 0.124250
O O20 0.251985 0.000000 0.891813
#
# Coordination Sequence:
#
# PCOD8089116 Si02
#       8
#     8   8   8   8   8   8   8   8
#     4   9  18  34  50  68  96 130 165 196 231 281
#     4   9  16  27  45  69  97 125 157 192 234 287
#     4   9  19  34  53  71  92 128 167 199 235 281
#     4   9  17  29  47  71  96 125 159 197 237 278
#     4   9  17  28  45  70  98 126 156 195 239 280
#     4   9  15  25  42  67  97 127 157 187 232 285
#     4  10  19  33  52  74  97 125 160 197 238 286
#     4  10  19  33  51  74 100 123 155 201 246 285
#
# _framework density 17.738887999999999
#
# number of rings (size 3 to 8) (size 9 to 14) (size 15 to 20)
#    0.000    2.750    1.250    0.750    0.000    2.250 
#    0.000    6.875    0.000    0.000    0.000    2.625 
#    0.000    0.000    0.000    0.000    0.000    0.000 
#
# Total GULP energy -396417.736723 kJ/mol
# GULP energy per Si atom -12388.054273 kJ/mol
# Density = 1.769851 g / cm^3
# Si number density = 17.738888 Si / 1000 Ang^3
#
#
#
# Elastic Constant Matrix: (Units=GPa)
#
#
# Indices 1 2 3 4 5 6 
#
# 1 105.1131 26.0248 53.3601 0.0000 14.0355 0.0000
# 2 26.0248 46.2351 30.8131 0.0000 8.4600 0.0000
# 3 53.3601 30.8131 99.5753 0.0000 4.9959 0.0000
# 4 0.0000 0.0000 0.0000 22.1146 0.0000 2.7671
# 5 14.0355 8.4600 4.9959 0.0000 24.8425 0.0000
# 6 0.0000 0.0000 0.0000 2.7671 0.0000 17.7438
#
#
#
# Elastic Compliance Matrix: (Units=1/GPa)
#
#
# Indices 1 2 3 4 5 6 
#
# 1 0.014261 -0.002593 -0.006546 0.000000 -0.005858 0.000000
# 2 -0.002593 0.029243 -0.007307 0.000000 -0.007024 0.000000
# 3 -0.006546 -0.007307 0.015659 0.000000 0.003038 0.000000
# 4 0.000000 0.000000 0.000000 0.046119 0.000000 -0.007192
# 5 -0.005858 -0.007024 0.003038 0.000000 0.045344 0.000000
# 6 0.000000 0.000000 0.000000 -0.007192 0.000000 0.057479
#
#
# Mechanical properties :
#
#
# Convention : Reuss Voigt Hill
#
# Bulk Modulus (GPa) = 38.06437 52.36885 45.21661
# Shear Modulus (GPa) = 20.01970 22.32188 21.17079
#
# Velocity S-wave (km/s) = 3.36307 3.55118 3.45841
# Velocity P-wave (km/s) = 6.04856 6.81180 6.44150
#
# Compressibility (1/GPa) = 0.02627129
#
# Stress axis : x y z
#
# Youngs Moduli (GPa) = 70.12359 34.19590 63.86050
#
# Poissons Ratio (x) = 0.08867 0.41801
# Poissons Ratio (y) = 0.18182 0.46665
# Poissons Ratio (z) = 0.45901 0.24988
#
# Static dielectric constant tensor:
#      x y z
#    x 3.382390 0.000000 -0.110290 
#    y 0.000000 2.954530 0.000000 
#    z -0.110290 0.000000 3.562150 
# 
# 
# High freq. dielectric constant tensor:
#      x y z
#    x 1.678800 0.000000 -0.006570 
#    y 0.000000 1.650030 0.000000 
#    z -0.006570 0.000000 1.693490 
# 
# From -- ./inp_files/349025.got.cif
#   From: 2010.06.25/outbox.cif.g09.slc.cpg/sg12_175_cif.got.tgz:349025.got - 2010.06.28 00:19:55.
