data_PCOD8089073
_publ_section_title
;
Structure prediction by ZEFSAII (Michael W. Deem and Ramdas Pophale) SiO2 
 PCOD8089073
Probable space group: C 2/M
;
_chemical_formula_sum "Si O2"
_cell_formula_units_Z 56
_cell_length_a 23.367008
_cell_length_b 11.111225
_cell_length_c 16.640544
_cell_angle_alpha 90.000000
_cell_angle_beta 136.483652
_cell_angle_gamma 90.000000
_cell_volume 2974.920164
_symmetry_space_group_name_H-M "C 2/M"
_symmetry_group_IT_number 12
_symmetry_cell_setting 'monoclinic'
loop_
_space_group_symop_operation_xyz
x,y,z
-x,y,-z
-x,-y,-z
x,-y,z
1/2+x,1/2+y,z
1/2-x,1/2+y,-z
1/2-x,1/2-y,-z
1/2+x,1/2-y,z
loop_
_atom_site_type_symbol
_atom_site_label
_atom_site_fract_x
_atom_site_fract_y
_atom_site_fract_z
Si Si1 0.911329 0.137381 0.867591
Si Si2 0.510951 0.636450 0.217298
Si Si3 0.803161 0.367299 0.147332
Si Si4 0.856489 0.705632 0.037398
Si Si5 0.185474 0.370116 0.168809
Si Si6 0.470391 0.635568 0.585802
Si Si7 0.870871 0.796996 0.340005
O O1 0.917350 0.144811 0.776768
O O2 0.848265 0.245627 0.826183
O O3 0.880265 0.000000 0.858784
O O4 0.000000 0.159725 0.000000
O O5 0.480586 0.500000 0.199161
O O6 0.434635 0.709683 0.104946
O O7 0.540676 0.685339 0.334603
O O8 0.769778 0.500000 0.127649
O O9 0.861832 0.362386 0.128028
O O10 0.853731 0.330013 0.278725
O O11 0.725996 0.283372 0.053519
O O12 0.853895 0.614798 0.960060
O O13 0.162628 0.500000 0.188437
O O14 0.285186 0.367344 0.265714
O O15 0.435103 0.500000 0.542765
O O16 0.567003 0.631902 0.656927
O O17 0.415870 0.721247 0.471982
#
# Coordination Sequence:
#
# PCOD8089073 Si02
#       7
#     8   8   8   8   8   8   8
#     4  10  21  38  58  81 112 148 190 231 275 335
#     4  10  19  34  57  80 104 142 186 231 275 322
#     4  10  20  32  49  77 115 151 180 220 278 345
#     4  10  19  33  50  79 112 144 181 224 274 338
#     4  11  22  35  56  85 116 147 183 231 285 335
#     4  10  19  35  59  82 107 140 187 235 274 324
#     4  10  20  35  56  81 111 142 186 229 279 328
#
# _framework density 18.824034000000001
#
# number of rings (size 3 to 8) (size 9 to 14) (size 15 to 20)
#    0.000    1.857    2.857    2.571    0.000    2.571 
#    0.000    2.143    0.000    0.000    0.000    0.000 
#    0.000    0.000    0.000    0.000    0.000    0.000 
#
# Total GULP energy -346870.114202 kJ/mol
# GULP energy per Si atom -12388.218364 kJ/mol
# Density = 1.878119 g / cm^3
# Si number density = 18.824034 Si / 1000 Ang^3
#
#
#
# Elastic Constant Matrix: (Units=GPa)
#
#
# Indices 1 2 3 4 5 6 
#
# 1 84.8408 38.0712 43.3708 0.0000 -16.7812 0.0000
# 2 38.0712 99.2573 34.8336 0.0000 -2.0487 0.0000
# 3 43.3708 34.8336 96.0599 0.0000 -13.0699 0.0000
# 4 0.0000 0.0000 0.0000 1427.7499 0.0000 774.5570
# 5 -16.7812 -2.0487 -13.0699 0.0000 25.5436 0.0000
# 6 0.0000 0.0000 0.0000 774.5570 0.0000 446.1638
#
#
#
# Elastic Compliance Matrix: (Units=1/GPa)
#
#
# Indices 1 2 3 4 5 6 
#
# 1 0.018574 -0.005073 -0.005311 0.000000 0.009078 0.000000
# 2 -0.005073 0.012970 -0.002929 0.000000 -0.003791 0.000000
# 3 -0.005311 -0.002929 0.014364 0.000000 0.003625 0.000000
# 4 0.000000 0.000000 0.000000 0.012035 0.000000 -0.020893
# 5 0.009078 -0.003791 0.003625 0.000000 0.046663 0.000000
# 6 0.000000 0.000000 0.000000 -0.020893 0.000000 0.038513
#
#
# Mechanical properties :
#
#
# Convention : Reuss Voigt Hill
#
# Bulk Modulus (GPa) = 51.86284 56.96769 54.41527
# Shear Modulus (GPa) = 28.38133 390.81696 209.59915
#
# Velocity S-wave (km/s) = 3.88715 14.42452 10.56354
# Velocity P-wave (km/s) = 6.91070 17.54284 13.33246
#
# Compressibility (1/GPa) = 0.01928163
#
# Stress axis : x y z
#
# Youngs Moduli (GPa) = 53.83898 77.10024 69.62091
#
# Poissons Ratio (x) = 0.39112 0.36979
# Poissons Ratio (y) = 0.27312 0.20390
# Poissons Ratio (z) = 0.28596 0.22580
#
# Static dielectric constant tensor:
#      x y z
#    x 3.571840 0.000000 -0.301460 
#    y 0.000000 3.332840 0.000000 
#    z -0.301460 0.000000 3.435890 
# 
# 
# High freq. dielectric constant tensor:
#      x y z
#    x 1.722160 0.000000 -0.017700 
#    y 0.000000 1.718570 0.000000 
#    z -0.017700 0.000000 1.716910 
# 
# From -- ./inp_files/289190.got.cif
#   From: 2010.06.25/outbox.cif.g09.slc.cpg/sg12_145_cif.got.tgz:289190.got - 2010.06.28 00:19:55.
