data_PCOD8089575
_publ_section_title
;
Structure prediction by ZEFSAII (Michael W. Deem and Ramdas Pophale) SiO2 
 PCOD8089575
Probable space group: C 2/M
;
_chemical_formula_sum "Si O2"
_cell_formula_units_Z 56
_cell_length_a 18.129587
_cell_length_b 9.830288
_cell_length_c 19.895537
_cell_angle_alpha 90.000000
_cell_angle_beta 51.768724
_cell_angle_gamma 90.000000
_cell_volume 2785.265669
_symmetry_space_group_name_H-M "C 2/M"
_symmetry_group_IT_number 12
_symmetry_cell_setting 'monoclinic'
loop_
_space_group_symop_operation_xyz
x,y,z
-x,y,-z
-x,-y,-z
x,-y,z
1/2+x,1/2+y,z
1/2-x,1/2+y,-z
1/2-x,1/2-y,-z
1/2+x,1/2-y,z
loop_
_atom_site_type_symbol
_atom_site_label
_atom_site_fract_x
_atom_site_fract_y
_atom_site_fract_z
Si Si1 0.739703 0.340128 0.153391
Si Si2 0.073823 0.848799 0.671981
Si Si3 0.419267 0.342139 0.857166
Si Si4 0.653861 0.850514 0.308717
Si Si5 0.969436 0.220019 0.447254
Si Si6 0.725445 0.846681 0.411362
Si Si7 0.903428 0.844548 0.015800
O O1 0.758003 0.500000 0.158473
O O2 0.683706 0.319724 0.115657
O O3 0.677036 0.274781 0.247355
O O4 0.835423 0.255959 0.094464
O O5 0.028702 0.864535 0.622929
O O6 0.176638 0.777039 0.618088
O O7 0.999395 0.773767 0.764061
O O8 0.090796 0.000000 0.690197
O O9 0.443276 0.500000 0.847513
O O10 0.419374 0.282309 0.932273
O O11 0.546387 0.840166 0.396213
O O12 0.725263 0.841410 0.330687
O O13 0.664445 0.000000 0.268275
O O14 0.862496 0.267201 0.509656
O O15 0.000000 0.141800 0.500000
O O16 0.717199 0.000000 0.443171
O O17 0.863331 0.000000 0.035611
O O18 0.000000 0.843637 0.000000
#
# Coordination Sequence:
#
# PCOD8089575 Si02
#       7
#     8   8   8   8   8   8   8
#     4  11  22  38  60  84 119 154 186 229 286 345
#     4  10  19  33  54  80 114 153 190 230 283 341
#     4   9  19  36  57  83 114 151 189 229 279 336
#     4  10  20  35  58  85 113 149 196 242 282 334
#     4  10  19  33  53  81 113 146 189 240 288 335
#     4   9  19  33  54  79 109 150 195 242 287 331
#     4  10  22  39  64  92 115 144 190 237 276 334
#
# _framework density 20.105802000000001
#
# number of rings (size 3 to 8) (size 9 to 14) (size 15 to 20)
#    0.000    2.143    1.429    1.714    2.000    2.286 
#    0.000    2.857    0.000    1.714    0.000    0.000 
#    0.000    0.000    0.000    0.000    0.000    0.000 
#
# Total GULP energy -346903.986201 kJ/mol
# GULP energy per Si atom -12389.428079 kJ/mol
# Density = 2.006004 g / cm^3
# Si number density = 20.105802 Si / 1000 Ang^3
#
#
#
# Elastic Constant Matrix: (Units=GPa)
#
#
# Indices 1 2 3 4 5 6 
#
# 1 96.7254 23.8837 29.7279 0.0000 -4.6679 0.0000
# 2 23.8837 77.1995 33.2662 0.0000 -4.8861 -0.0001
# 3 29.7279 33.2662 95.2620 0.0000 -5.2763 0.0000
# 4 0.0000 0.0000 0.0000 18.0790 0.0000 5.0484
# 5 -4.6679 -4.8861 -5.2763 0.0000 37.2083 0.0000
# 6 0.0000 -0.0001 0.0000 5.0484 0.0000 17.5882
#
#
#
# Elastic Compliance Matrix: (Units=1/GPa)
#
#
# Indices 1 2 3 4 5 6 
#
# 1 0.011833 -0.002400 -0.002812 0.000000 0.000771 0.000000
# 2 -0.002400 0.015793 -0.004705 0.000000 0.001106 0.000000
# 3 -0.002812 -0.004705 0.013067 0.000000 0.000882 0.000000
# 4 0.000000 0.000000 0.000000 0.060132 0.000000 -0.017260
# 5 0.000771 0.001106 0.000882 0.000000 0.027243 0.000000
# 6 0.000000 0.000000 0.000000 -0.017260 0.000000 0.061810
#
#
# Mechanical properties :
#
#
# Convention : Reuss Voigt Hill
#
# Bulk Modulus (GPa) = 47.94123 49.21584 48.57854
# Shear Modulus (GPa) = 23.07712 26.72904 24.90308
#
# Velocity S-wave (km/s) = 3.39157 3.65008 3.52320
# Velocity P-wave (km/s) = 6.26365 6.50351 6.38470
#
# Compressibility (1/GPa) = 0.02085887
#
# Stress axis : x y z
#
# Youngs Moduli (GPa) = 84.51244 63.31744 76.53091
#
# Poissons Ratio (x) = 0.15199 0.21518
# Poissons Ratio (y) = 0.20286 0.36007
# Poissons Ratio (z) = 0.23762 0.29790
#
# Static dielectric constant tensor:
#      x y z
#    x 3.805810 0.000000 -0.001350 
#    y 0.000000 3.272160 0.000000 
#    z -0.001350 0.000000 3.848800 
# 
# 
# High freq. dielectric constant tensor:
#      x y z
#    x 1.797600 0.000000 -0.001420 
#    y 0.000000 1.737620 0.000000 
#    z -0.001420 0.000000 1.791440 
# 
# From -- ./inp_files/276942.got.cif
#   From: 2010.06.25/outbox.cif.g09.slc.cpg/sg12_139_cif.got.tgz:276942.got - 2010.06.28 00:19:55.
