data_PCOD8089658
_publ_section_title
;
Structure prediction by ZEFSAII (Michael W. Deem and Ramdas Pophale) SiO2 
 PCOD8089658
Probable space group: C 2/M
;
_chemical_formula_sum "Si O2"
_cell_formula_units_Z 48
_cell_length_a 13.680698
_cell_length_b 26.692765
_cell_length_c 9.561783
_cell_angle_alpha 90.000000
_cell_angle_beta 133.795047
_cell_angle_gamma 90.000000
_cell_volume 2520.401032
_symmetry_space_group_name_H-M "C 2/M"
_symmetry_group_IT_number 12
_symmetry_cell_setting 'monoclinic'
loop_
_space_group_symop_operation_xyz
x,y,z
-x,y,-z
-x,-y,-z
x,-y,z
1/2+x,1/2+y,z
1/2-x,1/2+y,-z
1/2-x,1/2-y,-z
1/2+x,1/2-y,z
loop_
_atom_site_type_symbol
_atom_site_label
_atom_site_fract_x
_atom_site_fract_y
_atom_site_fract_z
Si Si1 0.616173 0.201460 0.007193
Si Si2 0.238624 0.058152 0.570853
Si Si3 0.510308 0.374381 0.675210
Si Si4 0.295589 0.091071 0.936260
Si Si5 0.583546 0.266627 0.715220
Si Si6 0.488180 0.057206 0.641766
O O1 0.622637 0.141761 0.012367
O O2 0.764455 0.222956 0.191337
O O3 0.500000 0.219175 0.000000
O O4 0.576702 0.220862 0.815083
O O5 0.276897 0.061747 0.772285
O O6 0.363530 0.079942 0.605555
O O7 0.116289 0.093542 0.395218
O O8 0.202589 0.000000 0.505040
O O9 0.500000 0.374719 0.500000
O O10 0.649299 0.400039 0.861916
O O11 0.516506 0.315688 0.724575
O O12 0.376163 0.059811 0.131668
O O13 0.500000 0.248462 0.500000
O O14 0.500000 0.083575 0.500000
O O15 0.451520 0.000000 0.579164
#
# Coordination Sequence:
#
# PCOD8089658 Si02
#       6
#     8   8   8   8   8   8
#     4  10  20  34  53  78 105 133 173 217 253 302
#     4  10  19  33  56  81 102 131 172 213 257 308
#     4   8  17  33  53  77 103 129 167 218 259 299
#     4  10  19  33  54  77 102 133 170 214 258 301
#     4   9  19  36  53  73 104 139 171 209 259 305
#     4  10  21  35  49  71 106 140 169 206 252 304
#
# _framework density 19.044589999999999
#
# number of rings (size 3 to 8) (size 9 to 14) (size 15 to 20)
#    0.000    2.500    0.000    3.000    0.000    6.333 
#    0.000    5.833    0.000    3.000    0.000    0.000 
#    0.000    0.000    0.000    0.000    0.000    0.000 
#
# Total GULP energy -297457.717278 kJ/mol
# GULP energy per Si atom -12394.071553 kJ/mol
# Density = 1.900124 g / cm^3
# Si number density = 19.044590 Si / 1000 Ang^3
#
#
#
# Elastic Constant Matrix: (Units=GPa)
#
#
# Indices 1 2 3 4 5 6 
#
# 1 84.7603 22.2324 57.2677 0.0000 11.5699 0.0000
# 2 22.2324 49.9966 17.2348 0.0000 10.1244 0.0000
# 3 57.2677 17.2348 104.2413 0.0000 14.6662 0.0000
# 4 0.0000 0.0000 0.0000 16.5431 0.0000 7.7012
# 5 11.5699 10.1244 14.6662 0.0000 24.7012 0.0000
# 6 0.0000 0.0000 0.0000 7.7012 0.0000 14.0335
#
#
#
# Elastic Compliance Matrix: (Units=1/GPa)
#
#
# Indices 1 2 3 4 5 6 
#
# 1 0.020101 -0.005223 -0.009991 0.000000 -0.001343 0.000000
# 2 -0.005223 0.023815 -0.000043 0.000000 -0.007289 0.000000
# 3 -0.009991 -0.000043 0.015743 0.000000 -0.004650 0.000000
# 4 0.000000 0.000000 0.000000 0.081189 0.000000 -0.044555
# 5 -0.001343 -0.007289 -0.004650 0.000000 0.046862 0.000000
# 6 0.000000 0.000000 0.000000 -0.044555 0.000000 0.095709
#
#
# Mechanical properties :
#
#
# Convention : Reuss Voigt Hill
#
# Bulk Modulus (GPa) = 34.30892 48.05201 41.18046
# Shear Modulus (GPa) = 15.44893 20.53977 17.99435
#
# Velocity S-wave (km/s) = 2.85124 3.28763 3.07718
# Velocity P-wave (km/s) = 5.37528 6.30059 5.85624
#
# Compressibility (1/GPa) = 0.02914694
#
# Stress axis : x y z
#
# Youngs Moduli (GPa) = 49.74772 41.99099 63.51960
#
# Poissons Ratio (x) = 0.21931 0.63461
# Poissons Ratio (y) = 0.25982 0.00270
# Poissons Ratio (z) = 0.49702 0.00179
#
# Static dielectric constant tensor:
#      x y z
#    x 3.584260 0.000000 0.269790 
#    y 0.000000 3.517270 0.000000 
#    z 0.269790 0.000000 3.575320 
# 
# 
# High freq. dielectric constant tensor:
#      x y z
#    x 1.727300 0.000000 0.021540 
#    y 0.000000 1.733680 0.000000 
#    z 0.021540 0.000000 1.737730 
# 
# From -- ./inp_files/67391.got.cif
#   From: 2010.06.25/outbox.cif.g09.slc.cpg/sg12_34_cif.got.tgz:67391.got - 2010.06.28 00:19:55.
