data_PCOD8089988
_publ_section_title
;
Structure prediction by ZEFSAII (Michael W. Deem and Ramdas Pophale) SiO2 
 PCOD8089988
Probable space group: C 2/M
;
_chemical_formula_sum "Si O2"
_cell_formula_units_Z 48
_cell_length_a 20.267419
_cell_length_b 9.208031
_cell_length_c 14.640223
_cell_angle_alpha 90.000000
_cell_angle_beta 98.943820
_cell_angle_gamma 90.000000
_cell_volume 2698.982507
_symmetry_space_group_name_H-M "C 2/M"
_symmetry_group_IT_number 12
_symmetry_cell_setting 'monoclinic'
loop_
_space_group_symop_operation_xyz
x,y,z
-x,y,-z
-x,-y,-z
x,-y,z
1/2+x,1/2+y,z
1/2-x,1/2+y,-z
1/2-x,1/2-y,-z
1/2+x,1/2-y,z
loop_
_atom_site_type_symbol
_atom_site_label
_atom_site_fract_x
_atom_site_fract_y
_atom_site_fract_z
Si Si1 0.940101 0.830927 0.419887
Si Si2 0.198777 0.168128 0.051340
Si Si3 0.441934 0.670246 0.055864
Si Si4 0.079846 0.668036 0.766833
Si Si5 0.230353 0.334475 0.753459
Si Si6 0.710207 0.669956 0.570245
O O1 0.950618 0.739402 0.330528
O O2 0.868938 0.793598 0.451974
O O3 0.000000 0.787257 0.500000
O O4 0.942748 0.000000 0.394273
O O5 0.212094 0.201335 0.160920
O O6 0.209543 0.000000 0.033360
O O7 0.250000 0.250000 0.000000
O O8 0.124931 0.219269 0.010309
O O9 0.442587 0.500000 0.078817
O O10 0.452015 0.755636 0.152155
O O11 0.500000 0.715520 0.000000
O O12 0.059745 0.500000 0.763094
O O13 0.159388 0.690934 0.787179
O O14 0.235540 0.500000 0.718433
O O15 0.240169 0.224950 0.672276
O O16 0.723620 0.500000 0.564425
O O17 0.750000 0.750000 0.500000
#
# Coordination Sequence:
#
# PCOD8089988 Si02
#       6
#     8   8   8   8   8   8
#     4   9  19  37  59  80 102 136 180 218 255 310
#     4  10  19  33  55  79 104 136 177 220 257 305
#     4  10  21  36  53  76 108 144 178 214 259 311
#     4  10  19  33  55  80 107 138 172 217 267 312
#     4   9  18  33  53  78 105 136 175 216 259 307
#     4  10  20  35  56  80 107 138 171 214 265 311
#
# _framework density 17.784481
#
# number of rings (size 3 to 8) (size 9 to 14) (size 15 to 20)
#    0.000    2.333    1.667    1.000    0.000    2.667 
#    3.000    0.000    0.000    0.000    0.000    0.000 
#    0.000    0.000    0.000    0.000    0.000    0.000 
#
# Total GULP energy -297649.358109 kJ/mol
# GULP energy per Si atom -12402.056588 kJ/mol
# Density = 1.774400 g / cm^3
# Si number density = 17.784481 Si / 1000 Ang^3
#
#
#
# Elastic Constant Matrix: (Units=GPa)
#
#
# Indices 1 2 3 4 5 6 
#
# 1 110.7560 55.1525 83.9405 0.0000 0.4707 0.0000
# 2 55.1525 87.4413 79.2817 0.0000 -7.3084 0.0000
# 3 83.9405 79.2817 148.0837 0.0000 -4.5901 0.0000
# 4 0.0000 0.0000 0.0000 38.2532 0.0000 -4.2710
# 5 0.4707 -7.3084 -4.5901 0.0000 32.8151 0.0000
# 6 0.0000 0.0000 0.0000 -4.2710 0.0000 24.0838
#
#
#
# Elastic Compliance Matrix: (Units=1/GPa)
#
#
# Indices 1 2 3 4 5 6 
#
# 1 0.016580 -0.003995 -0.007326 0.000000 -0.002152 0.000000
# 2 -0.003995 0.023549 -0.010223 0.000000 0.003872 0.000000
# 3 -0.007326 -0.010223 0.016383 0.000000 0.000120 0.000000
# 4 0.000000 0.000000 0.000000 0.026670 0.000000 0.004730
# 5 -0.002152 0.003872 0.000120 0.000000 0.031384 0.000000
# 6 0.000000 0.000000 0.000000 0.004730 0.000000 0.042360
#
#
# Mechanical properties :
#
#
# Convention : Reuss Voigt Hill
#
# Bulk Modulus (GPa) = 74.49906 87.00337 80.75121
# Shear Modulus (GPa) = 24.45143 27.55751 26.00447
#
# Velocity S-wave (km/s) = 3.71195 3.94067 3.82802
# Velocity P-wave (km/s) = 7.76868 8.35059 8.06488
#
# Compressibility (1/GPa) = 0.01342299
#
# Stress axis : x y z
#
# Youngs Moduli (GPa) = 60.31517 42.46512 61.04026
#
# Poissons Ratio (x) = 0.16964 0.44718
# Poissons Ratio (y) = 0.24095 0.62402
# Poissons Ratio (z) = 0.44187 0.43413
#
# Static dielectric constant tensor:
#      x y z
#    x 3.091950 0.000000 0.217030 
#    y 0.000000 3.318030 0.000000 
#    z 0.217030 0.000000 3.246510 
# 
# 
# High freq. dielectric constant tensor:
#      x y z
#    x 1.674790 0.000000 0.005730 
#    y 0.000000 1.691020 0.000000 
#    z 0.005730 0.000000 1.693720 
# 
# From -- ./inp_files/221677.got.cif
#   From: 2010.06.25/outbox.cif.g09.slc.cpg/sg12_111_cif.got.tgz:221677.got - 2010.06.28 00:19:55.
