data_PCOD8089441
_publ_section_title
;
Structure prediction by ZEFSAII (Michael W. Deem and Ramdas Pophale) SiO2 
 PCOD8089441
Probable space group: C 2/M
;
_chemical_formula_sum "Si O2"
_cell_formula_units_Z 48
_cell_length_a 31.579475
_cell_length_b 9.102502
_cell_length_c 9.491005
_cell_angle_alpha 90.000000
_cell_angle_beta 104.432652
_cell_angle_gamma 90.000000
_cell_volume 2642.111757
_symmetry_space_group_name_H-M "C 2/M"
_symmetry_group_IT_number 12
_symmetry_cell_setting 'monoclinic'
loop_
_space_group_symop_operation_xyz
x,y,z
-x,y,-z
-x,-y,-z
x,-y,z
1/2+x,1/2+y,z
1/2-x,1/2+y,-z
1/2-x,1/2-y,-z
1/2+x,1/2-y,z
loop_
_atom_site_type_symbol
_atom_site_label
_atom_site_fract_x
_atom_site_fract_y
_atom_site_fract_z
Si Si1 0.610206 0.168657 0.864028
Si Si2 0.795844 0.328945 0.526313
Si Si3 0.133192 0.666627 0.190342
Si Si4 0.511449 0.827819 0.852611
Si Si5 0.636765 0.328114 0.611793
Si Si6 0.567353 0.329241 0.323308
O O1 0.560644 0.215956 0.855254
O O2 0.630521 0.275185 0.765340
O O3 0.612266 0.000000 0.813812
O O4 0.639148 0.191463 0.028688
O O5 0.788844 0.500000 0.488392
O O6 0.750000 0.250000 0.500000
O O7 0.820887 0.303130 0.694792
O O8 0.822789 0.258884 0.420843
O O9 0.117018 0.500000 0.206113
O O10 0.095876 0.773817 0.215668
O O11 0.479515 0.750118 0.713676
O O12 0.503615 0.000000 0.834910
O O13 0.500000 0.771519 0.000000
O O14 0.647918 0.500000 0.617955
O O15 0.592436 0.293069 0.489228
O O16 0.559264 0.500000 0.297003
#
# Coordination Sequence:
#
# PCOD8089441 Si02
#       6
#     8   8   8   8   8   8
#     4  10  20  35  55  79 107 142 183 225 269 314
#     4  10  20  37  63  87 108 137 174 218 266 324
#     4   9  18  35  57  79 106 141 180 219 265 320
#     4  10  19  33  53  76 106 143 187 231 264 310
#     4  10  22  38  54  78 113 145 177 220 270 320
#     4  10  20  33  51  76 107 144 184 225 266 313
#
# _framework density 18.167285
#
# number of rings (size 3 to 8) (size 9 to 14) (size 15 to 20)
#    0.000    2.167    1.667    1.500    0.000    5.000 
#    0.000    4.167    0.000    0.000    0.000    0.000 
#    0.000    0.000    0.000    0.000    0.000    0.000 
#
# Total GULP energy -297668.012712 kJ/mol
# GULP energy per Si atom -12402.833863 kJ/mol
# Density = 1.812594 g / cm^3
# Si number density = 18.167285 Si / 1000 Ang^3
#
#
#
# Elastic Constant Matrix: (Units=GPa)
#
#
# Indices 1 2 3 4 5 6 
#
# 1 117.3263 57.6176 56.3955 0.0000 2.8895 0.0000
# 2 57.6176 80.1854 47.7119 0.0000 -1.9566 0.0000
# 3 56.3955 47.7119 107.0310 0.0000 -6.1876 0.0000
# 4 0.0000 0.0000 0.0000 29.3249 0.0000 -1.5867
# 5 2.8895 -1.9566 -6.1876 0.0000 21.9901 0.0000
# 6 0.0000 0.0000 0.0000 -1.5867 0.0000 33.8395
#
#
#
# Elastic Compliance Matrix: (Units=1/GPa)
#
#
# Indices 1 2 3 4 5 6 
#
# 1 0.014663 -0.008030 -0.004370 0.000000 -0.003871 0.000000
# 2 -0.008030 0.021379 -0.005213 0.000000 0.001491 0.000000
# 3 -0.004370 -0.005213 0.014207 0.000000 0.004108 0.000000
# 4 0.000000 0.000000 0.000000 0.034187 0.000000 0.001603
# 5 -0.003871 0.001491 0.004108 0.000000 0.047272 0.000000
# 6 0.000000 0.000000 0.000000 0.001603 0.000000 0.029626
#
#
# Mechanical properties :
#
#
# Convention : Reuss Voigt Hill
#
# Bulk Modulus (GPa) = 66.56627 69.77697 68.17162
# Shear Modulus (GPa) = 24.80538 26.55208 25.67873
#
# Velocity S-wave (km/s) = 3.69912 3.82715 3.76368
# Velocity P-wave (km/s) = 7.41384 7.61714 7.51618
#
# Compressibility (1/GPa) = 0.01502262
#
# Stress axis : x y z
#
# Youngs Moduli (GPa) = 68.20085 46.77381 70.38746
#
# Poissons Ratio (x) = 0.37560 0.30759
# Poissons Ratio (y) = 0.54766 0.36694
# Poissons Ratio (z) = 0.29804 0.24384
#
# Static dielectric constant tensor:
#      x y z
#    x 3.256040 0.000000 0.147980 
#    y 0.000000 3.375930 0.000000 
#    z 0.147980 0.000000 3.378190 
# 
# 
# High freq. dielectric constant tensor:
#      x y z
#    x 1.690760 0.000000 0.010880 
#    y 0.000000 1.708450 0.000000 
#    z 0.010880 0.000000 1.700600 
# 
# From -- ./inp_files/108566.got.cif
#   From: 2010.06.25/outbox.cif.g09.slc.cpg/sg12_55_cif.got.tgz:108566.got - 2010.06.28 00:19:55.
