data_PCOD8089980
_publ_section_title
;
Structure prediction by ZEFSAII (Michael W. Deem and Ramdas Pophale) SiO2 
 PCOD8089980
Probable space group: C 2/M
;
_chemical_formula_sum "Si O2"
_cell_formula_units_Z 64
_cell_length_a 20.363058
_cell_length_b 9.042246
_cell_length_c 19.929967
_cell_angle_alpha 90.000000
_cell_angle_beta 111.369260
_cell_angle_gamma 90.000000
_cell_volume 3417.376707
_symmetry_space_group_name_H-M "C 2/M"
_symmetry_group_IT_number 12
_symmetry_cell_setting 'monoclinic'
loop_
_space_group_symop_operation_xyz
x,y,z
-x,y,-z
-x,-y,-z
x,-y,z
1/2+x,1/2+y,z
1/2-x,1/2+y,-z
1/2-x,1/2-y,-z
1/2+x,1/2-y,z
loop_
_atom_site_type_symbol
_atom_site_label
_atom_site_fract_x
_atom_site_fract_y
_atom_site_fract_z
Si Si1 0.541664 0.676124 0.951728
Si Si2 0.301838 0.674647 0.332707
Si Si3 0.790246 0.673698 0.574462
Si Si4 0.934845 0.825273 0.803998
Si Si5 0.212505 0.824942 0.191602
Si Si6 0.198203 0.174854 0.032264
Si Si7 0.042211 0.826861 0.579309
Si Si8 0.932804 0.172560 0.651488
O O1 0.542667 0.500000 0.954084
O O2 0.501100 0.736651 0.870910
O O3 0.500000 0.738630 0.000000
O O4 0.621041 0.735962 0.983976
O O5 0.305509 0.500000 0.321905
O O6 0.245721 0.718524 0.368810
O O7 0.277894 0.750531 0.254573
O O8 0.378662 0.737458 0.383528
O O9 0.788223 0.500000 0.562584
O O10 0.750000 0.750000 0.500000
O O11 0.869422 0.730850 0.600027
O O12 0.860843 0.762670 0.804716
O O13 0.948547 0.776480 0.732992
O O14 0.932094 0.000000 0.810846
O O15 0.216860 0.779188 0.115311
O O16 0.217633 0.000000 0.202712
O O17 0.202626 0.000000 0.025563
O O18 0.250000 0.250000 0.000000
O O19 0.000000 0.756209 0.500000
O O20 0.001139 0.792207 0.632638
O O21 0.049001 0.000000 0.568314
O O22 0.911965 0.000000 0.639855
#
# Coordination Sequence:
#
# PCOD8089980 Si02
#       8
#     8   8   8   8   8   8   8   8
#     4   9  15  28  52  79 102 134 183 229 263 307
#     4  10  21  36  56  82 109 142 181 220 270 329
#     4  11  22  35  54  80 109 141 179 222 267 320
#     4   9  16  28  51  80 105 131 175 228 270 309
#     4  10  19  34  55  80 111 144 176 222 279 324
#     4  10  21  35  55  82 113 146 181 224 272 321
#     4   9  18  34  54  76 106 141 177 220 269 320
#     4  10  19  33  55  79 103 135 177 224 270 317
#
# _framework density 18.727815
#
# number of rings (size 3 to 8) (size 9 to 14) (size 15 to 20)
#    0.000    2.250    2.500    1.125    0.000    4.000 
#    0.000    3.125    0.000    3.375    0.000    0.000 
#    0.000    0.000    0.000    0.000    0.000    0.000 
#
# Total GULP energy -396779.844124 kJ/mol
# GULP energy per Si atom -12399.370129 kJ/mol
# Density = 1.868519 g / cm^3
# Si number density = 18.727815 Si / 1000 Ang^3
#
#
#
# Elastic Constant Matrix: (Units=GPa)
#
#
# Indices 1 2 3 4 5 6 
#
# 1 105.6950 22.3858 48.8726 0.0000 5.7547 0.0000
# 2 22.3858 27.2105 29.2332 0.0000 -1.3466 0.0000
# 3 48.8726 29.2332 153.9286 0.0000 8.9381 0.0000
# 4 0.0000 0.0000 0.0000 26.1360 0.0000 1.0913
# 5 5.7547 -1.3466 8.9381 0.0000 40.2982 0.0000
# 6 0.0000 0.0000 0.0000 1.0913 0.0000 21.2417
#
#
#
# Elastic Compliance Matrix: (Units=1/GPa)
#
#
# Indices 1 2 3 4 5 6 
#
# 1 0.012244 -0.007616 -0.002355 0.000000 -0.001481 0.000000
# 2 -0.007616 0.051410 -0.007606 0.000000 0.004493 0.000000
# 3 -0.002355 -0.007606 0.008797 0.000000 -0.001869 0.000000
# 4 0.000000 0.000000 0.000000 0.038344 0.000000 -0.001970
# 5 -0.001481 0.004493 -0.001869 0.000000 0.025591 0.000000
# 6 0.000000 0.000000 0.000000 -0.001970 0.000000 0.047178
#
#
# Mechanical properties :
#
#
# Convention : Reuss Voigt Hill
#
# Bulk Modulus (GPa) = 26.81207 54.20192 40.50700
# Shear Modulus (GPa) = 21.63084 29.95801 25.79443
#
# Velocity S-wave (km/s) = 3.40223 4.00391 3.71527
# Velocity P-wave (km/s) = 5.45723 7.09787 6.33092
#
# Compressibility (1/GPa) = 0.03729663
#
# Stress axis : x y z
#
# Youngs Moduli (GPa) = 81.67395 19.45139 113.67076
#
# Poissons Ratio (x) = 0.14814 0.26770
# Poissons Ratio (y) = 0.62203 0.86461
# Poissons Ratio (z) = 0.19235 0.14795
#
# Static dielectric constant tensor:
#      x y z
#    x 3.577390 0.000000 0.029140 
#    y 0.000000 2.973590 0.000000 
#    z 0.029140 0.000000 3.621640 
# 
# 
# High freq. dielectric constant tensor:
#      x y z
#    x 1.731320 0.000000 0.002400 
#    y 0.000000 1.677870 0.000000 
#    z 0.002400 0.000000 1.746470 
# 
# From -- ./inp_files/319989.got.cif
#   From: 2010.06.25/outbox.cif.g09.slc.cpg/sg12_160_cif.got.tgz:319989.got - 2010.06.28 00:19:55.
