data_PCOD8089471
_publ_section_title
;
Structure prediction by ZEFSAII (Michael W. Deem and Ramdas Pophale) SiO2 
 PCOD8089471
Probable space group: C 2/M
;
_chemical_formula_sum "Si O2"
_cell_formula_units_Z 56
_cell_length_a 22.012485
_cell_length_b 9.427575
_cell_length_c 17.137916
_cell_angle_alpha 90.000000
_cell_angle_beta 126.131764
_cell_angle_gamma 90.000000
_cell_volume 2872.482092
_symmetry_space_group_name_H-M "C 2/M"
_symmetry_group_IT_number 12
_symmetry_cell_setting 'monoclinic'
loop_
_space_group_symop_operation_xyz
x,y,z
-x,y,-z
-x,-y,-z
x,-y,z
1/2+x,1/2+y,z
1/2-x,1/2+y,-z
1/2-x,1/2-y,-z
1/2+x,1/2-y,z
loop_
_atom_site_type_symbol
_atom_site_label
_atom_site_fract_x
_atom_site_fract_y
_atom_site_fract_z
Si Si1 0.574786 0.157739 0.593017
Si Si2 0.585453 0.669215 0.049991
Si Si3 0.693404 0.841196 0.548206
Si Si4 0.662170 0.661040 0.260980
Si Si5 0.327582 0.332448 0.041612
Si Si6 0.407073 0.339257 0.634818
Si Si7 0.074204 0.166084 0.734902
O O1 0.500000 0.229076 0.500000
O O2 0.632391 0.148746 0.567852
O O3 0.610248 0.251994 0.689100
O O4 0.556699 0.000000 0.611833
O O5 0.582236 0.500000 0.049401
O O6 0.635225 0.731617 0.159568
O O7 0.500000 0.726652 0.000000
O O8 0.627376 0.719410 0.002156
O O9 0.765701 0.765926 0.643247
O O10 0.662439 0.748807 0.453141
O O11 0.713510 0.000000 0.532283
O O12 0.685733 0.500000 0.259461
O O13 0.594529 0.666944 0.272250
O O14 0.309913 0.500000 0.023223
O O15 0.382475 0.294116 0.153996
O O16 0.250000 0.250000 0.000000
O O17 0.398220 0.500000 0.598252
O O18 0.488303 0.278267 0.673638
O O19 0.078264 0.000000 0.722123
#
# Coordination Sequence:
#
# PCOD8089471 Si02
#       7
#     8   8   8   8   8   8   8
#     4  10  20  34  52  76 105 141 181 216 254 314
#     4   9  17  33  58  83 107 140 187 234 274 321
#     4  10  20  33  50  75 108 138 174 216 260 317
#     4   9  18  31  51  77 103 134 173 220 266 312
#     4  10  22  38  58  85 114 145 184 233 284 333
#     4  10  19  33  53  77 106 138 174 216 265 318
#     4  10  21  35  53  78 108 140 176 218 269 322
#
# _framework density 19.495335000000001
#
# number of rings (size 3 to 8) (size 9 to 14) (size 15 to 20)
#    0.000    2.286    1.429    1.286    2.000    4.857 
#    0.000    0.000    0.000    1.286    0.000    0.000 
#    0.000    0.000    0.000    0.000    0.000    0.000 
#
# Total GULP energy -347002.815493 kJ/mol
# GULP energy per Si atom -12392.957696 kJ/mol
# Density = 1.945096 g / cm^3
# Si number density = 19.495335 Si / 1000 Ang^3
#
#
#
# Elastic Constant Matrix: (Units=GPa)
#
#
# Indices 1 2 3 4 5 6 
#
# 1 84.8907 15.6051 40.4629 0.0000 -0.6147 0.0000
# 2 15.6051 33.1139 40.9017 0.0000 -3.0383 0.0000
# 3 40.4629 40.9017 148.5941 0.0000 -8.2481 0.0000
# 4 0.0000 0.0000 0.0000 35.3850 0.0000 -8.6288
# 5 -0.6147 -3.0383 -8.2481 0.0000 36.2470 0.0000
# 6 0.0000 0.0000 0.0000 -8.6288 0.0000 25.8456
#
#
#
# Elastic Compliance Matrix: (Units=1/GPa)
#
#
# Indices 1 2 3 4 5 6 
#
# 1 0.013723 -0.002829 -0.002996 0.000000 -0.000686 0.000000
# 2 -0.002829 0.046373 -0.011932 0.000000 0.001124 0.000000
# 3 -0.002996 -0.011932 0.010909 0.000000 0.001431 0.000000
# 4 0.000000 0.000000 0.000000 0.030765 0.000000 0.010271
# 5 -0.000686 0.001124 0.001431 0.000000 0.027997 0.000000
# 6 0.000000 0.000000 0.000000 0.010271 0.000000 0.042120
#
#
# Mechanical properties :
#
#
# Convention : Reuss Voigt Hill
#
# Bulk Modulus (GPa) = 28.17591 51.17089 39.67340
# Shear Modulus (GPa) = 22.80681 30.80415 26.80548
#
# Velocity S-wave (km/s) = 3.42403 3.97933 3.71208
# Velocity P-wave (km/s) = 5.48781 6.88609 6.22632
#
# Compressibility (1/GPa) = 0.03549131
#
# Stress axis : x y z
#
# Youngs Moduli (GPa) = 72.86993 21.56421 91.66406
#
# Poissons Ratio (x) = 0.06101 0.27464
# Poissons Ratio (y) = 0.20616 1.09372
# Poissons Ratio (z) = 0.21833 0.25730
#
# Static dielectric constant tensor:
#      x y z
#    x 3.730240 0.000000 0.074540 
#    y 0.000000 3.310800 0.000000 
#    z 0.074540 0.000000 3.750690 
# 
# 
# High freq. dielectric constant tensor:
#      x y z
#    x 1.771580 0.000000 -0.000660 
#    y 0.000000 1.709370 0.000000 
#    z -0.000660 0.000000 1.769580 
# 
# From -- ./inp_files/288456.got.cif
#   From: 2010.06.25/outbox.cif.g09.slc.cpg/sg12_145_cif.got.tgz:288456.got - 2010.06.28 00:19:55.
