data_PCOD8089048
_publ_section_title
;
Structure prediction by ZEFSAII (Michael W. Deem and Ramdas Pophale) SiO2 
 PCOD8089048
Probable space group: C 2/M
;
_chemical_formula_sum "Si O2"
_cell_formula_units_Z 40
_cell_length_a 14.566999
_cell_length_b 8.497337
_cell_length_c 22.162615
_cell_angle_alpha 90.000000
_cell_angle_beta 130.827377
_cell_angle_gamma 90.000000
_cell_volume 2075.810814
_symmetry_space_group_name_H-M "C 2/M"
_symmetry_group_IT_number 12
_symmetry_cell_setting 'monoclinic'
loop_
_space_group_symop_operation_xyz
x,y,z
-x,y,-z
-x,-y,-z
x,-y,z
1/2+x,1/2+y,z
1/2-x,1/2+y,-z
1/2-x,1/2-y,-z
1/2+x,1/2-y,z
loop_
_atom_site_type_symbol
_atom_site_label
_atom_site_fract_x
_atom_site_fract_y
_atom_site_fract_z
Si Si1 0.490433 0.682780 0.408299
Si Si2 0.368570 0.313309 0.121378
Si Si3 0.046277 0.815026 0.299096
Si Si4 0.815406 0.684103 0.427184
Si Si5 0.390628 0.313613 0.994573
O O1 0.463425 0.500000 0.408978
O O2 0.481050 0.724859 0.333997
O O3 0.624559 0.723243 0.491021
O O4 0.392371 0.789969 0.399647
O O5 0.363449 0.500000 0.122479
O O6 0.467167 0.242779 0.210519
O O7 0.237284 0.249554 0.084877
O O8 0.406857 0.256064 0.070828
O O9 0.181895 0.744683 0.357971
O O10 0.057067 0.000000 0.294152
O O11 0.810990 0.500000 0.441258
O O12 0.389106 0.500000 0.990428
O O13 0.500000 0.246266 0.000000
#
# Coordination Sequence:
#
# PCOD8089048 Si02
#       5
#     8   8   8   8   8
#     4  10  19  33  50  70  97 129 166 203 241 283
#     4   9  18  34  52  72  99 128 161 198 238 288
#     4   9  19  33  50  71  98 131 162 198 243 288
#     4  10  19  33  51  72  97 128 166 201 241 288
#     4   9  18  33  53  75  99 127 158 196 242 288
#
# _framework density 19.269579
#
# number of rings (size 3 to 8) (size 9 to 14) (size 15 to 20)
#    0.000    2.600    0.000    3.000    0.000    2.000 
#    0.000    9.000    0.000    0.000    0.000    0.000 
#    0.000    0.000    0.000    0.000    0.000    0.000 
#
# Total GULP energy -247971.328227 kJ/mol
# GULP energy per Si atom -12398.566411 kJ/mol
# Density = 1.922572 g / cm^3
# Si number density = 19.269579 Si / 1000 Ang^3
#
#
#
# Elastic Constant Matrix: (Units=GPa)
#
#
# Indices 1 2 3 4 5 6 
#
# 1 91.9525 6.9046 46.9207 0.0000 0.6180 0.0000
# 2 6.9046 21.4056 8.5231 0.0000 -2.0111 0.0000
# 3 46.9207 8.5231 135.4015 0.0000 -3.3917 0.0000
# 4 0.0000 0.0000 0.0000 22.7702 0.0000 3.9167
# 5 0.6180 -2.0111 -3.3917 0.0000 22.7810 0.0000
# 6 0.0000 0.0000 0.0000 3.9167 0.0000 18.7075
#
#
#
# Elastic Compliance Matrix: (Units=1/GPa)
#
#
# Indices 1 2 3 4 5 6 
#
# 1 0.013379 -0.002642 -0.004502 0.000000 -0.001266 0.000000
# 2 -0.002642 0.048769 -0.002052 0.000000 0.004071 0.000000
# 3 -0.004502 -0.002052 0.009107 0.000000 0.001297 0.000000
# 4 0.000000 0.000000 0.000000 0.045558 0.000000 -0.009538
# 5 -0.001266 0.004071 0.001297 0.000000 0.044483 0.000000
# 6 0.000000 0.000000 0.000000 -0.009538 0.000000 0.055452
#
#
# Mechanical properties :
#
#
# Convention : Reuss Voigt Hill
#
# Bulk Modulus (GPa) = 18.91694 41.49515 30.20604
# Shear Modulus (GPa) = 19.78160 25.27916 22.53038
#
# Velocity S-wave (km/s) = 3.20749 3.62590 3.42310
# Velocity P-wave (km/s) = 4.85342 6.25382 5.59759
#
# Compressibility (1/GPa) = 0.05286268
#
# Stress axis : x y z
#
# Youngs Moduli (GPa) = 74.74305 20.50500 109.80472
#
# Poissons Ratio (x) = 0.05418 0.49431
# Poissons Ratio (y) = 0.19748 0.22535
# Poissons Ratio (z) = 0.33647 0.04208
#
# Static dielectric constant tensor:
#      x y z
#    x 3.612290 0.000000 0.025060 
#    y 0.000000 3.220250 0.000000 
#    z 0.025060 0.000000 3.817730 
# 
# 
# High freq. dielectric constant tensor:
#      x y z
#    x 1.753670 0.000000 -0.000850 
#    y 0.000000 1.726280 0.000000 
#    z -0.000850 0.000000 1.750720 
# 
# From -- ./inp_files/211358.got.cif
#   From: 2010.06.25/outbox.cif.g09.slc.cpg/sg12_106_cif.got.tgz:211358.got - 2010.06.28 00:19:55.
