data_PCOD8089039
_publ_section_title
;
Structure prediction by ZEFSAII (Michael W. Deem and Ramdas Pophale) SiO2 
 PCOD8089039
Probable space group: C 2/M
;
_chemical_formula_sum "Si O2"
_cell_formula_units_Z 48
_cell_length_a 14.356374
_cell_length_b 24.819296
_cell_length_c 20.412289
_cell_angle_alpha 90.000000
_cell_angle_beta 22.077405
_cell_angle_gamma 90.000000
_cell_volume 2733.699115
_symmetry_space_group_name_H-M "C 2/M"
_symmetry_group_IT_number 12
_symmetry_cell_setting 'monoclinic'
loop_
_space_group_symop_operation_xyz
x,y,z
-x,y,-z
-x,-y,-z
x,-y,z
1/2+x,1/2+y,z
1/2-x,1/2+y,-z
1/2-x,1/2-y,-z
1/2+x,1/2-y,z
loop_
_atom_site_type_symbol
_atom_site_label
_atom_site_fract_x
_atom_site_fract_y
_atom_site_fract_z
Si Si1 0.720669 0.128374 0.306000
Si Si2 0.567948 0.150907 0.260806
Si Si3 0.887433 0.941125 0.002056
Si Si4 0.216408 0.228938 0.179429
Si Si5 0.381180 0.307161 0.514081
Si Si6 0.492203 0.721173 0.813837
O O1 0.500000 0.119930 0.500000
O O2 0.586267 0.135599 0.324369
O O3 0.906110 0.177690 0.201366
O O4 0.894379 0.075496 0.190649
O O5 0.684292 0.106160 0.136649
O O6 0.699511 0.208766 0.166649
O O7 0.282115 0.153145 0.424186
O O8 0.780411 0.000000 0.050513
O O9 0.000000 0.945924 0.000000
O O10 0.086039 0.219849 0.333932
O O11 0.085011 0.194991 0.206510
O O12 0.500000 0.210941 0.000000
O O13 0.500000 0.337735 0.500000
O O14 0.218660 0.261006 0.653319
O O15 0.250000 0.750000 0.000000
#
# Coordination Sequence:
#
# PCOD8089039 Si02
#       6
#     8   8   8   8   8   8
#     4  11  19  30  49  72  99 127 158 198 247 288
#     4  10  19  33  50  68  96 131 162 195 236 284
#     4   9  19  34  51  70  92 122 160 200 242 289
#     4  11  20  31  47  72 103 134 164 194 233 284
#     4  11  21  32  47  71 102 133 166 197 230 283
#     4  11  20  30  46  70 100 134 166 195 235 286
#
# _framework density 17.558624999999999
#
# number of rings (size 3 to 8) (size 9 to 14) (size 15 to 20)
#    0.000    1.500    0.000   11.000    0.000    0.333 
#    0.000    0.000    0.000    0.500    0.000    0.000 
#    0.000    4.000    0.000    0.000    0.000    0.000 
#
# Total GULP energy -297395.765819 kJ/mol
# GULP energy per Si atom -12391.490242 kJ/mol
# Density = 1.751866 g / cm^3
# Si number density = 17.558625 Si / 1000 Ang^3
#
#
#
# Elastic Constant Matrix: (Units=GPa)
#
#
# Indices 1 2 3 4 5 6 
#
# 1 113.4474 24.6873 42.7568 0.1147 -5.0164 -0.1673
# 2 24.6873 82.9269 47.7621 0.3794 1.3092 0.0230
# 3 42.7568 47.7621 137.0316 1.1516 10.9581 0.0915
# 4 0.1147 0.3794 1.1516 17.5206 -0.2298 -3.0956
# 5 -5.0164 1.3092 10.9581 -0.2298 30.0927 0.2631
# 6 -0.1673 0.0230 0.0915 -3.0956 0.2631 2.9706
#
#
#
# Elastic Compliance Matrix: (Units=1/GPa)
#
#
# Indices 1 2 3 4 5 6 
#
# 1 0.010373 -0.001422 -0.002973 0.000334 0.002869 0.000781
# 2 -0.001422 0.015332 -0.004973 -0.000008 0.000908 -0.000134
# 3 -0.002973 -0.004973 0.010287 -0.000757 -0.004023 -0.000878
# 4 0.000334 -0.000008 -0.000757 0.070023 0.000228 0.072991
# 5 0.002869 0.000908 -0.004023 0.000228 0.035159 -0.002598
# 6 0.000781 -0.000134 -0.000878 0.072991 -0.002598 0.412993
#
#
# Mechanical properties :
#
#
# Convention : Reuss Voigt Hill
#
# Bulk Modulus (GPa) = 57.95438 62.64648 60.30043
# Shear Modulus (GPa) = 8.64072 24.66343 16.65207
#
# Velocity S-wave (km/s) = 2.22076 3.75191 3.08290
# Velocity P-wave (km/s) = 6.29711 7.38411 6.86216
#
# Compressibility (1/GPa) = 0.01725495
#
# Stress axis : x y z
#
# Youngs Moduli (GPa) = 96.40837 65.22329 97.20769
#
# Poissons Ratio (x) = 0.09277 0.28905
# Poissons Ratio (y) = 0.13713 0.48337
# Poissons Ratio (z) = 0.28667 0.32433
#
# Static dielectric constant tensor:
#      x y z
#    x 3.706700 -0.001040 -0.030150 
#    y -0.001040 3.313230 0.005030 
#    z -0.030150 0.005030 3.399770 
# 
# 
# High freq. dielectric constant tensor:
#      x y z
#    x 1.688260 -0.000060 0.007810 
#    y -0.000060 1.622350 0.000320 
#    z 0.007810 0.000320 1.693640 
# 
# From -- ./inp_files/64696.got.cif
#   From: 2010.06.25/outbox.cif.g09.slc.cpg/sg12_33_cif.got.tgz:64696.got - 2010.06.28 00:19:55.
