data_PCOD8089427
_publ_section_title
;
Structure prediction by ZEFSAII (Michael W. Deem and Ramdas Pophale) SiO2 
 PCOD8089427
Probable space group: C 2/M
;
_chemical_formula_sum "Si O2"
_cell_formula_units_Z 56
_cell_length_a 19.291366
_cell_length_b 8.968719
_cell_length_c 26.534518
_cell_angle_alpha 90.000000
_cell_angle_beta 140.421330
_cell_angle_gamma 90.000000
_cell_volume 2925.078296
_symmetry_space_group_name_H-M "C 2/M"
_symmetry_group_IT_number 12
_symmetry_cell_setting 'monoclinic'
loop_
_space_group_symop_operation_xyz
x,y,z
-x,y,-z
-x,-y,-z
x,-y,z
1/2+x,1/2+y,z
1/2-x,1/2+y,-z
1/2-x,1/2-y,-z
1/2+x,1/2-y,z
loop_
_atom_site_type_symbol
_atom_site_label
_atom_site_fract_x
_atom_site_fract_y
_atom_site_fract_z
Si Si1 0.789226 0.323886 0.756039
Si Si2 0.988104 0.325360 0.934871
Si Si3 0.644480 0.825617 0.418676
Si Si4 0.912463 0.324826 0.726448
Si Si5 0.068849 0.831145 0.676094
Si Si6 0.872720 0.831532 0.175403
Si Si7 0.301869 0.676336 0.980680
O O1 0.778460 0.500000 0.750451
O O2 0.831403 0.268863 0.725069
O O3 0.667289 0.261035 0.697773
O O4 0.870869 0.277101 0.846932
O O5 0.010414 0.500000 0.937960
O O6 0.074083 0.227886 0.952505
O O7 0.000000 0.284578 0.000000
O O8 0.750000 0.750000 0.500000
O O9 0.638931 0.784552 0.356434
O O10 0.539009 0.767837 0.389992
O O11 0.652699 0.000000 0.432031
O O12 0.936214 0.500000 0.744508
O O13 0.026059 0.240415 0.797529
O O14 0.109686 0.828734 0.755743
O O15 0.040136 0.000000 0.643427
O O16 0.764071 0.737089 0.104536
O O17 0.857425 0.000000 0.146939
O O18 0.294492 0.500000 0.979327
O O19 0.250000 0.750000 0.000000
#
# Coordination Sequence:
#
# PCOD8089427 Si02
#       7
#     8   8   8   8   8   8   8
#     4   9  17  32  54  77 103 136 174 215 258 309
#     4  10  20  35  55  79 109 145 182 221 271 329
#     4  10  20  35  56  81 107 136 171 212 258 309
#     4   9  18  33  54  79 105 137 177 218 260 310
#     4   9  18  34  57  81 104 134 170 207 252 310
#     4  10  19  33  53  76 102 135 176 219 267 322
#     4  12  24  36  51  73 103 140 185 235 282 323
#
# _framework density 19.144787000000001
#
# number of rings (size 3 to 8) (size 9 to 14) (size 15 to 20)
#    0.000    2.143    0.000    3.857    0.000    4.857 
#    0.000    2.143    0.000    4.286    0.000    0.000 
#    0.000    0.000    0.000    0.000    0.000    0.000 
#
# Total GULP energy -347195.967429 kJ/mol
# GULP energy per Si atom -12399.855980 kJ/mol
# Density = 1.910121 g / cm^3
# Si number density = 19.144787 Si / 1000 Ang^3
#
#
#
# Elastic Constant Matrix: (Units=GPa)
#
#
# Indices 1 2 3 4 5 6 
#
# 1 129.2559 33.8584 41.9401 0.0000 24.2727 0.0000
# 2 33.8584 80.8677 33.3137 0.0000 10.6015 0.0001
# 3 41.9401 33.3137 94.9633 0.0000 22.9148 0.0000
# 4 0.0000 0.0000 0.0000 29.7152 0.0000 6.8428
# 5 24.2727 10.6015 22.9148 0.0000 29.8951 0.0000
# 6 0.0000 0.0001 0.0000 6.8428 0.0000 26.6575
#
#
#
# Elastic Compliance Matrix: (Units=1/GPa)
#
#
# Indices 1 2 3 4 5 6 
#
# 1 0.010205 -0.002615 -0.002226 0.000000 -0.005653 0.000000
# 2 -0.002615 0.015181 -0.004152 0.000000 -0.000078 0.000000
# 3 -0.002226 -0.004152 0.014942 0.000000 -0.008174 0.000000
# 4 0.000000 0.000000 0.000000 0.035767 0.000000 -0.009181
# 5 -0.005653 -0.000078 -0.008174 0.000000 0.044333 0.000000
# 6 0.000000 0.000000 0.000000 -0.009181 0.000000 0.039870
#
#
# Mechanical properties :
#
#
# Convention : Reuss Voigt Hill
#
# Bulk Modulus (GPa) = 44.75585 58.14571 51.45078
# Shear Modulus (GPa) = 26.92058 30.31855 28.61957
#
# Velocity S-wave (km/s) = 3.75394 3.98382 3.87059
# Velocity P-wave (km/s) = 6.49752 7.18322 6.84896
#
# Compressibility (1/GPa) = 0.02234345
#
# Stress axis : x y z
#
# Youngs Moduli (GPa) = 97.98879 65.87027 66.92403
#
# Poissons Ratio (x) = 0.17224 0.14896
# Poissons Ratio (y) = 0.25623 0.27787
# Poissons Ratio (z) = 0.21811 0.27350
#
# Static dielectric constant tensor:
#      x y z
#    x 3.891990 0.000000 0.185090 
#    y 0.000000 3.480570 0.000000 
#    z 0.185090 0.000000 3.634240 
# 
# 
# High freq. dielectric constant tensor:
#      x y z
#    x 1.749960 0.000000 0.008860 
#    y 0.000000 1.728970 0.000000 
#    z 0.008860 0.000000 1.737650 
# 
# From -- ./inp_files/280420.got.cif
#   From: 2010.06.25/outbox.cif.g09.slc.cpg/sg12_141_cif.got.tgz:280420.got - 2010.06.28 00:19:55.
