data_PCOD8089107
_publ_section_title
;
Structure prediction by ZEFSAII (Michael W. Deem and Ramdas Pophale) SiO2 
 PCOD8089107
Probable space group: C 2/M
;
_chemical_formula_sum "Si O2"
_cell_formula_units_Z 64
_cell_length_a 12.733561
_cell_length_b 11.065424
_cell_length_c 24.584545
_cell_angle_alpha 90.000000
_cell_angle_beta 107.181577
_cell_angle_gamma 90.000000
_cell_volume 3309.430392
_symmetry_space_group_name_H-M "C 2/M"
_symmetry_group_IT_number 12
_symmetry_cell_setting 'monoclinic'
loop_
_space_group_symop_operation_xyz
x,y,z
-x,y,-z
-x,-y,-z
x,-y,z
1/2+x,1/2+y,z
1/2-x,1/2+y,-z
1/2-x,1/2-y,-z
1/2+x,1/2-y,z
loop_
_atom_site_type_symbol
_atom_site_label
_atom_site_fract_x
_atom_site_fract_y
_atom_site_fract_z
Si Si1 0.765269 0.864668 0.840526
Si Si2 0.130066 0.292222 0.231457
Si Si3 0.209640 0.212208 0.410032
Si Si4 0.012180 0.137307 0.065555
Si Si5 0.447223 0.137493 0.126080
Si Si6 0.475049 0.364057 0.695127
Si Si7 0.814847 0.865367 0.335726
Si Si8 0.894359 0.635461 0.514548
O O1 0.785719 0.788332 0.789870
O O2 0.860645 0.851044 0.899760
O O3 0.653453 0.823877 0.851575
O O4 0.754938 0.000000 0.817455
O O5 0.057460 0.370996 0.179096
O O6 0.046545 0.211665 0.253962
O O7 0.205231 0.373140 0.281940
O O8 0.132470 0.132364 0.359726
O O9 0.292418 0.291653 0.386747
O O10 0.128449 0.292533 0.433992
O O11 0.286438 0.131083 0.459926
O O12 0.950023 0.251756 0.083361
O O13 0.969869 0.000000 0.075908
O O14 0.000000 0.154494 0.000000
O O15 0.431172 0.000000 0.098621
O O16 0.502170 0.500000 0.717814
O O17 0.581110 0.308216 0.680397
O O18 0.846593 0.000000 0.358875
O O19 0.924039 0.500000 0.536806
O O20 0.000000 0.693151 0.500000
#
# Coordination Sequence:
#
# PCOD8089107 Si02
#       8
#     8   8   8   8   8   8   8   8
#     4   9  18  33  52  74 103 137 171 210 257 305
#     4  10  19  33  51  73 101 134 169 205 248 299
#     4  10  20  34  51  71  97 126 157 199 248 294
#     4   9  19  36  55  76 105 140 176 214 258 309
#     4  10  20  34  53  78 106 136 173 216 259 303
#     4  10  20  33  51  74  99 129 166 204 242 293
#     4  10  20  33  49  71  99 128 160 201 249 296
#     4  10  20  34  52  72  94 123 160 199 241 294
#
# _framework density 19.338674999999999
#
# number of rings (size 3 to 8) (size 9 to 14) (size 15 to 20)
#    0.000    2.250    0.000    3.000    0.000    1.250 
#    0.000    3.125    0.000   18.000    0.000    0.000 
#    0.000    0.000    0.000    0.000    0.000    0.000 
#
# Total GULP energy -396661.032213 kJ/mol
# GULP energy per Si atom -12395.657257 kJ/mol
# Density = 1.929466 g / cm^3
# Si number density = 19.338675 Si / 1000 Ang^3
#
#
#
# Elastic Constant Matrix: (Units=GPa)
#
#
# Indices 1 2 3 4 5 6 
#
# 1 110.6178 40.7809 5.8844 0.0000 -22.6261 0.0000
# 2 40.7809 94.9599 19.3522 0.0000 -22.7816 0.0000
# 3 5.8844 19.3522 55.4780 0.0000 -10.4137 0.0000
# 4 0.0000 0.0000 0.0000 63.6155 0.0000 29.9716
# 5 -22.6261 -22.7816 -10.4137 0.0000 26.0569 0.0000
# 6 0.0000 0.0000 0.0000 29.9716 0.0000 36.1750
#
#
#
# Elastic Compliance Matrix: (Units=1/GPa)
#
#
# Indices 1 2 3 4 5 6 
#
# 1 0.011853 -0.003512 0.001431 0.000000 0.007793 0.000000
# 2 -0.003512 0.014740 -0.003160 0.000000 0.008575 0.000000
# 3 0.001431 -0.003160 0.020206 0.000000 0.006555 0.000000
# 4 0.000000 0.000000 0.000000 0.025784 0.000000 -0.021363
# 5 0.007793 0.008575 0.006555 0.000000 0.055262 0.000000
# 6 0.000000 0.000000 0.000000 -0.021363 0.000000 0.045343
#
#
# Mechanical properties :
#
#
# Convention : Reuss Voigt Hill
#
# Bulk Modulus (GPa) = 27.53521 43.67674 35.60597
# Shear Modulus (GPa) = 25.53946 38.17202 31.85574
#
# Velocity S-wave (km/s) = 3.63801 4.44764 4.06304
# Velocity P-wave (km/s) = 5.64943 7.00069 6.36104
#
# Compressibility (1/GPa) = 0.03631714
#
# Stress axis : x y z
#
# Youngs Moduli (GPa) = 84.36728 67.84189 49.49008
#
# Poissons Ratio (x) = 0.23827 -0.07081
# Poissons Ratio (y) = 0.29631 0.15637
# Poissons Ratio (z) = -0.12071 0.21436
#
# Static dielectric constant tensor:
#      x y z
#    x 3.626540 0.000000 -0.062980 
#    y 0.000000 3.442790 0.000000 
#    z -0.062980 0.000000 3.352050 
# 
# 
# High freq. dielectric constant tensor:
#      x y z
#    x 1.760100 0.000000 0.000500 
#    y 0.000000 1.748380 0.000000 
#    z 0.000500 0.000000 1.743570 
# 
# From -- ./inp_files/335193.got.cif
#   From: 2010.06.25/outbox.cif.g09.slc.cpg/sg12_168_cif.got.tgz:335193.got - 2010.06.28 00:19:55.
