data_PCOD8089750
_publ_section_title
;
Structure prediction by ZEFSAII (Michael W. Deem and Ramdas Pophale) SiO2 
 PCOD8089750
Probable space group: C 2/M
;
_chemical_formula_sum "Si O2"
_cell_formula_units_Z 56
_cell_length_a 24.247041
_cell_length_b 15.480895
_cell_length_c 27.968255
_cell_angle_alpha 90.000000
_cell_angle_beta 164.057054
_cell_angle_gamma 90.000000
_cell_volume 2883.681182
_symmetry_space_group_name_H-M "C 2/M"
_symmetry_group_IT_number 12
_symmetry_cell_setting 'monoclinic'
loop_
_space_group_symop_operation_xyz
x,y,z
-x,y,-z
-x,-y,-z
x,-y,z
1/2+x,1/2+y,z
1/2-x,1/2+y,-z
1/2-x,1/2-y,-z
1/2+x,1/2-y,z
loop_
_atom_site_type_symbol
_atom_site_label
_atom_site_fract_x
_atom_site_fract_y
_atom_site_fract_z
Si Si1 0.295776 0.597341 0.355931
Si Si2 0.676482 0.319619 0.342867
Si Si3 0.206487 0.234411 0.149627
Si Si4 0.424566 0.597699 0.214791
Si Si5 0.973403 0.600454 0.423305
Si Si6 0.069387 0.843828 0.434576
Si Si7 0.435407 0.220058 0.066103
O O1 0.500000 0.627690 0.500000
O O2 0.237312 0.500000 0.291177
O O3 0.323715 0.597186 0.436703
O O4 0.119608 0.665031 0.196613
O O5 0.583000 0.375122 0.306989
O O6 0.821376 0.381499 0.433425
O O7 0.798607 0.240446 0.467789
O O8 0.503190 0.284560 0.163865
O O9 0.287699 0.148201 0.242806
O O10 0.360549 0.313253 0.284266
O O11 0.168252 0.220713 0.060980
O O12 0.000000 0.265172 0.000000
O O13 0.356862 0.500000 0.149038
O O14 0.534443 0.602553 0.357555
O O15 0.226684 0.655458 0.046505
O O16 0.920264 0.500000 0.377956
O O17 0.000000 0.633453 0.500000
#
# Coordination Sequence:
#
# PCOD8089750 Si02
#       7
#     8   8   8   8   8   8   8
#     4  10  19  33  54  80 111 145 180 220 267 315
#     4  10  20  37  58  76 103 144 184 216 261 323
#     4  10  19  33  54  79 107 139 172 212 264 317
#     4  11  21  35  54  77 107 139 177 226 275 314
#     4  10  21  37  57  82 109 137 175 221 266 314
#     4   9  20  34  53  78 105 140 184 223 258 314
#     4  10  21  35  53  79 108 139 178 220 262 318
#
# _framework density 19.419623000000001
#
# number of rings (size 3 to 8) (size 9 to 14) (size 15 to 20)
#    0.000    2.000    0.000    3.857    0.000    4.286 
#    0.000    1.429    0.000    6.857    0.000    0.000 
#    0.000    0.000    0.000    0.000    0.000    0.000 
#
# Total GULP energy -347237.861017 kJ/mol
# GULP energy per Si atom -12401.352179 kJ/mol
# Density = 1.937542 g / cm^3
# Si number density = 19.419623 Si / 1000 Ang^3
#
#
#
# Elastic Constant Matrix: (Units=GPa)
#
#
# Indices 1 2 3 4 5 6 
#
# 1 97.4733 36.1235 37.8784 -0.0993 11.0404 0.0055
# 2 36.1235 76.3257 29.1538 -0.0265 -7.3879 -0.0212
# 3 37.8784 29.1538 94.1088 0.0883 -4.9665 -0.0764
# 4 -0.0993 -0.0265 0.0883 17.4655 0.0292 -6.3155
# 5 11.0404 -7.3879 -4.9665 0.0292 29.4170 -0.0190
# 6 0.0055 -0.0212 -0.0764 -6.3155 -0.0190 21.4038
#
#
#
# Elastic Compliance Matrix: (Units=1/GPa)
#
#
# Indices 1 2 3 4 5 6 
#
# 1 0.015299 -0.006248 -0.004649 0.000114 -0.008096 0.000000
# 2 -0.006248 0.017676 -0.002626 -0.000001 0.006341 0.000015
# 3 -0.004649 -0.002626 0.013489 -0.000097 0.003363 0.000021
# 4 0.000114 -0.000001 -0.000097 0.064095 -0.000111 0.018912
# 5 -0.008096 0.006341 0.003363 -0.000111 0.039193 0.000022
# 6 0.000000 0.000015 0.000021 0.018912 0.000022 0.052301
#
#
# Mechanical properties :
#
#
# Convention : Reuss Voigt Hill
#
# Bulk Modulus (GPa) = 51.50588 52.69104 52.09846
# Shear Modulus (GPa) = 21.22498 24.64074 22.93286
#
# Velocity S-wave (km/s) = 3.30959 3.56597 3.44017
# Velocity P-wave (km/s) = 6.41753 6.64429 6.53190
#
# Compressibility (1/GPa) = 0.01941526
#
# Stress axis : x y z
#
# Youngs Moduli (GPa) = 65.36505 56.57450 74.13720
#
# Poissons Ratio (x) = 0.35349 0.34469
# Poissons Ratio (y) = 0.40842 0.19470
# Poissons Ratio (z) = 0.30391 0.14858
#
# Static dielectric constant tensor:
#      x y z
#    x 3.519420 -0.000040 -0.063690 
#    y -0.000040 3.306290 -0.000410 
#    z -0.063690 -0.000410 3.674600 
# 
# 
# High freq. dielectric constant tensor:
#      x y z
#    x 1.760410 -0.000010 -0.001780 
#    y -0.000010 1.743500 -0.000040 
#    z -0.001780 -0.000040 1.762090 
# 
# From -- ./inp_files/347819.got.cif
#   From: 2010.06.25/outbox.cif.g09.slc.cpg/sg12_174_cif.got.tgz:347819.got - 2010.06.28 00:19:55.
