data_PCOD8089342
_publ_section_title
;
Structure prediction by ZEFSAII (Michael W. Deem and Ramdas Pophale) SiO2 
 PCOD8089342
Probable space group: C 2/M
;
_chemical_formula_sum "Si O2"
_cell_formula_units_Z 64
_cell_length_a 20.375467
_cell_length_b 9.117087
_cell_length_c 24.210298
_cell_angle_alpha 90.000000
_cell_angle_beta 126.097469
_cell_angle_gamma 90.000000
_cell_volume 3633.989918
_symmetry_space_group_name_H-M "C 2/M"
_symmetry_group_IT_number 12
_symmetry_cell_setting 'monoclinic'
loop_
_space_group_symop_operation_xyz
x,y,z
-x,y,-z
-x,-y,-z
x,-y,z
1/2+x,1/2+y,z
1/2-x,1/2+y,-z
1/2-x,1/2-y,-z
1/2+x,1/2-y,z
loop_
_atom_site_type_symbol
_atom_site_label
_atom_site_fract_x
_atom_site_fract_y
_atom_site_fract_z
Si Si1 0.094375 0.330441 0.137612
Si Si2 0.487725 0.826696 0.699262
Si Si3 0.323497 0.673795 0.921993
Si Si4 0.855555 0.669091 0.721452
Si Si5 0.359263 0.173445 0.160926
Si Si6 0.247533 0.831401 0.574070
Si Si7 0.904578 0.669732 0.062393
Si Si8 0.620595 0.331610 0.429884
O O1 0.116791 0.500000 0.137680
O O2 0.121657 0.236359 0.099341
O O3 0.139264 0.263149 0.214526
O O4 0.999016 0.309282 0.097459
O O5 0.424574 0.768828 0.714469
O O6 0.576981 0.769624 0.761116
O O7 0.460554 0.758396 0.626530
O O8 0.484649 0.000000 0.691005
O O9 0.331473 0.500000 0.926809
O O10 0.230466 0.724758 0.866460
O O11 0.352417 0.734844 0.994619
O O12 0.877298 0.500000 0.741448
O O13 0.766242 0.692916 0.648986
O O14 0.383911 0.232740 0.112774
O O15 0.366195 0.000000 0.161625
O O16 0.303537 0.717543 0.569533
O O17 0.152691 0.806739 0.509503
O O18 0.272804 0.000000 0.571609
O O19 0.879277 0.500000 0.043611
O O20 0.600559 0.500000 0.408805
#
# Coordination Sequence:
#
# PCOD8089342 Si02
#       8
#     8   8   8   8   8   8   8   8
#     4  10  19  33  53  73  92 121 163 202 230 270
#     4   9  15  28  48  66  86 119 160 195 227 272
#     4  11  23  35  48  71 102 127 149 190 248 296
#     4   8  13  25  47  68  84 114 160 198 222 257
#     4   9  18  34  54  72  91 123 165 199 230 279
#     4   8  14  24  39  59  89 126 158 186 223 274
#     4  10  19  35  57  74  88 118 165 205 231 272
#     4   9  15  22  35  63  97 122 146 186 237 279
#
# _framework density 17.611495999999999
#
# number of rings (size 3 to 8) (size 9 to 14) (size 15 to 20)
#    0.000    2.750    1.250    2.250    0.000    2.500 
#    0.000    5.000    0.000    0.000    0.000    0.875 
#    0.000    7.000    0.000    0.000    0.000    0.000 
#
# Total GULP energy -396461.930636 kJ/mol
# GULP energy per Si atom -12389.435332 kJ/mol
# Density = 1.757141 g / cm^3
# Si number density = 17.611496 Si / 1000 Ang^3
#
#
#
# Elastic Constant Matrix: (Units=GPa)
#
#
# Indices 1 2 3 4 5 6 
#
# 1 39.6220 18.4726 10.6147 0.0000 8.6972 0.0000
# 2 18.4726 47.3122 32.6611 0.0000 9.5102 0.0000
# 3 10.6147 32.6611 123.7930 0.0000 31.8925 0.0000
# 4 0.0000 0.0000 0.0000 24.8642 0.0000 5.7620
# 5 8.6972 9.5102 31.8925 0.0000 13.3550 0.0000
# 6 0.0000 0.0000 0.0000 5.7620 0.0000 12.5552
#
#
#
# Elastic Compliance Matrix: (Units=1/GPa)
#
#
# Indices 1 2 3 4 5 6 
#
# 1 0.037877 -0.014182 0.011037 0.000000 -0.040925 0.000000
# 2 -0.014182 0.031310 -0.009564 0.000000 0.009778 0.000000
# 3 0.011037 -0.009564 0.025345 0.000000 -0.060903 0.000000
# 4 0.000000 0.000000 0.000000 0.045005 0.000000 -0.020654
# 5 -0.040925 0.009778 -0.060903 0.000000 0.240006 0.000000
# 6 0.000000 0.000000 0.000000 -0.020654 0.000000 0.089127
#
#
# Mechanical properties :
#
#
# Convention : Reuss Voigt Hill
#
# Bulk Modulus (GPa) = 14.46855 37.13600 25.80228
# Shear Modulus (GPa) = 9.66887 20.08681 14.87784
#
# Velocity S-wave (km/s) = 2.34564 3.38087 2.90966
# Velocity P-wave (km/s) = 3.94579 6.03095 5.09616
#
# Compressibility (1/GPa) = 0.06911541
#
# Stress axis : x y z
#
# Youngs Moduli (GPa) = 26.40151 31.93878 39.45534
#
# Poissons Ratio (x) = 0.45294 -0.43548
# Poissons Ratio (y) = 0.37441 0.37735
# Poissons Ratio (z) = -0.29140 0.30546
#
# Static dielectric constant tensor:
#      x y z
#    x 2.931330 0.000000 0.204200 
#    y 0.000000 3.057320 0.000000 
#    z 0.204200 0.000000 3.930040 
# 
# 
# High freq. dielectric constant tensor:
#      x y z
#    x 1.626840 0.000000 0.017360 
#    y 0.000000 1.656370 0.000000 
#    z 0.017360 0.000000 1.710190 
# 
# From -- ./inp_files/319138.got.cif
#   From: 2010.06.25/outbox.cif.g09.slc.cpg/sg12_160_cif.got.tgz:319138.got - 2010.06.28 00:19:55.
