data_PCOD8089530
_publ_section_title
;
Structure prediction by ZEFSAII (Michael W. Deem and Ramdas Pophale) SiO2 
 PCOD8089530
Probable space group: C 2/M
;
_chemical_formula_sum "Si O2"
_cell_formula_units_Z 64
_cell_length_a 24.996224
_cell_length_b 9.456154
_cell_length_c 29.854796
_cell_angle_alpha 90.000000
_cell_angle_beta 151.282425
_cell_angle_gamma 90.000000
_cell_volume 3390.702562
_symmetry_space_group_name_H-M "C 2/M"
_symmetry_group_IT_number 12
_symmetry_cell_setting 'monoclinic'
loop_
_space_group_symop_operation_xyz
x,y,z
-x,y,-z
-x,-y,-z
x,-y,z
1/2+x,1/2+y,z
1/2-x,1/2+y,-z
1/2-x,1/2-y,-z
1/2+x,1/2-y,z
loop_
_atom_site_type_symbol
_atom_site_label
_atom_site_fract_x
_atom_site_fract_y
_atom_site_fract_z
Si Si1 0.664558 0.660690 0.910022
Si Si2 0.445618 0.334367 0.329038
Si Si3 0.143377 0.833304 0.406917
Si Si4 0.822775 0.168024 0.756960
Si Si5 0.419348 0.331994 0.736329
Si Si6 0.255192 0.160729 0.879630
Si Si7 0.924122 0.667234 0.401729
Si Si8 0.975745 0.834285 0.033270
O O1 0.677695 0.500000 0.935436
O O2 0.544628 0.722064 0.835359
O O3 0.679646 0.674243 0.868058
O O4 0.750000 0.750000 0.000000
O O5 0.450271 0.500000 0.343934
O O6 0.539043 0.293892 0.361434
O O7 0.323980 0.293370 0.219882
O O8 0.470605 0.245695 0.392118
O O9 0.250000 0.750000 0.500000
O O10 0.124608 0.775063 0.343029
O O11 0.166361 0.000000 0.424761
O O12 0.844925 0.224521 0.722889
O O13 0.701700 0.222919 0.682758
O O14 0.920018 0.224259 0.861302
O O15 0.823292 0.000000 0.758067
O O16 0.420494 0.500000 0.735578
O O17 0.296462 0.000000 0.903316
O O18 0.361970 0.259362 0.963730
O O19 0.928146 0.500000 0.395918
O O20 0.000000 0.707809 0.500000
O O21 0.958486 0.000000 0.028811
O O22 0.000000 0.797864 0.000000
#
# Coordination Sequence:
#
# PCOD8089530 Si02
#       8
#     8   8   8   8   8   8   8   8
#     4  10  19  33  53  79 109 145 185 222 266 325
#     4  10  21  39  59  82 114 150 184 223 280 341
#     4  10  21  37  59  84 109 144 187 228 276 332
#     4   9  18  33  53  80 112 144 182 229 280 328
#     4   9  17  33  56  77 107 148 183 217 270 336
#     4  10  20  35  55  80 111 146 184 225 270 329
#     4  10  22  38  59  87 111 140 189 240 278 322
#     4  10  20  34  54  80 110 146 187 231 277 325
#
# _framework density 18.875145
#
# number of rings (size 3 to 8) (size 9 to 14) (size 15 to 20)
#    0.000    2.250    1.250    1.500    1.750    4.000 
#    0.000    1.250    0.000    1.500    0.000    0.000 
#    0.000    0.000    0.000    0.000    0.000    0.000 
#
# Total GULP energy -396782.390369 kJ/mol
# GULP energy per Si atom -12399.449699 kJ/mol
# Density = 1.883218 g / cm^3
# Si number density = 18.875145 Si / 1000 Ang^3
#
#
#
# Elastic Constant Matrix: (Units=GPa)
#
#
# Indices 1 2 3 4 5 6 
#
# 1 117.1365 31.2345 57.8577 0.0000 -10.7627 0.0000
# 2 31.2345 35.4261 37.8171 -0.0005 -3.4836 0.0003
# 3 57.8577 37.8171 143.1338 -0.0001 -8.8247 0.0000
# 4 0.0000 -0.0005 -0.0001 27.2890 0.0000 2.3399
# 5 -10.7627 -3.4836 -8.8247 0.0000 37.9814 0.0000
# 6 0.0000 0.0003 0.0000 2.3399 0.0000 26.3177
#
#
#
# Elastic Compliance Matrix: (Units=1/GPa)
#
#
# Indices 1 2 3 4 5 6 
#
# 1 0.012102 -0.007494 -0.002783 0.000000 0.002096 0.000000
# 2 -0.007494 0.044011 -0.008604 0.000001 -0.000086 -0.000001
# 3 -0.002783 -0.008604 0.010437 0.000000 0.000847 0.000000
# 4 0.000000 0.000001 0.000000 0.036926 0.000000 -0.003283
# 5 0.002096 -0.000086 0.000847 0.000000 0.027111 0.000000
# 6 0.000000 -0.000001 0.000000 -0.003283 0.000000 0.038289
#
#
# Mechanical properties :
#
#
# Convention : Reuss Voigt Hill
#
# Bulk Modulus (GPa) = 34.73570 61.05722 47.89646
# Shear Modulus (GPa) = 23.12293 29.57010 26.34651
#
# Velocity S-wave (km/s) = 3.50386 3.96234 3.74014
# Velocity P-wave (km/s) = 5.90019 7.30423 6.63943
#
# Compressibility (1/GPa) = 0.02878883
#
# Stress axis : x y z
#
# Youngs Moduli (GPa) = 82.62856 22.72144 95.81312
#
# Poissons Ratio (x) = 0.17026 0.26665
# Poissons Ratio (y) = 0.61918 0.82441
# Poissons Ratio (z) = 0.22995 0.19550
#
# Static dielectric constant tensor:
#      x y z
#    x 3.695340 0.000000 -0.036710 
#    y 0.000000 3.159020 0.000000 
#    z -0.036710 0.000000 3.587860 
# 
# 
# High freq. dielectric constant tensor:
#      x y z
#    x 1.747030 0.000000 -0.002650 
#    y 0.000000 1.695490 0.000000 
#    z -0.002650 0.000000 1.746040 
# 
# From -- ./inp_files/382229.got.cif
#   From: 2010.06.25/outbox.cif.g09.slc.cpg/sg12_192_cif.got.tgz:382229.got - 2010.06.28 00:19:55.
