data_PCOD8089215
_publ_section_title
;
Structure prediction by ZEFSAII (Michael W. Deem and Ramdas Pophale) SiO2 
 PCOD8089215
Probable space group: C 2/M
;
_chemical_formula_sum "Si O2"
_cell_formula_units_Z 48
_cell_length_a 15.148427
_cell_length_b 8.856823
_cell_length_c 19.418654
_cell_angle_alpha 90.000000
_cell_angle_beta 100.423727
_cell_angle_gamma 90.000000
_cell_volume 2562.344412
_symmetry_space_group_name_H-M "C 2/M"
_symmetry_group_IT_number 12
_symmetry_cell_setting 'monoclinic'
loop_
_space_group_symop_operation_xyz
x,y,z
-x,y,-z
-x,-y,-z
x,-y,z
1/2+x,1/2+y,z
1/2-x,1/2+y,-z
1/2-x,1/2-y,-z
1/2+x,1/2-y,z
loop_
_atom_site_type_symbol
_atom_site_label
_atom_site_fract_x
_atom_site_fract_y
_atom_site_fract_z
Si Si1 0.297261 0.821107 0.072212
Si Si2 0.910099 0.178816 0.570508
Si Si3 0.334327 0.678969 0.827986
Si Si4 0.388677 0.678682 0.413759
Si Si5 0.218521 0.179706 0.328962
Si Si6 0.516114 0.677591 0.922979
O O1 0.243807 0.764704 0.132055
O O2 0.398808 0.766116 0.094232
O O3 0.293671 0.000000 0.064014
O O4 0.250000 0.750000 0.000000
O O5 0.875081 0.233154 0.490885
O O6 0.847065 0.246831 0.621293
O O7 0.012612 0.230127 0.597374
O O8 0.907239 0.000000 0.571486
O O9 0.335576 0.500000 0.827497
O O10 0.315541 0.742823 0.749117
O O11 0.430901 0.736697 0.867716
O O12 0.375955 0.500000 0.405363
O O13 0.318715 0.762381 0.355161
O O14 0.218590 0.000000 0.329909
O O15 0.532891 0.500000 0.916381
O O16 0.500000 0.718812 0.000000
#
# Coordination Sequence:
#
# PCOD8089215 Si02
#       6
#     8   8   8   8   8   8
#     4  11  21  36  56  79 103 133 171 217 263 309
#     4   8  16  31  52  74 101 137 173 205 253 310
#     4   9  20  36  52  73 106 140 169 207 262 314
#     4   9  17  32  52  76 103 133 170 216 255 294
#     4  10  19  33  52  74 102 139 174 206 253 312
#     4  10  19  36  58  78 102 135 171 211 261 314
#
# _framework density 18.732842999999999
#
# number of rings (size 3 to 8) (size 9 to 14) (size 15 to 20)
#    0.000    2.500    1.667    2.000    0.000    1.667 
#    0.000    6.667    0.000    0.000    0.000    0.000 
#    0.000    0.000    0.000    0.000    0.000    0.000 
#
# Total GULP energy -297587.522203 kJ/mol
# GULP energy per Si atom -12399.480092 kJ/mol
# Density = 1.869021 g / cm^3
# Si number density = 18.732843 Si / 1000 Ang^3
#
#
#
# Elastic Constant Matrix: (Units=GPa)
#
#
# Indices 1 2 3 4 5 6 
#
# 1 137.6423 26.6873 70.2472 0.0000 14.3450 0.0000
# 2 26.6873 27.9056 23.1248 0.0000 0.8889 0.0000
# 3 70.2472 23.1248 142.8395 0.0000 19.2813 0.0000
# 4 0.0000 0.0000 0.0000 21.4608 0.0000 6.8467
# 5 14.3450 0.8889 19.2813 0.0000 32.6346 0.0000
# 6 0.0000 0.0000 0.0000 6.8467 0.0000 31.4356
#
#
#
# Elastic Compliance Matrix: (Units=1/GPa)
#
#
# Indices 1 2 3 4 5 6 
#
# 1 0.010862 -0.007096 -0.003884 0.000000 -0.002286 0.000000
# 2 -0.007096 0.046309 -0.004627 0.000000 0.004592 0.000000
# 3 -0.003884 -0.004627 0.010229 0.000000 -0.004210 0.000000
# 4 0.000000 0.000000 0.000000 0.050076 0.000000 -0.010907
# 5 -0.002286 0.004592 -0.004210 0.000000 0.034009 0.000000
# 6 0.000000 0.000000 0.000000 -0.010907 0.000000 0.034187
#
#
# Mechanical properties :
#
#
# Convention : Reuss Voigt Hill
#
# Bulk Modulus (GPa) = 27.63601 60.94511 44.29056
# Shear Modulus (GPa) = 21.83901 29.66141 25.75021
#
# Velocity S-wave (km/s) = 3.41811 3.98350 3.71159
# Velocity P-wave (km/s) = 5.51023 7.33227 6.48555
#
# Compressibility (1/GPa) = 0.03618467
#
# Stress axis : x y z
#
# Youngs Moduli (GPa) = 92.06692 21.59392 97.76576
#
# Poissons Ratio (x) = 0.15323 0.37975
# Poissons Ratio (y) = 0.65329 0.45239
# Poissons Ratio (z) = 0.35762 0.09992
#
# Static dielectric constant tensor:
#      x y z
#    x 3.819720 0.000000 -0.097000 
#    y 0.000000 3.025770 0.000000 
#    z -0.097000 0.000000 3.677410 
# 
# 
# High freq. dielectric constant tensor:
#      x y z
#    x 1.742350 0.000000 0.002860 
#    y 0.000000 1.688510 0.000000 
#    z 0.002860 0.000000 1.729560 
# 
# From -- ./inp_files/303839.got.cif
#   From: 2010.06.25/outbox.cif.g09.slc.cpg/sg12_152_cif.got.tgz:303839.got - 2010.06.28 00:19:55.
