data_PCOD8089160
_publ_section_title
;
Structure prediction by ZEFSAII (Michael W. Deem and Ramdas Pophale) SiO2 
 PCOD8089160
Probable space group: C 2/M
;
_chemical_formula_sum "Si O2"
_cell_formula_units_Z 64
_cell_length_a 20.105073
_cell_length_b 8.981229
_cell_length_c 24.953962
_cell_angle_alpha 90.000000
_cell_angle_beta 131.257623
_cell_angle_gamma 90.000000
_cell_volume 3387.314885
_symmetry_space_group_name_H-M "C 2/M"
_symmetry_group_IT_number 12
_symmetry_cell_setting 'monoclinic'
loop_
_space_group_symop_operation_xyz
x,y,z
-x,y,-z
-x,-y,-z
x,-y,z
1/2+x,1/2+y,z
1/2-x,1/2+y,-z
1/2-x,1/2-y,-z
1/2+x,1/2-y,z
loop_
_atom_site_type_symbol
_atom_site_label
_atom_site_fract_x
_atom_site_fract_y
_atom_site_fract_z
Si Si1 0.534083 0.331648 0.572552
Si Si2 0.520125 0.824999 0.116610
Si Si3 0.315251 0.824382 0.990914
Si Si4 0.179291 0.675275 0.126104
Si Si5 0.314457 0.832328 0.612131
Si Si6 0.368900 0.325330 0.739579
Si Si7 0.146197 0.835089 0.469438
Si Si8 0.712129 0.676884 0.716420
O O1 0.500000 0.249207 0.500000
O O2 0.561656 0.500000 0.571447
O O3 0.456432 0.327526 0.573447
O O4 0.617225 0.257680 0.647796
O O5 0.584627 0.771244 0.101665
O O6 0.546489 0.739644 0.184814
O O7 0.534165 0.000000 0.132709
O O8 0.418040 0.784119 0.054273
O O9 0.298511 0.761145 0.921506
O O10 0.298699 0.000000 0.986330
O O11 0.250000 0.750000 0.000000
O O12 0.171754 0.500000 0.115265
O O13 0.260251 0.723403 0.208189
O O14 0.370629 0.717541 0.677956
O O15 0.206694 0.812610 0.555666
O O16 0.337033 0.798068 0.562615
O O17 0.342605 0.000000 0.642369
O O18 0.365574 0.500000 0.746322
O O19 0.280696 0.246530 0.712293
O O20 0.169009 0.000000 0.458032
O O21 0.717310 0.500000 0.714658
#
# Coordination Sequence:
#
# PCOD8089160 Si02
#       8
#     8   8   8   8   8   8   8   8
#     4   9  16  28  49  76 104 135 174 216 255 302
#     4   9  18  35  58  79 102 137 184 223 259 315
#     4  10  20  35  55  81 113 143 175 217 268 324
#     4   8  15  31  56  80 101 136 183 224 254 305
#     4  10  19  33  52  71 100 140 176 215 265 317
#     4  11  21  33  52  78 105 131 168 222 268 310
#     4   9  18  32  50  74 102 134 178 222 258 305
#     4   9  17  32  54  77 102 135 175 213 258 314
#
# _framework density 18.894020999999999
#
# number of rings (size 3 to 8) (size 9 to 14) (size 15 to 20)
#    0.000    2.625    0.000    3.375    0.000    4.500 
#    2.250    3.125    0.000    5.250    0.000    0.000 
#    0.000    0.000    0.000    0.000    0.000    0.000 
#
# Total GULP energy -396425.924256 kJ/mol
# GULP energy per Si atom -12388.310133 kJ/mol
# Density = 1.885102 g / cm^3
# Si number density = 18.894021 Si / 1000 Ang^3
#
#
#
# Elastic Constant Matrix: (Units=GPa)
#
#
# Indices 1 2 3 4 5 6 
#
# 1 79.8099 -13.6337 56.2034 0.0000 8.9493 0.0000
# 2 -13.6337 -189.9936 -27.2740 0.0000 24.5210 0.0000
# 3 56.2034 -27.2740 137.9782 0.0000 10.6804 0.0000
# 4 0.0000 0.0000 0.0000 20.1336 0.0000 -3.6776
# 5 8.9493 24.5210 10.6804 0.0000 27.9490 0.0000
# 6 0.0000 0.0000 0.0000 -3.6776 0.0000 20.5287
#
#
#
# Elastic Compliance Matrix: (Units=1/GPa)
#
#
# Indices 1 2 3 4 5 6 
#
# 1 0.017743 -0.000564 -0.007149 0.000000 -0.002455 0.000000
# 2 -0.000564 -0.004496 -0.001008 0.000000 0.004510 0.000000
# 3 -0.007149 -0.001008 0.010011 0.000000 -0.000652 0.000000
# 4 0.000000 0.000000 0.000000 0.051348 0.000000 0.009199
# 5 -0.002455 0.004510 -0.000652 0.000000 0.032857 0.000000
# 6 0.000000 0.000000 0.000000 0.009199 0.000000 0.050360
#
#
# Mechanical properties :
#
#
# Convention : Reuss Voigt Hill
#
# Bulk Modulus (GPa) = 171.93840 6.48732 89.21286
# Shear Modulus (GPa) = 28.21608 14.55551 21.38580
#
# Velocity S-wave (km/s) = 3.86863 2.77858 3.36799
# Velocity P-wave (km/s) = 10.54296 3.70607 7.90219
#
# Compressibility (1/GPa) = 0.00581604
#
# Stress axis : x y z
#
# Youngs Moduli (GPa) = 56.36024 -222.41862 99.89371
#
# Poissons Ratio (x) = -0.12540 0.71412
# Poissons Ratio (y) = 0.03178 0.10071
# Poissons Ratio (z) = 0.40291 -0.22424
#
# Static dielectric constant tensor:
#      x y z
#    x 3.210890 0.000000 0.162440 
#    y 0.000000 3.142090 0.000000 
#    z 0.162440 0.000000 3.789320 
# 
# 
# High freq. dielectric constant tensor:
#      x y z
#    x 1.716600 0.000000 0.001580 
#    y 0.000000 1.696650 0.000000 
#    z 0.001580 0.000000 1.751930 
# 
# From -- ./inp_files/346247.got.cif
#   From: 2010.06.25/outbox.cif.g09.slc.cpg/sg12_174_cif.got.tgz:346247.got - 2010.06.28 00:19:55.
