data_PCOD8089118
_publ_section_title
;
Structure prediction by ZEFSAII (Michael W. Deem and Ramdas Pophale) SiO2 
 PCOD8089118
Probable space group: C 2/M
;
_chemical_formula_sum "Si O2"
_cell_formula_units_Z 64
_cell_length_a 14.240519
_cell_length_b 8.866091
_cell_length_c 28.549398
_cell_angle_alpha 90.000000
_cell_angle_beta 90.122645
_cell_angle_gamma 90.000000
_cell_volume 3604.574136
_symmetry_space_group_name_H-M "C 2/M"
_symmetry_group_IT_number 12
_symmetry_cell_setting 'monoclinic'
loop_
_space_group_symop_operation_xyz
x,y,z
-x,y,-z
-x,-y,-z
x,-y,z
1/2+x,1/2+y,z
1/2-x,1/2+y,-z
1/2-x,1/2-y,-z
1/2+x,1/2-y,z
loop_
_atom_site_type_symbol
_atom_site_label
_atom_site_fract_x
_atom_site_fract_y
_atom_site_fract_z
Si Si1 0.398956 0.821239 0.374881
Si Si2 0.754609 0.820825 0.949276
Si Si3 0.898361 0.676989 0.124114
Si Si4 0.748456 0.178946 0.698759
Si Si5 0.600384 0.676619 0.374546
Si Si6 0.247630 0.323291 0.550255
Si Si7 0.744581 0.679893 0.195666
Si Si8 0.390733 0.819628 0.876546
O O1 0.344118 0.761540 0.328553
O O2 0.503269 0.762070 0.375718
O O3 0.342955 0.764699 0.420888
O O4 0.400323 0.000000 0.374342
O O5 0.658739 0.775238 0.922411
O O6 0.842644 0.750419 0.922245
O O7 0.767286 0.000000 0.951870
O O8 0.750000 0.750000 0.000000
O O9 0.908799 0.500000 0.125866
O O10 0.840537 0.730338 0.169871
O O11 0.002797 0.744832 0.123757
O O12 0.841600 0.231048 0.671043
O O13 0.750165 0.242243 0.751428
O O14 0.745342 0.000000 0.699757
O O15 0.580542 0.500000 0.372095
O O16 0.658243 0.718822 0.421230
O O17 0.240634 0.500000 0.543255
O O18 0.250000 0.250000 0.500000
O O19 0.730196 0.500000 0.192708
O O20 0.656934 0.760317 0.170924
O O21 0.385176 0.000000 0.878894
#
# Coordination Sequence:
#
# PCOD8089118 Si02
#       8
#     8   8   8   8   8   8   8   8
#     4   9  18  33  51  72  96 127 164 201 238 290
#     4  10  20  36  54  74  99 131 166 201 243 292
#     4   8  17  32  50  70  97 130 161 191 235 289
#     4   8  16  32  52  70  96 131 163 194 239 293
#     4   9  18  33  50  71  98 128 160 201 248 292
#     4   9  19  34  50  69  97 129 163 200 245 295
#     4   9  17  33  53  72  96 131 166 197 237 289
#     4  10  19  33  51  74 101 129 162 203 242 284
#
# _framework density 17.755219
#
# number of rings (size 3 to 8) (size 9 to 14) (size 15 to 20)
#    0.000    3.000    0.000    3.000    0.000    3.000 
#    0.000   15.625    0.000    0.000    0.000    0.000 
#    0.000    0.000    0.000    0.000    0.000    0.000 
#
# Total GULP energy -396667.468019 kJ/mol
# GULP energy per Si atom -12395.858376 kJ/mol
# Density = 1.771481 g / cm^3
# Si number density = 17.755219 Si / 1000 Ang^3
#
#
#
# Elastic Constant Matrix: (Units=GPa)
#
#
# Indices 1 2 3 4 5 6 
#
# 1 134.9801 25.9152 76.0450 0.0000 -2.5375 0.0000
# 2 25.9152 37.0664 37.6015 0.0000 -1.3221 0.0000
# 3 76.0450 37.6015 184.2286 0.0000 -0.6478 0.0000
# 4 0.0000 0.0000 0.0000 27.0994 0.0000 1.3089
# 5 -2.5375 -1.3221 -0.6478 0.0000 13.2733 0.0000
# 6 0.0000 0.0000 0.0000 1.3089 0.0000 30.4937
#
#
#
# Elastic Compliance Matrix: (Units=1/GPa)
#
#
# Indices 1 2 3 4 5 6 
#
# 1 0.010035 -0.003492 -0.003424 0.000000 0.001403 0.000000
# 2 -0.003492 0.035362 -0.005767 0.000000 0.002573 0.000000
# 3 -0.003424 -0.005767 0.008016 0.000000 -0.000838 0.000000
# 4 0.000000 0.000000 0.000000 0.036978 0.000000 -0.001587
# 5 0.001403 0.002573 -0.000838 0.000000 0.075823 0.000000
# 6 0.000000 0.000000 0.000000 -0.001587 0.000000 0.032862
#
#
# Mechanical properties :
#
#
# Convention : Reuss Voigt Hill
#
# Bulk Modulus (GPa) = 35.65615 70.59982 53.12799
# Shear Modulus (GPa) = 21.38671 28.62084 25.00378
#
# Velocity S-wave (km/s) = 3.47440 4.01929 3.75674
# Velocity P-wave (km/s) = 6.01838 7.83510 6.98605
#
# Compressibility (1/GPa) = 0.02804565
#
# Stress axis : x y z
#
# Youngs Moduli (GPa) = 99.65617 28.27891 124.75571
#
# Poissons Ratio (x) = 0.09874 0.42721
# Poissons Ratio (y) = 0.34798 0.71948
# Poissons Ratio (z) = 0.34126 0.16309
#
# Static dielectric constant tensor:
#      x y z
#    x 3.351670 0.000000 0.292400 
#    y 0.000000 3.019740 0.000000 
#    z 0.292400 0.000000 3.192510 
# 
# 
# High freq. dielectric constant tensor:
#      x y z
#    x 1.692440 0.000000 -0.000730 
#    y 0.000000 1.663060 0.000000 
#    z -0.000730 0.000000 1.694400 
# 
# From -- ./inp_files/374807.got.cif
#   From: 2010.06.25/outbox.cif.g09.slc.cpg/sg12_188_cif.got.tgz:374807.got - 2010.06.28 00:19:55.
