data_PCOD8089533
_publ_section_title
;
Structure prediction by ZEFSAII (Michael W. Deem and Ramdas Pophale) SiO2 
 PCOD8089533
Probable space group: C 2/M
;
_chemical_formula_sum "Si O2"
_cell_formula_units_Z 56
_cell_length_a 32.872571
_cell_length_b 9.192374
_cell_length_c 14.800969
_cell_angle_alpha 90.000000
_cell_angle_beta 46.371233
_cell_angle_gamma 90.000000
_cell_volume 3237.318297
_symmetry_space_group_name_H-M "C 2/M"
_symmetry_group_IT_number 12
_symmetry_cell_setting 'monoclinic'
loop_
_space_group_symop_operation_xyz
x,y,z
-x,y,-z
-x,-y,-z
x,-y,z
1/2+x,1/2+y,z
1/2-x,1/2+y,-z
1/2-x,1/2-y,-z
1/2+x,1/2-y,z
loop_
_atom_site_type_symbol
_atom_site_label
_atom_site_fract_x
_atom_site_fract_y
_atom_site_fract_z
Si Si1 0.669476 0.668748 0.566007
Si Si2 0.391780 0.832943 0.489839
Si Si3 0.295172 0.834275 0.319958
Si Si4 0.378804 0.668918 0.845382
Si Si5 0.194885 0.331557 0.901889
Si Si6 0.012795 0.333581 0.380030
Si Si7 0.320925 0.331195 0.746463
O O1 0.653969 0.500000 0.593418
O O2 0.622195 0.751823 0.581803
O O3 0.670451 0.729474 0.666342
O O4 0.728756 0.698209 0.426143
O O5 0.458217 0.819379 0.401402
O O6 0.360710 0.762057 0.621994
O O7 0.372659 0.000000 0.512489
O O8 0.315939 0.804301 0.187244
O O9 0.306498 0.000000 0.332305
O O10 0.387372 0.500000 0.850571
O O11 0.439587 0.737322 0.738099
O O12 0.338699 0.697912 0.821724
O O13 0.350969 0.738538 0.975806
O O14 0.187389 0.500000 0.938924
O O15 0.257050 0.278346 0.833659
O O16 0.033821 0.500000 0.354243
O O17 0.000000 0.273911 0.500000
O O18 0.326976 0.500000 0.708966
#
# Coordination Sequence:
#
# PCOD8089533 Si02
#       7
#     8   8   8   8   8   8   8
#     4  10  19  33  53  79 111 140 172 219 271 319
#     4  11  21  33  55  81 107 140 180 223 264 317
#     4   9  18  33  53  78 107 142 179 213 261 321
#     4  11  23  35  53  80 109 143 184 225 265 315
#     4  10  20  36  55  75 110 150 179 215 262 320
#     4  10  21  38  56  76 104 142 185 223 265 316
#     4  10  20  35  52  77 111 145 178 216 267 317
#
# _framework density 17.298268
#
# number of rings (size 3 to 8) (size 9 to 14) (size 15 to 20)
#    0.000    1.857    2.857    1.714    0.000    3.714 
#    0.000    0.000    0.000    0.857    0.000    6.000 
#    0.000    0.000    0.000    0.000    0.000    0.000 
#
# Total GULP energy -347345.457862 kJ/mol
# GULP energy per Si atom -12405.194924 kJ/mol
# Density = 1.725890 g / cm^3
# Si number density = 17.298268 Si / 1000 Ang^3
#
#
#
# Elastic Constant Matrix: (Units=GPa)
#
#
# Indices 1 2 3 4 5 6 
#
# 1 81.1052 49.8399 38.2280 0.0000 9.1827 0.0000
# 2 49.8399 98.6126 57.2130 0.0000 4.2701 0.0001
# 3 38.2280 57.2130 105.6762 0.0000 0.2166 0.0000
# 4 0.0000 0.0000 0.0000 28.4359 0.0000 3.1410
# 5 9.1827 4.2701 0.2166 0.0000 19.7358 0.0000
# 6 0.0000 0.0001 0.0000 3.1410 0.0000 30.2198
#
#
#
# Elastic Compliance Matrix: (Units=1/GPa)
#
#
# Indices 1 2 3 4 5 6 
#
# 1 0.019241 -0.007847 -0.002697 0.000000 -0.007225 0.000000
# 2 -0.007847 0.018178 -0.007003 0.000000 -0.000205 0.000000
# 3 -0.002697 -0.007003 0.014225 0.000000 0.002614 0.000000
# 4 0.000000 0.000000 0.000000 0.035575 0.000000 -0.003698
# 5 -0.007225 -0.000205 0.002614 0.000000 0.054047 0.000000
# 6 0.000000 0.000000 0.000000 -0.003698 0.000000 0.033475
#
#
# Mechanical properties :
#
#
# Convention : Reuss Voigt Hill
#
# Bulk Modulus (GPa) = 60.42260 63.99510 62.20885
# Shear Modulus (GPa) = 23.21786 25.01916 24.11851
#
# Velocity S-wave (km/s) = 3.66759 3.80720 3.73805
# Velocity P-wave (km/s) = 7.27603 7.51011 7.39400
#
# Compressibility (1/GPa) = 0.01655010
#
# Stress axis : x y z
#
# Youngs Moduli (GPa) = 51.97237 55.01053 70.30109
#
# Poissons Ratio (x) = 0.43166 0.18962
# Poissons Ratio (y) = 0.40782 0.49230
# Poissons Ratio (z) = 0.14018 0.38522
#
# Static dielectric constant tensor:
#      x y z
#    x 3.249340 0.000000 0.061530 
#    y 0.000000 3.301550 0.000000 
#    z 0.061530 0.000000 3.009950 
# 
# 
# High freq. dielectric constant tensor:
#      x y z
#    x 1.668430 0.000000 0.009350 
#    y 0.000000 1.675620 0.000000 
#    z 0.009350 0.000000 1.649430 
# 
# From -- ./inp_files/237456.got.cif
#   From: 2010.06.25/outbox.cif.g09.slc.cpg/sg12_119_cif.got.tgz:237456.got - 2010.06.28 00:19:55.
