data_PCOD8089818
_publ_section_title
;
Structure prediction by ZEFSAII (Michael W. Deem and Ramdas Pophale) SiO2 
 PCOD8089818
Probable space group: C 2/M
;
_chemical_formula_sum "Si O2"
_cell_formula_units_Z 64
_cell_length_a 9.175584
_cell_length_b 19.164783
_cell_length_c 23.397894
_cell_angle_alpha 90.000000
_cell_angle_beta 49.408048
_cell_angle_gamma 90.000000
_cell_volume 3124.378620
_symmetry_space_group_name_H-M "C 2/M"
_symmetry_group_IT_number 12
_symmetry_cell_setting 'monoclinic'
loop_
_space_group_symop_operation_xyz
x,y,z
-x,y,-z
-x,-y,-z
x,-y,z
1/2+x,1/2+y,z
1/2-x,1/2+y,-z
1/2-x,1/2-y,-z
1/2+x,1/2-y,z
loop_
_atom_site_type_symbol
_atom_site_label
_atom_site_fract_x
_atom_site_fract_y
_atom_site_fract_z
Si Si1 0.060814 0.920215 0.705194
Si Si2 0.801122 0.756285 0.144761
Si Si3 0.301689 0.083273 0.272232
Si Si4 0.511919 0.343824 0.171535
Si Si5 0.202194 0.578415 0.979129
Si Si6 0.103913 0.653301 0.112377
Si Si7 0.030837 0.416737 0.428353
Si Si8 0.293036 0.417041 0.574345
O O1 0.263158 0.883717 0.640041
O O2 0.885044 0.889160 0.714034
O O3 0.032684 0.912538 0.780517
O O4 0.075282 0.000000 0.684231
O O5 0.607299 0.710344 0.192556
O O6 0.786505 0.804934 0.091739
O O7 0.820322 0.808122 0.194566
O O8 0.984761 0.705232 0.100828
O O9 0.481273 0.122165 0.196787
O O10 0.268580 0.107039 0.346204
O O11 0.332523 0.000000 0.258958
O O12 0.652794 0.365117 0.084190
O O13 0.282061 0.500000 0.950978
O O14 0.180236 0.591820 0.052484
O O15 0.000000 0.586486 0.000000
O O16 0.031490 0.500000 0.423519
O O17 0.000000 0.390549 0.500000
O O18 0.866152 0.387214 0.428701
O O19 0.500000 0.387954 0.500000
O O20 0.300865 0.500000 0.571187
#
# Coordination Sequence:
#
# PCOD8089818 Si02
#       8
#     8   8   8   8   8   8   8   8
#     4  10  19  33  54  80 114 149 183 229 285 343
#     4  10  24  39  60  78 111 146 196 238 279 316
#     4  10  19  33  54  80 114 149 183 229 285 343
#     4  11  22  40  57  85 109 150 191 236 278 331
#     4  11  22  38  62  87 116 149 184 230 283 342
#     4  11  22  40  57  85 109 150 191 236 278 331
#     4   9  17  29  48  78 113 147 182 222 277 341
#     4   9  17  29  48  78 113 147 182 222 277 341
#
# _framework density 20.484072000000001
#
# number of rings (size 3 to 8) (size 9 to 14) (size 15 to 20)
#    0.000    1.875    2.500    1.500    1.750    8.500 
#    0.000    2.500    0.000    0.000    0.000    5.250 
#    0.000    0.000    0.000    0.000    0.000    0.000 
#
# Total GULP energy -396525.302507 kJ/mol
# GULP energy per Si atom -12391.415703 kJ/mol
# Density = 2.043745 g / cm^3
# Si number density = 20.484072 Si / 1000 Ang^3
#
#
#
# Elastic Constant Matrix: (Units=GPa)
#
#
# Indices 1 2 3 4 5 6 
#
# 1 128.9138 30.4335 49.6411 -0.0018 16.9464 0.0020
# 2 30.4335 51.2314 26.1322 -0.0023 7.2789 0.0027
# 3 49.6411 26.1322 142.8763 -0.0053 11.6618 0.0041
# 4 -0.0018 -0.0023 -0.0053 6.0102 0.0031 9.7662
# 5 16.9464 7.2789 11.6618 0.0031 30.4858 -0.0023
# 6 0.0020 0.0027 0.0041 9.7662 -0.0023 21.1263
#
#
#
# Elastic Compliance Matrix: (Units=1/GPa)
#
#
# Indices 1 2 3 4 5 6 
#
# 1 0.010202 -0.004279 -0.002459 0.000007 -0.003709 -0.000003
# 2 -0.004279 0.023746 -0.002671 0.000043 -0.002269 -0.000022
# 3 -0.002459 -0.002671 0.008442 0.000033 -0.001225 -0.000016
# 4 0.000007 0.000043 0.000033 0.668660 -0.000118 -0.309107
# 5 -0.003709 -0.002269 -0.001225 -0.000118 0.035874 0.000059
# 6 -0.000003 -0.000022 -0.000016 -0.309107 0.000059 0.190228
#
#
# Mechanical properties :
#
#
# Convention : Reuss Voigt Hill
#
# Bulk Modulus (GPa) = 42.42485 59.49277 50.95881
# Shear Modulus (GPa) = 5.18765 25.97878 15.58322
#
# Velocity S-wave (km/s) = 1.59312 3.56510 2.76116
# Velocity P-wave (km/s) = 4.91326 6.78624 5.92424
#
# Compressibility (1/GPa) = 0.02357109
#
# Stress axis : x y z
#
# Youngs Moduli (GPa) = 98.02237 42.11211 118.45523
#
# Poissons Ratio (x) = 0.18020 0.29130
# Poissons Ratio (y) = 0.41943 0.31643
# Poissons Ratio (z) = 0.24106 0.11249
#
# Static dielectric constant tensor:
#      x y z
#    x 3.991430 0.000000 0.099160 
#    y 0.000000 3.434320 0.000000 
#    z 0.099160 0.000000 3.598630 
# 
# 
# High freq. dielectric constant tensor:
#      x y z
#    x 1.814020 0.000000 0.011090 
#    y 0.000000 1.764900 0.000000 
#    z 0.011090 0.000000 1.788790 
# 
# From -- ./inp_files/301711.got.cif
#   From: 2010.06.25/outbox.cif.g09.slc.cpg/sg12_151_cif.got.tgz:301711.got - 2010.06.28 00:19:55.
