data_PCOD8089624
_publ_section_title
;
Structure prediction by ZEFSAII (Michael W. Deem and Ramdas Pophale) SiO2 
 PCOD8089624
Probable space group: C 2/M
;
_chemical_formula_sum "Si O2"
_cell_formula_units_Z 56
_cell_length_a 15.392086
_cell_length_b 8.911368
_cell_length_c 26.365509
_cell_angle_alpha 90.000000
_cell_angle_beta 125.836549
_cell_angle_gamma 90.000000
_cell_volume 2931.791683
_symmetry_space_group_name_H-M "C 2/M"
_symmetry_group_IT_number 12
_symmetry_cell_setting 'monoclinic'
loop_
_space_group_symop_operation_xyz
x,y,z
-x,y,-z
-x,-y,-z
x,-y,z
1/2+x,1/2+y,z
1/2-x,1/2+y,-z
1/2-x,1/2-y,-z
1/2+x,1/2-y,z
loop_
_atom_site_type_symbol
_atom_site_label
_atom_site_fract_x
_atom_site_fract_y
_atom_site_fract_z
Si Si1 0.332094 0.322329 0.423673
Si Si2 0.461560 0.677664 0.564465
Si Si3 0.339158 0.674007 0.996347
Si Si4 0.954842 0.821908 0.208427
Si Si5 0.712328 0.822241 0.124473
Si Si6 0.453844 0.673801 0.866426
Si Si7 0.393310 0.321378 0.650444
O O1 0.313848 0.500000 0.416430
O O2 0.418932 0.271742 0.410991
O O3 0.374871 0.268258 0.493318
O O4 0.222452 0.239365 0.373697
O O5 0.459739 0.500000 0.565520
O O6 0.430408 0.744561 0.608616
O O7 0.310604 0.500000 0.981048
O O8 0.344133 0.748970 0.943246
O O9 0.250000 0.750000 0.000000
O O10 0.453727 0.697713 0.060897
O O11 0.833682 0.762092 0.170970
O O12 0.007561 0.762579 0.174546
O O13 0.022337 0.761786 0.279239
O O14 0.953127 0.000000 0.206960
O O15 0.649244 0.770414 0.152948
O O16 0.708521 0.000000 0.117371
O O17 0.420906 0.500000 0.851403
O O18 0.388994 0.500000 0.647995
#
# Coordination Sequence:
#
# PCOD8089624 Si02
#       7
#     8   8   8   8   8   8   8
#     4   9  17  32  52  76 107 137 171 220 268 314
#     4   8  16  31  52  76 104 140 174 210 268 326
#     4  11  21  36  60  84 111 143 177 221 275 324
#     4   9  20  38  54  72 107 146 176 215 268 320
#     4  11  22  38  58  83 109 140 181 224 268 322
#     4  10  21  39  57  77 107 143 175 217 277 325
#     4  10  19  33  54  76 101 140 182 215 260 319
#
# _framework density 19.100947999999999
#
# number of rings (size 3 to 8) (size 9 to 14) (size 15 to 20)
#    0.000    2.286    1.429    2.571    0.000    4.000 
#    0.000    5.714    0.000    0.000    0.000    0.000 
#    0.000    0.000    0.000    0.000    0.000    0.000 
#
# Total GULP energy -347224.665238 kJ/mol
# GULP energy per Si atom -12400.880901 kJ/mol
# Density = 1.905747 g / cm^3
# Si number density = 19.100948 Si / 1000 Ang^3
#
#
#
# Elastic Constant Matrix: (Units=GPa)
#
#
# Indices 1 2 3 4 5 6 
#
# 1 144.3322 35.3114 59.9379 0.0000 -1.0138 0.0000
# 2 35.3114 45.5235 29.7134 0.0000 2.0052 0.0000
# 3 59.9379 29.7134 113.0182 0.0000 4.5482 0.0000
# 4 0.0000 0.0000 0.0000 19.3065 0.0000 2.0527
# 5 -1.0138 2.0052 4.5482 0.0000 18.4765 0.0000
# 6 0.0000 0.0000 0.0000 2.0527 0.0000 34.8174
#
#
#
# Elastic Compliance Matrix: (Units=1/GPa)
#
#
# Indices 1 2 3 4 5 6 
#
# 1 0.009843 -0.005148 -0.003950 0.000000 0.002071 0.000000
# 2 -0.005148 0.029235 -0.004865 0.000000 -0.002258 0.000000
# 3 -0.003950 -0.004865 0.012332 0.000000 -0.002724 0.000000
# 4 0.000000 0.000000 0.000000 0.052123 0.000000 -0.003073
# 5 0.002071 -0.002258 -0.002724 0.000000 0.055152 0.000000
# 6 0.000000 0.000000 0.000000 -0.003073 0.000000 0.028902
#
#
# Mechanical properties :
#
#
# Convention : Reuss Voigt Hill
#
# Bulk Modulus (GPa) = 42.58343 61.42217 52.00280
# Shear Modulus (GPa) = 22.38743 26.38084 24.38413
#
# Velocity S-wave (km/s) = 3.42725 3.72038 3.57682
# Velocity P-wave (km/s) = 6.16471 7.11909 6.65902
#
# Compressibility (1/GPa) = 0.02348331
#
# Stress axis : x y z
#
# Youngs Moduli (GPa) = 101.59741 34.20602 81.09228
#
# Poissons Ratio (x) = 0.17609 0.32031
# Poissons Ratio (y) = 0.52301 0.39452
# Poissons Ratio (z) = 0.40130 0.16641
#
# Static dielectric constant tensor:
#      x y z
#    x 3.616430 0.000000 -0.081230 
#    y 0.000000 3.174050 0.000000 
#    z -0.081230 0.000000 3.735990 
# 
# 
# High freq. dielectric constant tensor:
#      x y z
#    x 1.758840 0.000000 -0.003070 
#    y 0.000000 1.710820 0.000000 
#    z -0.003070 0.000000 1.741460 
# 
# From -- ./inp_files/339099.got.cif
#   From: 2010.06.25/outbox.cif.g09.slc.cpg/sg12_170_cif.got.tgz:339099.got - 2010.06.28 00:19:55.
