data_PCOD8089685
_publ_section_title
;
Structure prediction by ZEFSAII (Michael W. Deem and Ramdas Pophale) SiO2 
 PCOD8089685
Probable space group: C 2/M
;
_chemical_formula_sum "Si O2"
_cell_formula_units_Z 64
_cell_length_a 11.811934
_cell_length_b 23.609477
_cell_length_c 17.049077
_cell_angle_alpha 90.000000
_cell_angle_beta 134.196328
_cell_angle_gamma 90.000000
_cell_volume 3408.790586
_symmetry_space_group_name_H-M "C 2/M"
_symmetry_group_IT_number 12
_symmetry_cell_setting 'monoclinic'
loop_
_space_group_symop_operation_xyz
x,y,z
-x,y,-z
-x,-y,-z
x,-y,z
1/2+x,1/2+y,z
1/2-x,1/2+y,-z
1/2-x,1/2-y,-z
1/2+x,1/2-y,z
loop_
_atom_site_type_symbol
_atom_site_label
_atom_site_fract_x
_atom_site_fract_y
_atom_site_fract_z
Si Si1 0.195940 0.628873 0.832535
Si Si2 0.846180 0.934918 0.301462
Si Si3 0.307530 0.566824 0.566472
Si Si4 0.167526 0.348068 0.113119
Si Si5 0.843312 0.933502 0.757305
Si Si6 0.876542 0.228419 0.870950
Si Si7 0.116556 0.434397 0.329326
Si Si8 0.609322 0.356360 0.917050
O O1 0.248959 0.589847 0.785898
O O2 0.214632 0.694667 0.815151
O O3 0.019080 0.608461 0.768102
O O4 0.311470 0.624135 0.962993
O O5 0.734131 0.902065 0.188318
O O6 0.774376 0.928350 0.353646
O O7 0.022955 0.909110 0.381522
O O8 0.844795 0.000000 0.273782
O O9 0.319595 0.500000 0.565017
O O10 0.267756 0.585302 0.636701
O O11 0.166143 0.586470 0.440600
O O12 0.167610 0.293256 0.172161
O O13 0.266111 0.331573 0.083401
O O14 0.000000 0.366954 0.000000
O O15 0.024612 0.912852 0.844454
O O16 0.843069 0.000000 0.764518
O O17 0.972621 0.191940 0.853789
O O18 0.000000 0.235509 0.000000
O O19 0.056612 0.500000 0.299181
#
# Coordination Sequence:
#
# PCOD8089685 Si02
#       8
#     8   8   8   8   8   8   8   8
#     4  10  20  34  51  78 108 137 175 222 263 305
#     4  10  20  35  52  78 109 138 175 214 264 321
#     4   9  18  34  54  76 102 140 183 216 255 313
#     4  11  21  33  55  81 105 140 176 215 263 311
#     4  10  19  33  54  77 106 144 179 212 258 319
#     4   8  19  35  52  75 102 138 179 214 253 310
#     4  10  20  33  53  80 108 137 175 225 267 304
#     4  10  20  35  52  77 112 139 174 214 261 321
#
# _framework density 18.774989000000001
#
# number of rings (size 3 to 8) (size 9 to 14) (size 15 to 20)
#    0.000    2.250    1.250    2.625    0.000    9.250 
#    0.000    1.875    0.000    0.750    6.500    0.000 
#    0.000    0.000    0.000    0.000    0.000    0.000 
#
# Total GULP energy -396484.147967 kJ/mol
# GULP energy per Si atom -12390.129624 kJ/mol
# Density = 1.873226 g / cm^3
# Si number density = 18.774989 Si / 1000 Ang^3
#
#
#
# Elastic Constant Matrix: (Units=GPa)
#
#
# Indices 1 2 3 4 5 6 
#
# 1 66.1590 15.3955 9.4554 -0.0002 -7.0557 -0.0001
# 2 15.3955 62.6370 30.0700 0.0000 -1.5734 0.0000
# 3 9.4554 30.0700 74.7511 -0.0005 -7.4055 -0.0003
# 4 -0.0002 0.0000 -0.0005 5.3282 -0.0003 3.3100
# 5 -7.0557 -1.5734 -7.4055 -0.0003 28.1095 -0.0001
# 6 -0.0001 0.0000 -0.0003 3.3100 -0.0001 20.7220
#
#
#
# Elastic Compliance Matrix: (Units=1/GPa)
#
#
# Indices 1 2 3 4 5 6 
#
# 1 0.016451 -0.003881 -0.000136 0.000001 0.003876 0.000000
# 2 -0.003881 0.020730 -0.008039 -0.000001 -0.001932 0.000000
# 3 -0.000136 -0.008039 0.017025 0.000002 0.004001 0.000000
# 4 0.000001 -0.000001 0.000002 0.208354 0.000002 -0.033281
# 5 0.003876 -0.001932 0.004001 0.000002 0.037494 0.000000
# 6 0.000000 0.000000 0.000000 -0.033281 0.000000 0.053574
#
#
# Mechanical properties :
#
#
# Convention : Reuss Voigt Hill
#
# Bulk Modulus (GPa) = 33.22924 34.82098 34.02511
# Shear Modulus (GPa) = 12.89419 20.74036 16.81727
#
# Velocity S-wave (km/s) = 2.62348 3.32728 2.99612
# Velocity P-wave (km/s) = 5.18787 5.77475 5.48916
#
# Compressibility (1/GPa) = 0.03009398
#
# Stress axis : x y z
#
# Youngs Moduli (GPa) = 60.78652 48.23967 58.73609
#
# Poissons Ratio (x) = 0.18722 0.00797
# Poissons Ratio (y) = 0.23591 0.47220
# Poissons Ratio (z) = 0.00825 0.38782
#
# Static dielectric constant tensor:
#      x y z
#    x 3.659210 0.000000 -0.057430 
#    y 0.000000 3.488790 0.000000 
#    z -0.057430 0.000000 3.458530 
# 
# 
# High freq. dielectric constant tensor:
#      x y z
#    x 1.739320 0.000000 -0.002540 
#    y 0.000000 1.709130 0.000000 
#    z -0.002540 0.000000 1.711800 
# 
# From -- ./inp_files/209417.got.cif
#   From: 2010.06.25/outbox.cif.g09.slc.cpg/sg12_105_cif.got.tgz:209417.got - 2010.06.28 00:19:55.
