data_PCOD8089209
_publ_section_title
;
Structure prediction by ZEFSAII (Michael W. Deem and Ramdas Pophale) SiO2 
 PCOD8089209
Probable space group: C 2/M
;
_chemical_formula_sum "Si O2"
_cell_formula_units_Z 56
_cell_length_a 29.878190
_cell_length_b 8.723251
_cell_length_c 18.990050
_cell_angle_alpha 90.000000
_cell_angle_beta 37.715284
_cell_angle_gamma 90.000000
_cell_volume 3027.779743
_symmetry_space_group_name_H-M "C 2/M"
_symmetry_group_IT_number 12
_symmetry_cell_setting 'monoclinic'
loop_
_space_group_symop_operation_xyz
x,y,z
-x,y,-z
-x,-y,-z
x,-y,z
1/2+x,1/2+y,z
1/2-x,1/2+y,-z
1/2-x,1/2-y,-z
1/2+x,1/2-y,z
loop_
_atom_site_type_symbol
_atom_site_label
_atom_site_fract_x
_atom_site_fract_y
_atom_site_fract_z
Si Si1 0.315050 0.817620 0.119709
Si Si2 0.525236 0.169050 0.075537
Si Si3 0.187235 0.817991 0.030143
Si Si4 0.886865 0.181466 0.418137
Si Si5 0.379634 0.679853 0.266639
Si Si6 0.252334 0.818108 0.664358
Si Si7 0.464087 0.172392 0.770927
O O1 0.298106 0.736918 0.067307
O O2 0.255838 0.760211 0.249439
O O3 0.311572 0.000000 0.113024
O O4 0.395826 0.768044 0.048495
O O5 0.456787 0.270503 0.135224
O O6 0.529974 0.166155 0.153172
O O7 0.510977 0.000000 0.062994
O O8 0.187745 0.000000 0.032158
O O9 0.250000 0.750000 0.000000
O O10 0.110447 0.757962 0.157186
O O11 0.873518 0.238565 0.354578
O O12 0.829911 0.268515 0.537911
O O13 0.967229 0.231806 0.344521
O O14 0.877824 0.000000 0.436812
O O15 0.377515 0.500000 0.268300
O O16 0.311451 0.746201 0.307688
O O17 0.248531 0.000000 0.677034
O O18 0.464140 0.000000 0.739487
#
# Coordination Sequence:
#
# PCOD8089209 Si02
#       7
#     8   8   8   8   8   8   8
#     4  10  21  37  53  75 105 138 174 214 262 318
#     4   8  16  30  49  70  97 132 171 215 263 308
#     4  11  21  36  60  88 112 135 164 205 254 309
#     4  10  19  33  52  74 101 140 184 225 263 305
#     4   9  19  32  48  71 100 135 181 227 266 305
#     4  11  22  34  48  71 103 142 181 223 268 311
#     4   9  17  32  53  79 107 136 170 212 257 305
#
# _framework density 18.495401000000001
#
# number of rings (size 3 to 8) (size 9 to 14) (size 15 to 20)
#    0.000    2.286    0.000    4.286    0.000    6.286 
#    0.000    2.857    0.000    0.857    0.000    6.000 
#    0.000    0.000    0.000    0.000    0.000    0.000 
#
# Total GULP energy -347167.160618 kJ/mol
# GULP energy per Si atom -12398.827165 kJ/mol
# Density = 1.845330 g / cm^3
# Si number density = 18.495401 Si / 1000 Ang^3
#
#
#
# Elastic Constant Matrix: (Units=GPa)
#
#
# Indices 1 2 3 4 5 6 
#
# 1 78.1752 31.1198 55.2122 -0.0064 -19.5443 -0.0009
# 2 31.1198 80.2762 31.5573 0.0106 -7.7926 0.0020
# 3 55.2122 31.5573 102.4367 0.0012 -14.2031 -0.0015
# 4 -0.0064 0.0106 0.0012 34.5208 0.0027 -6.0779
# 5 -19.5443 -7.7926 -14.2031 0.0027 25.3392 0.0001
# 6 -0.0009 0.0020 -0.0015 -6.0779 0.0001 22.3733
#
#
#
# Elastic Compliance Matrix: (Units=1/GPa)
#
#
# Indices 1 2 3 4 5 6 
#
# 1 0.024886 -0.004395 -0.010393 0.000006 0.012018 0.000002
# 2 -0.004395 0.015051 -0.002273 -0.000006 -0.000035 -0.000003
# 3 -0.010393 -0.002273 0.016107 -0.000002 0.000313 0.000000
# 4 0.000006 -0.000006 -0.000002 0.030423 -0.000002 0.008265
# 5 0.012018 -0.000035 0.000313 -0.000002 0.048899 0.000000
# 6 0.000002 -0.000003 0.000000 0.008265 0.000000 0.046941
#
#
# Mechanical properties :
#
#
# Convention : Reuss Voigt Hill
#
# Bulk Modulus (GPa) = 45.61476 55.18518 50.39997
# Shear Modulus (GPa) = 22.34771 25.97990 24.16380
#
# Velocity S-wave (km/s) = 3.47981 3.75196 3.61844
# Velocity P-wave (km/s) = 6.39232 6.97650 6.69079
#
# Compressibility (1/GPa) = 0.02192273
#
# Stress axis : x y z
#
# Youngs Moduli (GPa) = 40.18313 66.44178 62.08316
#
# Poissons Ratio (x) = 0.29202 0.64523
# Poissons Ratio (y) = 0.17661 0.14109
# Poissons Ratio (z) = 0.41762 0.15100
#
# Static dielectric constant tensor:
#      x y z
#    x 3.209490 -0.000010 -0.197800 
#    y -0.000010 3.454480 0.000020 
#    z -0.197800 0.000020 3.591680 
# 
# 
# High freq. dielectric constant tensor:
#      x y z
#    x 1.684960 0.000000 -0.012450 
#    y 0.000000 1.725100 0.000000 
#    z -0.012450 0.000000 1.721620 
# 
# From -- ./inp_files/281593.got.cif
#   From: 2010.06.25/outbox.cif.g09.slc.cpg/sg12_141_cif.got.tgz:281593.got - 2010.06.28 00:19:55.
