data_PCOD8089873
_publ_section_title
;
Structure prediction by ZEFSAII (Michael W. Deem and Ramdas Pophale) SiO2 
 PCOD8089873
Probable space group: C 2/M
;
_chemical_formula_sum "Si O2"
_cell_formula_units_Z 64
_cell_length_a 29.979706
_cell_length_b 8.880756
_cell_length_c 15.034114
_cell_angle_alpha 90.000000
_cell_angle_beta 121.109777
_cell_angle_gamma 90.000000
_cell_volume 3427.044018
_symmetry_space_group_name_H-M "C 2/M"
_symmetry_group_IT_number 12
_symmetry_cell_setting 'monoclinic'
loop_
_space_group_symop_operation_xyz
x,y,z
-x,y,-z
-x,-y,-z
x,-y,z
1/2+x,1/2+y,z
1/2-x,1/2+y,-z
1/2-x,1/2-y,-z
1/2+x,1/2-y,z
loop_
_atom_site_type_symbol
_atom_site_label
_atom_site_fract_x
_atom_site_fract_y
_atom_site_fract_z
Si Si1 0.470953 0.179038 0.232242
Si Si2 0.111612 0.320901 0.994969
Si Si3 0.778574 0.671855 0.950062
Si Si4 0.636245 0.177643 0.568118
Si Si5 0.448083 0.678522 0.394691
Si Si6 0.911779 0.321434 0.666158
Si Si7 0.257713 0.673121 0.282423
Si Si8 0.856503 0.320767 0.783760
O O1 0.438107 0.233395 0.112450
O O2 0.447647 0.254666 0.295724
O O3 0.529180 0.237997 0.275207
O O4 0.468667 0.000000 0.242599
O O5 0.114988 0.500000 0.000040
O O6 0.164024 0.256695 0.003286
O O7 0.110277 0.263458 0.096136
O O8 0.784687 0.500000 0.983393
O O9 0.745115 0.690569 0.826424
O O10 0.750000 0.750000 0.000000
O O11 0.603080 0.260971 0.609156
O O12 0.616684 0.233767 0.451962
O O13 0.696598 0.220630 0.635593
O O14 0.628988 0.000000 0.572700
O O15 0.500000 0.732616 0.500000
O O16 0.445155 0.500000 0.386481
O O17 0.911299 0.500000 0.672371
O O18 0.882288 0.251758 0.721442
O O19 0.269055 0.500000 0.320165
O O20 0.203762 0.730176 0.271227
O O21 0.857824 0.500000 0.782993
#
# Coordination Sequence:
#
# PCOD8089873 Si02
#       8
#     8   8   8   8   8   8   8   8
#     4  10  19  33  54  82 111 137 173 217 263 315
#     4   8  16  30  50  76 105 136 171 211 261 314
#     4   9  18  32  48  71 101 133 174 219 262 309
#     4  11  22  35  53  79 110 139 176 223 266 312
#     4  11  23  38  55  75 105 144 181 215 261 321
#     4   9  18  31  51  79 108 139 174 217 268 312
#     4   9  19  35  53  74 105 142 180 218 263 315
#     4   8  15  32  54  77 109 141 171 218 267 310
#
# _framework density 18.674986000000001
#
# number of rings (size 3 to 8) (size 9 to 14) (size 15 to 20)
#    0.000    2.625    1.250    2.250    1.750    2.000 
#    0.000    2.500    0.000    2.250    0.000    0.875 
#    0.000    0.000    0.000    0.000    0.000    0.000 
#
# Total GULP energy -396732.798943 kJ/mol
# GULP energy per Si atom -12397.899967 kJ/mol
# Density = 1.863248 g / cm^3
# Si number density = 18.674986 Si / 1000 Ang^3
#
#
#
# Elastic Constant Matrix: (Units=GPa)
#
#
# Indices 1 2 3 4 5 6 
#
# 1 139.9779 24.0722 89.9738 0.0000 -18.2538 0.0000
# 2 24.0722 32.0586 29.1856 0.0000 -0.3424 0.0000
# 3 89.9738 29.1856 127.5953 0.0000 4.9754 0.0000
# 4 0.0000 0.0000 0.0000 19.7590 0.0000 4.4863
# 5 -18.2538 -0.3424 4.9754 0.0000 37.1700 0.0000
# 6 0.0000 0.0000 0.0000 4.4863 0.0000 18.3311
#
#
#
# Elastic Compliance Matrix: (Units=1/GPa)
#
#
# Indices 1 2 3 4 5 6 
#
# 1 0.015760 -0.001631 -0.011099 0.000000 0.009210 0.000000
# 2 -0.001631 0.039658 -0.007946 0.000000 0.000628 0.000000
# 3 -0.011099 -0.007946 0.017789 0.000000 -0.007905 0.000000
# 4 0.000000 0.000000 0.000000 0.053588 0.000000 -0.013115
# 5 0.009210 0.000628 -0.007905 0.000000 0.032490 0.000000
# 6 0.000000 0.000000 0.000000 -0.013115 0.000000 0.057762
#
#
# Mechanical properties :
#
#
# Convention : Reuss Voigt Hill
#
# Bulk Modulus (GPa) = 31.39149 65.12167 48.25658
# Shear Modulus (GPa) = 18.58628 25.47870 22.03249
#
# Velocity S-wave (km/s) = 3.15818 3.69768 3.43853
# Velocity P-wave (km/s) = 5.49042 7.29227 6.45453
#
# Compressibility (1/GPa) = 0.03185576
#
# Stress axis : x y z
#
# Youngs Moduli (GPa) = 63.45349 25.21579 56.21332
#
# Poissons Ratio (x) = 0.04113 0.62391
# Poissons Ratio (y) = 0.10349 0.44665
# Poissons Ratio (z) = 0.70427 0.20035
#
# Static dielectric constant tensor:
#      x y z
#    x -18.512300 0.000000 -9.991550 
#    y 0.000000 3.002570 0.000000 
#    z -9.991550 0.000000 -0.816340 
# 
# 
# High freq. dielectric constant tensor:
#      x y z
#    x 1.732780 0.000000 -0.000180 
#    y 0.000000 1.681490 0.000000 
#    z -0.000180 0.000000 1.734200 
# 
# From -- ./inp_files/249238.got.cif
#   From: 2010.06.25/outbox.cif.g09.slc.cpg/sg12_125_cif.got.tgz:249238.got - 2010.06.28 00:19:55.
