data_PCOD8089060
_publ_section_title
;
Structure prediction by ZEFSAII (Michael W. Deem and Ramdas Pophale) SiO2 
 PCOD8089060
Probable space group: C 2/M
;
_chemical_formula_sum "Si O2"
_cell_formula_units_Z 48
_cell_length_a 19.391189
_cell_length_b 8.973844
_cell_length_c 27.451308
_cell_angle_alpha 90.000000
_cell_angle_beta 145.996311
_cell_angle_gamma 90.000000
_cell_volume 2671.462618
_symmetry_space_group_name_H-M "C 2/M"
_symmetry_group_IT_number 12
_symmetry_cell_setting 'monoclinic'
loop_
_space_group_symop_operation_xyz
x,y,z
-x,y,-z
-x,-y,-z
x,-y,z
1/2+x,1/2+y,z
1/2-x,1/2+y,-z
1/2-x,1/2-y,-z
1/2+x,1/2-y,z
loop_
_atom_site_type_symbol
_atom_site_label
_atom_site_fract_x
_atom_site_fract_y
_atom_site_fract_z
Si Si1 0.595792 0.324208 0.784317
Si Si2 0.550721 0.326972 0.132295
Si Si3 0.630277 0.672532 0.288281
Si Si4 0.795360 0.824951 0.252355
Si Si5 0.797641 0.677394 0.978701
Si Si6 0.372333 0.324953 0.404248
O O1 0.589647 0.500000 0.786437
O O2 0.464616 0.261690 0.726964
O O3 0.615958 0.276366 0.740137
O O4 0.708932 0.266956 0.883377
O O5 0.533243 0.500000 0.109741
O O6 0.566828 0.299913 0.199131
O O7 0.668589 0.264708 0.172575
O O8 0.433188 0.235708 0.044926
O O9 0.659359 0.500000 0.313612
O O10 0.759208 0.757848 0.368477
O O11 0.863836 0.780776 0.342422
O O12 0.764700 0.000000 0.232623
O O13 0.798620 0.500000 0.985064
O O14 0.750000 0.750000 0.000000
O O15 0.500000 0.259448 0.500000
O O16 0.366760 0.500000 0.408554
#
# Coordination Sequence:
#
# PCOD8089060 Si02
#       6
#     8   8   8   8   8   8
#     4   9  18  33  51  72  99 132 169 206 242 289
#     4  10  19  33  50  72 102 133 169 211 247 284
#     4   9  17  32  52  72  96 129 167 202 240 293
#     4   9  18  34  54  72  96 134 170 199 245 300
#     4  11  20  32  50  73 100 132 173 211 244 286
#     4   9  18  33  53  77 100 123 158 204 249 296
#
# _framework density 17.967686
#
# number of rings (size 3 to 8) (size 9 to 14) (size 15 to 20)
#    0.000    2.500    1.667    1.000    0.000    1.667 
#    0.000    6.667    0.000    0.000    0.000    0.000 
#    0.000    0.000    0.000    0.000    0.000    0.000 
#
# Total GULP energy -297595.316111 kJ/mol
# GULP energy per Si atom -12399.804838 kJ/mol
# Density = 1.792679 g / cm^3
# Si number density = 17.967686 Si / 1000 Ang^3
#
#
#
# Elastic Constant Matrix: (Units=GPa)
#
#
# Indices 1 2 3 4 5 6 
#
# 1 138.8129 31.8053 70.1412 0.0000 22.1544 0.0000
# 2 31.8053 46.3465 39.0650 0.0000 6.8629 0.0000
# 3 70.1412 39.0650 148.0874 -0.0001 21.6808 0.0000
# 4 0.0000 0.0000 -0.0001 25.3762 0.0000 7.6304
# 5 22.1544 6.8629 21.6808 0.0000 24.7015 0.0000
# 6 0.0000 0.0000 0.0000 7.6304 0.0000 23.9856
#
#
#
# Elastic Compliance Matrix: (Units=1/GPa)
#
#
# Indices 1 2 3 4 5 6 
#
# 1 0.010575 -0.003724 -0.003200 0.000000 -0.005640 0.000000
# 2 -0.003724 0.029104 -0.005988 0.000000 0.000510 0.000000
# 3 -0.003200 -0.005988 0.010539 0.000000 -0.004716 0.000000
# 4 0.000000 0.000000 0.000000 0.043575 0.000000 -0.013862
# 5 -0.005640 0.000510 -0.004716 0.000000 0.049540 0.000000
# 6 0.000000 0.000000 0.000000 -0.013862 0.000000 0.046102
#
#
# Mechanical properties :
#
#
# Convention : Reuss Voigt Hill
#
# Bulk Modulus (GPa) = 40.99716 68.36331 54.68023
# Shear Modulus (GPa) = 22.38233 27.62835 25.00534
#
# Velocity S-wave (km/s) = 3.53328 3.92557 3.73458
# Velocity P-wave (km/s) = 6.28586 7.66011 7.00676
#
# Compressibility (1/GPa) = 0.02439194
#
# Stress axis : x y z
#
# Youngs Moduli (GPa) = 94.56662 34.35929 94.88742
#
# Poissons Ratio (x) = 0.12795 0.30368
# Poissons Ratio (y) = 0.35216 0.56823
# Poissons Ratio (z) = 0.30266 0.20576
#
# Static dielectric constant tensor:
#      x y z
#    x 3.432570 0.000000 0.154190 
#    y 0.000000 3.188520 0.000000 
#    z 0.154190 0.000000 3.459780 
# 
# 
# High freq. dielectric constant tensor:
#      x y z
#    x 1.693760 0.000000 0.014720 
#    y 0.000000 1.679990 0.000000 
#    z 0.014720 0.000000 1.688600 
# 
# From -- ./inp_files/221637.got.cif
#   From: 2010.06.25/outbox.cif.g09.slc.cpg/sg12_111_cif.got.tgz:221637.got - 2010.06.28 00:19:55.
