data_PCOD8089141
_publ_section_title
;
Structure prediction by ZEFSAII (Michael W. Deem and Ramdas Pophale) SiO2 
 PCOD8089141
Probable space group: C 2/M
;
_chemical_formula_sum "Si O2"
_cell_formula_units_Z 56
_cell_length_a 14.242636
_cell_length_b 13.826311
_cell_length_c 17.096039
_cell_angle_alpha 90.000000
_cell_angle_beta 115.773314
_cell_angle_gamma 90.000000
_cell_volume 3031.700028
_symmetry_space_group_name_H-M "C 2/M"
_symmetry_group_IT_number 12
_symmetry_cell_setting 'monoclinic'
loop_
_space_group_symop_operation_xyz
x,y,z
-x,y,-z
-x,-y,-z
x,-y,z
1/2+x,1/2+y,z
1/2-x,1/2+y,-z
1/2-x,1/2-y,-z
1/2+x,1/2-y,z
loop_
_atom_site_type_symbol
_atom_site_label
_atom_site_fract_x
_atom_site_fract_y
_atom_site_fract_z
Si Si1 0.117750 0.391543 0.378537
Si Si2 0.597814 0.714941 0.272648
Si Si3 0.255840 0.114623 0.431879
Si Si4 0.885335 0.110127 0.982237
Si Si5 0.750128 0.775892 0.817679
Si Si6 0.619978 0.388186 0.835717
Si Si7 0.110255 0.391610 0.662105
O O1 0.142634 0.500000 0.358369
O O2 0.098936 0.327887 0.295003
O O3 0.210442 0.351614 0.468511
O O4 0.013502 0.389835 0.392838
O O5 0.646646 0.658989 0.364870
O O6 0.661396 0.710244 0.215637
O O7 0.485663 0.668246 0.221797
O O8 0.342072 0.150362 0.400635
O O9 0.246955 0.000000 0.429328
O O10 0.864360 0.116356 0.066312
O O11 0.875706 0.000000 0.948289
O O12 0.794749 0.174052 0.911214
O O13 0.000000 0.149968 0.000000
O O14 0.716456 0.665844 0.827084
O O15 0.645938 0.828848 0.749684
O O16 0.615479 0.500000 0.805496
O O17 0.151955 0.500000 0.691798
#
# Coordination Sequence:
#
# PCOD8089141 Si02
#       7
#     8   8   8   8   8   8   8
#     4  10  19  33  51  76 110 143 181 228 277 325
#     4  11  21  35  56  81 109 150 190 227 270 333
#     4   9  18  31  52  79 106 139 182 233 278 320
#     4  10  20  36  61  88 111 139 180 232 278 325
#     4  11  21  36  58  83 112 145 182 224 275 332
#     4  11  23  39  58  83 116 149 184 227 277 330
#     4   9  17  30  52  81 106 134 176 228 278 322
#
# _framework density 18.471485000000001
#
# number of rings (size 3 to 8) (size 9 to 14) (size 15 to 20)
#    0.000    1.857    2.857    2.143    0.000    3.429 
#    0.000    0.000    0.000    0.429    0.000    5.000 
#    0.000    0.000    0.000    0.000    0.000    0.000 
#
# Total GULP energy -347085.748358 kJ/mol
# GULP energy per Si atom -12395.919584 kJ/mol
# Density = 1.842944 g / cm^3
# Si number density = 18.471485 Si / 1000 Ang^3
#
#
#
# Elastic Constant Matrix: (Units=GPa)
#
#
# Indices 1 2 3 4 5 6 
#
# 1 37.4728 19.7920 13.7105 0.0000 9.9016 0.0000
# 2 19.7920 88.2240 54.6437 0.0000 5.9037 0.0000
# 3 13.7105 54.6437 94.2048 0.0000 11.9407 0.0000
# 4 0.0000 0.0000 0.0000 33.2772 0.0000 -0.3041
# 5 9.9016 5.9037 11.9407 0.0000 19.9502 0.0000
# 6 0.0000 0.0000 0.0000 -0.3041 0.0000 23.1118
#
#
#
# Elastic Compliance Matrix: (Units=1/GPa)
#
#
# Indices 1 2 3 4 5 6 
#
# 1 0.034262 -0.007458 0.001315 0.000000 -0.015585 0.000000
# 2 -0.007458 0.019331 -0.010682 0.000000 0.004374 0.000000
# 3 0.001315 -0.010682 0.017640 0.000000 -0.008050 0.000000
# 4 0.000000 0.000000 0.000000 0.030054 0.000000 0.000395
# 5 -0.015585 0.004374 -0.008050 0.000000 0.061383 0.000000
# 6 0.000000 0.000000 0.000000 0.000395 0.000000 0.043273
#
#
# Mechanical properties :
#
#
# Convention : Reuss Voigt Hill
#
# Bulk Modulus (GPa) = 26.60754 44.02158 35.31456
# Shear Modulus (GPa) = 19.83159 24.05152 21.94156
#
# Velocity S-wave (km/s) = 3.28019 3.61236 3.45028
# Velocity P-wave (km/s) = 5.36490 6.42517 5.91882
#
# Compressibility (1/GPa) = 0.03758333
#
# Stress axis : x y z
#
# Youngs Moduli (GPa) = 29.18694 51.72908 56.68789
#
# Poissons Ratio (x) = 0.38578 -0.07454
# Poissons Ratio (y) = 0.21767 0.60556
# Poissons Ratio (z) = -0.03838 0.55259
#
# Static dielectric constant tensor:
#      x y z
#    x 3.194270 0.000000 0.083440 
#    y 0.000000 3.455960 0.000000 
#    z 0.083440 0.000000 3.433490 
# 
# 
# High freq. dielectric constant tensor:
#      x y z
#    x 1.697280 0.000000 0.009020 
#    y 0.000000 1.714330 0.000000 
#    z 0.009020 0.000000 1.723440 
# 
# From -- ./inp_files/246542.got.cif
#   From: 2010.06.25/outbox.cif.g09.slc.cpg/sg12_124_cif.got.tgz:246542.got - 2010.06.28 00:19:55.
