data_PCOD8089316
_publ_section_title
;
Structure prediction by ZEFSAII (Michael W. Deem and Ramdas Pophale) SiO2 
 PCOD8089316
Probable space group: C 2/M
;
_chemical_formula_sum "Si O2"
_cell_formula_units_Z 64
_cell_length_a 9.002443
_cell_length_b 21.329643
_cell_length_c 16.880264
_cell_angle_alpha 90.000000
_cell_angle_beta 89.331446
_cell_angle_gamma 90.000000
_cell_volume 3241.108990
_symmetry_space_group_name_H-M "C 2/M"
_symmetry_group_IT_number 12
_symmetry_cell_setting 'monoclinic'
loop_
_space_group_symop_operation_xyz
x,y,z
-x,y,-z
-x,-y,-z
x,-y,z
1/2+x,1/2+y,z
1/2-x,1/2+y,-z
1/2-x,1/2-y,-z
1/2+x,1/2-y,z
loop_
_atom_site_type_symbol
_atom_site_label
_atom_site_fract_x
_atom_site_fract_y
_atom_site_fract_z
Si Si1 0.889483 0.630829 0.100402
Si Si2 0.816242 0.569123 0.949083
Si Si3 0.854814 0.428871 0.374866
Si Si4 0.878258 0.767762 0.059169
Si Si5 0.675788 0.925723 0.323134
Si Si6 0.327224 0.427856 0.777811
Si Si7 0.836381 0.073763 0.483744
Si Si8 0.356558 0.620905 0.178626
O O1 0.934826 0.703655 0.100493
O O2 0.795419 0.612172 0.176446
O O3 0.036743 0.588839 0.099932
O O4 0.791293 0.616397 0.022249
O O5 0.835251 0.500000 0.984100
O O6 0.678359 0.570115 0.889620
O O7 0.899841 0.500000 0.393673
O O8 0.721317 0.425388 0.312771
O O9 0.787203 0.397270 0.454913
O O10 0.010651 0.398961 0.344281
O O11 0.839808 0.812451 0.133698
O O12 0.750000 0.750000 0.000000
O O13 0.000000 0.798454 0.000000
O O14 0.786337 0.911714 0.395096
O O15 0.735445 0.884983 0.249161
O O16 0.676083 0.000000 0.301520
O O17 0.337051 0.500000 0.807382
O O18 0.482789 0.392595 0.786522
O O19 0.000000 0.102754 0.500000
O O20 0.843078 0.000000 0.500696
#
# Coordination Sequence:
#
# PCOD8089316 Si02
#       8
#     8   8   8   8   8   8   8   8
#     4  11  21  39  58  77 101 145 192 239 286 340
#     4  11  21  36  57  80 107 139 183 229 295 359
#     4   9  18  32  52  78 114 160 196 227 278 349
#     4  12  23  43  60  76 104 145 199 247 286 345
#     4  10  19  33  52  80 117 154 198 241 283 346
#     4  11  22  35  53  83 120 147 184 239 300 353
#     4   9  16  28  50  80 118 159 193 230 283 344
#     4  12  24  35  55  81 113 152 189 240 297 341
#
# _framework density 19.746327000000001
#
# number of rings (size 3 to 8) (size 9 to 14) (size 15 to 20)
#    0.000    1.375    2.500    5.250    0.000    4.500 
#    0.000    1.250    0.000    0.000    0.000    0.875 
#    0.000    2.000    0.000    0.375    0.000    0.000 
#
# Total GULP energy -396631.767247 kJ/mol
# GULP energy per Si atom -12394.742726 kJ/mol
# Density = 1.970138 g / cm^3
# Si number density = 19.746327 Si / 1000 Ang^3
#
#
#
# Elastic Constant Matrix: (Units=GPa)
#
#
# Indices 1 2 3 4 5 6 
#
# 1 76.3048 29.2463 29.1993 0.0000 3.5945 0.0000
# 2 29.2463 82.5371 41.3170 0.0000 -9.3769 0.0000
# 3 29.1993 41.3170 102.2379 0.0000 -10.8350 0.0000
# 4 0.0000 0.0000 0.0000 13.7427 0.0000 -3.7492
# 5 3.5945 -9.3769 -10.8350 0.0000 42.5690 0.0000
# 6 0.0000 0.0000 0.0000 -3.7492 0.0000 20.0487
#
#
#
# Elastic Compliance Matrix: (Units=1/GPa)
#
#
# Indices 1 2 3 4 5 6 
#
# 1 0.016187 -0.004529 -0.003128 0.000000 -0.003161 0.000000
# 2 -0.004529 0.016596 -0.005124 0.000000 0.002734 0.000000
# 3 -0.003128 -0.005124 0.013004 0.000000 0.002445 0.000000
# 4 0.000000 0.000000 0.000000 0.076678 0.000000 0.014339
# 5 -0.003161 0.002734 0.002445 0.000000 0.024983 0.000000
# 6 0.000000 0.000000 0.000000 0.014339 0.000000 0.052560
#
#
# Mechanical properties :
#
#
# Convention : Reuss Voigt Hill
#
# Bulk Modulus (GPa) = 49.44039 51.17834 50.30937
# Shear Modulus (GPa) = 21.52290 26.02655 23.77473
#
# Velocity S-wave (km/s) = 3.30505 3.63443 3.47365
# Velocity P-wave (km/s) = 6.29735 6.60199 6.45147
#
# Compressibility (1/GPa) = 0.02022638
#
# Stress axis : x y z
#
# Youngs Moduli (GPa) = 61.77789 60.25529 76.89869
#
# Poissons Ratio (x) = 0.27290 0.24051
# Poissons Ratio (y) = 0.27980 0.39400
# Poissons Ratio (z) = 0.19322 0.30873
#
# Static dielectric constant tensor:
#      x y z
#    x 3.742900 0.000000 0.003740 
#    y 0.000000 3.359250 0.000000 
#    z 0.003740 0.000000 3.630980 
# 
# 
# High freq. dielectric constant tensor:
#      x y z
#    x 1.786270 0.000000 0.002060 
#    y 0.000000 1.716800 0.000000 
#    z 0.002060 0.000000 1.774120 
# 
# From -- ./inp_files/258122.got.cif
#   From: 2010.06.25/outbox.cif.g09.slc.cpg/sg12_130_cif.got.tgz:258122.got - 2010.06.28 00:19:55.
