data_PCOD8089407
_publ_section_title
;
Structure prediction by ZEFSAII (Michael W. Deem and Ramdas Pophale) SiO2 
 PCOD8089407
Probable space group: C 2/M
;
_chemical_formula_sum "Si O2"
_cell_formula_units_Z 56
_cell_length_a 19.103553
_cell_length_b 9.055799
_cell_length_c 19.446794
_cell_angle_alpha 90.000000
_cell_angle_beta 65.612606
_cell_angle_gamma 90.000000
_cell_volume 3064.077968
_symmetry_space_group_name_H-M "C 2/M"
_symmetry_group_IT_number 12
_symmetry_cell_setting 'monoclinic'
loop_
_space_group_symop_operation_xyz
x,y,z
-x,y,-z
-x,-y,-z
x,-y,z
1/2+x,1/2+y,z
1/2-x,1/2+y,-z
1/2-x,1/2-y,-z
1/2+x,1/2-y,z
loop_
_atom_site_type_symbol
_atom_site_label
_atom_site_fract_x
_atom_site_fract_y
_atom_site_fract_z
Si Si1 0.879743 0.675855 0.737874
Si Si2 0.581495 0.172386 0.431969
Si Si3 0.722070 0.672440 0.443353
Si Si4 0.837880 0.840438 0.313737
Si Si5 0.004416 0.828886 0.210319
Si Si6 0.049385 0.177019 0.916274
Si Si7 0.710774 0.338991 0.821291
O O1 0.877359 0.500000 0.740373
O O2 0.913501 0.726149 0.649741
O O3 0.793449 0.743390 0.785467
O O4 0.929930 0.734393 0.780132
O O5 0.500000 0.206125 0.500000
O O6 0.641305 0.262586 0.452840
O O7 0.602318 0.000000 0.427998
O O8 0.713067 0.500000 0.458215
O O9 0.750000 0.750000 0.500000
O O10 0.787796 0.705400 0.361184
O O11 0.927719 0.804351 0.286698
O O12 0.820816 0.861328 0.241641
O O13 0.818932 0.000000 0.357520
O O14 0.991418 0.769881 0.137765
O O15 0.028911 0.000000 0.199808
O O16 0.137805 0.239885 0.888956
O O17 0.054170 0.000000 0.913860
O O18 0.000000 0.238039 0.000000
O O19 0.724850 0.500000 0.849384
#
# Coordination Sequence:
#
# PCOD8089407 Si02
#       7
#     8   8   8   8   8   8   8
#     4  10  19  33  53  75 106 142 174 213 263 323
#     4  10  22  40  58  77 105 142 181 222 269 320
#     4  12  25  38  55  78 105 137 177 223 271 319
#     4   9  17  35  55  72  98 135 177 220 263 308
#     4   9  19  32  52  80 108 136 173 222 263 303
#     4   8  14  28  52  79 104 135 177 217 253 303
#     4   8  14  28  51  73  97 134 174 209 255 309
#
# _framework density 18.276297
#
# number of rings (size 3 to 8) (size 9 to 14) (size 15 to 20)
#    0.000    2.571    1.429    3.000    2.000    1.429 
#    0.000    0.714    0.000    0.429    0.000    0.000 
#    0.000    0.000    0.000    0.000    0.000    0.000 
#
# Total GULP energy -346899.105997 kJ/mol
# GULP energy per Si atom -12389.253786 kJ/mol
# Density = 1.823470 g / cm^3
# Si number density = 18.276297 Si / 1000 Ang^3
#
#
#
# Elastic Constant Matrix: (Units=GPa)
#
#
# Indices 1 2 3 4 5 6 
#
# 1 144.3408 39.1283 66.6927 0.0000 -16.4650 -0.0001
# 2 39.1283 48.3056 31.2747 0.0000 -2.1764 -0.0002
# 3 66.6927 31.2747 118.1643 0.0000 -22.3952 0.0000
# 4 0.0000 0.0000 0.0000 10.2619 0.0000 8.1459
# 5 -16.4650 -2.1764 -22.3952 0.0000 28.7073 0.0000
# 6 -0.0001 -0.0002 0.0000 8.1459 0.0000 22.6254
#
#
#
# Elastic Compliance Matrix: (Units=1/GPa)
#
#
# Indices 1 2 3 4 5 6 
#
# 1 0.010665 -0.005964 -0.003952 0.000000 0.002582 0.000000
# 2 -0.005964 0.028682 -0.005235 0.000000 -0.005330 0.000000
# 3 -0.003952 -0.005235 0.013582 0.000000 0.007932 0.000000
# 4 0.000000 0.000000 0.000000 0.136443 0.000000 -0.049124
# 5 0.002582 -0.005330 0.007932 0.000000 0.042099 0.000000
# 6 0.000000 0.000000 0.000000 -0.049124 0.000000 0.061884
#
#
# Mechanical properties :
#
#
# Convention : Reuss Voigt Hill
#
# Bulk Modulus (GPa) = 44.19484 65.00024 54.59754
# Shear Modulus (GPa) = 15.09662 23.89992 19.49827
#
# Velocity S-wave (km/s) = 2.87718 3.62014 3.26983
# Velocity P-wave (km/s) = 5.93898 7.28810 6.64785
#
# Compressibility (1/GPa) = 0.02262707
#
# Stress axis : x y z
#
# Youngs Moduli (GPa) = 93.76264 34.86501 73.62632
#
# Poissons Ratio (x) = 0.20794 0.29094
# Poissons Ratio (y) = 0.55923 0.38546
# Poissons Ratio (z) = 0.37051 0.18253
#
# Static dielectric constant tensor:
#      x y z
#    x 3.463760 0.000000 -0.244180 
#    y 0.000000 2.975630 0.000000 
#    z -0.244180 0.000000 3.578010 
# 
# 
# High freq. dielectric constant tensor:
#      x y z
#    x 1.716000 0.000000 -0.015010 
#    y 0.000000 1.667240 0.000000 
#    z -0.015010 0.000000 1.703480 
# 
# From -- ./inp_files/319034.got.cif
#   From: 2010.06.25/outbox.cif.g09.slc.cpg/sg12_160_cif.got.tgz:319034.got - 2010.06.28 00:19:55.
