data_PCOD8089353
_publ_section_title
;
Structure prediction by ZEFSAII (Michael W. Deem and Ramdas Pophale) SiO2 
 PCOD8089353
Probable space group: C 2/M
;
_chemical_formula_sum "Si O2"
_cell_formula_units_Z 56
_cell_length_a 19.249581
_cell_length_b 8.846820
_cell_length_c 26.845905
_cell_angle_alpha 90.000000
_cell_angle_beta 39.664278
_cell_angle_gamma 90.000000
_cell_volume 2918.120352
_symmetry_space_group_name_H-M "C 2/M"
_symmetry_group_IT_number 12
_symmetry_cell_setting 'monoclinic'
loop_
_space_group_symop_operation_xyz
x,y,z
-x,y,-z
-x,-y,-z
x,-y,z
1/2+x,1/2+y,z
1/2-x,1/2+y,-z
1/2-x,1/2-y,-z
1/2+x,1/2-y,z
loop_
_atom_site_type_symbol
_atom_site_label
_atom_site_fract_x
_atom_site_fract_y
_atom_site_fract_z
Si Si1 0.299993 0.320310 0.736812
Si Si2 0.419431 0.167909 0.182152
Si Si3 0.405376 0.679158 0.782310
Si Si4 0.794272 0.672609 0.524177
Si Si5 0.127009 0.669483 0.677784
Si Si6 0.470274 0.826664 0.571007
Si Si7 0.649351 0.818365 0.084374
O O1 0.298015 0.500000 0.733330
O O2 0.175717 0.254639 0.798709
O O3 0.342851 0.268213 0.766932
O O4 0.374048 0.262583 0.650778
O O5 0.374604 0.164819 0.262483
O O6 0.539560 0.244440 0.117040
O O7 0.436942 0.000000 0.151582
O O8 0.399680 0.500000 0.793050
O O9 0.529689 0.731254 0.708453
O O10 0.347487 0.760945 0.860679
O O11 0.757044 0.500000 0.545967
O O12 0.750000 0.750000 0.500000
O O13 0.741731 0.756009 0.600476
O O14 0.923745 0.688709 0.453041
O O15 0.117583 0.500000 0.660883
O O16 0.500000 0.760044 0.500000
O O17 0.432727 0.000000 0.585662
O O18 0.651509 0.000000 0.083748
O O19 0.750000 0.750000 0.000000
#
# Coordination Sequence:
#
# PCOD8089353 Si02
#       7
#     8   8   8   8   8   8   8
#     4  10  20  35  55  78 104 137 179 221 261 312
#     4   8  17  34  55  78 102 133 172 211 253 304
#     4  10  20  34  55  82 110 140 175 215 262 316
#     4  11  22  34  49  70  99 134 175 223 271 318
#     4  10  19  33  53  74 100 135 177 222 264 311
#     4  10  22  37  51  72 104 141 179 223 275 319
#     4  10  20  37  61  85 111 140 173 213 256 308
#
# _framework density 19.190435000000001
#
# number of rings (size 3 to 8) (size 9 to 14) (size 15 to 20)
#    0.000    2.143    0.000    4.286    0.000    4.857 
#    0.000    4.286    0.000    4.286    0.000    0.000 
#    0.000    0.000    0.000    0.000    0.000    0.000 
#
# Total GULP energy -347078.389912 kJ/mol
# GULP energy per Si atom -12395.656783 kJ/mol
# Density = 1.914676 g / cm^3
# Si number density = 19.190435 Si / 1000 Ang^3
#
#
#
# Elastic Constant Matrix: (Units=GPa)
#
#
# Indices 1 2 3 4 5 6 
#
# 1 115.8494 25.0898 34.9192 -0.0006 -10.6100 0.0040
# 2 25.0898 66.5226 28.3089 -0.0010 -2.2526 0.0069
# 3 34.9192 28.3089 109.0716 0.0001 -12.6130 0.0004
# 4 -0.0006 -0.0010 0.0001 33.0767 -0.0002 2.9595
# 5 -10.6100 -2.2526 -12.6130 -0.0002 23.0351 -0.0003
# 6 0.0040 0.0069 0.0004 2.9595 -0.0003 22.2423
#
#
#
# Elastic Compliance Matrix: (Units=1/GPa)
#
#
# Indices 1 2 3 4 5 6 
#
# 1 0.010188 -0.002815 -0.002157 0.000000 0.003236 -0.000001
# 2 -0.002815 0.017691 -0.003886 0.000001 -0.001695 -0.000005
# 3 -0.002157 -0.003886 0.011433 0.000000 0.004886 0.000001
# 4 0.000000 0.000001 0.000000 0.030597 0.000000 -0.004071
# 5 0.003236 -0.001695 0.004886 0.000000 0.047413 0.000000
# 6 -0.000001 -0.000005 0.000001 -0.004071 0.000000 0.045501
#
#
# Mechanical properties :
#
#
# Convention : Reuss Voigt Hill
#
# Bulk Modulus (GPa) = 46.30714 52.00883 49.15799
# Shear Modulus (GPa) = 26.63306 29.21253 27.92280
#
# Velocity S-wave (km/s) = 3.72940 3.90583 3.81863
# Velocity P-wave (km/s) = 6.53661 6.89209 6.71670
#
# Compressibility (1/GPa) = 0.02159494
#
# Stress axis : x y z
#
# Youngs Moduli (GPa) = 98.15389 56.52704 87.46988
#
# Poissons Ratio (x) = 0.15913 0.18865
# Poissons Ratio (y) = 0.27632 0.33993
# Poissons Ratio (z) = 0.21170 0.21968
#
# Static dielectric constant tensor:
#      x y z
#    x 3.762370 0.000000 -0.204940 
#    y 0.000000 3.519000 0.000000 
#    z -0.204940 0.000000 3.577690 
# 
# 
# High freq. dielectric constant tensor:
#      x y z
#    x 1.754810 0.000000 -0.010310 
#    y 0.000000 1.735940 0.000000 
#    z -0.010310 0.000000 1.737600 
# 
# From -- ./inp_files/275035.got.cif
#   From: 2010.06.25/outbox.cif.g09.slc.cpg/sg12_138_cif.got.tgz:275035.got - 2010.06.28 00:19:55.
