data_PCOD8089892
_publ_section_title
;
Structure prediction by ZEFSAII (Michael W. Deem and Ramdas Pophale) SiO2 
 PCOD8089892
Probable space group: C 2/M
;
_chemical_formula_sum "Si O2"
_cell_formula_units_Z 64
_cell_length_a 24.497921
_cell_length_b 9.094942
_cell_length_c 28.136691
_cell_angle_alpha 90.000000
_cell_angle_beta 31.844708
_cell_angle_gamma 90.000000
_cell_volume 3307.672123
_symmetry_space_group_name_H-M "C 2/M"
_symmetry_group_IT_number 12
_symmetry_cell_setting 'monoclinic'
loop_
_space_group_symop_operation_xyz
x,y,z
-x,y,-z
-x,-y,-z
x,-y,z
1/2+x,1/2+y,z
1/2-x,1/2+y,-z
1/2-x,1/2-y,-z
1/2+x,1/2-y,z
loop_
_atom_site_type_symbol
_atom_site_label
_atom_site_fract_x
_atom_site_fract_y
_atom_site_fract_z
Si Si1 0.902087 0.670224 0.803438
Si Si2 0.544456 0.670209 0.332012
Si Si3 0.006364 0.332289 0.823472
Si Si4 0.940946 0.330319 0.495150
Si Si5 0.782829 0.166572 0.307375
Si Si6 0.896870 0.336400 0.062198
Si Si7 0.690068 0.175103 0.969814
Si Si8 0.267954 0.658629 0.742294
O O1 0.879022 0.500000 0.808799
O O2 0.954787 0.747777 0.719064
O O3 0.987622 0.685170 0.781364
O O4 0.798094 0.744873 0.901585
O O5 0.513631 0.500000 0.346626
O O6 0.470763 0.739936 0.426306
O O7 0.658728 0.688829 0.267557
O O8 0.021135 0.500000 0.827915
O O9 0.115537 0.256888 0.754559
O O10 0.905470 0.270983 0.926406
O O11 0.973040 0.500000 0.465147
O O12 0.816375 0.311871 0.585455
O O13 0.000000 0.271725 0.500000
O O14 0.731577 0.210884 0.295245
O O15 0.819739 0.000000 0.277762
O O16 0.926156 0.500000 0.021605
O O17 0.833712 0.265122 0.065814
O O18 0.843111 0.346757 0.152385
O O19 0.000000 0.246173 0.000000
O O20 0.708953 0.000000 0.960033
O O21 0.294379 0.500000 0.698494
#
# Coordination Sequence:
#
# PCOD8089892 Si02
#       8
#     8   8   8   8   8   8   8   8
#     4  11  23  39  60  87 121 159 198 246 300 347
#     4  11  22  37  61  90 116 152 199 243 288 345
#     4  10  23  41  61  85 117 160 202 245 296 347
#     4  10  21  39  61  88 123 156 188 237 303 361
#     4  11  23  38  60  88 119 156 193 239 300 356
#     4   9  16  28  49  77 111 152 191 230 279 334
#     4  10  19  36  60  85 115 155 204 247 287 343
#     4  10  19  33  54  82 116 152 192 235 285 346
#
# _framework density 19.348955
#
# number of rings (size 3 to 8) (size 9 to 14) (size 15 to 20)
#    0.000    1.750    2.500    2.250    0.000    5.250 
#    0.000    0.625    0.000    1.500    0.000    0.000 
#    0.000    0.000    0.000    0.000    0.000    0.000 
#
# Total GULP energy -396466.324476 kJ/mol
# GULP energy per Si atom -12389.572640 kJ/mol
# Density = 1.930492 g / cm^3
# Si number density = 19.348955 Si / 1000 Ang^3
#
#
#
# Elastic Constant Matrix: (Units=GPa)
#
#
# Indices 1 2 3 4 5 6 
#
# 1 53.9939 39.6465 26.9042 -0.0015 11.4571 0.0002
# 2 39.6465 87.5954 52.7417 -0.0117 8.6792 0.0024
# 3 26.9042 52.7417 93.7001 0.0000 13.8611 0.0012
# 4 -0.0015 -0.0117 0.0000 32.5084 0.0017 -0.6645
# 5 11.4571 8.6792 13.8611 0.0017 29.7188 -0.0003
# 6 0.0002 0.0024 0.0012 -0.6645 -0.0003 26.8087
#
#
#
# Elastic Compliance Matrix: (Units=1/GPa)
#
#
# Indices 1 2 3 4 5 6 
#
# 1 0.029347 -0.012303 -0.000386 -0.000003 -0.007541 0.000001
# 2 -0.012303 0.022435 -0.009482 0.000007 0.002614 -0.000001
# 3 -0.000386 -0.009482 0.016851 -0.000003 -0.004942 0.000000
# 4 -0.000003 0.000007 -0.000003 0.030777 -0.000001 0.000763
# 5 -0.007541 0.002614 -0.004942 -0.000001 0.038097 0.000000
# 6 0.000001 -0.000001 0.000000 0.000763 0.000000 0.037320
#
#
# Mechanical properties :
#
#
# Convention : Reuss Voigt Hill
#
# Bulk Modulus (GPa) = 41.16734 52.65269 46.91001
# Shear Modulus (GPa) = 22.00055 25.54031 23.77043
#
# Velocity S-wave (km/s) = 3.37566 3.63710 3.50882
# Velocity P-wave (km/s) = 6.04284 6.70143 6.38064
#
# Compressibility (1/GPa) = 0.02429110
#
# Stress axis : x y z
#
# Youngs Moduli (GPa) = 34.07518 44.57319 59.34230
#
# Poissons Ratio (x) = 0.54840 0.02288
# Poissons Ratio (y) = 0.41924 0.56269
# Poissons Ratio (z) = 0.01314 0.42265
#
# Static dielectric constant tensor:
#      x y z
#    x 3.525390 0.000000 -0.028020 
#    y 0.000000 3.463180 0.000010 
#    z -0.028020 0.000010 3.574460 
# 
# 
# High freq. dielectric constant tensor:
#      x y z
#    x 1.749690 0.000000 0.000910 
#    y 0.000000 1.736520 0.000000 
#    z 0.000910 0.000000 1.759440 
# 
# From -- ./inp_files/382306.got.cif
#   From: 2010.06.25/outbox.cif.g09.slc.cpg/sg12_192_cif.got.tgz:382306.got - 2010.06.28 00:19:55.
