data_PCOD8089682
_publ_section_title
;
Structure prediction by ZEFSAII (Michael W. Deem and Ramdas Pophale) SiO2 
 PCOD8089682
Probable space group: C 2/M
;
_chemical_formula_sum "Si O2"
_cell_formula_units_Z 56
_cell_length_a 15.285994
_cell_length_b 9.298139
_cell_length_c 21.839241
_cell_angle_alpha 90.000000
_cell_angle_beta 80.019765
_cell_angle_gamma 90.000000
_cell_volume 3057.068069
_symmetry_space_group_name_H-M "C 2/M"
_symmetry_group_IT_number 12
_symmetry_cell_setting 'monoclinic'
loop_
_space_group_symop_operation_xyz
x,y,z
-x,y,-z
-x,-y,-z
x,-y,z
1/2+x,1/2+y,z
1/2-x,1/2+y,-z
1/2-x,1/2-y,-z
1/2+x,1/2-y,z
loop_
_atom_site_type_symbol
_atom_site_label
_atom_site_fract_x
_atom_site_fract_y
_atom_site_fract_z
Si Si1 0.631878 0.170543 0.631958
Si Si2 0.920023 0.330411 0.851451
Si Si3 0.196999 0.329294 0.367628
Si Si4 0.542369 0.667762 0.930274
Si Si5 0.447716 0.829626 0.710996
Si Si6 0.760393 0.832584 0.061531
Si Si7 0.097399 0.670400 0.499884
O O1 0.710821 0.250574 0.657481
O O2 0.542059 0.225135 0.674872
O O3 0.632724 0.222398 0.561257
O O4 0.643533 0.000000 0.636270
O O5 0.936017 0.500000 0.853591
O O6 0.930929 0.271547 0.781285
O O7 0.820596 0.289234 0.884442
O O8 0.994794 0.256203 0.883158
O O9 0.210058 0.500000 0.363042
O O10 0.128922 0.272805 0.324608
O O11 0.162816 0.277774 0.438367
O O12 0.526701 0.500000 0.919557
O O13 0.646795 0.707885 0.917085
O O14 0.500000 0.713465 0.000000
O O15 0.446071 0.000000 0.710090
O O16 0.759173 0.000000 0.045305
O O17 0.750000 0.750000 0.000000
O O18 0.089150 0.500000 0.500001
O O19 0.000000 0.737061 0.500000
#
# Coordination Sequence:
#
# PCOD8089682 Si02
#       7
#     8   8   8   8   8   8   8
#     4  10  19  33  54  77 105 138 175 219 264 308
#     4  10  21  36  55  79 104 135 179 218 249 301
#     4  10  19  33  55  79 104 137 179 220 259 308
#     4  10  20  35  55  80 109 136 163 206 266 316
#     4   9  19  36  54  73 103 143 179 211 252 312
#     4  10  20  34  54  78 104 133 166 207 255 306
#     4   9  15  28  53  79 100 135 181 217 256 309
#
# _framework density 18.318204999999999
#
# number of rings (size 3 to 8) (size 9 to 14) (size 15 to 20)
#    0.000    2.286    2.857    0.429    0.000    2.000 
#    0.000    3.571    0.000    0.857    0.000    0.000 
#    0.000    0.000    0.000    0.000    0.000    0.000 
#
# Total GULP energy -347216.000327 kJ/mol
# GULP energy per Si atom -12400.571440 kJ/mol
# Density = 1.827651 g / cm^3
# Si number density = 18.318205 Si / 1000 Ang^3
#
#
#
# Elastic Constant Matrix: (Units=GPa)
#
#
# Indices 1 2 3 4 5 6 
#
# 1 182.2241 44.0149 88.6815 0.0000 7.6195 0.0000
# 2 44.0149 29.7100 36.7212 0.0000 2.0595 0.0000
# 3 88.6815 36.7212 161.1628 0.0000 -1.1189 0.0000
# 4 0.0000 0.0000 0.0000 15.6269 0.0000 4.9775
# 5 7.6195 2.0595 -1.1189 0.0000 17.6534 0.0000
# 6 0.0000 0.0000 0.0000 4.9775 0.0000 30.4051
#
#
#
# Elastic Compliance Matrix: (Units=1/GPa)
#
#
# Indices 1 2 3 4 5 6 
#
# 1 0.009521 -0.010285 -0.002917 0.000000 -0.003094 0.000000
# 2 -0.010285 0.058641 -0.007722 0.000000 -0.002891 0.000000
# 3 -0.002917 -0.007722 0.009589 0.000000 0.002768 0.000000
# 4 0.000000 0.000000 0.000000 0.067513 0.000000 -0.011052
# 5 -0.003094 -0.002891 0.002768 0.000000 0.058495 0.000000
# 6 0.000000 0.000000 0.000000 -0.011052 0.000000 0.034699
#
#
# Mechanical properties :
#
#
# Convention : Reuss Voigt Hill
#
# Bulk Modulus (GPa) = 27.85354 79.10359 53.47857
# Shear Modulus (GPa) = 17.10732 26.31570 21.71151
#
# Velocity S-wave (km/s) = 3.05929 3.79435 3.44647
# Velocity P-wave (km/s) = 5.26473 7.90398 6.71529
#
# Compressibility (1/GPa) = 0.03590208
#
# Stress axis : x y z
#
# Youngs Moduli (GPa) = 105.02955 17.05294 104.28983
#
# Poissons Ratio (x) = 0.17540 0.30422
# Poissons Ratio (y) = 1.08028 0.80531
# Poissons Ratio (z) = 0.30637 0.13168
#
# Static dielectric constant tensor:
#      x y z
#    x 3.560740 0.000000 -0.079310 
#    y 0.000000 2.974780 0.000000 
#    z -0.079310 0.000000 3.540330 
# 
# 
# High freq. dielectric constant tensor:
#      x y z
#    x 1.727480 0.000000 -0.000840 
#    y 0.000000 1.671690 0.000000 
#    z -0.000840 0.000000 1.711390 
# 
# From -- ./inp_files/308938.got.cif
#   From: 2010.06.25/outbox.cif.g09.slc.cpg/sg12_155_cif.got.tgz:308938.got - 2010.06.28 00:19:55.
