data_PCOD8089396
_publ_section_title
;
Structure prediction by ZEFSAII (Michael W. Deem and Ramdas Pophale) SiO2 
 PCOD8089396
Probable space group: C 2/M
;
_chemical_formula_sum "Si O2"
_cell_formula_units_Z 56
_cell_length_a 18.851036
_cell_length_b 8.908901
_cell_length_c 28.009873
_cell_angle_alpha 90.000000
_cell_angle_beta 143.599956
_cell_angle_gamma 90.000000
_cell_volume 2791.465805
_symmetry_space_group_name_H-M "C 2/M"
_symmetry_group_IT_number 12
_symmetry_cell_setting 'monoclinic'
loop_
_space_group_symop_operation_xyz
x,y,z
-x,y,-z
-x,-y,-z
x,-y,z
1/2+x,1/2+y,z
1/2-x,1/2+y,-z
1/2-x,1/2-y,-z
1/2+x,1/2-y,z
loop_
_atom_site_type_symbol
_atom_site_label
_atom_site_fract_x
_atom_site_fract_y
_atom_site_fract_z
Si Si1 0.077943 0.174656 0.936903
Si Si2 0.256208 0.169808 0.115982
Si Si3 0.823952 0.322357 0.496735
Si Si4 0.988736 0.670884 0.190840
Si Si5 0.765846 0.175610 0.656404
Si Si6 0.904810 0.666811 0.906286
Si Si7 0.548041 0.329113 0.579371
O O1 0.090811 0.274031 0.896643
O O2 0.949886 0.219671 0.890233
O O3 0.077826 0.000000 0.923756
O O4 0.186219 0.220877 0.030238
O O5 0.398628 0.181865 0.186836
O O6 0.221332 0.274329 0.141625
O O7 0.216201 0.000000 0.105818
O O8 0.830000 0.500000 0.507888
O O9 0.750000 0.250000 0.500000
O O10 0.760281 0.278117 0.412486
O O11 0.959447 0.257791 0.567776
O O12 0.032136 0.500000 0.206967
O O13 0.099642 0.778691 0.259326
O O14 0.679178 0.254532 0.648226
O O15 0.748756 0.000000 0.654113
O O16 0.886806 0.500000 0.875274
O O17 0.000000 0.665440 0.000000
O O18 0.500000 0.318270 0.500000
O O19 0.558910 0.500000 0.603009
#
# Coordination Sequence:
#
# PCOD8089396 Si02
#       7
#     8   8   8   8   8   8   8
#     4  10  19  33  53  75 102 137 179 224 270 322
#     4   9  19  34  52  75 103 138 179 224 273 321
#     4  10  20  35  58  86 113 140 175 218 261 312
#     4  11  22  35  52  76 107 140 177 222 268 315
#     4  10  21  37  55  78 109 143 177 214 262 316
#     4   9  17  30  50  74  98 126 166 217 267 316
#     4   9  17  32  56  82 107 137 172 209 252 305
#
# _framework density 20.061146000000001
#
# number of rings (size 3 to 8) (size 9 to 14) (size 15 to 20)
#    0.000    2.286    0.000    3.000    0.000    6.857 
#    0.000    1.429    0.000    3.429    0.000    0.000 
#    0.000    0.000    0.000    0.000    0.000    0.000 
#
# Total GULP energy -347169.605992 kJ/mol
# GULP energy per Si atom -12398.914500 kJ/mol
# Density = 2.001549 g / cm^3
# Si number density = 20.061146 Si / 1000 Ang^3
#
#
#
# Elastic Constant Matrix: (Units=GPa)
#
#
# Indices 1 2 3 4 5 6 
#
# 1 123.7562 46.3864 19.9775 0.0000 24.1099 0.0000
# 2 46.3864 82.5647 13.7696 0.0000 8.7643 0.0000
# 3 19.9775 13.7696 38.1831 0.0000 19.5415 0.0000
# 4 0.0000 0.0000 0.0000 26.4992 0.0000 3.4849
# 5 24.1099 8.7643 19.5415 0.0000 25.5748 0.0000
# 6 0.0000 0.0000 0.0000 3.4849 0.0000 37.3891
#
#
#
# Elastic Compliance Matrix: (Units=1/GPa)
#
#
# Indices 1 2 3 4 5 6 
#
# 1 0.012105 -0.005888 0.000981 0.000000 -0.010144 0.000000
# 2 -0.005888 0.015782 -0.004407 0.000000 0.003509 0.000000
# 3 0.000981 -0.004407 0.044283 0.000000 -0.033251 0.000000
# 4 0.000000 0.000000 0.000000 0.038205 0.000000 -0.003561
# 5 -0.010144 0.003509 -0.033251 0.000000 0.072868 0.000000
# 6 0.000000 0.000000 0.000000 -0.003561 0.000000 0.027078
#
#
# Mechanical properties :
#
#
# Convention : Reuss Voigt Hill
#
# Bulk Modulus (GPa) = 18.67658 44.97455 31.82557
# Shear Modulus (GPa) = 20.25976 28.85064 24.55520
#
# Velocity S-wave (km/s) = 3.18134 3.79639 3.50239
# Velocity P-wave (km/s) = 4.77751 6.45633 5.67929
#
# Compressibility (1/GPa) = 0.05354299
#
# Stress axis : x y z
#
# Youngs Moduli (GPa) = 82.61042 63.36346 22.58222
#
# Poissons Ratio (x) = 0.37307 -0.02216
# Poissons Ratio (y) = 0.48639 0.09952
# Poissons Ratio (z) = -0.08106 0.27923
#
# Static dielectric constant tensor:
#      x y z
#    x 3.765640 0.000000 0.120020 
#    y 0.000000 3.712430 0.000000 
#    z 0.120020 0.000000 3.250280 
# 
# 
# High freq. dielectric constant tensor:
#      x y z
#    x 1.790920 0.000000 0.017740 
#    y 0.000000 1.793420 0.000000 
#    z 0.017740 0.000000 1.741320 
# 
# From -- ./inp_files/275696.got.cif
#   From: 2010.06.25/outbox.cif.g09.slc.cpg/sg12_138_cif.got.tgz:275696.got - 2010.06.28 00:19:55.
