data_PCOD8089738
_publ_section_title
;
Structure prediction by ZEFSAII (Michael W. Deem and Ramdas Pophale) SiO2 
 PCOD8089738
Probable space group: C 2/M
;
_chemical_formula_sum "Si O2"
_cell_formula_units_Z 48
_cell_length_a 5.228334
_cell_length_b 25.157310
_cell_length_c 20.685108
_cell_angle_alpha 90.000000
_cell_angle_beta 67.760755
_cell_angle_gamma 90.000000
_cell_volume 2518.338411
_symmetry_space_group_name_H-M "C 2/M"
_symmetry_group_IT_number 12
_symmetry_cell_setting 'monoclinic'
loop_
_space_group_symop_operation_xyz
x,y,z
-x,y,-z
-x,-y,-z
x,-y,z
1/2+x,1/2+y,z
1/2-x,1/2+y,-z
1/2-x,1/2-y,-z
1/2+x,1/2-y,z
loop_
_atom_site_type_symbol
_atom_site_label
_atom_site_fract_x
_atom_site_fract_y
_atom_site_fract_z
Si Si1 0.295315 0.189861 0.469768
Si Si2 0.234995 0.058688 0.179848
Si Si3 0.414691 0.717055 0.077511
Si Si4 0.983430 0.059414 0.344464
Si Si5 0.009919 0.375775 0.657056
Si Si6 0.259377 0.121697 0.821157
O O1 0.500000 0.160728 0.500000
O O2 0.250000 0.250000 0.500000
O O3 0.421223 0.180768 0.385500
O O4 0.000000 0.160660 0.500000
O O5 0.089519 0.053693 0.262022
O O6 0.536919 0.083537 0.158897
O O7 0.040498 0.094248 0.152773
O O8 0.267991 0.000000 0.145972
O O9 0.690900 0.736617 0.087134
O O10 0.264005 0.675226 0.136963
O O11 0.500000 0.692015 0.000000
O O12 0.209214 0.090516 0.364960
O O13 0.696149 0.091247 0.369306
O O14 0.937848 0.000000 0.377498
O O15 0.878629 0.363258 0.739174
#
# Coordination Sequence:
#
# PCOD8089738 Si02
#       6
#     8   8   8   8   8   8
#     4  10  21  38  54  71  98 139 175 203 261 327
#     4   9  17  30  52  81 114 142 172 217 270 320
#     4  10  21  38  56  77 108 148 184 221 273 321
#     4   9  17  30  52  80 107 135 169 215 265 307
#     4  10  19  33  54  79 104 134 176 220 254 310
#     4  10  19  33  54  83 108 137 184 224 263 307
#
# _framework density 19.060186999999999
#
# number of rings (size 3 to 8) (size 9 to 14) (size 15 to 20)
#    0.000    2.333    0.000    3.000    0.000    4.000 
#    6.000    0.000    0.000   13.000    0.000    0.000 
#    0.000    0.000    0.000    0.000    0.000    0.000 
#
# Total GULP energy -297403.846530 kJ/mol
# GULP energy per Si atom -12391.826939 kJ/mol
# Density = 1.901681 g / cm^3
# Si number density = 19.060187 Si / 1000 Ang^3
#
#
#
# Elastic Constant Matrix: (Units=GPa)
#
#
# Indices 1 2 3 4 5 6 
#
# 1 145.7746 25.8569 32.7981 0.0000 10.6345 0.0000
# 2 25.8569 94.2715 58.2868 0.0000 0.1465 0.0000
# 3 32.7981 58.2868 78.5797 0.0000 -1.6218 0.0000
# 4 0.0000 0.0000 0.0000 114.0099 0.0000 167.7013
# 5 10.6345 0.1465 -1.6218 0.0000 15.0030 0.0000
# 6 0.0000 0.0000 0.0000 167.7013 0.0000 286.0049
#
#
#
# Elastic Compliance Matrix: (Units=1/GPa)
#
#
# Indices 1 2 3 4 5 6 
#
# 1 0.008095 -0.000081 -0.003445 0.000000 -0.006110 0.000000
# 2 -0.000081 0.019641 -0.014570 0.000000 -0.001709 0.000000
# 3 -0.003445 -0.014570 0.025081 0.000000 0.005295 0.000000
# 4 0.000000 0.000000 0.000000 0.063788 0.000000 -0.037403
# 5 -0.006110 -0.001709 0.005295 0.000000 0.071573 0.000000
# 6 0.000000 0.000000 0.000000 -0.037403 0.000000 0.025428
#
#
# Mechanical properties :
#
#
# Convention : Reuss Voigt Hill
#
# Bulk Modulus (GPa) = 60.15195 61.38995 60.77095
# Shear Modulus (GPa) = 19.58173 96.44915 58.01544
#
# Velocity S-wave (km/s) = 3.20873 7.12125 5.52305
# Velocity P-wave (km/s) = 6.73464 9.99474 8.52203
#
# Compressibility (1/GPa) = 0.01662457
#
# Stress axis : x y z
#
# Youngs Moduli (GPa) = 123.53286 50.91323 39.87124
#
# Poissons Ratio (x) = 0.00412 0.13735
# Poissons Ratio (y) = 0.01000 0.58094
# Poissons Ratio (z) = 0.42555 0.74183
#
# Static dielectric constant tensor:
#      x y z
#    x 3.951290 0.000000 0.009720 
#    y 0.000000 3.377360 0.000000 
#    z 0.009720 0.000000 3.240000 
# 
# 
# High freq. dielectric constant tensor:
#      x y z
#    x 1.773400 0.000000 0.004530 
#    y 0.000000 1.724210 0.000000 
#    z 0.004530 0.000000 1.706670 
# 
# From -- ./inp_files/253155.got.cif
#   From: 2010.06.25/outbox.cif.g09.slc.cpg/sg12_127_cif.got.tgz:253155.got - 2010.06.28 00:19:55.
