data_PCOD8089914
_publ_section_title
;
Structure prediction by ZEFSAII (Michael W. Deem and Ramdas Pophale) SiO2 
 PCOD8089914
Probable space group: C 2/M
;
_chemical_formula_sum "Si O2"
_cell_formula_units_Z 56
_cell_length_a 11.365482
_cell_length_b 25.025340
_cell_length_c 12.557002
_cell_angle_alpha 90.000000
_cell_angle_beta 126.401326
_cell_angle_gamma 90.000000
_cell_volume 2874.650024
_symmetry_space_group_name_H-M "C 2/M"
_symmetry_group_IT_number 12
_symmetry_cell_setting 'monoclinic'
loop_
_space_group_symop_operation_xyz
x,y,z
-x,y,-z
-x,-y,-z
x,-y,z
1/2+x,1/2+y,z
1/2-x,1/2+y,-z
1/2-x,1/2-y,-z
1/2+x,1/2-y,z
loop_
_atom_site_type_symbol
_atom_site_label
_atom_site_fract_x
_atom_site_fract_y
_atom_site_fract_z
Si Si1 0.498708 0.160932 0.257769
Si Si2 0.062358 0.836659 0.804112
Si Si3 0.077676 0.755793 0.429468
Si Si4 0.892972 0.094845 0.850663
Si Si5 0.073189 0.560079 0.651776
Si Si6 0.697393 0.300614 0.082278
Si Si7 0.649620 0.817294 0.135074
O O1 0.510440 0.197932 0.367914
O O2 0.484924 0.099477 0.287364
O O3 0.355723 0.183773 0.118831
O O4 0.636306 0.169666 0.253758
O O5 0.217472 0.853153 0.836195
O O6 0.964582 0.803144 0.672304
O O7 0.987526 0.893419 0.794913
O O8 0.086401 0.799899 0.923410
O O9 0.250000 0.750000 0.500000
O O10 0.000000 0.770993 0.500000
O O11 0.751453 0.059799 0.745466
O O12 0.839188 0.153630 0.853718
O O13 0.000000 0.069485 0.000000
O O14 0.023943 0.500000 0.654798
O O15 0.000000 0.576613 0.500000
O O16 0.694248 0.244368 0.140874
O O17 0.500000 0.835162 0.000000
#
# Coordination Sequence:
#
# PCOD8089914 Si02
#       7
#     8   8   8   8   8   8   8
#     4  11  22  37  58  82 116 151 196 243 291 342
#     4  11  21  36  52  82 125 154 192 235 277 358
#     4  12  26  36  50  80 125 170 200 230 286 356
#     4   9  20  36  62  88 115 145 189 244 300 343
#     4  10  23  43  66  88 109 146 199 251 302 353
#     4  10  19  33  54  84 113 155 191 234 275 341
#     4  12  20  31  55  86 120 158 192 229 289 357
#
# _framework density 19.480633000000001
#
# number of rings (size 3 to 8) (size 9 to 14) (size 15 to 20)
#    0.000    1.286    2.857    4.714    6.000    0.286 
#    0.000    0.000    0.000    1.286    0.000    2.000 
#    0.000    0.000    0.000    0.000    0.000    0.000 
#
# Total GULP energy -346957.075279 kJ/mol
# GULP energy per Si atom -12391.324117 kJ/mol
# Density = 1.943629 g / cm^3
# Si number density = 19.480633 Si / 1000 Ang^3
#
#
#
# Elastic Constant Matrix: (Units=GPa)
#
#
# Indices 1 2 3 4 5 6 
#
# 1 113.3417 26.8067 21.6405 0.0000 3.1857 0.0000
# 2 26.8067 61.1590 25.2239 0.0000 -11.1157 0.0000
# 3 21.6405 25.2239 80.9552 0.0000 7.1104 0.0000
# 4 0.0000 0.0000 0.0000 14.9059 0.0000 4.5747
# 5 3.1857 -11.1157 7.1104 0.0000 34.8675 0.0000
# 6 0.0000 0.0000 0.0000 4.5747 0.0000 18.8864
#
#
#
# Elastic Compliance Matrix: (Units=1/GPa)
#
#
# Indices 1 2 3 4 5 6 
#
# 1 0.010130 -0.004330 -0.001177 0.000000 -0.002066 0.000000
# 2 -0.004330 0.022637 -0.006684 0.000000 0.008975 0.000000
# 3 -0.001177 -0.006684 0.015200 0.000000 -0.005123 0.000000
# 4 0.000000 0.000000 0.000000 0.072475 0.000000 -0.017555
# 5 -0.002066 0.008975 -0.005123 0.000000 0.032775 0.000000
# 6 0.000000 0.000000 0.000000 -0.017555 0.000000 0.057201
#
#
# Mechanical properties :
#
#
# Convention : Reuss Voigt Hill
#
# Bulk Modulus (GPa) = 42.40189 44.75534 43.57861
# Shear Modulus (GPa) = 20.60494 25.85094 23.22794
#
# Velocity S-wave (km/s) = 3.25578 3.64676 3.45680
# Velocity P-wave (km/s) = 5.99557 6.38404 6.19285
#
# Compressibility (1/GPa) = 0.02358386
#
# Stress axis : x y z
#
# Youngs Moduli (GPa) = 98.71860 44.17633 65.79068
#
# Poissons Ratio (x) = 0.19128 0.07745
# Poissons Ratio (y) = 0.42744 0.43974
# Poissons Ratio (z) = 0.11622 0.29527
#
# Static dielectric constant tensor:
#      x y z
#    x 4.295130 0.000000 0.221180 
#    y 0.000000 3.139270 0.000000 
#    z 0.221180 0.000000 3.672730 
# 
# 
# High freq. dielectric constant tensor:
#      x y z
#    x 1.778400 0.000000 0.010520 
#    y 0.000000 1.705360 0.000000 
#    z 0.010520 0.000000 1.761310 
# 
# From -- ./inp_files/135486.got.cif
#   From: 2010.06.25/outbox.cif.g09.slc.cpg/sg12_68_cif.got.tgz:135486.got - 2010.06.28 00:19:55.
