data_PCOD8089524
_publ_section_title
;
Structure prediction by ZEFSAII (Michael W. Deem and Ramdas Pophale) SiO2 
 PCOD8089524
Probable space group: C 2/M
;
_chemical_formula_sum "Si O2"
_cell_formula_units_Z 48
_cell_length_a 15.668137
_cell_length_b 9.346271
_cell_length_c 30.197508
_cell_angle_alpha 90.000000
_cell_angle_beta 33.411340
_cell_angle_gamma 90.000000
_cell_volume 2435.001842
_symmetry_space_group_name_H-M "C 2/M"
_symmetry_group_IT_number 12
_symmetry_cell_setting 'monoclinic'
loop_
_space_group_symop_operation_xyz
x,y,z
-x,y,-z
-x,-y,-z
x,-y,z
1/2+x,1/2+y,z
1/2-x,1/2+y,-z
1/2-x,1/2-y,-z
1/2+x,1/2-y,z
loop_
_atom_site_type_symbol
_atom_site_label
_atom_site_fract_x
_atom_site_fract_y
_atom_site_fract_z
Si Si1 0.664336 0.655161 0.341564
Si Si2 0.159143 0.333867 0.818908
Si Si3 0.817822 0.342595 0.588528
Si Si4 0.141158 0.172266 0.082243
Si Si5 0.305370 0.656251 0.515147
Si Si6 0.168809 0.331208 0.914577
O O1 0.741158 0.500000 0.319671
O O2 0.690760 0.685427 0.277930
O O3 0.732091 0.784304 0.341598
O O4 0.487777 0.643299 0.432139
O O5 0.103271 0.500000 0.845164
O O6 0.206859 0.280749 0.847631
O O7 0.028942 0.235405 0.852449
O O8 0.743094 0.500000 0.615892
O O9 0.745237 0.231879 0.585517
O O10 0.000000 0.352700 0.500000
O O11 0.201645 0.216479 0.105515
O O12 0.142964 0.000000 0.075049
O O13 0.250000 0.250000 0.000000
O O14 0.227695 0.500000 0.547050
O O15 0.250000 0.750000 0.500000
O O16 0.158702 0.500000 0.920430
O O17 0.000000 0.266311 0.000000
#
# Coordination Sequence:
#
# PCOD8089524 Si02
#       6
#     8   8   8   8   8   8
#     4   9  19  35  55  77 106 142 178 219 278 340
#     4  10  20  38  59  79 111 149 185 229 283 338
#     4   9  17  31  53  76  99 133 175 217 263 318
#     4  11  21  35  57  84 110 144 192 235 279 331
#     4  10  19  33  53  79 108 142 184 226 272 330
#     4   9  17  33  57  80 106 146 186 220 268 337
#
# _framework density 19.712510999999999
#
# number of rings (size 3 to 8) (size 9 to 14) (size 15 to 20)
#    0.000    2.333    1.667    1.500    0.000    3.333 
#    3.000    2.500    0.000    0.000    0.000    0.000 
#    0.000    0.000    0.000    0.000    0.000    0.000 
#
# Total GULP energy -297316.839006 kJ/mol
# GULP energy per Si atom -12388.201625 kJ/mol
# Density = 1.966764 g / cm^3
# Si number density = 19.712511 Si / 1000 Ang^3
#
#
#
# Elastic Constant Matrix: (Units=GPa)
#
#
# Indices 1 2 3 4 5 6 
#
# 1 136.8941 58.2375 29.9956 0.0000 37.7726 0.0030
# 2 58.2375 133.5161 25.5465 0.0002 23.6854 0.0026
# 3 29.9956 25.5465 63.6001 -0.0003 38.9245 0.0000
# 4 0.0000 0.0002 -0.0003 20.4912 -0.0004 3.3445
# 5 37.7726 23.6854 38.9245 -0.0004 38.4611 0.0003
# 6 0.0030 0.0026 0.0000 3.3445 0.0003 35.6234
#
#
#
# Elastic Compliance Matrix: (Units=1/GPa)
#
#
# Indices 1 2 3 4 5 6 
#
# 1 0.011576 -0.003460 0.004162 0.000000 -0.013450 -0.000001
# 2 -0.003460 0.009449 -0.001792 0.000000 -0.000608 0.000000
# 3 0.004162 -0.001792 0.042843 0.000000 -0.046343 0.000000
# 4 0.000000 0.000000 0.000000 0.049561 0.000001 -0.004653
# 5 -0.013450 -0.000608 -0.046343 0.000001 0.086486 0.000000
# 6 -0.000001 0.000000 0.000000 -0.004653 0.000000 0.028508
#
#
# Mechanical properties :
#
#
# Convention : Reuss Voigt Hill
#
# Bulk Modulus (GPa) = 16.21009 62.39662 39.30336
# Shear Modulus (GPa) = 19.90719 33.59719 26.75219
#
# Velocity S-wave (km/s) = 3.18130 4.13287 3.68790
# Velocity P-wave (km/s) = 4.66212 7.38215 6.17380
#
# Compressibility (1/GPa) = 0.06168996
#
# Stress axis : x y z
#
# Youngs Moduli (GPa) = 86.38532 105.82615 23.34107
#
# Poissons Ratio (x) = 0.36611 -0.09714
# Poissons Ratio (y) = 0.29885 0.04182
# Poissons Ratio (z) = -0.35953 0.18960
#
# Static dielectric constant tensor:
#      x y z
#    x 3.451590 -0.000010 0.407660 
#    y -0.000010 3.816510 0.000000 
#    z 0.407660 0.000000 3.466200 
# 
# 
# High freq. dielectric constant tensor:
#      x y z
#    x 1.761030 0.000000 0.029350 
#    y 0.000000 1.763940 0.000000 
#    z 0.029350 0.000000 1.749640 
# 
# From -- ./inp_files/274624.got.cif
#   From: 2010.06.25/outbox.cif.g09.slc.cpg/sg12_138_cif.got.tgz:274624.got - 2010.06.28 00:19:55.
