data_PCOD8089231
_publ_section_title
;
Structure prediction by ZEFSAII (Michael W. Deem and Ramdas Pophale) SiO2 
 PCOD8089231
Probable space group: C 2/M
;
_chemical_formula_sum "Si O2"
_cell_formula_units_Z 56
_cell_length_a 18.228216
_cell_length_b 11.050990
_cell_length_c 18.807046
_cell_angle_alpha 90.000000
_cell_angle_beta 129.832527
_cell_angle_gamma 90.000000
_cell_volume 2909.255887
_symmetry_space_group_name_H-M "C 2/M"
_symmetry_group_IT_number 12
_symmetry_cell_setting 'monoclinic'
loop_
_space_group_symop_operation_xyz
x,y,z
-x,y,-z
-x,-y,-z
x,-y,z
1/2+x,1/2+y,z
1/2-x,1/2+y,-z
1/2-x,1/2-y,-z
1/2+x,1/2-y,z
loop_
_atom_site_type_symbol
_atom_site_label
_atom_site_fract_x
_atom_site_fract_y
_atom_site_fract_z
Si Si1 0.737404 0.864937 0.084626
Si Si2 0.978760 0.136838 0.602394
Si Si3 0.099050 0.750270 0.888770
Si Si4 0.439269 0.865956 0.274446
Si Si5 0.654610 0.366481 0.604678
Si Si6 0.251702 0.216074 0.229066
Si Si7 0.957835 0.863529 0.901022
O O1 0.845190 0.854138 0.120954
O O2 0.737303 0.828362 0.166905
O O3 0.700255 0.000000 0.055883
O O4 0.664964 0.782501 0.996201
O O5 0.883481 0.166582 0.497625
O O6 0.992350 0.250315 0.664819
O O7 0.068062 0.134052 0.606087
O O8 0.970001 0.000000 0.631889
O O9 0.081746 0.640201 0.823145
O O10 0.998259 0.794258 0.857269
O O11 0.340591 0.864064 0.257564
O O12 0.485148 0.000000 0.317836
O O13 0.701260 0.500000 0.631504
O O14 0.730919 0.268730 0.680512
O O15 0.156655 0.136427 0.171984
O O16 0.995289 0.000000 0.919536
O O17 0.000000 0.805334 0.000000
#
# Coordination Sequence:
#
# PCOD8089231 Si02
#       7
#     8   8   8   8   8   8   8
#     4  10  19  33  52  75 100 133 178 225 264 313
#     4   8  15  29  52  79 108 139 178 219 265 323
#     4  10  21  35  51  74 101 139 181 217 264 316
#     4  10  20  34  54  81 113 142 175 224 275 317
#     4   8  14  28  50  78 108 139 171 219 270 317
#     4  10  19  33  53  79 107 139 179 216 267 324
#     4  11  22  37  53  72 104 144 185 224 262 314
#
# _framework density 19.248908
#
# number of rings (size 3 to 8) (size 9 to 14) (size 15 to 20)
#    0.000    2.429    1.429    2.571    0.000    4.000 
#    0.000   10.000    0.000    0.857    0.000    0.000 
#    0.000    0.000    0.000    0.000    0.000    0.000 
#
# Total GULP energy -346958.590190 kJ/mol
# GULP energy per Si atom -12391.378221 kJ/mol
# Density = 1.920510 g / cm^3
# Si number density = 19.248908 Si / 1000 Ang^3
#
#
#
# Elastic Constant Matrix: (Units=GPa)
#
#
# Indices 1 2 3 4 5 6 
#
# 1 60.6944 19.5564 13.6419 0.0000 -1.4602 0.0000
# 2 19.5564 107.2310 39.8121 0.0000 -2.4791 0.0000
# 3 13.6419 39.8121 96.0323 0.0000 3.0089 0.0000
# 4 0.0000 0.0000 0.0000 24.2280 0.0000 1.8405
# 5 -1.4602 -2.4791 3.0089 0.0000 11.7945 0.0000
# 6 0.0000 0.0000 0.0000 1.8405 0.0000 8.0710
#
#
#
# Elastic Compliance Matrix: (Units=1/GPa)
#
#
# Indices 1 2 3 4 5 6 
#
# 1 0.017706 -0.002630 -0.001488 0.000000 0.002019 0.000000
# 2 -0.002630 0.011559 -0.004520 0.000000 0.003257 0.000000
# 3 -0.001488 -0.004520 0.012635 0.000000 -0.004358 0.000000
# 4 0.000000 0.000000 0.000000 0.042002 0.000000 -0.009578
# 5 0.002019 0.003257 -0.004358 0.000000 0.086832 0.000000
# 6 0.000000 0.000000 0.000000 -0.009578 0.000000 0.126085
#
#
# Mechanical properties :
#
#
# Convention : Reuss Voigt Hill
#
# Bulk Modulus (GPa) = 40.61212 45.55316 43.08264
# Shear Modulus (GPa) = 15.51327 21.54852 18.53089
#
# Velocity S-wave (km/s) = 2.84197 3.34947 3.10610
# Velocity P-wave (km/s) = 5.64918 6.21895 5.94090
#
# Compressibility (1/GPa) = 0.02462319
#
# Stress axis : x y z
#
# Youngs Moduli (GPa) = 56.47651 86.51313 79.14435
#
# Poissons Ratio (x) = 0.22753 0.11778
# Poissons Ratio (y) = 0.14853 0.35777
# Poissons Ratio (z) = 0.08405 0.39108
#
# Static dielectric constant tensor:
#      x y z
#    x 3.117050 0.000000 -0.051960 
#    y 0.000000 3.417020 0.000000 
#    z -0.051960 0.000000 3.737690 
# 
# 
# High freq. dielectric constant tensor:
#      x y z
#    x 1.701950 0.000000 -0.005900 
#    y 0.000000 1.739620 0.000000 
#    z -0.005900 0.000000 1.750570 
# 
# From -- ./inp_files/250519.got.cif
#   From: 2010.06.25/outbox.cif.g09.slc.cpg/sg12_126_cif.got.tgz:250519.got - 2010.06.28 00:19:55.
