data_PCOD8089906
_publ_section_title
;
Structure prediction by ZEFSAII (Michael W. Deem and Ramdas Pophale) SiO2 
 PCOD8089906
Probable space group: C 2/M
;
_chemical_formula_sum "Si O2"
_cell_formula_units_Z 56
_cell_length_a 20.505540
_cell_length_b 20.357232
_cell_length_c 15.244830
_cell_angle_alpha 90.000000
_cell_angle_beta 25.889087
_cell_angle_gamma 90.000000
_cell_volume 2778.603227
_symmetry_space_group_name_H-M "C 2/M"
_symmetry_group_IT_number 12
_symmetry_cell_setting 'monoclinic'
loop_
_space_group_symop_operation_xyz
x,y,z
-x,y,-z
-x,-y,-z
x,-y,z
1/2+x,1/2+y,z
1/2-x,1/2+y,-z
1/2-x,1/2-y,-z
1/2+x,1/2-y,z
loop_
_atom_site_type_symbol
_atom_site_label
_atom_site_fract_x
_atom_site_fract_y
_atom_site_fract_z
Si Si1 0.512153 0.826817 0.249505
Si Si2 0.153874 0.073187 0.847709
Si Si3 0.220664 0.571038 0.487356
Si Si4 0.580770 0.705384 0.528609
Si Si5 0.762258 0.224255 0.833325
Si Si6 0.752867 0.366294 0.902949
Si Si7 0.466282 0.425032 0.325039
O O1 0.388273 0.871048 0.351829
O O2 0.432449 0.758693 0.376602
O O3 0.585298 0.864738 0.245264
O O4 0.633841 0.823370 0.024224
O O5 0.269974 0.073300 0.628387
O O6 0.250614 0.104648 0.808367
O O7 0.108609 0.000000 0.933437
O O8 0.000000 0.108885 0.000000
O O9 0.155524 0.500000 0.595917
O O10 0.385769 0.579294 0.328206
O O11 0.421516 0.701791 0.675210
O O12 0.716566 0.726397 0.298301
O O13 0.614701 0.630195 0.517238
O O14 0.706110 0.291165 0.946066
O O15 0.638109 0.405014 0.103844
O O16 0.455947 0.500000 0.376285
#
# Coordination Sequence:
#
# PCOD8089906 Si02
#       7
#     8   8   8   8   8   8   8
#     4  11  21  39  60  88 121 152 194 255 301 350
#     4  10  19  33  54  83 116 150 193 238 287 357
#     4  10  23  38  55  84 123 160 192 244 307 353
#     4  10  20  39  62  89 119 156 201 242 301 363
#     4  10  20  37  61  88 120 150 192 258 302 343
#     4  11  19  36  61  87 112 152 199 241 301 356
#     4  11  21  38  61  85 119 161 202 243 291 360
#
# _framework density 20.154011000000001
#
# number of rings (size 3 to 8) (size 9 to 14) (size 15 to 20)
#    0.000    1.571    4.286    2.143    0.000    3.429 
#    0.000    4.286    0.000    1.714    0.000    0.000 
#    0.000    0.000    0.000    0.000    0.000    0.000 
#
# Total GULP energy -346883.880261 kJ/mol
# GULP energy per Si atom -12388.710009 kJ/mol
# Density = 2.010814 g / cm^3
# Si number density = 20.154011 Si / 1000 Ang^3
#
#
#
# Elastic Constant Matrix: (Units=GPa)
#
#
# Indices 1 2 3 4 5 6 
#
# 1 41.9733 30.5180 14.8953 -0.0056 3.0140 0.0091
# 2 30.5180 117.3755 37.0625 0.0003 -7.7505 0.0040
# 3 14.8953 37.0625 82.1515 0.0025 7.7149 0.0050
# 4 -0.0056 0.0003 0.0025 31.3404 0.0004 -0.7060
# 5 3.0140 -7.7505 7.7149 0.0004 24.0876 -0.0060
# 6 0.0091 0.0040 0.0050 -0.7060 -0.0060 31.1497
#
#
#
# Elastic Compliance Matrix: (Units=1/GPa)
#
#
# Indices 1 2 3 4 5 6 
#
# 1 0.030468 -0.007860 -0.001426 0.000005 -0.005885 -0.000009
# 2 -0.007860 0.012526 -0.004842 -0.000001 0.006565 0.000003
# 3 -0.001426 -0.004842 0.015203 -0.000001 -0.006249 -0.000003
# 4 0.000005 -0.000001 -0.000001 0.031924 -0.000001 0.000724
# 5 -0.005885 0.006565 -0.006249 -0.000001 0.046365 0.000011
# 6 -0.000009 0.000003 -0.000003 0.000724 0.000011 0.032119
#
#
# Mechanical properties :
#
#
# Convention : Reuss Voigt Hill
#
# Bulk Modulus (GPa) = 33.39978 45.16132 39.28055
# Shear Modulus (GPa) = 24.17307 27.91718 26.04513
#
# Velocity S-wave (km/s) = 3.46702 3.72585 3.59876
# Velocity P-wave (km/s) = 5.71272 6.40047 6.06635
#
# Compressibility (1/GPa) = 0.02994032
#
# Stress axis : x y z
#
# Youngs Moduli (GPa) = 32.82105 79.83474 65.77851
#
# Poissons Ratio (x) = 0.62753 0.09377
# Poissons Ratio (y) = 0.25798 0.31852
# Poissons Ratio (z) = 0.04679 0.38659
#
# Static dielectric constant tensor:
#      x y z
#    x 3.646300 0.000000 0.144670 
#    y 0.000000 3.893890 0.000000 
#    z 0.144670 0.000000 3.505550 
# 
# 
# High freq. dielectric constant tensor:
#      x y z
#    x 1.767540 0.000000 0.001530 
#    y 0.000000 1.783570 0.000000 
#    z 0.001530 0.000000 1.771040 
# 
# From -- ./inp_files/89496.got.cif
#   From: 2010.06.25/outbox.cif.g09.slc.cpg/sg12_45_cif.got.tgz:89496.got - 2010.06.28 00:19:55.
