data_PCOD8089177
_publ_section_title
;
Structure prediction by ZEFSAII (Michael W. Deem and Ramdas Pophale) SiO2 
 PCOD8089177
Probable space group: C 2/M
;
_chemical_formula_sum "Si O2"
_cell_formula_units_Z 56
_cell_length_a 14.907480
_cell_length_b 9.213473
_cell_length_c 24.444248
_cell_angle_alpha 90.000000
_cell_angle_beta 117.766682
_cell_angle_gamma 90.000000
_cell_volume 2970.810412
_symmetry_space_group_name_H-M "C 2/M"
_symmetry_group_IT_number 12
_symmetry_cell_setting 'monoclinic'
loop_
_space_group_symop_operation_xyz
x,y,z
-x,y,-z
-x,-y,-z
x,-y,z
1/2+x,1/2+y,z
1/2-x,1/2+y,-z
1/2-x,1/2-y,-z
1/2+x,1/2-y,z
loop_
_atom_site_type_symbol
_atom_site_label
_atom_site_fract_x
_atom_site_fract_y
_atom_site_fract_z
Si Si1 0.643981 0.333358 0.810893
Si Si2 0.344191 0.833112 0.812193
Si Si3 0.922009 0.172272 0.729529
Si Si4 0.814448 0.838503 0.060972
Si Si5 0.325235 0.669848 0.589225
Si Si6 0.099161 0.670235 0.493408
Si Si7 0.471795 0.337107 0.932161
O O1 0.624024 0.500000 0.821162
O O2 0.723234 0.318214 0.784362
O O3 0.537281 0.267752 0.760514
O O4 0.687202 0.262269 0.879460
O O5 0.368335 0.741043 0.766151
O O6 0.392928 0.770514 0.881397
O O7 0.377956 0.000000 0.814652
O O8 0.865849 0.225224 0.658983
O O9 0.915083 0.000000 0.733120
O O10 0.930839 0.842548 0.077887
O O11 0.767508 0.000000 0.048900
O O12 0.750000 0.750000 0.000000
O O13 0.343903 0.500000 0.585750
O O14 0.204939 0.706219 0.554455
O O15 0.392667 0.749769 0.562473
O O16 0.088115 0.500000 0.478828
O O17 0.000000 0.724047 0.500000
O O18 0.425418 0.500000 0.924737
O O19 0.500000 0.275078 0.000000
#
# Coordination Sequence:
#
# PCOD8089177 Si02
#       7
#     8   8   8   8   8   8   8
#     4   9  19  36  54  72 102 141 172 215 276 325
#     4  11  22  35  54  80 106 135 178 226 276 327
#     4  10  20  39  59  75 108 149 186 223 268 329
#     4  10  19  33  52  73 100 134 170 213 271 324
#     4   9  19  34  56  83 107 147 193 223 261 320
#     4   9  18  34  55  82 119 151 178 223 276 316
#     4  10  20  35  55  77 103 138 178 220 273 333
#
# _framework density 18.850076000000001
#
# number of rings (size 3 to 8) (size 9 to 14) (size 15 to 20)
#    0.000    2.286    1.429    1.286    0.000    2.857 
#    0.000    2.143    0.000    0.000    0.000    0.000 
#    0.000    0.000    0.000    0.000    0.000    0.000 
#
# Total GULP energy -347106.026976 kJ/mol
# GULP energy per Si atom -12396.643821 kJ/mol
# Density = 1.880717 g / cm^3
# Si number density = 18.850076 Si / 1000 Ang^3
#
#
#
# Elastic Constant Matrix: (Units=GPa)
#
#
# Indices 1 2 3 4 5 6 
#
# 1 121.3317 28.6508 58.4973 0.0000 -4.9637 0.0000
# 2 28.6508 43.9704 40.9212 0.0000 -1.1279 0.0000
# 3 58.4973 40.9212 156.0637 0.0000 -4.1107 0.0000
# 4 0.0000 0.0000 0.0000 24.0912 0.0000 -7.6625
# 5 -4.9637 -1.1279 -4.1107 0.0000 24.7501 0.0000
# 6 0.0000 0.0000 0.0000 -7.6625 0.0000 24.6406
#
#
#
# Elastic Compliance Matrix: (Units=1/GPa)
#
#
# Indices 1 2 3 4 5 6 
#
# 1 0.010683 -0.004276 -0.002844 0.000000 0.001475 0.000000
# 2 -0.004276 0.031796 -0.006748 0.000000 -0.000530 0.000000
# 3 -0.002844 -0.006748 0.009261 0.000000 0.000660 0.000000
# 4 0.000000 0.000000 0.000000 0.046065 0.000000 0.014325
# 5 0.001475 -0.000530 0.000660 0.000000 0.040785 0.000000
# 6 0.000000 0.000000 0.000000 0.014325 0.000000 0.045038
#
#
# Mechanical properties :
#
#
# Convention : Reuss Voigt Hill
#
# Bulk Modulus (GPa) = 41.66313 64.16716 52.91514
# Shear Modulus (GPa) = 22.79294 27.58280 25.18787
#
# Velocity S-wave (km/s) = 3.48108 3.82942 3.65940
# Velocity P-wave (km/s) = 6.18931 7.32580 6.78141
#
# Compressibility (1/GPa) = 0.02400204
#
# Stress axis : x y z
#
# Youngs Moduli (GPa) = 93.60386 31.45091 107.98477
#
# Poissons Ratio (x) = 0.13449 0.30714
# Poissons Ratio (y) = 0.40028 0.72870
# Poissons Ratio (z) = 0.26624 0.21223
#
# Static dielectric constant tensor:
#      x y z
#    x 3.669740 0.000000 0.213720 
#    y 0.000000 3.331080 0.000000 
#    z 0.213720 0.000000 3.719220 
# 
# 
# High freq. dielectric constant tensor:
#      x y z
#    x 1.739550 0.000000 -0.001980 
#    y 0.000000 1.711010 0.000000 
#    z -0.001980 0.000000 1.733220 
# 
# From -- ./inp_files/338190.got.cif
#   From: 2010.06.25/outbox.cif.g09.slc.cpg/sg12_170_cif.got.tgz:338190.got - 2010.06.28 00:19:55.
