data_PCOD8089022
_publ_section_title
;
Structure prediction by ZEFSAII (Michael W. Deem and Ramdas Pophale) SiO2 
 PCOD8089022
Probable space group: C 2/M
;
_chemical_formula_sum "Si O2"
_cell_formula_units_Z 48
_cell_length_a 28.597286
_cell_length_b 8.854117
_cell_length_c 21.792010
_cell_angle_alpha 90.000000
_cell_angle_beta 31.101857
_cell_angle_gamma 90.000000
_cell_volume 2850.289986
_symmetry_space_group_name_H-M "C 2/M"
_symmetry_group_IT_number 12
_symmetry_cell_setting 'monoclinic'
loop_
_space_group_symop_operation_xyz
x,y,z
-x,y,-z
-x,-y,-z
x,-y,z
1/2+x,1/2+y,z
1/2-x,1/2+y,-z
1/2-x,1/2-y,-z
1/2+x,1/2-y,z
loop_
_atom_site_type_symbol
_atom_site_label
_atom_site_fract_x
_atom_site_fract_y
_atom_site_fract_z
Si Si1 0.634897 0.321280 0.963742
Si Si2 0.616109 0.825910 0.429986
Si Si3 0.549408 0.332979 0.879631
Si Si4 0.294545 0.175877 0.238621
Si Si5 0.258574 0.321839 0.924261
Si Si6 0.085099 0.674595 0.323198
O O1 0.650254 0.500000 0.951110
O O2 0.527365 0.280791 0.082843
O O3 0.684917 0.266501 0.846349
O O4 0.676517 0.240252 0.975578
O O5 0.693575 0.721830 0.373467
O O6 0.520629 0.789558 0.569999
O O7 0.609210 0.787926 0.365985
O O8 0.641804 0.000000 0.410969
O O9 0.585811 0.500000 0.822010
O O10 0.634369 0.219156 0.787237
O O11 0.500000 0.338000 0.000000
O O12 0.301347 0.000000 0.217506
O O13 0.250119 0.500000 0.938655
O O14 0.355808 0.279674 0.786949
O O15 0.250000 0.250000 0.000000
O O16 0.106525 0.500000 0.284749
#
# Coordination Sequence:
#
# PCOD8089022 Si02
#       6
#     8   8   8   8   8   8
#     4  10  19  33  49  66  94 129 166 205 244 289
#     4   9  17  30  50  71  98 133 163 196 244 296
#     4   8  16  29  45  64  91 129 163 195 240 292
#     4  11  19  26  43  73 103 130 160 197 242 293
#     4  12  24  36  52  73  98 131 167 206 246 288
#     4   9  18  33  51  71  95 129 167 203 243 290
#
# _framework density 16.840392000000001
#
# number of rings (size 3 to 8) (size 9 to 14) (size 15 to 20)
#    0.000    2.167    1.667    5.500    0.000    4.333 
#    0.000    1.667    0.000    0.000    0.000    1.167 
#    0.000    0.000    0.000    0.000    0.000    0.000 
#
# Total GULP energy -297535.315375 kJ/mol
# GULP energy per Si atom -12397.304807 kJ/mol
# Density = 1.680206 g / cm^3
# Si number density = 16.840392 Si / 1000 Ang^3
#
#
#
# Elastic Constant Matrix: (Units=GPa)
#
#
# Indices 1 2 3 4 5 6 
#
# 1 102.8235 56.6436 57.5152 -0.0027 -22.9766 0.0016
# 2 56.6436 115.0304 47.6932 -0.0130 -13.5307 0.0114
# 3 57.5152 47.6932 71.8543 -0.0048 -17.9609 0.0027
# 4 -0.0027 -0.0130 -0.0048 21.8446 0.0040 -1.0990
# 5 -22.9766 -13.5307 -17.9609 0.0040 30.9486 -0.0034
# 6 0.0016 0.0114 0.0027 -1.0990 -0.0034 22.5938
#
#
#
# Elastic Compliance Matrix: (Units=1/GPa)
#
#
# Indices 1 2 3 4 5 6 
#
# 1 0.019951 -0.004299 -0.011560 -0.000004 0.006223 0.000003
# 2 -0.004299 0.012935 -0.005297 0.000006 -0.000611 -0.000005
# 3 -0.011560 -0.005297 0.028028 0.000001 0.005368 0.000001
# 4 -0.000004 0.000006 0.000001 0.045890 -0.000005 0.002232
# 5 0.006223 -0.000611 0.005368 -0.000005 0.039780 0.000005
# 6 0.000003 -0.000005 0.000001 0.002232 0.000005 0.044369
#
#
# Mechanical properties :
#
#
# Convention : Reuss Voigt Hill
#
# Bulk Modulus (GPa) = 53.76136 68.15692 60.95914
# Shear Modulus (GPa) = 20.87997 23.60115 22.24056
#
# Velocity S-wave (km/s) = 3.52500 3.74767 3.63804
# Velocity P-wave (km/s) = 6.96857 7.69980 7.34329
#
# Compressibility (1/GPa) = 0.01860072
#
# Stress axis : x y z
#
# Youngs Moduli (GPa) = 50.12382 77.31184 35.67890
#
# Poissons Ratio (x) = 0.33237 0.41246
# Poissons Ratio (y) = 0.21549 0.18898
# Poissons Ratio (z) = 0.57944 0.40951
#
# Static dielectric constant tensor:
#      x y z
#    x 2.384390 0.000100 -0.859380 
#    y 0.000100 3.127540 0.000070 
#    z -0.859380 0.000070 2.920190 
# 
# 
# High freq. dielectric constant tensor:
#      x y z
#    x 1.634250 0.000000 -0.043040 
#    y 0.000000 1.652190 0.000000 
#    z -0.043040 0.000000 1.619530 
# 
# From -- ./inp_files/329017.got.cif
#   From: 2010.06.25/outbox.cif.g09.slc.cpg/sg12_165_cif.got.tgz:329017.got - 2010.06.28 00:19:55.
