data_PCOD8089554
_publ_section_title
;
Structure prediction by ZEFSAII (Michael W. Deem and Ramdas Pophale) SiO2 
 PCOD8089554
Probable space group: C 2/M
;
_chemical_formula_sum "Si O2"
_cell_formula_units_Z 48
_cell_length_a 20.690885
_cell_length_b 8.747334
_cell_length_c 25.127518
_cell_angle_alpha 90.000000
_cell_angle_beta 145.853646
_cell_angle_gamma 90.000000
_cell_volume 2552.737576
_symmetry_space_group_name_H-M "C 2/M"
_symmetry_group_IT_number 12
_symmetry_cell_setting 'monoclinic'
loop_
_space_group_symop_operation_xyz
x,y,z
-x,y,-z
-x,-y,-z
x,-y,z
1/2+x,1/2+y,z
1/2-x,1/2+y,-z
1/2-x,1/2-y,-z
1/2+x,1/2-y,z
loop_
_atom_site_type_symbol
_atom_site_label
_atom_site_fract_x
_atom_site_fract_y
_atom_site_fract_z
Si Si1 0.234225 0.678186 0.909376
Si Si2 0.570054 0.822796 0.894907
Si Si3 0.156304 0.820078 0.290417
Si Si4 0.355598 0.180757 0.602771
Si Si5 0.389497 0.818347 0.392443
Si Si6 0.590280 0.818504 0.712718
O O1 0.266394 0.500000 0.933736
O O2 0.131638 0.713992 0.880839
O O3 0.193016 0.730272 0.822662
O O4 0.347058 0.775432 0.000125
O O5 0.453574 0.724119 0.820360
O O6 0.538642 0.000000 0.878451
O O7 0.146855 0.728516 0.338151
O O8 0.272392 0.764575 0.340577
O O9 0.159066 0.000000 0.303349
O O10 0.250000 0.250000 0.500000
O O11 0.470324 0.246335 0.653311
O O12 0.351049 0.000000 0.595781
O O13 0.500000 0.753942 0.500000
O O14 0.389080 0.751208 0.332150
O O15 0.396245 0.000000 0.394887
O O16 0.583851 0.000000 0.706691
#
# Coordination Sequence:
#
# PCOD8089554 Si02
#       6
#     8   8   8   8   8   8
#     4   9  17  32  54  80 105 138 181 227 273 319
#     4  10  19  33  53  80 111 143 175 222 277 326
#     4  11  21  34  55  83 110 142 181 222 271 327
#     4  11  21  35  55  81 109 140 179 229 278 320
#     4   9  18  33  54  79 107 142 184 226 267 315
#     4   9  17  33  55  78 106 139 182 229 269 313
#
# _framework density 18.803342000000001
#
# number of rings (size 3 to 8) (size 9 to 14) (size 15 to 20)
#    0.000    2.167    1.667    2.500    0.000    3.333 
#    0.000    0.833    0.000   18.000    0.000    0.000 
#    0.000    0.000    0.000    0.000    0.000    0.000 
#
# Total GULP energy -297620.082235 kJ/mol
# GULP energy per Si atom -12400.836760 kJ/mol
# Density = 1.876054 g / cm^3
# Si number density = 18.803342 Si / 1000 Ang^3
#
#
#
# Elastic Constant Matrix: (Units=GPa)
#
#
# Indices 1 2 3 4 5 6 
#
# 1 120.4604 18.5026 65.7642 0.0000 -2.5634 0.0000
# 2 18.5026 38.1457 23.5371 0.0000 5.0086 -0.0002
# 3 65.7642 23.5371 147.7399 0.0000 -2.1120 0.0000
# 4 0.0000 0.0000 0.0000 31.9839 0.0000 -0.6383
# 5 -2.5634 5.0086 -2.1120 0.0000 36.0306 0.0000
# 6 0.0000 -0.0002 0.0000 -0.6383 0.0000 20.1846
#
#
#
# Elastic Compliance Matrix: (Units=1/GPa)
#
#
# Indices 1 2 3 4 5 6 
#
# 1 0.011226 -0.002762 -0.004544 0.000000 0.000916 0.000000
# 2 -0.002762 0.030439 -0.003686 0.000000 -0.004644 0.000000
# 3 -0.004544 -0.003686 0.009389 0.000000 0.000740 0.000000
# 4 0.000000 0.000000 0.000000 0.031285 0.000000 0.000989
# 5 0.000916 -0.004644 0.000740 0.000000 0.028508 0.000000
# 6 0.000000 0.000000 0.000000 0.000989 0.000000 0.049574
#
#
# Mechanical properties :
#
#
# Convention : Reuss Voigt Hill
#
# Bulk Modulus (GPa) = 34.39959 57.99486 46.19722
# Shear Modulus (GPa) = 26.02862 30.87598 28.45230
#
# Velocity S-wave (km/s) = 3.72459 4.05661 3.89414
# Velocity P-wave (km/s) = 6.06885 7.26989 6.69635
#
# Compressibility (1/GPa) = 0.02907011
#
# Stress axis : x y z
#
# Youngs Moduli (GPa) = 89.07968 32.85235 106.50515
#
# Poissons Ratio (x) = 0.09073 0.48396
# Poissons Ratio (y) = 0.24601 0.39263
# Poissons Ratio (z) = 0.40478 0.12111
#
# Static dielectric constant tensor:
#      x y z
#    x 3.500150 0.000000 0.022550 
#    y 0.000000 3.080470 0.000000 
#    z 0.022550 0.000000 3.782530 
# 
# 
# High freq. dielectric constant tensor:
#      x y z
#    x 1.715850 0.000000 -0.003860 
#    y 0.000000 1.701720 0.000000 
#    z -0.003860 0.000000 1.749840 
# 
# From -- ./inp_files/345696.got.cif
#   From: 2010.06.25/outbox.cif.g09.slc.cpg/sg12_173_cif.got.tgz:345696.got - 2010.06.28 00:19:55.
