data_PCOD8089191
_publ_section_title
;
Structure prediction by ZEFSAII (Michael W. Deem and Ramdas Pophale) SiO2 
 PCOD8089191
Probable space group: C 2/M
;
_chemical_formula_sum "Si O2"
_cell_formula_units_Z 48
_cell_length_a 22.907687
_cell_length_b 8.492605
_cell_length_c 24.205600
_cell_angle_alpha 90.000000
_cell_angle_beta 144.974066
_cell_angle_gamma 90.000000
_cell_volume 2702.775192
_symmetry_space_group_name_H-M "C 2/M"
_symmetry_group_IT_number 12
_symmetry_cell_setting 'monoclinic'
loop_
_space_group_symop_operation_xyz
x,y,z
-x,y,-z
-x,-y,-z
x,-y,z
1/2+x,1/2+y,z
1/2-x,1/2+y,-z
1/2-x,1/2-y,-z
1/2+x,1/2-y,z
loop_
_atom_site_type_symbol
_atom_site_label
_atom_site_fract_x
_atom_site_fract_y
_atom_site_fract_z
Si Si1 0.715417 0.312509 0.414415
Si Si2 0.378994 0.315901 0.458406
Si Si3 0.827815 0.185299 0.016795
Si Si4 0.096968 0.684750 0.638753
Si Si5 0.668709 0.813950 0.811648
Si Si6 0.011833 0.186243 0.778081
O O1 0.722074 0.500000 0.418149
O O2 0.750000 0.250000 0.500000
O O3 0.783894 0.239859 0.419830
O O4 0.601879 0.247566 0.314930
O O5 0.398579 0.500000 0.482060
O O6 0.478108 0.221462 0.555154
O O7 0.356924 0.279936 0.377023
O O8 0.939388 0.242914 0.124455
O O9 0.826609 0.000000 0.018747
O O10 0.750000 0.250000 0.000000
O O11 0.782537 0.237960 0.921768
O O12 0.110808 0.500000 0.638574
O O13 0.157951 0.742441 0.740223
O O14 0.578910 0.741949 0.778606
O O15 0.654741 0.000000 0.804269
O O16 0.007902 0.000000 0.772202
#
# Coordination Sequence:
#
# PCOD8089191 Si02
#       6
#     8   8   8   8   8   8
#     4  11  22  35  50  71  97 128 161 195 234 281
#     4  11  22  35  50  70  95 127 161 196 236 281
#     4   8  14  27  44  67  95 122 152 189 230 276
#     4  10  19  33  52  73  96 124 156 197 239 281
#     4   9  17  28  48  74  98 122 153 191 235 280
#     4   9  18  30  47  69  97 128 157 190 232 278
#
# _framework density 17.759523999999999
#
# number of rings (size 3 to 8) (size 9 to 14) (size 15 to 20)
#    0.000    2.333    0.000    4.500    0.000    5.333 
#    0.000    0.000    0.000    1.000    0.000    7.000 
#    0.000    0.000    0.000    0.000    0.000    0.000 
#
# Total GULP energy -297342.414365 kJ/mol
# GULP energy per Si atom -12389.267265 kJ/mol
# Density = 1.771910 g / cm^3
# Si number density = 17.759524 Si / 1000 Ang^3
#
#
#
# Elastic Constant Matrix: (Units=GPa)
#
#
# Indices 1 2 3 4 5 6 
#
# 1 87.6441 14.3524 77.5118 0.0000 -2.7663 0.0000
# 2 14.3524 30.5415 16.3800 0.0000 -2.0394 0.0001
# 3 77.5118 16.3800 168.7495 0.0000 -25.8832 0.0000
# 4 0.0000 0.0000 0.0000 18.0179 0.0000 -1.3816
# 5 -2.7663 -2.0394 -25.8832 0.0000 25.8581 0.0000
# 6 0.0000 0.0001 0.0000 -1.3816 0.0000 26.3489
#
#
#
# Elastic Compliance Matrix: (Units=1/GPa)
#
#
# Indices 1 2 3 4 5 6 
#
# 1 0.021405 -0.004904 -0.010708 0.000000 -0.008815 0.000000
# 2 -0.004904 0.035676 -0.001015 0.000000 0.001273 0.000000
# 3 -0.010708 -0.001015 0.012706 0.000000 0.011492 0.000000
# 4 0.000000 0.000000 0.000000 0.055724 0.000000 0.002922
# 5 -0.008815 0.001273 0.011492 0.000000 0.049334 0.000000
# 6 0.000000 0.000000 0.000000 0.002922 0.000000 0.038105
#
#
# Mechanical properties :
#
#
# Convention : Reuss Voigt Hill
#
# Bulk Modulus (GPa) = 27.37316 55.93594 41.65455
# Shear Modulus (GPa) = 19.35120 25.95772 22.65446
#
# Velocity S-wave (km/s) = 3.30453 3.82726 3.57546
# Velocity P-wave (km/s) = 5.47782 7.14810 6.36796
#
# Compressibility (1/GPa) = 0.03653214
#
# Stress axis : x y z
#
# Youngs Moduli (GPa) = 46.71893 28.02974 78.70529
#
# Poissons Ratio (x) = 0.13747 0.84276
# Poissons Ratio (y) = 0.22913 0.07988
# Poissons Ratio (z) = 0.50026 0.02845
#
# Static dielectric constant tensor:
#      x y z
#    x 3.175810 0.000000 -0.276520 
#    y 0.000000 3.338810 0.000000 
#    z -0.276520 0.000000 4.146280 
# 
# 
# High freq. dielectric constant tensor:
#      x y z
#    x 1.656150 0.000000 -0.020810 
#    y 0.000000 1.688740 0.000000 
#    z -0.020810 0.000000 1.703350 
# 
# From -- ./inp_files/365551.got.cif
#   From: 2010.06.25/outbox.cif.g09.slc.cpg/sg12_183_cif.got.tgz:365551.got - 2010.06.28 00:19:55.
