data_PCOD8089553
_publ_section_title
;
Structure prediction by ZEFSAII (Michael W. Deem and Ramdas Pophale) SiO2 
 PCOD8089553
Probable space group: C 2/M
;
_chemical_formula_sum "Si O2"
_cell_formula_units_Z 64
_cell_length_a 15.530618
_cell_length_b 9.128525
_cell_length_c 30.643928
_cell_angle_alpha 90.000000
_cell_angle_beta 50.566421
_cell_angle_gamma 90.000000
_cell_volume 3355.477788
_symmetry_space_group_name_H-M "C 2/M"
_symmetry_group_IT_number 12
_symmetry_cell_setting 'monoclinic'
loop_
_space_group_symop_operation_xyz
x,y,z
-x,y,-z
-x,-y,-z
x,-y,z
1/2+x,1/2+y,z
1/2-x,1/2+y,-z
1/2-x,1/2-y,-z
1/2+x,1/2-y,z
loop_
_atom_site_type_symbol
_atom_site_label
_atom_site_fract_x
_atom_site_fract_y
_atom_site_fract_z
Si Si1 0.205970 0.170670 0.056407
Si Si2 0.319462 0.827199 0.176601
Si Si3 0.174996 0.172992 0.442398
Si Si4 0.989905 0.828758 0.175219
Si Si5 0.063387 0.171935 0.248496
Si Si6 0.603557 0.827324 0.940245
Si Si7 0.927437 0.674775 0.366068
Si Si8 0.998012 0.826184 0.430000
O O1 0.082114 0.219707 0.109788
O O2 0.283083 0.213332 0.072093
O O3 0.211957 0.000000 0.044556
O O4 0.250000 0.250000 0.000000
O O5 0.375427 0.754669 0.201026
O O6 0.190607 0.782568 0.216178
O O7 0.384070 0.766306 0.112839
O O8 0.331487 0.000000 0.176304
O O9 0.300237 0.234981 0.404931
O O10 0.106053 0.226089 0.506834
O O11 0.112188 0.221615 0.418025
O O12 0.176784 0.000000 0.442338
O O13 0.031616 0.785354 0.209581
O O14 0.967012 0.000000 0.179889
O O15 0.986341 0.269541 0.303770
O O16 0.044386 0.000000 0.263721
O O17 0.585630 0.000000 0.943478
O O18 0.500000 0.755227 0.000000
O O19 0.931840 0.500000 0.367044
O O20 0.991989 0.741214 0.386551
O O21 0.995636 0.000000 0.422085
#
# Coordination Sequence:
#
# PCOD8089553 Si02
#       8
#     8   8   8   8   8   8   8   8
#     4  10  19  33  53  80 111 141 175 220 271 328
#     4  10  20  37  60  81 102 139 187 225 267 333
#     4   8  17  34  57  83 114 150 188 227 271 329
#     4  10  21  38  58  80 110 142 177 229 286 327
#     4  10  22  41  58  75 106 151 193 226 269 335
#     4   9  16  29  52  79 105 134 173 216 259 320
#     4  11  22  35  54  84 116 144 184 237 283 319
#     4   9  17  35  60  83 111 152 191 223 270 332
#
# _framework density 19.073288999999999
#
# number of rings (size 3 to 8) (size 9 to 14) (size 15 to 20)
#    0.000    2.375    1.250    2.250    0.000    3.500 
#    0.000    7.500    0.000    2.250    0.000    0.000 
#    0.000    0.000    0.000    0.000    0.000    0.000 
#
# Total GULP energy -396743.307636 kJ/mol
# GULP energy per Si atom -12398.228364 kJ/mol
# Density = 1.902988 g / cm^3
# Si number density = 19.073289 Si / 1000 Ang^3
#
#
#
# Elastic Constant Matrix: (Units=GPa)
#
#
# Indices 1 2 3 4 5 6 
#
# 1 121.7293 38.1559 49.5450 0.0000 2.5233 0.0000
# 2 38.1559 39.2404 34.7746 0.0000 5.0655 0.0002
# 3 49.5450 34.7746 92.1478 0.0000 5.5002 0.0000
# 4 0.0000 0.0000 0.0000 29.8539 0.0000 1.4679
# 5 2.5233 5.0655 5.5002 0.0000 25.2755 0.0000
# 6 0.0000 0.0002 0.0000 1.4679 0.0000 27.3527
#
#
#
# Elastic Compliance Matrix: (Units=1/GPa)
#
#
# Indices 1 2 3 4 5 6 
#
# 1 0.012453 -0.009432 -0.003216 0.000000 0.001347 0.000000
# 2 -0.009432 0.045966 -0.011937 0.000000 -0.005673 0.000000
# 3 -0.003216 -0.011937 0.017147 0.000000 -0.001018 0.000000
# 4 0.000000 0.000000 0.000000 0.033585 0.000000 -0.001802
# 5 0.001347 -0.005673 -0.001018 0.000000 0.040788 0.000000
# 6 0.000000 0.000000 0.000000 -0.001802 0.000000 0.036656
#
#
# Mechanical properties :
#
#
# Convention : Reuss Voigt Hill
#
# Bulk Modulus (GPa) = 37.88553 55.34094 46.61323
# Shear Modulus (GPa) = 20.44467 25.20589 22.82528
#
# Velocity S-wave (km/s) = 3.27754 3.63923 3.46311
# Velocity P-wave (km/s) = 5.85058 6.83641 6.36262
#
# Compressibility (1/GPa) = 0.02639530
#
# Stress axis : x y z
#
# Youngs Moduli (GPa) = 80.30475 21.75534 58.31991
#
# Poissons Ratio (x) = 0.20520 0.18757
# Poissons Ratio (y) = 0.75744 0.69614
# Poissons Ratio (z) = 0.25828 0.25968
#
# Static dielectric constant tensor:
#      x y z
#    x 3.737710 0.000000 -0.142320 
#    y 0.000000 3.121080 0.000000 
#    z -0.142320 0.000000 3.607020 
# 
# 
# High freq. dielectric constant tensor:
#      x y z
#    x 1.757080 0.000000 -0.000460 
#    y 0.000000 1.706400 0.000000 
#    z -0.000460 0.000000 1.743700 
# 
# From -- ./inp_files/360008.got.cif
#   From: 2010.06.25/outbox.cif.g09.slc.cpg/sg12_181_cif.got.tgz:360008.got - 2010.06.28 00:19:55.
