data_PCOD8089735
_publ_section_title
;
Structure prediction by ZEFSAII (Michael W. Deem and Ramdas Pophale) SiO2 
 PCOD8089735
Probable space group: C 2/M
;
_chemical_formula_sum "Si O2"
_cell_formula_units_Z 64
_cell_length_a 20.282820
_cell_length_b 9.213977
_cell_length_c 25.544841
_cell_angle_alpha 90.000000
_cell_angle_beta 46.437991
_cell_angle_gamma 90.000000
_cell_volume 3459.348813
_symmetry_space_group_name_H-M "C 2/M"
_symmetry_group_IT_number 12
_symmetry_cell_setting 'monoclinic'
loop_
_space_group_symop_operation_xyz
x,y,z
-x,y,-z
-x,-y,-z
x,-y,z
1/2+x,1/2+y,z
1/2-x,1/2+y,-z
1/2-x,1/2-y,-z
1/2+x,1/2-y,z
loop_
_atom_site_type_symbol
_atom_site_label
_atom_site_fract_x
_atom_site_fract_y
_atom_site_fract_z
Si Si1 0.005591 0.836127 0.346314
Si Si2 0.741210 0.328892 0.949970
Si Si3 0.447505 0.672606 0.187806
Si Si4 0.698690 0.333388 0.572611
Si Si5 0.537696 0.329156 0.033406
Si Si6 0.239738 0.827118 0.664788
Si Si7 0.939730 0.327785 0.581813
Si Si8 0.097596 0.830899 0.188977
O O1 0.908166 0.811395 0.373952
O O2 0.018384 0.728597 0.387393
O O3 0.076883 0.804124 0.261226
O O4 0.016274 0.000000 0.361365
O O5 0.754587 0.500000 0.950656
O O6 0.814917 0.266814 0.869749
O O7 0.750000 0.250000 0.000000
O O8 0.643528 0.291621 0.979283
O O9 0.446390 0.500000 0.187021
O O10 0.483477 0.736936 0.112950
O O11 0.345068 0.731873 0.254218
O O12 0.514590 0.722691 0.197701
O O13 0.727404 0.500000 0.552529
O O14 0.750000 0.250000 0.500000
O O15 0.729274 0.268521 0.611554
O O16 0.521174 0.500000 0.042338
O O17 0.500000 0.260401 0.000000
O O18 0.335992 0.769945 0.634177
O O19 0.237015 0.000000 0.665660
O O20 0.942185 0.500000 0.581996
O O21 0.000000 0.270777 0.500000
O O22 0.118439 0.000000 0.166087
#
# Coordination Sequence:
#
# PCOD8089735 Si02
#       8
#     8   8   8   8   8   8   8   8
#     4  10  21  36  56  80 108 143 183 225 273 334
#     4  11  21  34  56  84 112 146 185 226 274 327
#     4   9  15  29  53  76 102 138 178 222 266 315
#     4  10  19  33  54  79 103 133 179 225 269 320
#     4   9  18  31  50  80 110 135 175 226 266 307
#     4   9  17  31  53  76 100 140 186 219 260 323
#     4  10  21  36  54  80 114 147 179 225 279 325
#     4  10  19  35  57  81 108 143 185 228 276 326
#
# _framework density 18.500592000000001
#
# number of rings (size 3 to 8) (size 9 to 14) (size 15 to 20)
#    0.000    2.250    2.500    1.125    0.000    3.250 
#    0.000    3.125    0.000    2.250    0.000    0.000 
#    0.000    0.000    0.000    0.000    0.000    0.000 
#
# Total GULP energy -396772.080113 kJ/mol
# GULP energy per Si atom -12399.127504 kJ/mol
# Density = 1.845848 g / cm^3
# Si number density = 18.500592 Si / 1000 Ang^3
#
#
#
# Elastic Constant Matrix: (Units=GPa)
#
#
# Indices 1 2 3 4 5 6 
#
# 1 80.5035 26.8448 36.5495 0.0000 9.6944 -0.0001
# 2 26.8448 35.4415 31.6611 0.0001 -3.2695 -0.0005
# 3 36.5495 31.6611 123.2087 0.0000 -5.0939 0.0000
# 4 0.0000 0.0001 0.0000 27.2742 0.0000 -1.3471
# 5 9.6944 -3.2695 -5.0939 0.0000 35.7489 0.0001
# 6 -0.0001 -0.0005 0.0000 -1.3471 0.0001 21.9435
#
#
#
# Elastic Compliance Matrix: (Units=1/GPa)
#
#
# Indices 1 2 3 4 5 6 
#
# 1 0.018477 -0.012277 -0.002595 0.000000 -0.006503 0.000000
# 2 -0.012277 0.044925 -0.007640 0.000000 0.006349 0.000001
# 3 -0.002595 -0.007640 0.010914 0.000000 0.001560 0.000000
# 4 0.000000 0.000000 0.000000 0.036776 0.000000 0.002258
# 5 -0.006503 0.006349 0.001560 0.000000 0.030539 0.000000
# 6 0.000000 0.000001 0.000000 0.002258 0.000000 0.045710
#
#
# Mechanical properties :
#
#
# Convention : Reuss Voigt Hill
#
# Bulk Modulus (GPa) = 34.13892 47.69605 40.91748
# Shear Modulus (GPa) = 20.65000 26.59988 23.62494
#
# Velocity S-wave (km/s) = 3.34455 3.79593 3.57737
# Velocity P-wave (km/s) = 5.77994 6.71185 6.26325
#
# Compressibility (1/GPa) = 0.02929208
#
# Stress axis : x y z
#
# Youngs Moduli (GPa) = 54.12113 22.25908 91.62553
#
# Poissons Ratio (x) = 0.27327 0.23779
# Poissons Ratio (y) = 0.66444 0.70004
# Poissons Ratio (z) = 0.14046 0.17006
#
# Static dielectric constant tensor:
#      x y z
#    x 3.435590 0.000000 0.060950 
#    y 0.000000 2.431960 0.000000 
#    z 0.060950 0.000000 3.658220 
# 
# 
# High freq. dielectric constant tensor:
#      x y z
#    x 1.722430 0.000000 -0.003390 
#    y 0.000000 1.670310 0.000000 
#    z -0.003390 0.000000 1.736180 
# 
# From -- ./inp_files/346095.got.cif
#   From: 2010.06.25/outbox.cif.g09.slc.cpg/sg12_174_cif.got.tgz:346095.got - 2010.06.28 00:19:55.
