data_PCOD8089112
_publ_section_title
;
Structure prediction by ZEFSAII (Michael W. Deem and Ramdas Pophale) SiO2 
 PCOD8089112
Probable space group: C 2/M
;
_chemical_formula_sum "Si O2"
_cell_formula_units_Z 64
_cell_length_a 19.254937
_cell_length_b 9.016336
_cell_length_c 20.752097
_cell_angle_alpha 90.000000
_cell_angle_beta 97.192751
_cell_angle_gamma 90.000000
_cell_volume 3574.398764
_symmetry_space_group_name_H-M "C 2/M"
_symmetry_group_IT_number 12
_symmetry_cell_setting 'monoclinic'
loop_
_space_group_symop_operation_xyz
x,y,z
-x,y,-z
-x,-y,-z
x,-y,z
1/2+x,1/2+y,z
1/2-x,1/2+y,-z
1/2-x,1/2-y,-z
1/2+x,1/2-y,z
loop_
_atom_site_type_symbol
_atom_site_label
_atom_site_fract_x
_atom_site_fract_y
_atom_site_fract_z
Si Si1 0.290699 0.327391 0.710814
Si Si2 0.957470 0.824847 0.229554
Si Si3 0.488578 0.172740 0.428718
Si Si4 0.682937 0.171550 0.020791
Si Si5 0.778431 0.827456 0.856555
Si Si6 0.575674 0.176187 0.318327
Si Si7 0.377092 0.829779 0.116586
Si Si8 0.366891 0.171623 0.324166
O O1 0.308992 0.500000 0.704965
O O2 0.294595 0.278827 0.785735
O O3 0.344562 0.229544 0.676215
O O4 0.214118 0.291564 0.673221
O O5 0.935899 0.774506 0.155140
O O6 0.896474 0.772641 0.270663
O O7 0.031367 0.749688 0.255543
O O8 0.966360 0.000000 0.233414
O O9 0.500000 0.250067 0.500000
O O10 0.543766 0.233946 0.382535
O O11 0.409507 0.203567 0.394943
O O12 0.503109 0.000000 0.437917
O O13 0.667538 0.242322 0.089230
O O14 0.700037 0.000000 0.031969
O O15 0.750000 0.250000 0.000000
O O16 0.620847 0.193687 0.961012
O O17 0.698671 0.785064 0.863782
O O18 0.791210 0.000000 0.868460
O O19 0.570528 0.000000 0.311549
O O20 0.393448 0.000000 0.136133
O O21 0.376198 0.000000 0.303700
#
# Coordination Sequence:
#
# PCOD8089112 Si02
#       8
#     8   8   8   8   8   8   8   8
#     4  10  19  33  51  73 104 138 170 206 253 304
#     4  11  20  30  49  75 100 129 170 216 255 300
#     4   8  15  31  56  80 100 131 173 207 240 292
#     4   9  17  27  41  64  96 130 166 209 254 302
#     4   9  17  29  46  67  97 133 166 205 253 304
#     4  10  21  35  52  74 103 135 167 208 254 301
#     4   9  16  29  46  67  97 131 167 207 256 304
#     4   9  17  32  53  75 103 136 168 205 250 297
#
# _framework density 17.905110000000001
#
# number of rings (size 3 to 8) (size 9 to 14) (size 15 to 20)
#    0.000    2.625    1.250    3.375    0.000    3.500 
#    0.000    0.625    0.000   10.125    0.000    5.250 
#    0.000    0.000    0.000    0.000    0.000    0.000 
#
# Total GULP energy -396665.679116 kJ/mol
# GULP energy per Si atom -12395.802472 kJ/mol
# Density = 1.786436 g / cm^3
# Si number density = 17.905110 Si / 1000 Ang^3
#
#
#
# Elastic Constant Matrix: (Units=GPa)
#
#
# Indices 1 2 3 4 5 6 
#
# 1 97.2784 35.4303 49.1274 0.0000 5.6410 0.0000
# 2 35.4303 71.2499 36.8452 0.0000 7.9636 0.0000
# 3 49.1274 36.8452 117.9476 0.0000 17.2834 0.0000
# 4 0.0000 0.0000 0.0000 17.1556 0.0000 -1.4089
# 5 5.6410 7.9636 17.2834 0.0000 20.5394 0.0000
# 6 0.0000 0.0000 0.0000 -1.4089 0.0000 25.0621
#
#
#
# Elastic Compliance Matrix: (Units=1/GPa)
#
#
# Indices 1 2 3 4 5 6 
#
# 1 0.014340 -0.004904 -0.004725 0.000000 0.001939 0.000000
# 2 -0.004904 0.018519 -0.003294 0.000000 -0.003062 0.000000
# 3 -0.004725 -0.003294 0.012659 0.000000 -0.008077 0.000000
# 4 0.000000 0.000000 0.000000 0.058560 0.000000 0.003292
# 5 0.001939 -0.003062 -0.008077 0.000000 0.056138 0.000000
# 6 0.000000 0.000000 0.000000 0.003292 0.000000 0.040086
#
#
# Mechanical properties :
#
#
# Convention : Reuss Voigt Hill
#
# Bulk Modulus (GPa) = 50.83311 58.80907 54.82109
# Shear Modulus (GPa) = 21.48638 23.55630 22.52134
#
# Velocity S-wave (km/s) = 3.46788 3.63108 3.55042
# Velocity P-wave (km/s) = 6.66985 7.10604 6.89140
#
# Compressibility (1/GPa) = 0.01967222
#
# Stress axis : x y z
#
# Youngs Moduli (GPa) = 69.73694 53.99781 78.99547
#
# Poissons Ratio (x) = 0.26480 0.37325
# Poissons Ratio (y) = 0.34199 0.26020
# Poissons Ratio (z) = 0.32950 0.17786
#
# Static dielectric constant tensor:
#      x y z
#    x 3.106560 0.000000 0.205800 
#    y 0.000000 3.219340 0.000000 
#    z 0.205800 0.000000 3.560860 
# 
# 
# High freq. dielectric constant tensor:
#      x y z
#    x 1.664430 0.000000 0.019930 
#    y 0.000000 1.679880 0.000000 
#    z 0.019930 0.000000 1.690510 
# 
# From -- ./inp_files/314128.got.cif
#   From: 2010.06.25/outbox.cif.g09.slc.cpg/sg12_158_cif.got.tgz:314128.got - 2010.06.28 00:19:55.
