data_PCOD8089809
_publ_section_title
;
Structure prediction by ZEFSAII (Michael W. Deem and Ramdas Pophale) SiO2 
 PCOD8089809
Probable space group: C 2/M
;
_chemical_formula_sum "Si O2"
_cell_formula_units_Z 64
_cell_length_a 28.977407
_cell_length_b 9.474189
_cell_length_c 24.960956
_cell_angle_alpha 90.000000
_cell_angle_beta 29.113311
_cell_angle_gamma 90.000000
_cell_volume 3334.109577
_symmetry_space_group_name_H-M "C 2/M"
_symmetry_group_IT_number 12
_symmetry_cell_setting 'monoclinic'
loop_
_space_group_symop_operation_xyz
x,y,z
-x,y,-z
-x,-y,-z
x,-y,z
1/2+x,1/2+y,z
1/2-x,1/2+y,-z
1/2-x,1/2-y,-z
1/2+x,1/2-y,z
loop_
_atom_site_type_symbol
_atom_site_label
_atom_site_fract_x
_atom_site_fract_y
_atom_site_fract_z
Si Si1 0.986293 0.165036 0.844587
Si Si2 0.346598 0.335733 0.401665
Si Si3 0.229038 0.340931 0.235296
Si Si4 0.060693 0.167450 0.987546
Si Si5 0.684103 0.163090 0.027012
Si Si6 0.162615 0.155148 0.214213
Si Si7 0.071178 0.339617 0.474007
Si Si8 0.460994 0.662403 0.388694
O O1 0.915598 0.258926 0.880480
O O2 0.092387 0.191520 0.714365
O O3 0.958062 0.000000 0.866525
O O4 0.982351 0.211733 0.911017
O O5 0.321360 0.500000 0.432346
O O6 0.250000 0.250000 0.500000
O O7 0.408088 0.281749 0.389740
O O8 0.238135 0.500000 0.205361
O O9 0.333279 0.270887 0.128413
O O10 0.157633 0.265397 0.267090
O O11 0.180263 0.332929 0.342828
O O12 0.061896 0.000000 0.981240
O O13 0.000000 0.232254 0.000000
O O14 0.669390 0.000000 0.061169
O O15 0.750000 0.250000 0.000000
O O16 0.737575 0.166613 0.916405
O O17 0.073893 0.184333 0.264444
O O18 0.150933 0.000000 0.251435
O O19 0.042525 0.500000 0.517688
O O20 0.070943 0.246427 0.526866
O O21 0.000000 0.282985 0.500000
O O22 0.435318 0.500000 0.424736
#
# Coordination Sequence:
#
# PCOD8089809 Si02
#       8
#     8   8   8   8   8   8   8   8
#     4  10  20  38  63  86 114 151 193 241 291 344
#     4  10  23  42  62  85 114 152 198 244 291 343
#     4  10  19  33  54  80 111 146 186 233 280 334
#     4   9  18  33  56  85 113 146 188 232 283 340
#     4  11  22  35  55  85 119 154 193 237 289 349
#     4  10  20  34  54  80 113 148 184 229 283 343
#     4  10  20  33  52  82 116 147 187 238 286 336
#     4  10  21  37  56  80 113 153 195 236 283 347
#
# _framework density 19.195530000000002
#
# number of rings (size 3 to 8) (size 9 to 14) (size 15 to 20)
#    0.000    2.000    2.500    1.125    0.000    5.250 
#    0.000    3.750    0.000    1.500    0.000    0.000 
#    0.000    0.000    0.000    0.000    0.000    0.000 
#
# Total GULP energy -396698.071768 kJ/mol
# GULP energy per Si atom -12396.814743 kJ/mol
# Density = 1.915184 g / cm^3
# Si number density = 19.195530 Si / 1000 Ang^3
#
#
#
# Elastic Constant Matrix: (Units=GPa)
#
#
# Indices 1 2 3 4 5 6 
#
# 1 115.0778 40.3488 49.4482 0.0195 -4.5729 0.0003
# 2 40.3488 63.1377 34.7299 0.0251 -5.3594 -0.0162
# 3 49.4482 34.7299 120.3928 0.0217 -7.7004 0.0006
# 4 0.0195 0.0251 0.0217 28.2723 -0.0026 -1.9170
# 5 -4.5729 -5.3594 -7.7004 -0.0026 29.8598 -0.0021
# 6 0.0003 -0.0162 0.0006 -1.9170 -0.0021 28.3922
#
#
#
# Elastic Compliance Matrix: (Units=1/GPa)
#
#
# Indices 1 2 3 4 5 6 
#
# 1 0.012201 -0.005995 -0.003286 -0.000001 -0.000055 -0.000004
# 2 -0.005995 0.021891 -0.003721 -0.000011 0.002051 0.000012
# 3 -0.003286 -0.003721 0.010833 -0.000003 0.001623 -0.000002
# 4 -0.000001 -0.000011 -0.000003 0.035533 0.000000 0.002399
# 5 -0.000055 0.002051 0.001623 0.000000 0.034268 0.000004
# 6 -0.000004 0.000012 -0.000002 0.002399 0.000004 0.035383
#
#
# Mechanical properties :
#
#
# Convention : Reuss Voigt Hill
#
# Bulk Modulus (GPa) = 52.85037 60.85134 56.85085
# Shear Modulus (GPa) = 27.40940 28.91028 28.15984
#
# Velocity S-wave (km/s) = 3.78286 3.88505 3.83430
# Velocity P-wave (km/s) = 6.83173 7.20378 7.02022
#
# Compressibility (1/GPa) = 0.01892134
#
# Stress axis : x y z
#
# Youngs Moduli (GPa) = 81.95875 45.68179 92.31135
#
# Poissons Ratio (x) = 0.27385 0.30329
# Poissons Ratio (y) = 0.49132 0.34353
# Poissons Ratio (z) = 0.26928 0.17000
#
# Static dielectric constant tensor:
#      x y z
#    x 3.473400 -0.000020 -0.066260 
#    y -0.000020 3.389360 0.000050 
#    z -0.066260 0.000050 3.651440 
# 
# 
# High freq. dielectric constant tensor:
#      x y z
#    x 1.735630 0.000000 -0.000740 
#    y 0.000000 1.727800 0.000000 
#    z -0.000740 0.000000 1.756550 
# 
# From -- ./inp_files/353300.got.cif
#   From: 2010.06.25/outbox.cif.g09.slc.cpg/sg12_177_cif.got.tgz:353300.got - 2010.06.28 00:19:55.
