data_PCOD8089681
_publ_section_title
;
Structure prediction by ZEFSAII (Michael W. Deem and Ramdas Pophale) SiO2 
 PCOD8089681
Probable space group: C 2/M
;
_chemical_formula_sum "Si O2"
_cell_formula_units_Z 48
_cell_length_a 19.159835
_cell_length_b 9.098841
_cell_length_c 27.100938
_cell_angle_alpha 90.000000
_cell_angle_beta 146.130682
_cell_angle_gamma 90.000000
_cell_volume 2633.004731
_symmetry_space_group_name_H-M "C 2/M"
_symmetry_group_IT_number 12
_symmetry_cell_setting 'monoclinic'
loop_
_space_group_symop_operation_xyz
x,y,z
-x,y,-z
-x,-y,-z
x,-y,z
1/2+x,1/2+y,z
1/2-x,1/2+y,-z
1/2-x,1/2-y,-z
1/2+x,1/2-y,z
loop_
_atom_site_type_symbol
_atom_site_label
_atom_site_fract_x
_atom_site_fract_y
_atom_site_fract_z
Si Si1 0.614036 0.331513 0.710846
Si Si2 0.454010 0.673350 0.026732
Si Si3 0.200064 0.170778 0.870331
Si Si4 0.628458 0.171992 0.408364
Si Si5 0.352749 0.168350 0.792072
Si Si6 0.042500 0.331684 0.250581
O O1 0.568715 0.500000 0.683045
O O2 0.685559 0.296836 0.803766
O O3 0.493125 0.229162 0.633481
O O4 0.709821 0.295198 0.722878
O O5 0.436876 0.500000 0.019476
O O6 0.553945 0.723230 0.125598
O O7 0.500000 0.724865 0.000000
O O8 0.322368 0.748124 0.962202
O O9 0.079958 0.232164 0.828955
O O10 0.213519 0.000000 0.890140
O O11 0.750000 0.250000 0.500000
O O12 0.615871 0.213137 0.343262
O O13 0.641285 0.000000 0.424930
O O14 0.363955 0.193511 0.740108
O O15 0.384781 0.000000 0.825635
O O16 0.997380 0.500000 0.227739
#
# Coordination Sequence:
#
# PCOD8089681 Si02
#       6
#     8   8   8   8   8   8
#     4   9  18  33  55  80 104 135 176 217 262 313
#     4  11  22  33  50  77 109 143 183 225 262 307
#     4  10  19  33  54  77 104 142 184 224 262 308
#     4  10  20  36  59  83 106 135 172 213 260 318
#     4  10  20  36  56  78 107 142 178 221 267 311
#     4   9  20  37  56  79 108 139 174 219 269 315
#
# _framework density 18.230122999999999
#
# number of rings (size 3 to 8) (size 9 to 14) (size 15 to 20)
#    0.000    2.167    1.667    1.500    0.000    4.000 
#    0.000    0.833    0.000    5.000    0.000    0.000 
#    0.000    0.000    0.000    0.000    0.000    0.000 
#
# Total GULP energy -297697.118925 kJ/mol
# GULP energy per Si atom -12404.046622 kJ/mol
# Density = 1.818863 g / cm^3
# Si number density = 18.230123 Si / 1000 Ang^3
#
#
#
# Elastic Constant Matrix: (Units=GPa)
#
#
# Indices 1 2 3 4 5 6 
#
# 1 118.2472 41.2660 50.5728 0.0000 17.9481 0.0000
# 2 41.2660 85.7704 61.0158 0.0000 10.2877 0.0001
# 3 50.5728 61.0158 120.3884 0.0000 15.2001 0.0000
# 4 0.0000 0.0000 0.0000 36.0895 0.0000 4.4489
# 5 17.9481 10.2877 15.2001 0.0000 22.0004 0.0000
# 6 0.0000 0.0001 0.0000 4.4489 0.0000 24.3578
#
#
#
# Elastic Compliance Matrix: (Units=1/GPa)
#
#
# Indices 1 2 3 4 5 6 
#
# 1 0.011538 -0.002994 -0.002539 0.000000 -0.006258 0.000000
# 2 -0.002994 0.019121 -0.008340 0.000000 -0.000736 0.000000
# 3 -0.002539 -0.008340 0.014074 0.000000 -0.003752 0.000000
# 4 0.000000 0.000000 0.000000 0.028347 0.000000 -0.005178
# 5 -0.006258 -0.000736 -0.003752 0.000000 0.053496 0.000000
# 6 0.000000 0.000000 0.000000 -0.005178 0.000000 0.042000
#
#
# Mechanical properties :
#
#
# Convention : Reuss Voigt Hill
#
# Bulk Modulus (GPa) = 58.87349 70.01282 64.44315
# Shear Modulus (GPa) = 24.75437 27.92630 26.34033
#
# Velocity S-wave (km/s) = 3.68894 3.91817 3.80528
# Velocity P-wave (km/s) = 7.10698 7.67840 7.39821
#
# Compressibility (1/GPa) = 0.01698557
#
# Stress axis : x y z
#
# Youngs Moduli (GPa) = 86.67349 52.29837 71.05356
#
# Poissons Ratio (x) = 0.15658 0.18041
# Poissons Ratio (y) = 0.25951 0.59261
# Poissons Ratio (z) = 0.22007 0.43618
#
# Static dielectric constant tensor:
#      x y z
#    x 3.438430 0.000000 0.120360 
#    y 0.000000 3.405060 0.000000 
#    z 0.120360 0.000000 3.172810 
# 
# 
# High freq. dielectric constant tensor:
#      x y z
#    x 1.702890 0.000000 0.013470 
#    y 0.000000 1.712710 0.000000 
#    z 0.013470 0.000000 1.692010 
# 
# From -- ./inp_files/221690.got.cif
#   From: 2010.06.25/outbox.cif.g09.slc.cpg/sg12_111_cif.got.tgz:221690.got - 2010.06.28 00:19:55.
