data_PCOD8089880
_publ_section_title
;
Structure prediction by ZEFSAII (Michael W. Deem and Ramdas Pophale) SiO2 
 PCOD8089880
Probable space group: C 2/M
;
_chemical_formula_sum "Si O2"
_cell_formula_units_Z 48
_cell_length_a 21.509289
_cell_length_b 9.584253
_cell_length_c 22.304510
_cell_angle_alpha 90.000000
_cell_angle_beta 147.836370
_cell_angle_gamma 90.000000
_cell_volume 2447.740176
_symmetry_space_group_name_H-M "C 2/M"
_symmetry_group_IT_number 12
_symmetry_cell_setting 'monoclinic'
loop_
_space_group_symop_operation_xyz
x,y,z
-x,y,-z
-x,-y,-z
x,-y,z
1/2+x,1/2+y,z
1/2-x,1/2+y,-z
1/2-x,1/2-y,-z
1/2+x,1/2-y,z
loop_
_atom_site_type_symbol
_atom_site_label
_atom_site_fract_x
_atom_site_fract_y
_atom_site_fract_z
Si Si1 0.955742 0.651796 0.029213
Si Si2 0.573454 0.339101 0.215411
Si Si3 0.647593 0.657502 0.890890
Si Si4 0.197459 0.839650 0.799820
Si Si5 0.288185 0.836191 0.472033
Si Si6 0.981772 0.663487 0.415258
O O1 0.947651 0.500000 0.055484
O O2 0.051417 0.749704 0.138192
O O3 0.826660 0.719648 0.920610
O O4 0.000000 0.625412 0.000000
O O5 0.566948 0.500000 0.191687
O O6 0.474206 0.294639 0.181068
O O7 0.696982 0.302141 0.345014
O O8 0.679820 0.500000 0.934819
O O9 0.625376 0.672872 0.802224
O O10 0.750000 0.750000 0.000000
O O11 0.134214 0.746559 0.698429
O O12 0.204901 0.000000 0.783084
O O13 0.250000 0.750000 0.500000
O O14 0.411613 0.793055 0.542275
O O15 0.285868 0.000000 0.487250
O O16 0.957102 0.500000 0.388533
O O17 0.000000 0.701959 0.500000
#
# Coordination Sequence:
#
# PCOD8089880 Si02
#       6
#     8   8   8   8   8   8
#     4  10  22  38  56  83 117 151 189 233 284 341
#     4  10  21  36  58  86 114 147 189 234 283 342
#     4  10  19  33  54  82 113 144 181 225 277 336
#     4  10  21  38  59  84 116 151 188 235 286 342
#     4  10  22  41  62  87 119 155 198 245 292 345
#     4  10  23  41  61  87 118 154 197 245 293 345
#
# _framework density 19.609925
#
# number of rings (size 3 to 8) (size 9 to 14) (size 15 to 20)
#    0.000    2.000    1.667    1.000    2.333    4.667 
#    0.000    0.000    0.000    0.000    0.000    0.000 
#    0.000    0.000    0.000    0.000    0.000    0.000 
#
# Total GULP energy -297523.181798 kJ/mol
# GULP energy per Si atom -12396.799242 kJ/mol
# Density = 1.956529 g / cm^3
# Si number density = 19.609925 Si / 1000 Ang^3
#
#
#
# Elastic Constant Matrix: (Units=GPa)
#
#
# Indices 1 2 3 4 5 6 
#
# 1 71.9508 24.8785 15.3007 0.0000 -7.3558 0.0000
# 2 24.8785 68.0976 57.4236 0.0000 -10.9181 0.0000
# 3 15.3007 57.4236 117.8807 0.0000 -7.5871 0.0000
# 4 0.0000 0.0000 0.0000 53.3242 0.0000 -16.1378
# 5 -7.3558 -10.9181 -7.5871 0.0000 29.1643 0.0000
# 6 0.0000 0.0000 0.0000 -16.1378 0.0000 34.4097
#
#
#
# Elastic Compliance Matrix: (Units=1/GPa)
#
#
# Indices 1 2 3 4 5 6 
#
# 1 0.016125 -0.006660 0.001274 0.000000 0.001905 0.000000
# 2 -0.006660 0.028856 -0.012820 0.000000 0.005788 0.000000
# 3 0.001274 -0.012820 0.014518 0.000000 -0.000701 0.000000
# 4 0.000000 0.000000 0.000000 0.021855 0.000000 0.010250
# 5 0.001905 0.005788 -0.000701 0.000000 0.036753 0.000000
# 6 0.000000 0.000000 0.000000 0.010250 0.000000 0.033869
#
#
# Mechanical properties :
#
#
# Convention : Reuss Voigt Hill
#
# Bulk Modulus (GPa) = 43.31380 50.34831 46.83106
# Shear Modulus (GPa) = 25.49931 34.06804 29.78367
#
# Velocity S-wave (km/s) = 3.60992 4.17260 3.90141
# Velocity P-wave (km/s) = 6.28578 6.99605 6.65040
#
# Compressibility (1/GPa) = 0.02308733
#
# Stress axis : x y z
#
# Youngs Moduli (GPa) = 62.01535 34.65452 68.88150
#
# Poissons Ratio (x) = 0.23079 -0.08774
# Poissons Ratio (y) = 0.41301 0.88305
# Poissons Ratio (z) = -0.07900 0.44427
#
# Static dielectric constant tensor:
#      x y z
#    x 4.376310 0.000000 1.567930 
#    y 0.000000 3.582350 0.000000 
#    z 1.567930 0.000000 6.686390 
# 
# 
# High freq. dielectric constant tensor:
#      x y z
#    x 1.771400 0.000000 0.006200 
#    y 0.000000 1.755570 0.000000 
#    z 0.006200 0.000000 1.764900 
# 
# From -- ./inp_files/172264.got.cif
#   From: 2010.06.25/outbox.cif.g09.slc.cpg/sg12_87_cif.got.tgz:172264.got - 2010.06.28 00:19:55.
