data_PCOD8089557
_publ_section_title
;
Structure prediction by ZEFSAII (Michael W. Deem and Ramdas Pophale) SiO2 
 PCOD8089557
Probable space group: C 2/M
;
_chemical_formula_sum "Si O2"
_cell_formula_units_Z 64
_cell_length_a 31.512338
_cell_length_b 11.955896
_cell_length_c 15.087217
_cell_angle_alpha 90.000000
_cell_angle_beta 144.893008
_cell_angle_gamma 90.000000
_cell_volume 3269.031477
_symmetry_space_group_name_H-M "C 2/M"
_symmetry_group_IT_number 12
_symmetry_cell_setting 'monoclinic'
loop_
_space_group_symop_operation_xyz
x,y,z
-x,y,-z
-x,-y,-z
x,-y,z
1/2+x,1/2+y,z
1/2-x,1/2+y,-z
1/2-x,1/2-y,-z
1/2+x,1/2-y,z
loop_
_atom_site_type_symbol
_atom_site_label
_atom_site_fract_x
_atom_site_fract_y
_atom_site_fract_z
Si Si1 0.318116 0.716236 0.216513
Si Si2 0.962973 0.127070 0.525767
Si Si3 0.663656 0.629384 0.401654
Si Si4 0.197927 0.742559 0.288284
Si Si5 0.334436 0.127006 0.090790
Si Si6 0.589307 0.868836 0.964403
Si Si7 0.944334 0.741625 0.662103
Si Si8 0.696761 0.871972 0.650285
O O1 0.374915 0.633991 0.362171
O O2 0.359642 0.786715 0.210148
O O3 0.284670 0.801828 0.230505
O O4 0.253751 0.638476 0.068991
O O5 0.985435 0.200940 0.648694
O O6 0.000000 0.175094 0.500000
O O7 0.987799 0.000000 0.585394
O O8 0.655172 0.500000 0.361909
O O9 0.742617 0.647272 0.584289
O O10 0.657504 0.707205 0.304795
O O11 0.596310 0.662908 0.350541
O O12 0.241413 0.844202 0.316644
O O13 0.136088 0.689722 0.120726
O O14 0.374682 0.157906 0.068691
O O15 0.353287 0.000000 0.151357
O O16 0.506301 0.820916 0.825498
O O17 0.587054 0.000000 0.980079
O O18 0.884983 0.651250 0.526969
O O19 0.702634 0.000000 0.686923
#
# Coordination Sequence:
#
# PCOD8089557 Si02
#       8
#     8   8   8   8   8   8   8   8
#     4  10  19  33  53  80 112 148 193 236 271 336
#     4  10  20  35  55  79 112 153 192 232 276 329
#     4  10  21  40  63  85 113 148 188 235 284 342
#     4  10  21  38  61  89 111 144 189 236 282 340
#     4  10  20  33  53  80 113 150 187 235 286 329
#     4  11  22  39  59  84 116 150 187 235 288 336
#     4  10  22  37  57  84 115 149 190 233 278 341
#     4  10  19  35  56  82 113 149 187 230 280 329
#
# _framework density 19.577663000000001
#
# number of rings (size 3 to 8) (size 9 to 14) (size 15 to 20)
#    0.000    1.875    1.250    3.000    0.000    0.500 
#    0.000    5.625    0.000    6.000    0.000    0.000 
#    0.000    0.000    0.000    0.000    0.000    0.000 
#
# Total GULP energy -396880.812719 kJ/mol
# GULP energy per Si atom -12402.525397 kJ/mol
# Density = 1.953310 g / cm^3
# Si number density = 19.577663 Si / 1000 Ang^3
#
#
#
# Elastic Constant Matrix: (Units=GPa)
#
#
# Indices 1 2 3 4 5 6 
#
# 1 99.1264 31.5783 20.9926 0.0000 -8.1128 0.0000
# 2 31.5783 82.0906 27.1538 0.0000 2.6272 0.0000
# 3 20.9926 27.1538 89.4370 0.0000 -1.7815 0.0000
# 4 0.0000 0.0000 0.0000 13.6124 0.0000 -3.3715
# 5 -8.1128 2.6272 -1.7815 0.0000 23.8713 0.0000
# 6 0.0000 0.0000 0.0000 -3.3715 0.0000 21.0802
#
#
#
# Elastic Compliance Matrix: (Units=1/GPa)
#
#
# Indices 1 2 3 4 5 6 
#
# 1 0.012144 -0.004338 -0.001444 0.000000 0.004497 0.000000
# 2 -0.004338 0.015169 -0.003655 0.000000 -0.003416 0.000000
# 3 -0.001444 -0.003655 0.012647 0.000000 0.000855 0.000000
# 4 0.000000 0.000000 0.000000 0.076493 0.000000 0.012234
# 5 0.004497 -0.003416 0.000855 0.000000 0.043859 0.000000
# 6 0.000000 0.000000 0.000000 0.012234 0.000000 0.049394
#
#
# Mechanical properties :
#
#
# Convention : Reuss Voigt Hill
#
# Bulk Modulus (GPa) = 47.42576 47.78928 47.60752
# Shear Modulus (GPa) = 21.22168 24.44141 22.83155
#
# Velocity S-wave (km/s) = 3.29595 3.53715 3.41868
# Velocity P-wave (km/s) = 6.22586 6.41444 6.32085
#
# Compressibility (1/GPa) = 0.02108559
#
# Stress axis : x y z
#
# Youngs Moduli (GPa) = 82.34657 65.92519 79.07174
#
# Poissons Ratio (x) = 0.28597 0.11417
# Poissons Ratio (y) = 0.35720 0.28903
# Poissons Ratio (z) = 0.11889 0.24097
#
# Static dielectric constant tensor:
#      x y z
#    x 3.635530 0.000000 -0.094800 
#    y 0.000000 3.358340 0.000000 
#    z -0.094800 0.000000 3.403250 
# 
# 
# High freq. dielectric constant tensor:
#      x y z
#    x 1.769910 0.000000 -0.005830 
#    y 0.000000 1.759020 0.000000 
#    z -0.005830 0.000000 1.752170 
# 
# From -- ./inp_files/250852.got.cif
#   From: 2010.06.25/outbox.cif.g09.slc.cpg/sg12_126_cif.got.tgz:250852.got - 2010.06.28 00:19:55.
