data_PCOD8089595
_publ_section_title
;
Structure prediction by ZEFSAII (Michael W. Deem and Ramdas Pophale) SiO2 
 PCOD8089595
Probable space group: C 2/M
;
_chemical_formula_sum "Si O2"
_cell_formula_units_Z 56
_cell_length_a 28.907535
_cell_length_b 15.302742
_cell_length_c 12.004799
_cell_angle_alpha 90.000000
_cell_angle_beta 30.967596
_cell_angle_gamma 90.000000
_cell_volume 2732.533571
_symmetry_space_group_name_H-M "C 2/M"
_symmetry_group_IT_number 12
_symmetry_cell_setting 'monoclinic'
loop_
_space_group_symop_operation_xyz
x,y,z
-x,y,-z
-x,-y,-z
x,-y,z
1/2+x,1/2+y,z
1/2-x,1/2+y,-z
1/2-x,1/2-y,-z
1/2+x,1/2-y,z
loop_
_atom_site_type_symbol
_atom_site_label
_atom_site_fract_x
_atom_site_fract_y
_atom_site_fract_z
Si Si1 0.406074 0.100005 0.244895
Si Si2 0.674089 0.631153 0.339597
Si Si3 0.979075 0.096997 0.671901
Si Si4 0.371662 0.177952 0.552847
Si Si5 0.176463 0.403457 0.808569
Si Si6 0.573433 0.784096 0.185166
Si Si7 0.823011 0.403682 0.866508
O O1 0.375866 0.150654 0.416369
O O2 0.326588 0.113022 0.317874
O O3 0.419662 0.000000 0.251643
O O4 0.500000 0.136362 0.000000
O O5 0.571737 0.599444 0.550802
O O6 0.686070 0.734641 0.321438
O O7 0.722652 0.594545 0.350693
O O8 0.723147 0.598878 0.125409
O O9 0.914739 0.177716 0.842303
O O10 0.000000 0.112147 0.500000
O O11 0.935523 0.000000 0.781645
O O12 0.469205 0.193565 0.403035
O O13 0.319989 0.109014 0.739113
O O14 0.133211 0.500000 0.920791
O O15 0.118058 0.327560 0.985434
O O16 0.616975 0.826590 0.204905
O O17 0.863660 0.500000 0.807958
#
# Coordination Sequence:
#
# PCOD8089595 Si02
#       7
#     8   8   8   8   8   8   8
#     4  10  20  35  56  82 113 146 187 234 281 333
#     4  10  21  37  55  79 114 150 188 228 275 337
#     4  10  20  35  55  78 108 148 191 230 272 327
#     4  11  21  33  53  82 115 148 185 233 274 328
#     4  10  20  36  59  83 113 149 185 228 279 336
#     4  10  19  33  53  83 113 145 185 227 279 334
#     4  11  22  35  56  85 120 151 180 224 283 342
#
# _framework density 20.493801999999999
#
# number of rings (size 3 to 8) (size 9 to 14) (size 15 to 20)
#    0.000    1.714    1.429    5.571    0.000    4.000 
#    0.000    0.000    0.000    3.429    0.000   10.000 
#    0.000    0.000    0.000    0.000    0.000    0.000 
#
# Total GULP energy -347038.160112 kJ/mol
# GULP energy per Si atom -12394.220004 kJ/mol
# Density = 2.044716 g / cm^3
# Si number density = 20.493802 Si / 1000 Ang^3
#
#
#
# Elastic Constant Matrix: (Units=GPa)
#
#
# Indices 1 2 3 4 5 6 
#
# 1 88.4613 39.6848 33.0551 0.0000 18.4595 0.0000
# 2 39.6848 177.2395 42.5014 0.0000 11.5472 0.0000
# 3 33.0551 42.5014 44.7794 0.0000 17.4297 0.0000
# 4 0.0000 0.0000 0.0000 19.7901 0.0000 -2.7701
# 5 18.4595 11.5472 17.4297 0.0000 31.4268 0.0000
# 6 0.0000 0.0000 0.0000 -2.7701 0.0000 27.8951
#
#
#
# Elastic Compliance Matrix: (Units=1/GPa)
#
#
# Indices 1 2 3 4 5 6 
#
# 1 0.016094 -0.001119 -0.009308 0.000000 -0.003880 0.000000
# 2 -0.001119 0.007437 -0.006918 0.000000 0.001762 0.000000
# 3 -0.009308 -0.006918 0.041641 0.000000 -0.015085 0.000000
# 4 0.000000 0.000000 0.000000 0.051243 0.000000 0.005089
# 5 -0.003880 0.001762 -0.015085 0.000000 0.041818 0.000000
# 6 0.000000 0.000000 0.000000 0.005089 0.000000 0.036354
#
#
# Mechanical properties :
#
#
# Convention : Reuss Voigt Hill
#
# Bulk Modulus (GPa) = 32.80728 60.10696 46.45712
# Shear Modulus (GPa) = 20.88228 28.83832 24.86030
#
# Velocity S-wave (km/s) = 3.19557 3.75530 3.48669
# Velocity P-wave (km/s) = 5.44598 6.94234 6.23918
#
# Compressibility (1/GPa) = 0.03048104
#
# Stress axis : x y z
#
# Youngs Moduli (GPa) = 62.13479 134.46660 24.01480
#
# Poissons Ratio (x) = 0.15042 0.22354
# Poissons Ratio (y) = 0.06951 0.16614
# Poissons Ratio (z) = 0.57837 0.93029
#
# Static dielectric constant tensor:
#      x y z
#    x 3.838400 0.000000 -0.065800 
#    y 0.000000 3.976920 0.000000 
#    z -0.065800 0.000000 3.344820 
# 
# 
# High freq. dielectric constant tensor:
#      x y z
#    x 1.806280 0.000000 -0.006320 
#    y 0.000000 1.813080 0.000000 
#    z -0.006320 0.000000 1.758630 
# 
# From -- ./inp_files/189610.got.cif
#   From: 2010.06.25/outbox.cif.g09.slc.cpg/sg12_95_cif.got.tgz:189610.got - 2010.06.28 00:19:55.
