data_PCOD8089687
_publ_section_title
;
Structure prediction by ZEFSAII (Michael W. Deem and Ramdas Pophale) SiO2 
 PCOD8089687
Probable space group: C 2/M
;
_chemical_formula_sum "Si O2"
_cell_formula_units_Z 48
_cell_length_a 16.830075
_cell_length_b 12.288852
_cell_length_c 11.605085
_cell_angle_alpha 90.000000
_cell_angle_beta 87.449294
_cell_angle_gamma 90.000000
_cell_volume 2397.812339
_symmetry_space_group_name_H-M "C 2/M"
_symmetry_group_IT_number 12
_symmetry_cell_setting 'monoclinic'
loop_
_space_group_symop_operation_xyz
x,y,z
-x,y,-z
-x,-y,-z
x,-y,z
1/2+x,1/2+y,z
1/2-x,1/2+y,-z
1/2-x,1/2-y,-z
1/2+x,1/2-y,z
loop_
_atom_site_type_symbol
_atom_site_label
_atom_site_fract_x
_atom_site_fract_y
_atom_site_fract_z
Si Si1 0.916066 0.716845 0.545057
Si Si2 0.973402 0.126929 0.739556
Si Si3 0.640539 0.275838 0.696996
Si Si4 0.181461 0.373383 0.894496
Si Si5 0.849890 0.784617 0.910140
Si Si6 0.802419 0.381101 0.721276
O O1 0.932127 0.817266 0.631281
O O2 0.868862 0.755749 0.436965
O O3 0.859609 0.627730 0.606670
O O4 0.000000 0.663885 0.500000
O O5 0.925592 0.146321 0.862409
O O6 0.060954 0.173891 0.756418
O O7 0.977213 0.000000 0.711498
O O8 0.665253 0.165187 0.764053
O O9 0.710560 0.363184 0.698310
O O10 0.154745 0.500000 0.909505
O O11 0.273906 0.364534 0.927706
O O12 0.132225 0.286566 0.976290
O O13 0.831934 0.699419 0.813870
O O14 0.811537 0.500000 0.773358
#
# Coordination Sequence:
#
# PCOD8089687 Si02
#       6
#     8   8   8   8   8   8
#     4   9  20  36  53  78 109 139 181 226 261 319
#     4  10  20  37  59  79 106 143 179 224 277 317
#     4  10  21  35  52  83 112 136 181 225 261 323
#     4  10  20  37  59  79 109 147 178 219 273 320
#     4   9  20  37  56  82 106 135 187 227 257 320
#     4  10  19  33  54  77 107 142 174 220 273 315
#
# _framework density 20.018248
#
# number of rings (size 3 to 8) (size 9 to 14) (size 15 to 20)
#    0.000    2.333    0.000    2.000    0.000    5.333 
#    0.000   11.667    0.000    0.000    0.000    0.000 
#    0.000    0.000    0.000    0.000    0.000    0.000 
#
# Total GULP energy -297474.171600 kJ/mol
# GULP energy per Si atom -12394.757150 kJ/mol
# Density = 1.997269 g / cm^3
# Si number density = 20.018248 Si / 1000 Ang^3
#
#
#
# Elastic Constant Matrix: (Units=GPa)
#
#
# Indices 1 2 3 4 5 6 
#
# 1 73.0605 25.5245 21.1804 0.0000 -9.6137 0.0000
# 2 25.5245 89.5062 22.1556 0.0000 10.0662 0.0000
# 3 21.1804 22.1556 71.1473 0.0000 -11.2279 0.0000
# 4 0.0000 0.0000 0.0000 -15.6277 0.0000 2.1708
# 5 -9.6137 10.0662 -11.2279 0.0000 23.3875 0.0000
# 6 0.0000 0.0000 0.0000 2.1708 0.0000 13.9406
#
#
#
# Elastic Compliance Matrix: (Units=1/GPa)
#
#
# Indices 1 2 3 4 5 6 
#
# 1 0.017277 -0.005331 -0.002164 0.000000 0.008357 0.000000
# 2 -0.005331 0.015141 -0.004871 0.000000 -0.011047 0.000000
# 3 -0.002164 -0.004871 0.017752 0.000000 0.009729 0.000000
# 4 0.000000 0.000000 0.000000 -0.062634 0.000000 0.009753
# 5 0.008357 -0.011047 0.009729 0.000000 0.055619 0.000000
# 6 0.000000 0.000000 0.000000 0.009753 0.000000 0.070214
#
#
# Mechanical properties :
#
#
# Convention : Reuss Voigt Hill
#
# Bulk Modulus (GPa) = 39.31335 41.27052 40.29194
# Shear Modulus (GPa) = 34.11113 15.33033 24.72073
#
# Velocity S-wave (km/s) = 4.13243 2.77034 3.51794
# Velocity P-wave (km/s) = 6.51542 5.55826 6.05578
#
# Compressibility (1/GPa) = 0.02543665
#
# Stress axis : x y z
#
# Youngs Moduli (GPa) = 57.88087 66.04683 56.33185
#
# Poissons Ratio (x) = 0.35210 0.12192
# Poissons Ratio (y) = 0.30856 0.27440
# Poissons Ratio (z) = 0.12527 0.32172
#
# Static dielectric constant tensor:
#      x y z
#    x 4.059850 0.000000 -0.313990 
#    y 0.000000 3.519600 0.000000 
#    z -0.313990 0.000000 3.936700 
# 
# 
# High freq. dielectric constant tensor:
#      x y z
#    x 1.780910 0.000000 -0.010880 
#    y 0.000000 1.765310 0.000000 
#    z -0.010880 0.000000 1.789590 
# 
# From -- ./inp_files/153517.got.cif
#   From: 2010.06.25/outbox.cif.g09.slc.cpg/sg12_77_cif.got.tgz:153517.got - 2010.06.28 00:19:55.
