data_PCOD8089792
_publ_section_title
;
Structure prediction by ZEFSAII (Michael W. Deem and Ramdas Pophale) SiO2 
 PCOD8089792
Probable space group: C 2/M
;
_chemical_formula_sum "Si O2"
_cell_formula_units_Z 64
_cell_length_a 26.908554
_cell_length_b 14.418910
_cell_length_c 9.890109
_cell_angle_alpha 90.000000
_cell_angle_beta 110.865101
_cell_angle_gamma 90.000000
_cell_volume 3585.640416
_symmetry_space_group_name_H-M "C 2/M"
_symmetry_group_IT_number 12
_symmetry_cell_setting 'monoclinic'
loop_
_space_group_symop_operation_xyz
x,y,z
-x,y,-z
-x,-y,-z
x,-y,z
1/2+x,1/2+y,z
1/2-x,1/2+y,-z
1/2-x,1/2-y,-z
1/2+x,1/2-y,z
loop_
_atom_site_type_symbol
_atom_site_label
_atom_site_fract_x
_atom_site_fract_y
_atom_site_fract_z
Si Si1 0.572651 0.759339 0.194096
Si Si2 0.151683 0.897800 0.217877
Si Si3 0.738093 0.820613 0.604480
Si Si4 0.871450 0.106787 0.111988
Si Si5 0.610278 0.110116 0.743397
Si Si6 0.547685 0.240878 0.863709
Si Si7 0.297443 0.752343 0.150665
Si Si8 0.124902 0.395312 0.452570
O O1 0.609601 0.669648 0.248134
O O2 0.514766 0.739065 0.198117
O O3 0.599433 0.839858 0.305458
O O4 0.568868 0.787243 0.033038
O O5 0.211169 0.885717 0.328594
O O6 0.131641 0.000000 0.236616
O O7 0.154691 0.885272 0.060242
O O8 0.750000 0.750000 0.500000
O O9 0.726868 0.758673 0.724854
O O10 0.688370 0.884500 0.518131
O O11 0.926882 0.162984 0.164443
O O12 0.831156 0.156836 0.176392
O O13 0.881230 0.000000 0.165298
O O14 0.561294 0.154392 0.778967
O O15 0.664837 0.159084 0.846029
O O16 0.600870 0.132583 0.575672
O O17 0.614300 0.000000 0.774096
O O18 0.250000 0.750000 0.000000
O O19 0.110430 0.500000 0.405641
#
# Coordination Sequence:
#
# PCOD8089792 Si02
#       8
#     8   8   8   8   8   8   8   8
#     4  10  20  36  55  80 108 138 178 223 271 313
#     4  10  19  33  56  80 106 142 180 214 260 318
#     4  11  20  34  55  78 111 143 172 215 264 315
#     4   9  18  34  56  81 107 139 177 218 263 314
#     4   9  20  36  55  79 105 139 181 220 263 318
#     4   9  20  36  56  79 108 138 174 228 271 311
#     4  10  19  33  54  80 109 138 177 217 262 310
#     4  10  21  36  55  79 107 141 179 219 263 320
#
# _framework density 17.848973999999998
#
# number of rings (size 3 to 8) (size 9 to 14) (size 15 to 20)
#    0.000    2.250    2.500    0.375    0.000    3.000 
#    0.000    6.250    0.000    0.000    0.000    3.500 
#    0.000    0.000    0.000    0.000    0.000    0.000 
#
# Total GULP energy -396775.258027 kJ/mol
# GULP energy per Si atom -12399.226813 kJ/mol
# Density = 1.780835 g / cm^3
# Si number density = 17.848974 Si / 1000 Ang^3
#
#
#
# Elastic Constant Matrix: (Units=GPa)
#
#
# Indices 1 2 3 4 5 6 
#
# 1 119.7859 55.4658 47.8439 0.0000 -0.7516 0.0000
# 2 55.4658 132.1220 47.5720 0.0000 -5.0597 0.0000
# 3 47.8439 47.5720 69.3761 0.0000 3.0281 0.0000
# 4 0.0000 0.0000 0.0000 22.1471 0.0000 -10.0131
# 5 -0.7516 -5.0597 3.0281 0.0000 29.4597 0.0000
# 6 0.0000 0.0000 0.0000 -10.0131 0.0000 9.1082
#
#
#
# Elastic Compliance Matrix: (Units=1/GPa)
#
#
# Indices 1 2 3 4 5 6 
#
# 1 0.012258 -0.002754 -0.006587 0.000000 0.000517 0.000000
# 2 -0.002754 0.010848 -0.005642 0.000000 0.002373 0.000000
# 3 -0.006587 -0.005642 0.022979 0.000000 -0.003499 0.000000
# 4 0.000000 0.000000 0.000000 0.089773 0.000000 0.098691
# 5 0.000517 0.002373 -0.003499 0.000000 0.034725 0.000000
# 6 0.000000 0.000000 0.000000 0.098691 0.000000 0.218287
#
#
# Mechanical properties :
#
#
# Convention : Reuss Voigt Hill
#
# Bulk Modulus (GPa) = 62.04949 69.22749 65.63849
# Shear Modulus (GPa) = 11.78665 23.50316 17.64490
#
# Velocity S-wave (km/s) = 2.57252 3.63268 3.14756
# Velocity P-wave (km/s) = 6.60779 7.51429 7.07557
#
# Compressibility (1/GPa) = 0.01611617
#
# Stress axis : x y z
#
# Youngs Moduli (GPa) = 81.58018 92.18702 43.51854
#
# Poissons Ratio (x) = 0.25391 0.28667
# Poissons Ratio (y) = 0.22470 0.24555
# Poissons Ratio (z) = 0.53739 0.52015
#
# Static dielectric constant tensor:
#      x y z
#    x 3.388790 0.000000 -0.018540 
#    y 0.000000 3.651900 0.000000 
#    z -0.018540 0.000000 3.322480 
# 
# 
# High freq. dielectric constant tensor:
#      x y z
#    x 1.698220 0.000000 -0.000820 
#    y 0.000000 1.688440 0.000000 
#    z -0.000820 0.000000 1.681700 
# 
# From -- ./inp_files/104669.got.cif
#   From: 2010.06.25/outbox.cif.g09.slc.cpg/sg12_53_cif.got.tgz:104669.got - 2010.06.28 00:19:55.
