data_PCOD8089708
_publ_section_title
;
Structure prediction by ZEFSAII (Michael W. Deem and Ramdas Pophale) SiO2 
 PCOD8089708
Probable space group: C 2/M
;
_chemical_formula_sum "Si O2"
_cell_formula_units_Z 64
_cell_length_a 23.232017
_cell_length_b 17.791155
_cell_length_c 21.703418
_cell_angle_alpha 90.000000
_cell_angle_beta 22.898359
_cell_angle_gamma 90.000000
_cell_volume 3490.420170
_symmetry_space_group_name_H-M "C 2/M"
_symmetry_group_IT_number 12
_symmetry_cell_setting 'monoclinic'
loop_
_space_group_symop_operation_xyz
x,y,z
-x,y,-z
-x,-y,-z
x,-y,z
1/2+x,1/2+y,z
1/2-x,1/2+y,-z
1/2-x,1/2-y,-z
1/2+x,1/2-y,z
loop_
_atom_site_type_symbol
_atom_site_label
_atom_site_fract_x
_atom_site_fract_y
_atom_site_fract_z
Si Si1 0.814081 0.417205 0.476333
Si Si2 0.630490 0.357497 0.551553
Si Si3 0.843048 0.717191 0.763936
Si Si4 0.139712 0.085847 0.405927
Si Si5 0.691231 0.787568 0.432004
Si Si6 0.844705 0.586089 0.855063
Si Si7 0.816070 0.819296 0.897212
Si Si8 0.327617 0.226017 0.182505
O O1 0.787418 0.500000 0.528797
O O2 0.735578 0.410454 0.487897
O O3 0.754517 0.362521 0.587834
O O4 0.985428 0.400235 0.297181
O O5 0.593796 0.396621 0.521989
O O6 0.716165 0.279790 0.455550
O O7 0.489163 0.338065 0.733440
O O8 0.793901 0.641663 0.849672
O O9 0.796687 0.794120 0.845396
O O10 0.755614 0.725162 0.787146
O O11 0.019878 0.713444 0.578071
O O12 0.263990 0.142643 0.257962
O O13 0.000000 0.097852 0.500000
O O14 0.198133 0.000000 0.343892
O O15 0.803667 0.778031 0.265310
O O16 0.808900 0.500000 0.871865
O O17 0.765699 0.605956 0.998053
O O18 0.750000 0.750000 0.000000
O O19 0.500000 0.217295 0.000000
#
# Coordination Sequence:
#
# PCOD8089708 Si02
#       8
#     8   8   8   8   8   8   8   8
#     4  10  20  34  52  78 108 135 171 217 264 311
#     4  10  19  33  54  78 105 139 176 212 259 312
#     4   9  18  36  55  73 102 140 179 213 256 317
#     4  10  21  38  57  77 106 143 178 210 253 314
#     4   9  19  35  55  73  99 140 178 212 255 317
#     4   9  19  34  53  78 107 139 174 217 263 308
#     4   9  18  31  51  76 102 134 171 210 251 303
#     4  11  22  35  55  80 103 132 175 224 266 305
#
# _framework density 18.335901
#
# number of rings (size 3 to 8) (size 9 to 14) (size 15 to 20)
#    0.000    2.375    0.000    4.125    0.000    5.250 
#    0.000    1.250    0.000    3.750    0.000    0.000 
#    0.000    0.000    0.000    0.000    0.000    0.000 
#
# Total GULP energy -396527.494469 kJ/mol
# GULP energy per Si atom -12391.484202 kJ/mol
# Density = 1.829417 g / cm^3
# Si number density = 18.335901 Si / 1000 Ang^3
#
#
#
# Elastic Constant Matrix: (Units=GPa)
#
#
# Indices 1 2 3 4 5 6 
#
# 1 97.8431 59.3865 49.3842 0.0024 3.0563 -0.0029
# 2 59.3865 119.0645 49.5505 0.0025 10.6699 -0.0042
# 3 49.3842 49.5505 105.1648 0.0097 17.9697 -0.0112
# 4 0.0024 0.0025 0.0097 23.4414 -0.0107 1.4533
# 5 3.0563 10.6699 17.9697 -0.0107 17.7289 0.0051
# 6 -0.0029 -0.0042 -0.0112 1.4533 0.0051 21.4184
#
#
#
# Elastic Compliance Matrix: (Units=1/GPa)
#
#
# Indices 1 2 3 4 5 6 
#
# 1 0.017129 -0.006631 -0.006164 0.000005 0.007286 -0.000004
# 2 -0.006631 0.013051 -0.002284 -0.000002 -0.004396 0.000002
# 3 -0.006164 -0.002284 0.015800 -0.000012 -0.013577 0.000011
# 4 0.000005 -0.000002 -0.000012 0.042840 0.000040 -0.002907
# 5 0.007286 -0.004396 -0.013577 0.000040 0.071556 -0.000027
# 6 -0.000004 0.000002 0.000011 -0.002907 -0.000027 0.046886
#
#
# Mechanical properties :
#
#
# Convention : Reuss Voigt Hill
#
# Bulk Modulus (GPa) = 63.20826 70.96830 67.08828
# Shear Modulus (GPa) = 20.60214 23.43448 22.01831
#
# Velocity S-wave (km/s) = 3.35564 3.57888 3.46906
# Velocity P-wave (km/s) = 7.03996 7.47439 7.26042
#
# Compressibility (1/GPa) = 0.01582072
#
# Stress axis : x y z
#
# Youngs Moduli (GPa) = 58.38114 76.62397 63.29302
#
# Poissons Ratio (x) = 0.50810 0.39014
# Poissons Ratio (y) = 0.38713 0.14456
# Poissons Ratio (z) = 0.35986 0.17501
#
# Static dielectric constant tensor:
#      x y z
#    x 3.279680 -0.000050 0.178810 
#    y -0.000050 3.598360 -0.000030 
#    z 0.178810 -0.000030 3.434780 
# 
# 
# High freq. dielectric constant tensor:
#      x y z
#    x 1.698790 0.000000 0.009790 
#    y 0.000000 1.714480 0.000000 
#    z 0.009790 0.000000 1.705330 
# 
# From -- ./inp_files/326085.got.cif
#   From: 2010.06.25/outbox.cif.g09.slc.cpg/sg12_164_cif.got.tgz:326085.got - 2010.06.28 00:19:55.
