data_PCOD8089402
_publ_section_title
;
Structure prediction by ZEFSAII (Michael W. Deem and Ramdas Pophale) SiO2 
 PCOD8089402
Probable space group: C 2/M
;
_chemical_formula_sum "Si O2"
_cell_formula_units_Z 64
_cell_length_a 29.571558
_cell_length_b 9.233585
_cell_length_c 14.786982
_cell_angle_alpha 90.000000
_cell_angle_beta 118.898197
_cell_angle_gamma 90.000000
_cell_volume 3534.843571
_symmetry_space_group_name_H-M "C 2/M"
_symmetry_group_IT_number 12
_symmetry_cell_setting 'monoclinic'
loop_
_space_group_symop_operation_xyz
x,y,z
-x,y,-z
-x,-y,-z
x,-y,z
1/2+x,1/2+y,z
1/2-x,1/2+y,-z
1/2-x,1/2-y,-z
1/2+x,1/2-y,z
loop_
_atom_site_type_symbol
_atom_site_label
_atom_site_fract_x
_atom_site_fract_y
_atom_site_fract_z
Si Si1 0.876914 0.169888 0.764012
Si Si2 0.749780 0.830526 0.905450
Si Si3 0.639200 0.829884 0.725703
Si Si4 0.859795 0.829468 0.947145
Si Si5 0.697205 0.168706 0.434023
Si Si6 0.039539 0.168443 0.300781
Si Si7 0.611804 0.833106 0.498197
Si Si8 0.078183 0.827935 0.821622
O O1 0.883430 0.221055 0.874133
O O2 0.829914 0.261590 0.678899
O O3 0.929439 0.206115 0.761068
O O4 0.862915 0.000000 0.743954
O O5 0.699135 0.789299 0.799273
O O6 0.800020 0.780552 0.897226
O O7 0.751924 0.000000 0.928847
O O8 0.750000 0.750000 0.000000
O O9 0.623718 0.779133 0.610556
O O10 0.603118 0.742689 0.758200
O O11 0.630112 0.000000 0.731058
O O12 0.864016 0.000000 0.958155
O O13 0.893427 0.764269 0.061887
O O14 0.750000 0.250000 0.500000
O O15 0.662888 0.195077 0.489387
O O16 0.707117 0.000000 0.425362
O O17 0.063391 0.247187 0.410821
O O18 0.981238 0.220590 0.229628
O O19 0.042414 0.000000 0.325317
O O20 0.595944 0.000000 0.481763
O O21 0.083988 0.000000 0.819490
#
# Coordination Sequence:
#
# PCOD8089402 Si02
#       8
#     8   8   8   8   8   8   8   8
#     4   9  18  34  55  77 104 138 174 214 258 307
#     4  10  19  33  53  75 104 137 171 212 259 308
#     4  10  21  35  53  78 104 136 178 217 255 307
#     4   9  18  32  54  79 104 138 173 208 257 313
#     4  10  20  34  53  77 105 138 174 215 261 310
#     4   9  19  35  55  79 106 134 171 221 264 303
#     4   9  20  37  55  74 102 139 176 214 258 311
#     4  10  20  35  54  78 107 138 174 215 262 310
#
# _framework density 18.105468999999999
#
# number of rings (size 3 to 8) (size 9 to 14) (size 15 to 20)
#    0.000    2.500    1.250    0.375    1.750    2.500 
#    0.000    6.250    0.000    0.000    0.000    4.375 
#    0.000    0.000    0.000    0.000    0.000    0.000 
#
# Total GULP energy -396814.964874 kJ/mol
# GULP energy per Si atom -12400.467652 kJ/mol
# Density = 1.806426 g / cm^3
# Si number density = 18.105469 Si / 1000 Ang^3
#
#
#
# Elastic Constant Matrix: (Units=GPa)
#
#
# Indices 1 2 3 4 5 6 
#
# 1 125.4861 40.8596 92.9883 0.0000 11.5734 0.0000
# 2 40.8596 43.4733 44.5075 0.0000 4.0268 0.0000
# 3 92.9883 44.5075 151.0668 0.0000 -12.2053 0.0000
# 4 0.0000 0.0000 0.0000 27.6333 0.0000 -0.4978
# 5 11.5734 4.0268 -12.2053 0.0000 33.1605 0.0000
# 6 0.0000 0.0000 0.0000 -0.4978 0.0000 27.5751
#
#
#
# Elastic Compliance Matrix: (Units=1/GPa)
#
#
# Indices 1 2 3 4 5 6 
#
# 1 0.018476 -0.005785 -0.010443 0.000000 -0.009589 0.000000
# 2 -0.005785 0.036832 -0.007718 0.000000 -0.005294 0.000000
# 3 -0.010443 -0.007718 0.016173 0.000000 0.010535 0.000000
# 4 0.000000 0.000000 0.000000 0.036200 0.000000 0.000654
# 5 -0.009589 -0.005294 0.010535 0.000000 0.038023 0.000000
# 6 0.000000 0.000000 0.000000 0.000654 0.000000 0.036276
#
#
# Mechanical properties :
#
#
# Convention : Reuss Voigt Hill
#
# Bulk Modulus (GPa) = 42.39462 75.19299 58.79380
# Shear Modulus (GPa) = 21.03175 27.11851 24.07513
#
# Velocity S-wave (km/s) = 3.41196 3.87435 3.65048
# Velocity P-wave (km/s) = 6.24405 7.85078 7.09306
#
# Compressibility (1/GPa) = 0.02358790
#
# Stress axis : x y z
#
# Youngs Moduli (GPa) = 54.12554 27.15005 61.83260
#
# Poissons Ratio (x) = 0.15707 0.64571
# Poissons Ratio (y) = 0.31313 0.47724
# Poissons Ratio (z) = 0.56522 0.20955
#
# Static dielectric constant tensor:
#      x y z
#    x 3.624850 0.000000 0.030350 
#    y 0.000000 3.259520 0.000000 
#    z 0.030350 0.000000 3.749360 
# 
# 
# High freq. dielectric constant tensor:
#      x y z
#    x 1.706340 0.000000 0.000940 
#    y 0.000000 1.683140 0.000000 
#    z 0.000940 0.000000 1.709110 
# 
# From -- ./inp_files/249128.got.cif
#   From: 2010.06.25/outbox.cif.g09.slc.cpg/sg12_125_cif.got.tgz:249128.got - 2010.06.28 00:19:55.
