data_PCOD8089260
_publ_section_title
;
Structure prediction by ZEFSAII (Michael W. Deem and Ramdas Pophale) SiO2 
 PCOD8089260
Probable space group: C 2/M
;
_chemical_formula_sum "Si O2"
_cell_formula_units_Z 64
_cell_length_a 14.664352
_cell_length_b 9.418197
_cell_length_c 29.869145
_cell_angle_alpha 90.000000
_cell_angle_beta 119.845140
_cell_angle_gamma 90.000000
_cell_volume 3578.159218
_symmetry_space_group_name_H-M "C 2/M"
_symmetry_group_IT_number 12
_symmetry_cell_setting 'monoclinic'
loop_
_space_group_symop_operation_xyz
x,y,z
-x,y,-z
-x,-y,-z
x,-y,z
1/2+x,1/2+y,z
1/2-x,1/2+y,-z
1/2-x,1/2-y,-z
1/2+x,1/2-y,z
loop_
_atom_site_type_symbol
_atom_site_label
_atom_site_fract_x
_atom_site_fract_y
_atom_site_fract_z
Si Si1 0.717402 0.331357 0.693861
Si Si2 0.076706 0.167065 0.242780
Si Si3 0.921194 0.832385 0.422315
Si Si4 0.846592 0.831170 0.500393
Si Si5 0.141655 0.832044 0.772293
Si Si6 0.482607 0.335899 0.871999
Si Si7 0.180310 0.333812 0.117916
Si Si8 0.781028 0.836666 0.050716
O O1 0.734693 0.500000 0.696404
O O2 0.827691 0.254349 0.713000
O O3 0.638730 0.276554 0.636178
O O4 0.668929 0.281452 0.729113
O O5 0.064393 0.204090 0.187620
O O6 0.973838 0.223521 0.243509
O O7 0.095123 0.000000 0.254708
O O8 0.857325 0.783353 0.450989
O O9 0.042835 0.781768 0.450081
O O10 0.924355 0.000000 0.424325
O O11 0.750000 0.750000 0.500000
O O12 0.827948 0.000000 0.500700
O O13 0.226536 0.770890 0.828156
O O14 0.141717 0.000000 0.776903
O O15 0.464130 0.500000 0.878332
O O16 0.427396 0.243897 0.896626
O O17 0.604684 0.296290 0.902839
O O18 0.166750 0.500000 0.123615
O O19 0.201011 0.301513 0.071088
O O20 0.775858 0.000000 0.035681
O O21 0.750000 0.750000 0.000000
#
# Coordination Sequence:
#
# PCOD8089260 Si02
#       8
#     8   8   8   8   8   8   8   8
#     4  10  19  33  53  77 104 137 177 214 250 304
#     4  10  19  33  52  76 105 137 169 208 259 306
#     4   8  17  33  51  73 106 142 172 209 260 312
#     4   9  17  33  55  76 101 138 179 215 257 307
#     4   9  17  31  52  74  99 134 171 204 248 305
#     4  10  20  35  55  77 104 136 167 207 260 309
#     4  10  19  35  57  78 100 133 174 211 247 301
#     4  10  22  39  57  77 105 136 169 211 259 308
#
# _framework density 17.886292000000001
#
# number of rings (size 3 to 8) (size 9 to 14) (size 15 to 20)
#    0.000    2.500    2.500    0.750    0.000    2.500 
#    0.000    7.500    0.000    0.000    0.000    0.000 
#    0.000    0.000    0.000    0.000    0.000    0.000 
#
# Total GULP energy -396756.338107 kJ/mol
# GULP energy per Si atom -12398.635566 kJ/mol
# Density = 1.784558 g / cm^3
# Si number density = 17.886292 Si / 1000 Ang^3
#
#
#
# Elastic Constant Matrix: (Units=GPa)
#
#
# Indices 1 2 3 4 5 6 
#
# 1 100.2420 33.3427 7.7728 0.0000 -9.7042 0.0000
# 2 33.3427 32.9663 24.5915 0.0000 -1.3316 0.0000
# 3 7.7728 24.5915 82.3315 0.0000 -8.4785 0.0000
# 4 0.0000 0.0000 0.0000 22.5317 0.0000 4.0559
# 5 -9.7042 -1.3316 -8.4785 0.0000 18.2964 0.0000
# 6 0.0000 0.0000 0.0000 4.0559 0.0000 33.5629
#
#
#
# Elastic Compliance Matrix: (Units=1/GPa)
#
#
# Indices 1 2 3 4 5 6 
#
# 1 0.017930 -0.022210 0.006042 0.000000 0.010694 0.000000
# 2 -0.022210 0.066669 -0.019459 0.000000 -0.015945 0.000000
# 3 0.006042 -0.019459 0.018452 0.000000 0.010339 0.000000
# 4 0.000000 0.000000 0.000000 0.045369 0.000000 -0.005483
# 5 0.010694 -0.015945 0.010339 0.000000 0.063958 0.000000
# 6 0.000000 0.000000 0.000000 -0.005483 0.000000 0.030457
#
#
# Mechanical properties :
#
#
# Convention : Reuss Voigt Hill
#
# Bulk Modulus (GPa) = 31.44770 38.55044 34.99907
# Shear Modulus (GPa) = 15.39935 24.86704 20.13320
#
# Velocity S-wave (km/s) = 2.93739 3.73270 3.35867
# Velocity P-wave (km/s) = 5.39672 6.33855 5.88650
#
# Compressibility (1/GPa) = 0.03179883
#
# Stress axis : x y z
#
# Youngs Moduli (GPa) = 55.77173 14.99942 54.19357
#
# Poissons Ratio (x) = 0.33314 -0.32746
# Poissons Ratio (y) = 1.23871 1.05453
# Poissons Ratio (z) = -0.33700 0.29187
#
# Static dielectric constant tensor:
#      x y z
#    x 3.427940 0.000000 -0.062930 
#    y 0.000000 2.978310 0.000000 
#    z -0.062930 0.000000 3.850060 
# 
# 
# High freq. dielectric constant tensor:
#      x y z
#    x 1.703340 0.000000 -0.000340 
#    y 0.000000 1.659240 0.000000 
#    z -0.000340 0.000000 1.694320 
# 
# From -- ./inp_files/375046.got.cif
#   From: 2010.06.25/outbox.cif.g09.slc.cpg/sg12_188_cif.got.tgz:375046.got - 2010.06.28 00:19:55.
