data_PCOD8089985
_publ_section_title
;
Structure prediction by ZEFSAII (Michael W. Deem and Ramdas Pophale) SiO2 
 PCOD8089985
Probable space group: C 2/M
;
_chemical_formula_sum "Si O2"
_cell_formula_units_Z 64
_cell_length_a 30.602479
_cell_length_b 8.980915
_cell_length_c 16.391765
_cell_angle_alpha 90.000000
_cell_angle_beta 131.758715
_cell_angle_gamma 90.000000
_cell_volume 3360.594971
_symmetry_space_group_name_H-M "C 2/M"
_symmetry_group_IT_number 12
_symmetry_cell_setting 'monoclinic'
loop_
_space_group_symop_operation_xyz
x,y,z
-x,y,-z
-x,-y,-z
x,-y,z
1/2+x,1/2+y,z
1/2-x,1/2+y,-z
1/2-x,1/2-y,-z
1/2+x,1/2-y,z
loop_
_atom_site_type_symbol
_atom_site_label
_atom_site_fract_x
_atom_site_fract_y
_atom_site_fract_z
Si Si1 0.637483 0.324386 0.094989
Si Si2 0.078033 0.824416 0.855081
Si Si3 0.564021 0.163025 0.589121
Si Si4 0.153801 0.828115 0.799509
Si Si5 0.044404 0.322181 0.287999
Si Si6 0.637714 0.838905 0.526296
Si Si7 0.442501 0.175528 0.881582
Si Si8 0.730325 0.822370 0.766639
O O1 0.636647 0.500000 0.104845
O O2 0.614320 0.249763 0.148583
O O3 0.703586 0.268778 0.162410
O O4 0.597134 0.273847 0.969195
O O5 0.133380 0.781147 0.865451
O O6 0.017248 0.743436 0.755355
O O7 0.066876 0.000000 0.835395
O O8 0.500000 0.226948 0.500000
O O9 0.597130 0.294732 0.675433
O O10 0.587399 0.136336 0.528685
O O11 0.566072 0.000000 0.636968
O O12 0.207632 0.735494 0.826954
O O13 0.171457 0.000000 0.817620
O O14 0.041339 0.500000 0.293536
O O15 0.102408 0.257843 0.408100
O O16 0.053090 0.271194 0.205827
O O17 0.692255 0.757829 0.641505
O O18 0.660521 0.000000 0.522537
O O19 0.435591 0.000000 0.880353
O O20 0.500000 0.232814 0.000000
O O21 0.722758 0.000000 0.759543
#
# Coordination Sequence:
#
# PCOD8089985 Si02
#       8
#     8   8   8   8   8   8   8   8
#     4  10  21  37  57  76 100 138 175 211 256 305
#     4  10  21  34  49  76 109 136 169 212 258 308
#     4   9  16  28  47  70  97 133 178 215 247 299
#     4  10  20  32  47  72 106 139 170 211 261 304
#     4  10  19  33  55  79 104 134 168 210 259 307
#     4   8  15  29  50  73  97 130 170 210 247 290
#     4  10  20  35  54  81 109 130 163 210 260 312
#     4   9  19  37  56  74  99 136 183 217 242 296
#
# _framework density 19.044248
#
# number of rings (size 3 to 8) (size 9 to 14) (size 15 to 20)
#    0.000    2.500    1.250    1.875    0.000    4.000 
#    0.000    4.375    0.000    0.000    0.000    0.000 
#    0.000    0.000    0.000    0.000    0.000    0.000 
#
# Total GULP energy -396427.159810 kJ/mol
# GULP energy per Si atom -12388.348744 kJ/mol
# Density = 1.900090 g / cm^3
# Si number density = 19.044248 Si / 1000 Ang^3
#
#
#
# Elastic Constant Matrix: (Units=GPa)
#
#
# Indices 1 2 3 4 5 6 
#
# 1 108.0745 27.1447 25.0718 0.0000 5.5863 0.0000
# 2 27.1447 26.4624 15.7281 0.0000 -3.2912 0.0000
# 3 25.0718 15.7281 73.7337 0.0000 -7.4363 0.0000
# 4 0.0000 0.0000 0.0000 16.5445 0.0000 -0.7063
# 5 5.5863 -3.2912 -7.4363 0.0000 24.3379 0.0000
# 6 0.0000 0.0000 0.0000 -0.7063 0.0000 31.2833
#
#
#
# Elastic Compliance Matrix: (Units=1/GPa)
#
#
# Indices 1 2 3 4 5 6 
#
# 1 0.013340 -0.012992 -0.002323 0.000000 -0.005528 0.000000
# 2 -0.012992 0.056160 -0.006702 0.000000 0.008529 0.000000
# 3 -0.002323 -0.006702 0.016245 0.000000 0.004590 0.000000
# 4 0.000000 0.000000 0.000000 0.060501 0.000000 0.001366
# 5 -0.005528 0.008529 0.004590 0.000000 0.044913 0.000000
# 6 0.000000 0.000000 0.000000 0.001366 0.000000 0.031997
#
#
# Mechanical properties :
#
#
# Convention : Reuss Voigt Hill
#
# Bulk Modulus (GPa) = 23.97319 38.23997 31.10658
# Shear Modulus (GPa) = 17.78775 23.78820 20.78797
#
# Velocity S-wave (km/s) = 3.05949 3.53810 3.30746
# Velocity P-wave (km/s) = 5.00960 6.06745 5.56373
#
# Compressibility (1/GPa) = 0.04171327
#
# Stress axis : x y z
#
# Youngs Moduli (GPa) = 74.95980 17.80625 61.55913
#
# Poissons Ratio (x) = 0.23133 0.14297
# Poissons Ratio (y) = 0.97385 0.41255
# Poissons Ratio (z) = 0.17410 0.11933
#
# Static dielectric constant tensor:
#      x y z
#    x 3.484670 0.000000 0.004330 
#    y 0.000000 3.189820 0.000000 
#    z 0.004330 0.000000 3.580480 
# 
# 
# High freq. dielectric constant tensor:
#      x y z
#    x 1.736610 0.000000 0.000930 
#    y 0.000000 1.709510 0.000000 
#    z 0.000930 0.000000 1.739590 
# 
# From -- ./inp_files/249153.got.cif
#   From: 2010.06.25/outbox.cif.g09.slc.cpg/sg12_125_cif.got.tgz:249153.got - 2010.06.28 00:19:55.
