data_PCOD8089350
_publ_section_title
;
Structure prediction by ZEFSAII (Michael W. Deem and Ramdas Pophale) SiO2 
 PCOD8089350
Probable space group: C 2/M
;
_chemical_formula_sum "Si O2"
_cell_formula_units_Z 48
_cell_length_a 27.825479
_cell_length_b 9.004595
_cell_length_c 17.216927
_cell_angle_alpha 90.000000
_cell_angle_beta 144.082725
_cell_angle_gamma 90.000000
_cell_volume 2530.560892
_symmetry_space_group_name_H-M "C 2/M"
_symmetry_group_IT_number 12
_symmetry_cell_setting 'monoclinic'
loop_
_space_group_symop_operation_xyz
x,y,z
-x,y,-z
-x,-y,-z
x,-y,z
1/2+x,1/2+y,z
1/2-x,1/2+y,-z
1/2-x,1/2-y,-z
1/2+x,1/2-y,z
loop_
_atom_site_type_symbol
_atom_site_label
_atom_site_fract_x
_atom_site_fract_y
_atom_site_fract_z
Si Si1 0.836515 0.823701 0.098044
Si Si2 0.093619 0.823758 0.268106
Si Si3 0.089765 0.823568 0.967646
Si Si4 0.012645 0.176292 0.602917
Si Si5 0.358235 0.675757 0.499496
Si Si6 0.807644 0.176530 0.750931
O O1 0.869544 0.766237 0.058439
O O2 0.900644 0.770653 0.248150
O O3 0.826223 0.000000 0.085105
O O4 0.750000 0.750000 0.000000
O O5 0.136300 0.773287 0.403812
O O6 0.146601 0.761730 0.265827
O O7 0.001800 0.757877 0.144029
O O8 0.088413 0.000000 0.256825
O O9 0.085126 0.000000 0.960276
O O10 0.142556 0.766744 0.109269
O O11 0.000000 0.242796 0.500000
O O12 0.939383 0.232457 0.561893
O O13 0.011238 0.000000 0.598428
O O14 0.348122 0.500000 0.478676
O O15 0.281823 0.754383 0.359536
O O16 0.800545 0.000000 0.739847
#
# Coordination Sequence:
#
# PCOD8089350 Si02
#       6
#     8   8   8   8   8   8
#     4  10  20  35  55  76 100 128 164 208 250 292
#     4   9  16  31  53  74  96 131 174 206 237 287
#     4   9  17  32  52  74 100 131 167 205 243 291
#     4   9  18  33  53  74  96 130 171 204 238 291
#     4  10  19  33  53  74 100 132 168 206 243 289
#     4  10  20  31  50  78 104 129 162 205 250 294
#
# _framework density 18.968126999999999
#
# number of rings (size 3 to 8) (size 9 to 14) (size 15 to 20)
#    0.000    2.500    1.667    1.000    2.333    2.000 
#    0.000    0.833    0.000    5.000    0.000    0.000 
#    0.000    0.000    0.000    0.000    0.000    0.000 
#
# Total GULP energy -297595.465690 kJ/mol
# GULP energy per Si atom -12399.811070 kJ/mol
# Density = 1.892495 g / cm^3
# Si number density = 18.968127 Si / 1000 Ang^3
#
#
#
# Elastic Constant Matrix: (Units=GPa)
#
#
# Indices 1 2 3 4 5 6 
#
# 1 126.2558 15.8447 65.5686 0.0000 -2.9744 0.0000
# 2 15.8447 14.2926 22.5341 0.0000 2.1150 0.0000
# 3 65.5686 22.5341 156.3049 0.0000 2.5701 0.0000
# 4 0.0000 0.0000 0.0000 24.5604 0.0000 8.7462
# 5 -2.9744 2.1150 2.5701 0.0000 44.6672 0.0000
# 6 0.0000 0.0000 0.0000 8.7462 0.0000 14.7899
#
#
#
# Elastic Compliance Matrix: (Units=1/GPa)
#
#
# Indices 1 2 3 4 5 6 
#
# 1 0.010585 -0.006317 -0.003549 0.000000 0.001208 0.000000
# 2 -0.006317 0.094880 -0.010958 0.000000 -0.004283 0.000000
# 3 -0.003549 -0.010958 0.009471 0.000000 -0.000262 0.000000
# 4 0.000000 0.000000 0.000000 0.051578 0.000000 -0.030501
# 5 0.001208 -0.004283 -0.000262 0.000000 0.022686 0.000000
# 6 0.000000 0.000000 0.000000 -0.030501 0.000000 0.085651
#
#
# Mechanical properties :
#
#
# Convention : Reuss Voigt Hill
#
# Bulk Modulus (GPa) = 13.64514 56.08312 34.86413
# Shear Modulus (GPa) = 14.66582 29.66390 22.16486
#
# Velocity S-wave (km/s) = 2.78363 3.95888 3.42209
# Velocity P-wave (km/s) = 4.18818 7.10832 5.83391
#
# Compressibility (1/GPa) = 0.07328616
#
# Stress axis : x y z
#
# Youngs Moduli (GPa) = 94.47309 10.53965 105.58709
#
# Poissons Ratio (x) = 0.06658 0.37478
# Poissons Ratio (y) = 0.59680 1.15704
# Poissons Ratio (z) = 0.33533 0.11550
#
# Static dielectric constant tensor:
#      x y z
#    x 3.742270 0.000000 -0.122060 
#    y 0.000000 2.829530 0.000000 
#    z -0.122060 0.000000 3.672070 
# 
# 
# High freq. dielectric constant tensor:
#      x y z
#    x 1.751920 0.000000 -0.001440 
#    y 0.000000 1.671080 0.000000 
#    z -0.001440 0.000000 1.756300 
# 
# From -- ./inp_files/165829.got.cif
#   From: 2010.06.25/outbox.cif.g09.slc.cpg/sg12_83_cif.got.tgz:165829.got - 2010.06.28 00:19:55.
