data_PCOD8089020
_publ_section_title
;
Structure prediction by ZEFSAII (Michael W. Deem and Ramdas Pophale) SiO2 
 PCOD8089020
Probable space group: C 2/M
;
_chemical_formula_sum "Si O2"
_cell_formula_units_Z 56
_cell_length_a 29.963091
_cell_length_b 23.838387
_cell_length_c 12.437515
_cell_angle_alpha 90.000000
_cell_angle_beta 159.538025
_cell_angle_gamma 90.000000
_cell_volume 3105.637199
_symmetry_space_group_name_H-M "C 2/M"
_symmetry_group_IT_number 12
_symmetry_cell_setting 'monoclinic'
loop_
_space_group_symop_operation_xyz
x,y,z
-x,y,-z
-x,-y,-z
x,-y,z
1/2+x,1/2+y,z
1/2-x,1/2+y,-z
1/2-x,1/2-y,-z
1/2+x,1/2-y,z
loop_
_atom_site_type_symbol
_atom_site_label
_atom_site_fract_x
_atom_site_fract_y
_atom_site_fract_z
Si Si1 0.009903 0.435892 0.649218
Si Si2 0.042082 0.259984 0.768377
Si Si3 0.242777 0.197095 0.353770
Si Si4 0.232033 0.354157 0.159768
Si Si5 0.337922 0.847258 0.362775
Si Si6 0.614070 0.665752 0.697093
Si Si7 0.858008 0.187387 0.650771
O O1 0.010722 0.500000 0.688903
O O2 0.888008 0.406688 0.431222
O O3 0.000000 0.429222 0.500000
O O4 0.142639 0.407347 0.980453
O O5 0.951909 0.303258 0.625473
O O6 0.956122 0.223843 0.493607
O O7 0.106831 0.221485 0.005557
O O8 0.150108 0.297374 0.950385
O O9 0.288891 0.148589 0.375307
O O10 0.227893 0.171641 0.438979
O O11 0.345328 0.247328 0.591092
O O12 0.326351 0.365354 0.271699
O O13 0.315360 0.350071 0.454675
O O14 0.224384 0.822394 0.033068
O O15 0.500000 0.630125 0.500000
O O16 0.000000 0.170972 0.000000
#
# Coordination Sequence:
#
# PCOD8089020 Si02
#       7
#     8   8   8   8   8   8   8
#     4  10  21  41  64  80 102 137 183 240 289 338
#     4  10  20  30  48  77 113 152 180 212 258 320
#     4  10  19  33  48  76 113 152 187 217 252 311
#     4  10  22  36  52  81 107 145 190 219 269 326
#     4  11  21  32  52  82 109 144 184 227 273 322
#     4  12  22  28  47  79 119 145 172 218 269 334
#     4  10  20  33  51  74 114 158 186 210 249 323
#
# _framework density 18.031725999999999
#
# number of rings (size 3 to 8) (size 9 to 14) (size 15 to 20)
#    0.000    1.571    2.857    3.857    2.000    1.143 
#    0.000    0.000    0.000    3.857    0.000    0.000 
#    0.000    0.000    0.000    0.000    0.000    0.000 
#
# Total GULP energy -347066.024244 kJ/mol
# GULP energy per Si atom -12395.215152 kJ/mol
# Density = 1.799068 g / cm^3
# Si number density = 18.031726 Si / 1000 Ang^3
#
#
#
# Elastic Constant Matrix: (Units=GPa)
#
#
# Indices 1 2 3 4 5 6 
#
# 1 132.6066 33.6185 41.7908 0.0000 -5.5704 0.0000
# 2 33.6185 68.0519 36.7310 0.0000 2.3866 0.0000
# 3 41.7908 36.7310 105.8005 0.0000 3.5191 0.0000
# 4 0.0000 0.0000 0.0000 9.3871 0.0000 1.1983
# 5 -5.5704 2.3866 3.5191 0.0000 26.5263 0.0000
# 6 0.0000 0.0000 0.0000 1.1983 0.0000 12.6875
#
#
#
# Elastic Compliance Matrix: (Units=1/GPa)
#
#
# Indices 1 2 3 4 5 6 
#
# 1 0.009307 -0.003271 -0.002627 0.000000 0.002597 0.000000
# 2 -0.003271 0.019250 -0.005334 0.000000 -0.001711 0.000000
# 3 -0.002627 -0.005334 0.012398 0.000000 -0.001717 0.000000
# 4 0.000000 0.000000 0.000000 0.107829 0.000000 -0.010184
# 5 0.002597 -0.001711 -0.001717 0.000000 0.038626 0.000000
# 6 0.000000 0.000000 0.000000 -0.010184 0.000000 0.079779
#
#
# Mechanical properties :
#
#
# Convention : Reuss Voigt Hill
#
# Bulk Modulus (GPa) = 54.08022 58.97105 56.52564
# Shear Modulus (GPa) = 16.90230 22.67477 19.78854
#
# Velocity S-wave (km/s) = 3.06496 3.54996 3.31634
# Velocity P-wave (km/s) = 6.52550 7.04117 6.78823
#
# Compressibility (1/GPa) = 0.01849105
#
# Stress axis : x y z
#
# Youngs Moduli (GPa) = 107.44099 51.94909 80.65575
#
# Poissons Ratio (x) = 0.16993 0.21190
# Poissons Ratio (y) = 0.35145 0.43021
# Poissons Ratio (z) = 0.28227 0.27709
#
# Static dielectric constant tensor:
#      x y z
#    x 3.633380 0.000000 0.120750 
#    y 0.000000 2.868280 0.000000 
#    z 0.120750 0.000000 3.560870 
# 
# 
# High freq. dielectric constant tensor:
#      x y z
#    x 1.716210 0.000000 0.004330 
#    y 0.000000 1.622950 0.000000 
#    z 0.004330 0.000000 1.714050 
# 
# From -- ./inp_files/190402.got.cif
#   From: 2010.06.25/outbox.cif.g09.slc.cpg/sg12_96_cif.got.tgz:190402.got - 2010.06.28 00:19:55.
