data_PCOD8089366
_publ_section_title
;
Structure prediction by ZEFSAII (Michael W. Deem and Ramdas Pophale) SiO2 
 PCOD8089366
Probable space group: C 2/M
;
_chemical_formula_sum "Si O2"
_cell_formula_units_Z 64
_cell_length_a 23.014440
_cell_length_b 9.341646
_cell_length_c 21.452209
_cell_angle_alpha 90.000000
_cell_angle_beta 128.164221
_cell_angle_gamma 90.000000
_cell_volume 3626.206904
_symmetry_space_group_name_H-M "C 2/M"
_symmetry_group_IT_number 12
_symmetry_cell_setting 'monoclinic'
loop_
_space_group_symop_operation_xyz
x,y,z
-x,y,-z
-x,-y,-z
x,-y,z
1/2+x,1/2+y,z
1/2-x,1/2+y,-z
1/2-x,1/2-y,-z
1/2+x,1/2-y,z
loop_
_atom_site_type_symbol
_atom_site_label
_atom_site_fract_x
_atom_site_fract_y
_atom_site_fract_z
Si Si1 0.418272 0.334011 0.932501
Si Si2 0.682731 0.664078 0.880368
Si Si3 0.358649 0.667677 0.548974
Si Si4 0.502832 0.329250 0.571659
Si Si5 0.206519 0.333377 0.382767
Si Si6 0.152672 0.830092 0.727705
Si Si7 0.173041 0.838852 0.007421
Si Si8 0.806781 0.330284 0.770354
O O1 0.418094 0.500000 0.911476
O O2 0.385860 0.311260 0.979208
O O3 0.374862 0.245200 0.851029
O O4 0.500000 0.275007 0.000000
O O5 0.696801 0.500000 0.874538
O O6 0.644493 0.727579 0.793435
O O7 0.762883 0.727880 0.941071
O O8 0.636687 0.686467 0.914114
O O9 0.364124 0.500000 0.567109
O O10 0.433402 0.726469 0.566246
O O11 0.291401 0.700828 0.457021
O O12 0.348070 0.746613 0.608025
O O13 0.500000 0.269809 0.500000
O O14 0.501231 0.500000 0.571522
O O15 0.580021 0.265473 0.647677
O O16 0.189484 0.500000 0.380655
O O17 0.192030 0.287095 0.301720
O O18 0.229095 0.774286 0.747723
O O19 0.150415 0.000000 0.719371
O O20 0.205175 0.000000 0.031861
O O21 0.815048 0.500000 0.784491
#
# Coordination Sequence:
#
# PCOD8089366 Si02
#       8
#     8   8   8   8   8   8   8   8
#     4  10  21  36  50  70 100 130 159 201 253 297
#     4   9  16  28  48  71  92 119 156 196 236 282
#     4   9  17  31  51  76 102 133 170 202 240 291
#     4   9  16  27  46  75 106 129 157 201 246 284
#     4   9  18  32  51  73 101 134 167 206 244 281
#     4   9  16  27  46  72  97 123 158 202 244 282
#     4   9  17  30  48  68  93 122 153 192 241 289
#     4  10  19  33  53  74  95 126 168 206 244 292
#
# _framework density 17.649297000000001
#
# number of rings (size 3 to 8) (size 9 to 14) (size 15 to 20)
#    0.000    2.750    1.250    0.750    0.000    3.750 
#    2.250    0.000    0.000    1.875    0.000    0.000 
#    0.000    0.000    0.000    0.000    0.000    0.000 
#
# Total GULP energy -396523.253141 kJ/mol
# GULP energy per Si atom -12391.351661 kJ/mol
# Density = 1.760913 g / cm^3
# Si number density = 17.649297 Si / 1000 Ang^3
#
#
#
# Elastic Constant Matrix: (Units=GPa)
#
#
# Indices 1 2 3 4 5 6 
#
# 1 118.2099 30.4926 86.8357 0.0000 -8.8909 0.0000
# 2 30.4926 24.9870 36.5651 0.0000 -6.2117 0.0000
# 3 86.8357 36.5651 167.4950 0.0000 -15.7362 0.0000
# 4 0.0000 0.0000 0.0000 22.9731 0.0000 -3.3396
# 5 -8.8909 -6.2117 -15.7362 0.0000 32.4461 0.0000
# 6 0.0000 0.0000 0.0000 -3.3396 0.0000 20.0958
#
#
#
# Elastic Compliance Matrix: (Units=1/GPa)
#
#
# Indices 1 2 3 4 5 6 
#
# 1 0.015309 -0.010480 -0.005703 0.000000 -0.000577 0.000000
# 2 -0.010480 0.066855 -0.008622 0.000000 0.005746 0.000000
# 3 -0.005703 -0.008622 0.011009 0.000000 0.002126 0.000000
# 4 0.000000 0.000000 0.000000 0.044607 0.000000 0.007413
# 5 -0.000577 0.005746 0.002126 0.000000 0.032793 0.000000
# 6 0.000000 0.000000 0.000000 0.007413 0.000000 0.050993
#
#
# Mechanical properties :
#
#
# Convention : Reuss Voigt Hill
#
# Bulk Modulus (GPa) = 22.95505 68.71986 45.83745
# Shear Modulus (GPa) = 17.50102 25.55622 21.52862
#
# Velocity S-wave (km/s) = 3.15238 3.80939 3.49635
# Velocity P-wave (km/s) = 5.12684 7.63999 6.50592
#
# Compressibility (1/GPa) = 0.04356341
#
# Stress axis : x y z
#
# Youngs Moduli (GPa) = 65.32164 14.95768 90.83479
#
# Poissons Ratio (x) = 0.15675 0.51804
# Poissons Ratio (y) = 0.68456 0.78317
# Poissons Ratio (z) = 0.37254 0.12896
#
# Static dielectric constant tensor:
#      x y z
#    x 3.486220 0.000000 -0.249910 
#    y 0.000000 3.003970 0.000000 
#    z -0.249910 0.000000 3.570530 
# 
# 
# High freq. dielectric constant tensor:
#      x y z
#    x 1.683890 0.000000 -0.017980 
#    y 0.000000 1.647340 0.000000 
#    z -0.017980 0.000000 1.688840 
# 
# From -- ./inp_files/324281.got.cif
#   From: 2010.06.25/outbox.cif.g09.slc.cpg/sg12_163_cif.got.tgz:324281.got - 2010.06.28 00:19:55.
