data_PCOD8089491
_publ_section_title
;
Structure prediction by ZEFSAII (Michael W. Deem and Ramdas Pophale) SiO2 
 PCOD8089491
Probable space group: C 2/M
;
_chemical_formula_sum "Si O2"
_cell_formula_units_Z 64
_cell_length_a 22.512457
_cell_length_b 9.411000
_cell_length_c 21.189992
_cell_angle_alpha 90.000000
_cell_angle_beta 127.799795
_cell_angle_gamma 90.000000
_cell_volume 3547.341234
_symmetry_space_group_name_H-M "C 2/M"
_symmetry_group_IT_number 12
_symmetry_cell_setting 'monoclinic'
loop_
_space_group_symop_operation_xyz
x,y,z
-x,y,-z
-x,-y,-z
x,-y,z
1/2+x,1/2+y,z
1/2-x,1/2+y,-z
1/2-x,1/2-y,-z
1/2+x,1/2-y,z
loop_
_atom_site_type_symbol
_atom_site_label
_atom_site_fract_x
_atom_site_fract_y
_atom_site_fract_z
Si Si1 0.337449 0.830781 0.263044
Si Si2 0.169653 0.342276 0.883454
Si Si3 0.355292 0.833716 0.533877
Si Si4 0.009318 0.331398 0.576334
Si Si5 0.654027 0.658269 0.986279
Si Si6 0.201985 0.337205 0.235102
Si Si7 0.275960 0.835978 0.608675
Si Si8 0.086307 0.664052 0.054191
O O1 0.341518 0.779035 0.193493
O O2 0.413063 0.773039 0.344874
O O3 0.266658 0.763116 0.251176
O O4 0.328180 0.000000 0.260803
O O5 0.133749 0.500000 0.864905
O O6 0.127286 0.240946 0.905862
O O7 0.256891 0.351816 0.956024
O O8 0.439689 0.781017 0.574354
O O9 0.337046 0.796097 0.594771
O O10 0.299009 0.755533 0.449495
O O11 0.346724 0.000000 0.514214
O O12 0.012833 0.500000 0.576743
O O13 0.000000 0.269095 0.500000
O O14 0.618889 0.500000 0.963126
O O15 0.628746 0.740831 0.031515
O O16 0.227920 0.500000 0.243131
O O17 0.187812 0.302349 0.299616
O O18 0.124209 0.309359 0.147193
O O19 0.252663 0.000000 0.587500
O O20 0.093646 0.500000 0.038397
O O21 0.000000 0.711845 0.000000
#
# Coordination Sequence:
#
# PCOD8089491 Si02
#       8
#     8   8   8   8   8   8   8   8
#     4  10  19  33  53  78 104 133 172 213 251 301
#     4   9  18  32  51  77 103 133 169 208 253 303
#     4   9  17  32  52  74 101 135 170 207 249 295
#     4   9  17  29  48  77 107 132 164 206 251 296
#     4  10  19  33  54  77 102 132 168 211 258 305
#     4  10  20  34  52  75 102 131 168 213 257 306
#     4   9  18  32  51  75 100 131 170 208 250 298
#     4  10  21  37  54  75 103 136 172 213 262 313
#
# _framework density 18.041682000000002
#
# number of rings (size 3 to 8) (size 9 to 14) (size 15 to 20)
#    0.000    2.500    1.250    1.125    0.000    2.750 
#    2.250    0.625    0.000    2.250    0.000    0.000 
#    0.000    0.000    0.000    0.000    0.000    0.000 
#
# Total GULP energy -396775.669170 kJ/mol
# GULP energy per Si atom -12399.239662 kJ/mol
# Density = 1.800062 g / cm^3
# Si number density = 18.041682 Si / 1000 Ang^3
#
#
#
# Elastic Constant Matrix: (Units=GPa)
#
#
# Indices 1 2 3 4 5 6 
#
# 1 74.8237 30.1251 56.8024 0.0000 -4.2046 0.0000
# 2 30.1251 52.2703 31.4371 0.0000 -8.5866 0.0000
# 3 56.8024 31.4371 129.0807 0.0000 -14.3168 0.0000
# 4 0.0000 0.0000 0.0000 21.1929 0.0000 -6.4143
# 5 -4.2046 -8.5866 -14.3168 0.0000 35.4061 0.0000
# 6 0.0000 0.0000 0.0000 -6.4143 0.0000 13.1615
#
#
#
# Elastic Compliance Matrix: (Units=1/GPa)
#
#
# Indices 1 2 3 4 5 6 
#
# 1 0.023037 -0.008726 -0.008317 0.000000 -0.002743 0.000000
# 2 -0.008726 0.026113 -0.002023 0.000000 0.004479 0.000000
# 3 -0.008317 -0.002023 0.012287 0.000000 0.003490 0.000000
# 4 0.000000 0.000000 0.000000 0.055350 0.000000 0.026975
# 5 -0.002743 0.004479 0.003490 0.000000 0.030415 0.000000
# 6 0.000000 0.000000 0.000000 0.026975 0.000000 0.089126
#
#
# Mechanical properties :
#
#
# Convention : Reuss Voigt Hill
#
# Bulk Modulus (GPa) = 42.90855 54.76712 48.83783
# Shear Modulus (GPa) = 17.71618 23.13943 20.42781
#
# Velocity S-wave (km/s) = 3.13702 3.58516 3.36855
# Velocity P-wave (km/s) = 6.07913 6.89635 6.50059
#
# Compressibility (1/GPa) = 0.02330538
#
# Stress axis : x y z
#
# Youngs Moduli (GPa) = 43.40751 38.29542 81.38853
#
# Poissons Ratio (x) = 0.33416 0.67690
# Poissons Ratio (y) = 0.37877 0.16465
# Poissons Ratio (z) = 0.36101 0.07747
#
# Static dielectric constant tensor:
#      x y z
#    x 3.310050 0.000000 -0.125000 
#    y 0.000000 3.332590 0.000000 
#    z -0.125000 0.000000 3.514650 
# 
# 
# High freq. dielectric constant tensor:
#      x y z
#    x 1.690630 0.000000 -0.016190 
#    y 0.000000 1.683770 0.000000 
#    z -0.016190 0.000000 1.700690 
# 
# From -- ./inp_files/324302.got.cif
#   From: 2010.06.25/outbox.cif.g09.slc.cpg/sg12_163_cif.got.tgz:324302.got - 2010.06.28 00:19:55.
