data_PCOD8089323
_publ_section_title
;
Structure prediction by ZEFSAII (Michael W. Deem and Ramdas Pophale) SiO2 
 PCOD8089323
Probable space group: C 2/M
;
_chemical_formula_sum "Si O2"
_cell_formula_units_Z 64
_cell_length_a 15.287771
_cell_length_b 27.118739
_cell_length_c 12.433787
_cell_angle_alpha 90.000000
_cell_angle_beta 38.283406
_cell_angle_gamma 90.000000
_cell_volume 3193.703907
_symmetry_space_group_name_H-M "C 2/M"
_symmetry_group_IT_number 12
_symmetry_cell_setting 'monoclinic'
loop_
_space_group_symop_operation_xyz
x,y,z
-x,y,-z
-x,-y,-z
x,-y,z
1/2+x,1/2+y,z
1/2-x,1/2+y,-z
1/2-x,1/2-y,-z
1/2+x,1/2-y,z
loop_
_atom_site_type_symbol
_atom_site_label
_atom_site_fract_x
_atom_site_fract_y
_atom_site_fract_z
Si Si1 0.517330 0.806608 0.731633
Si Si2 0.751321 0.647503 0.079813
Si Si3 0.042010 0.806003 0.679734
Si Si4 0.166197 0.443705 0.116734
Si Si5 0.416671 0.104380 0.470367
Si Si6 0.854000 0.797660 0.187377
Si Si7 0.333831 0.595173 0.153019
Si Si8 0.765570 0.694496 0.293043
O O1 0.513051 0.751698 0.689901
O O2 0.599612 0.841768 0.568263
O O3 0.591271 0.809146 0.776613
O O4 0.356614 0.822965 0.900786
O O5 0.597112 0.661094 0.186139
O O6 0.773633 0.659518 0.182732
O O7 0.783208 0.589422 0.032716
O O8 0.127182 0.814654 0.707223
O O9 0.135201 0.824237 0.489843
O O10 0.174524 0.500000 0.071695
O O11 0.273582 0.434320 0.110763
O O12 0.004446 0.431777 0.307281
O O13 0.500000 0.111959 0.500000
O O14 0.260845 0.081593 0.649115
O O15 0.809304 0.845704 0.161291
O O16 0.744103 0.752371 0.280931
O O17 0.000000 0.776467 0.000000
O O18 0.500000 0.582093 0.000000
#
# Coordination Sequence:
#
# PCOD8089323 Si02
#       8
#     8   8   8   8   8   8   8   8
#     4  10  20  35  54  81 116 152 184 214 255 315
#     4  11  22  36  55  79 105 142 190 232 269 318
#     4  11  21  33  52  82 118 149 180 218 262 320
#     4  10  23  41  58  76 102 139 185 238 289 332
#     4   9  19  34  56  83 113 147 180 220 272 329
#     4  10  19  33  52  81 121 155 179 209 261 321
#     4  10  19  33  56  87 118 145 175 217 272 334
#     4  11  21  34  54  80 116 154 184 216 258 316
#
# _framework density 20.039428000000001
#
# number of rings (size 3 to 8) (size 9 to 14) (size 15 to 20)
#    0.000    1.750    0.000    7.125    0.000    6.500 
#    0.000    0.000    0.000    7.500    0.000    0.000 
#    0.000    0.000    0.000    0.000    0.000    0.000 
#
# Total GULP energy -396727.094183 kJ/mol
# GULP energy per Si atom -12397.721693 kJ/mol
# Density = 1.999382 g / cm^3
# Si number density = 20.039428 Si / 1000 Ang^3
#
#
#
# Elastic Constant Matrix: (Units=GPa)
#
#
# Indices 1 2 3 4 5 6 
#
# 1 44.1974 34.9948 37.0942 0.0000 1.2078 0.0000
# 2 34.9948 119.1664 40.8632 0.0000 2.7746 0.0000
# 3 37.0942 40.8632 136.0278 0.0000 -9.1125 0.0000
# 4 0.0000 0.0000 0.0000 16.8300 0.0000 2.0838
# 5 1.2078 2.7746 -9.1125 0.0000 38.6124 0.0000
# 6 0.0000 0.0000 0.0000 2.0838 0.0000 18.8548
#
#
#
# Elastic Compliance Matrix: (Units=1/GPa)
#
#
# Indices 1 2 3 4 5 6 
#
# 1 0.034966 -0.007685 -0.007380 0.000000 -0.002283 0.000000
# 2 -0.007685 0.011115 -0.001301 0.000000 -0.000865 0.000000
# 3 -0.007380 -0.001301 0.009934 0.000000 0.002669 0.000000
# 4 0.000000 0.000000 0.000000 0.060242 0.000000 -0.006658
# 5 -0.002283 -0.000865 0.002669 0.000000 0.026662 0.000000
# 6 0.000000 0.000000 0.000000 -0.006658 0.000000 0.053773
#
#
# Mechanical properties :
#
#
# Convention : Reuss Voigt Hill
#
# Bulk Modulus (GPa) = 42.94897 58.36623 50.65760
# Shear Modulus (GPa) = 21.08072 27.28872 24.18472
#
# Velocity S-wave (km/s) = 3.24691 3.69419 3.47775
# Velocity P-wave (km/s) = 5.96116 6.88368 6.43896
#
# Compressibility (1/GPa) = 0.02328345
#
# Stress axis : x y z
#
# Youngs Moduli (GPa) = 28.59888 89.97092 100.66915
#
# Poissons Ratio (x) = 0.69139 0.74290
# Poissons Ratio (y) = 0.21977 0.13100
# Poissons Ratio (z) = 0.21105 0.11708
#
# Static dielectric constant tensor:
#      x y z
#    x 3.474060 0.000000 -0.070380 
#    y 0.000000 3.382300 0.000000 
#    z -0.070380 0.000000 4.046060 
# 
# 
# High freq. dielectric constant tensor:
#      x y z
#    x 1.762680 0.000000 -0.007180 
#    y 0.000000 1.742890 0.000000 
#    z -0.007180 0.000000 1.806460 
# 
# From -- ./inp_files/150265.got.cif
#   From: 2010.06.25/outbox.cif.g09.slc.cpg/sg12_76_cif.got.tgz:150265.got - 2010.06.28 00:19:55.
