data_PCOD8089739
_publ_section_title
;
Structure prediction by ZEFSAII (Michael W. Deem and Ramdas Pophale) SiO2 
 PCOD8089739
Probable space group: C 2/M
;
_chemical_formula_sum "Si O2"
_cell_formula_units_Z 48
_cell_length_a 11.213274
_cell_length_b 24.049389
_cell_length_c 9.542865
_cell_angle_alpha 90.000000
_cell_angle_beta 106.652474
_cell_angle_gamma 90.000000
_cell_volume 2465.518176
_symmetry_space_group_name_H-M "C 2/M"
_symmetry_group_IT_number 12
_symmetry_cell_setting 'monoclinic'
loop_
_space_group_symop_operation_xyz
x,y,z
-x,y,-z
-x,-y,-z
x,-y,z
1/2+x,1/2+y,z
1/2-x,1/2+y,-z
1/2-x,1/2-y,-z
1/2+x,1/2-y,z
loop_
_atom_site_type_symbol
_atom_site_label
_atom_site_fract_x
_atom_site_fract_y
_atom_site_fract_z
Si Si1 0.317805 0.692720 0.025599
Si Si2 0.865116 0.147808 0.513766
Si Si3 0.080676 0.782154 0.219676
Si Si4 0.513187 0.062518 0.278401
Si Si5 0.797430 0.438185 0.401896
Si Si6 0.161176 0.342638 0.204718
O O1 0.437828 0.700174 0.164140
O O2 0.227501 0.648926 0.075073
O O3 0.250000 0.750000 0.000000
O O4 0.349316 0.679352 0.874132
O O5 0.871773 0.204407 0.607896
O O6 0.820838 0.100587 0.608356
O O7 0.766199 0.155732 0.358700
O O8 0.000000 0.130931 0.500000
O O9 0.092508 0.716676 0.192327
O O10 0.610411 0.062835 0.436606
O O11 0.376863 0.079979 0.291091
O O12 0.559306 0.108293 0.181731
O O13 0.508932 0.000000 0.211378
O O14 0.744581 0.500000 0.360803
#
# Coordination Sequence:
#
# PCOD8089739 Si02
#       6
#     8   8   8   8   8   8
#     4   9  19  35  52  70  99 142 177 202 247 314
#     4  11  20  32  50  80 111 134 167 219 263 296
#     4  10  20  34  50  74 109 140 169 210 255 314
#     4   8  15  30  51  75 102 133 173 217 257 302
#     4   8  16  31  49  73 105 139 172 207 259 315
#     4  10  19  33  54  79 104 136 174 210 260 310
#
# _framework density 19.468523000000001
#
# number of rings (size 3 to 8) (size 9 to 14) (size 15 to 20)
#    0.000    2.667    1.667    1.500    0.000    3.000 
#    6.000    0.000    0.000    1.000    0.000   14.000 
#    0.000    0.000    0.000    0.000    0.000    0.000 
#
# Total GULP energy -297337.024326 kJ/mol
# GULP energy per Si atom -12389.042680 kJ/mol
# Density = 1.942421 g / cm^3
# Si number density = 19.468523 Si / 1000 Ang^3
#
#
#
# Elastic Constant Matrix: (Units=GPa)
#
#
# Indices 1 2 3 4 5 6 
#
# 1 129.9872 62.8280 26.9609 0.0000 -37.3866 0.0000
# 2 62.8280 92.5527 17.2104 0.0000 -33.4826 0.0000
# 3 26.9609 17.2104 49.7535 0.0000 -18.8116 0.0000
# 4 0.0000 0.0000 0.0000 15.2866 0.0000 -13.6999
# 5 -37.3866 -33.4826 -18.8116 0.0000 24.9299 0.0000
# 6 0.0000 0.0000 0.0000 -13.6999 0.0000 30.2694
#
#
#
# Elastic Compliance Matrix: (Units=1/GPa)
#
#
# Indices 1 2 3 4 5 6 
#
# 1 0.014174 -0.003820 -0.000367 0.000000 0.015849 0.000000
# 2 -0.003820 0.022883 0.005049 0.000000 0.028815 0.000000
# 3 -0.000367 0.005049 0.029253 0.000000 0.028305 0.000000
# 4 0.000000 0.000000 0.000000 0.110059 0.000000 0.049813
# 5 0.015849 0.028815 0.028305 0.000000 0.123940 0.000000
# 6 0.000000 0.000000 0.000000 0.049813 0.000000 0.055582
#
#
# Mechanical properties :
#
#
# Convention : Reuss Voigt Hill
#
# Bulk Modulus (GPa) = 14.69818 54.03243 34.36531
# Shear Modulus (GPa) = 13.26805 25.11679 19.19242
#
# Velocity S-wave (km/s) = 2.61341 3.59572 3.14318
# Velocity P-wave (km/s) = 4.08322 6.71215 5.55543
#
# Compressibility (1/GPa) = 0.06803562
#
# Stress axis : x y z
#
# Youngs Moduli (GPa) = 70.55214 43.70018 34.18402
#
# Poissons Ratio (x) = 0.16693 0.01254
# Poissons Ratio (y) = 0.26950 -0.17261
# Poissons Ratio (z) = 0.02589 -0.22066
#
# Static dielectric constant tensor:
#      x y z
#    x 3.989940 0.000000 -0.531560 
#    y 0.000000 3.536310 0.000000 
#    z -0.531560 0.000000 3.613060 
# 
# 
# High freq. dielectric constant tensor:
#      x y z
#    x 1.771730 0.000000 -0.015900 
#    y 0.000000 1.731190 0.000000 
#    z -0.015900 0.000000 1.740970 
# 
# From -- ./inp_files/51455.got.cif
#   From: 2010.06.25/outbox.cif.g09.slc.cpg/sg12_26_cif.got.tgz:51455.got - 2010.06.28 00:19:55.
