data_PCOD8089221
_publ_section_title
;
Structure prediction by ZEFSAII (Michael W. Deem and Ramdas Pophale) SiO2 
 PCOD8089221
Probable space group: C 2/M
;
_chemical_formula_sum "Si O2"
_cell_formula_units_Z 56
_cell_length_a 32.211814
_cell_length_b 13.496607
_cell_length_c 12.789059
_cell_angle_alpha 90.000000
_cell_angle_beta 34.391714
_cell_angle_gamma 90.000000
_cell_volume 3140.578970
_symmetry_space_group_name_H-M "C 2/M"
_symmetry_group_IT_number 12
_symmetry_cell_setting 'monoclinic'
loop_
_space_group_symop_operation_xyz
x,y,z
-x,y,-z
-x,-y,-z
x,-y,z
1/2+x,1/2+y,z
1/2-x,1/2+y,-z
1/2-x,1/2-y,-z
1/2+x,1/2-y,z
loop_
_atom_site_type_symbol
_atom_site_label
_atom_site_fract_x
_atom_site_fract_y
_atom_site_fract_z
Si Si1 0.681723 0.195428 0.008713
Si Si2 0.275386 0.713060 0.619608
Si Si3 0.888791 0.664182 0.483839
Si Si4 0.764479 0.615176 0.497374
Si Si5 0.424128 0.108681 0.187985
Si Si6 0.741178 0.109818 0.095151
Si Si7 0.477358 0.886638 0.665835
O O1 0.711409 0.127479 0.040335
O O2 0.596784 0.174747 0.165760
O O3 0.722556 0.166794 0.816635
O O4 0.695827 0.311050 0.006839
O O5 0.355286 0.732588 0.507321
O O6 0.283902 0.636378 0.505406
O O7 0.241188 0.817310 0.645256
O O8 0.912482 0.597908 0.336395
O O9 0.826405 0.612916 0.683598
O O10 0.961463 0.678534 0.401559
O O11 0.759147 0.500000 0.540324
O O12 0.848632 0.651664 0.295485
O O13 0.432995 0.000000 0.120163
O O14 0.500000 0.168135 0.000000
O O15 0.775919 0.000000 0.027023
O O16 0.500000 0.891625 0.500000
O O17 0.470967 0.000000 0.722298
#
# Coordination Sequence:
#
# PCOD8089221 Si02
#       7
#     8   8   8   8   8   8   8
#     4  10  21  32  51  82 107 137 179 225 265 314
#     4   9  20  35  51  77 109 139 177 219 263 315
#     4  10  19  33  52  74 108 142 172 214 266 318
#     4   9  18  34  54  74 103 140 179 218 263 319
#     4   9  17  27  43  73 105 132 165 206 258 314
#     4  10  19  35  54  75 104 143 185 221 263 315
#     4  11  21  33  53  81 112 141 171 215 271 326
#
# _framework density 17.831108
#
# number of rings (size 3 to 8) (size 9 to 14) (size 15 to 20)
#    0.000    2.286    1.429    1.714    2.000    5.143 
#    0.000    0.000    0.000    1.286    0.000    1.000 
#    0.000    0.000    0.000    0.000    0.000    0.000 
#
# Total GULP energy -346879.846762 kJ/mol
# GULP energy per Si atom -12388.565956 kJ/mol
# Density = 1.779052 g / cm^3
# Si number density = 17.831108 Si / 1000 Ang^3
#
#
#
# Elastic Constant Matrix: (Units=GPa)
#
#
# Indices 1 2 3 4 5 6 
#
# 1 111.6977 25.6619 37.4496 0.0000 -8.7516 0.0000
# 2 25.6619 62.5612 28.2667 0.0000 -6.7874 0.0000
# 3 37.4496 28.2667 91.5014 0.0000 -0.6557 0.0000
# 4 0.0000 0.0000 0.0000 9.2383 0.0000 5.9757
# 5 -8.7516 -6.7874 -0.6557 0.0000 35.1664 0.0000
# 6 0.0000 0.0000 0.0000 5.9757 0.0000 13.4506
#
#
#
# Elastic Compliance Matrix: (Units=1/GPa)
#
#
# Indices 1 2 3 4 5 6 
#
# 1 0.010947 -0.002603 -0.003661 0.000000 0.002154 0.000000
# 2 -0.002603 0.019632 -0.004978 0.000000 0.003049 0.000000
# 3 -0.003661 -0.004978 0.013953 0.000000 -0.001612 0.000000
# 4 0.000000 0.000000 0.000000 0.151897 0.000000 -0.067484
# 5 0.002154 0.003049 -0.001612 0.000000 0.029531 0.000000
# 6 0.000000 0.000000 0.000000 -0.067484 0.000000 0.104327
#
#
# Mechanical properties :
#
#
# Convention : Reuss Voigt Hill
#
# Bulk Modulus (GPa) = 45.35222 49.83520 47.59371
# Shear Modulus (GPa) = 13.88432 23.19653 18.54043
#
# Velocity S-wave (km/s) = 2.79347 3.61072 3.22806
# Velocity P-wave (km/s) = 5.99117 6.73737 6.37520
#
# Compressibility (1/GPa) = 0.02204964
#
# Stress axis : x y z
#
# Youngs Moduli (GPa) = 91.35082 50.93822 71.66787
#
# Poissons Ratio (x) = 0.13257 0.26237
# Poissons Ratio (y) = 0.23774 0.35673
# Poissons Ratio (z) = 0.33443 0.25355
#
# Static dielectric constant tensor:
#      x y z
#    x 3.412070 0.000000 0.123640 
#    y 0.000000 3.090100 0.000000 
#    z 0.123640 0.000000 3.334170 
# 
# 
# High freq. dielectric constant tensor:
#      x y z
#    x 1.701910 0.000000 0.016150 
#    y 0.000000 1.655940 0.000000 
#    z 0.016150 0.000000 1.679360 
# 
# From -- ./inp_files/189192.got.cif
#   From: 2010.06.25/outbox.cif.g09.slc.cpg/sg12_95_cif.got.tgz:189192.got - 2010.06.28 00:19:55.
