data_PCOD8089890
_publ_section_title
;
Structure prediction by ZEFSAII (Michael W. Deem and Ramdas Pophale) SiO2 
 PCOD8089890
Probable space group: C 2/M
;
_chemical_formula_sum "Si O2"
_cell_formula_units_Z 48
_cell_length_a 22.635245
_cell_length_b 12.342031
_cell_length_c 14.536857
_cell_angle_alpha 90.000000
_cell_angle_beta 38.197655
_cell_angle_gamma 90.000000
_cell_volume 2511.280006
_symmetry_space_group_name_H-M "C 2/M"
_symmetry_group_IT_number 12
_symmetry_cell_setting 'monoclinic'
loop_
_space_group_symop_operation_xyz
x,y,z
-x,y,-z
-x,-y,-z
x,-y,z
1/2+x,1/2+y,z
1/2-x,1/2+y,-z
1/2-x,1/2-y,-z
1/2+x,1/2-y,z
loop_
_atom_site_type_symbol
_atom_site_label
_atom_site_fract_x
_atom_site_fract_y
_atom_site_fract_z
Si Si1 0.403830 0.623732 0.173300
Si Si2 0.111234 0.381116 0.350103
Si Si3 0.115196 0.229456 0.177063
Si Si4 0.080907 0.125005 0.630205
Si Si5 0.269761 0.268706 0.676774
Si Si6 0.223589 0.377108 0.920272
O O1 0.368643 0.500000 0.198613
O O2 0.424252 0.642235 0.255142
O O3 0.327130 0.711731 0.236090
O O4 0.500000 0.647053 0.000000
O O5 0.156836 0.500000 0.286935
O O6 0.134809 0.321399 0.227728
O O7 0.157055 0.323261 0.381368
O O8 0.000000 0.387403 0.500000
O O9 0.186024 0.132140 0.120258
O O10 0.007393 0.187939 0.307886
O O11 0.143708 0.287249 0.045932
O O12 0.181258 0.169347 0.468558
O O13 0.071123 0.000000 0.615121
O O14 0.251730 0.354328 0.780298
O O15 0.184243 0.500000 0.974585
#
# Coordination Sequence:
#
# PCOD8089890 Si02
#       6
#     8   8   8   8   8   8
#     4  10  22  40  61  83 108 145 192 235 276 328
#     4  10  19  33  54  82 116 148 184 226 270 325
#     4  10  20  36  55  83 113 152 189 227 277 328
#     4  11  22  37  59  84 112 145 186 233 282 334
#     4  11  21  37  58  84 115 148 184 230 284 332
#     4  10  21  35  56  83 116 151 186 228 277 334
#
# _framework density 19.113759000000002
#
# number of rings (size 3 to 8) (size 9 to 14) (size 15 to 20)
#    0.000    1.667    1.667    3.500    0.000    0.000 
#    0.000    7.500    0.000   12.000    0.000    0.000 
#    0.000    0.000    0.000    0.000    0.000    0.000 
#
# Total GULP energy -297596.553806 kJ/mol
# GULP energy per Si atom -12399.856409 kJ/mol
# Density = 1.907026 g / cm^3
# Si number density = 19.113759 Si / 1000 Ang^3
#
#
#
# Elastic Constant Matrix: (Units=GPa)
#
#
# Indices 1 2 3 4 5 6 
#
# 1 67.0872 42.3595 37.1362 0.0000 -0.2508 0.0000
# 2 42.3595 115.0148 43.6471 0.0000 -1.1842 0.0000
# 3 37.1362 43.6471 118.6201 0.0000 9.2463 0.0000
# 4 0.0000 0.0000 0.0000 26.1119 0.0000 -4.5664
# 5 -0.2508 -1.1842 9.2463 0.0000 33.5099 0.0000
# 6 0.0000 0.0000 0.0000 -4.5664 0.0000 20.9755
#
#
#
# Elastic Compliance Matrix: (Units=1/GPa)
#
#
# Indices 1 2 3 4 5 6 
#
# 1 0.021259 -0.006110 -0.004500 0.000000 0.001185 0.000000
# 2 -0.006110 0.011928 -0.002560 0.000000 0.001082 0.000000
# 3 -0.004500 -0.002560 0.011028 0.000000 -0.003167 0.000000
# 4 0.000000 0.000000 0.000000 0.039812 0.000000 0.008667
# 5 0.001185 0.001082 -0.003167 0.000000 0.030763 0.000000
# 6 0.000000 0.000000 0.000000 0.008667 0.000000 0.049561
#
#
# Mechanical properties :
#
#
# Convention : Reuss Voigt Hill
#
# Bulk Modulus (GPa) = 55.94506 60.77862 58.36184
# Shear Modulus (GPa) = 25.42596 27.95808 26.69202
#
# Velocity S-wave (km/s) = 3.65121 3.82870 3.74101
# Velocity P-wave (km/s) = 6.86354 7.17026 7.01858
#
# Compressibility (1/GPa) = 0.01787468
#
# Stress axis : x y z
#
# Youngs Moduli (GPa) = 47.03881 83.83959 90.67835
#
# Poissons Ratio (x) = 0.51224 0.40803
# Poissons Ratio (y) = 0.28740 0.23217
# Poissons Ratio (z) = 0.21166 0.21466
#
# Static dielectric constant tensor:
#      x y z
#    x 3.379880 0.000000 0.091190 
#    y 0.000000 3.637980 0.000000 
#    z 0.091190 0.000000 3.627220 
# 
# 
# High freq. dielectric constant tensor:
#      x y z
#    x 1.730370 0.000000 0.009210 
#    y 0.000000 1.748250 0.000000 
#    z 0.009210 0.000000 1.754200 
# 
# From -- ./inp_files/232790.got.cif
#   From: 2010.06.25/outbox.cif.g09.slc.cpg/sg12_117_cif.got.tgz:232790.got - 2010.06.28 00:19:55.
