data_PCOD8089254
_publ_section_title
;
Structure prediction by ZEFSAII (Michael W. Deem and Ramdas Pophale) SiO2 
 PCOD8089254
Probable space group: C 2/M
;
_chemical_formula_sum "Si O2"
_cell_formula_units_Z 64
_cell_length_a 14.691199
_cell_length_b 8.715695
_cell_length_c 26.227752
_cell_angle_alpha 90.000000
_cell_angle_beta 91.952202
_cell_angle_gamma 90.000000
_cell_volume 3356.357348
_symmetry_space_group_name_H-M "C 2/M"
_symmetry_group_IT_number 12
_symmetry_cell_setting 'monoclinic'
loop_
_space_group_symop_operation_xyz
x,y,z
-x,y,-z
-x,-y,-z
x,-y,z
1/2+x,1/2+y,z
1/2-x,1/2+y,-z
1/2-x,1/2-y,-z
1/2+x,1/2-y,z
loop_
_atom_site_type_symbol
_atom_site_label
_atom_site_fract_x
_atom_site_fract_y
_atom_site_fract_z
Si Si1 0.090840 0.817909 0.621804
Si Si2 0.386209 0.819332 0.271310
Si Si3 0.075324 0.178952 0.255871
Si Si4 0.762566 0.181502 0.810210
Si Si5 0.266044 0.182336 0.445171
Si Si6 0.242300 0.681735 0.923547
Si Si7 0.111921 0.821489 0.368570
Si Si8 0.603665 0.318606 0.995241
O O1 0.135565 0.763337 0.675723
O O2 0.137789 0.740656 0.574138
O O3 0.987175 0.756937 0.618383
O O4 0.097682 0.000000 0.618331
O O5 0.485873 0.782005 0.251651
O O6 0.315777 0.754076 0.228201
O O7 0.374702 0.000000 0.279643
O O8 0.138700 0.227640 0.209952
O O9 0.130950 0.211550 0.309273
O O10 0.046835 0.000000 0.253587
O O11 0.751934 0.249559 0.866729
O O12 0.754259 0.000000 0.812250
O O13 0.250000 0.250000 0.500000
O O14 0.189330 0.252509 0.405620
O O15 0.265349 0.000000 0.447732
O O16 0.233148 0.500000 0.923570
O O17 0.333264 0.732541 0.955874
O O18 0.149611 0.749569 0.945458
O O19 0.112811 0.000000 0.379977
O O20 0.601439 0.500000 0.989138
O O21 0.500000 0.255971 0.000000
#
# Coordination Sequence:
#
# PCOD8089254 Si02
#       8
#     8   8   8   8   8   8   8   8
#     4  10  20  37  57  77 100 133 173 209 247 298
#     4  10  19  33  52  76 103 132 166 205 248 295
#     4   9  17  33  54  75  98 132 172 202 238 297
#     4   9  18  32  51  73 104 141 168 196 247 312
#     4  11  22  37  55  78 104 133 168 209 255 302
#     4   9  18  33  51  73 100 133 172 207 246 304
#     4   8  17  34  55  73  98 136 169 195 240 305
#     4   9  18  33  52  73  98 129 168 216 262 296
#
# _framework density 19.068290999999999
#
# number of rings (size 3 to 8) (size 9 to 14) (size 15 to 20)
#    0.000    2.625    0.000    2.625    0.000    3.750 
#    0.000   15.625    0.000    0.000    0.000    0.000 
#    0.000    0.000    0.000    0.000    0.000    0.000 
#
# Total GULP energy -396746.642484 kJ/mol
# GULP energy per Si atom -12398.332578 kJ/mol
# Density = 1.902489 g / cm^3
# Si number density = 19.068291 Si / 1000 Ang^3
#
#
#
# Elastic Constant Matrix: (Units=GPa)
#
#
# Indices 1 2 3 4 5 6 
#
# 1 79.8570 16.5028 44.7269 0.0000 -16.5319 0.0000
# 2 16.5028 39.2825 22.1541 0.0000 -3.8611 0.0000
# 3 44.7269 22.1541 134.9114 0.0000 -25.2489 0.0000
# 4 0.0000 0.0000 0.0000 27.5661 0.0000 -5.0804
# 5 -16.5319 -3.8611 -25.2489 0.0000 29.1553 0.0000
# 6 0.0000 0.0000 0.0000 -5.0804 0.0000 25.4482
#
#
#
# Elastic Compliance Matrix: (Units=1/GPa)
#
#
# Indices 1 2 3 4 5 6 
#
# 1 0.016694 -0.004334 -0.003770 0.000000 0.005628 0.000000
# 2 -0.004334 0.029183 -0.003690 0.000000 -0.001788 0.000000
# 3 -0.003770 -0.003690 0.010474 0.000000 0.006444 0.000000
# 4 0.000000 0.000000 0.000000 0.037662 0.000000 0.007519
# 5 0.005628 -0.001788 0.006444 0.000000 0.042834 0.000000
# 6 0.000000 0.000000 0.000000 0.007519 0.000000 0.040797
#
#
# Mechanical properties :
#
#
# Convention : Reuss Voigt Hill
#
# Bulk Modulus (GPa) = 30.52193 46.75761 38.63977
# Shear Modulus (GPa) = 23.56787 27.81172 25.68980
#
# Velocity S-wave (km/s) = 3.51945 3.82322 3.67448
# Velocity P-wave (km/s) = 5.70586 6.63805 6.18953
#
# Compressibility (1/GPa) = 0.03276333
#
# Stress axis : x y z
#
# Youngs Moduli (GPa) = 59.90007 34.26691 95.47384
#
# Poissons Ratio (x) = 0.14852 0.35991
# Poissons Ratio (y) = 0.25962 0.35229
# Poissons Ratio (z) = 0.22581 0.12644
#
# Static dielectric constant tensor:
#      x y z
#    x 3.765060 0.000000 0.136430 
#    y 0.000000 3.186390 0.000000 
#    z 0.136430 0.000000 3.749980 
# 
# 
# High freq. dielectric constant tensor:
#      x y z
#    x 1.747420 0.000000 -0.006340 
#    y 0.000000 1.714770 0.000000 
#    z -0.006340 0.000000 1.743700 
# 
# From -- ./inp_files/359796.got.cif
#   From: 2010.06.25/outbox.cif.g09.slc.cpg/sg12_180_cif.got.tgz:359796.got - 2010.06.28 00:19:55.
