data_PCOD8089946
_publ_section_title
;
Structure prediction by ZEFSAII (Michael W. Deem and Ramdas Pophale) SiO2 
 PCOD8089946
Probable space group: C 2/M
;
_chemical_formula_sum "Si O2"
_cell_formula_units_Z 40
_cell_length_a 17.927662
_cell_length_b 13.910844
_cell_length_c 9.467828
_cell_angle_alpha 90.000000
_cell_angle_beta 105.038908
_cell_angle_gamma 90.000000
_cell_volume 2280.300820
_symmetry_space_group_name_H-M "C 2/M"
_symmetry_group_IT_number 12
_symmetry_cell_setting 'monoclinic'
loop_
_space_group_symop_operation_xyz
x,y,z
-x,y,-z
-x,-y,-z
x,-y,z
1/2+x,1/2+y,z
1/2-x,1/2+y,-z
1/2-x,1/2-y,-z
1/2+x,1/2-y,z
loop_
_atom_site_type_symbol
_atom_site_label
_atom_site_fract_x
_atom_site_fract_y
_atom_site_fract_z
Si Si1 0.821324 0.776678 0.704915
Si Si2 0.206711 0.892110 0.056580
Si Si3 0.678892 0.107960 0.656046
Si Si4 0.218292 0.887539 0.741849
Si Si5 0.411740 0.720658 0.476280
O O1 0.846448 0.824638 0.867906
O O2 0.749402 0.839962 0.603825
O O3 0.791757 0.667967 0.713954
O O4 0.893054 0.777488 0.634179
O O5 0.293969 0.892929 0.166155
O O6 0.172139 0.000000 0.041430
O O7 0.209491 0.852479 0.899681
O O8 0.603159 0.173536 0.598479
O O9 0.663780 0.000000 0.592030
O O10 0.139066 0.860582 0.624836
O O11 0.235064 0.000000 0.737699
O O12 0.500000 0.691927 0.500000
#
# Coordination Sequence:
#
# PCOD8089946 Si02
#       5
#     8   8   8   8   8
#     4   9  18  32  52  76  99 124 166 207 243 284
#     4   8  16  31  57  81  91 116 165 216 254 278
#     4   8  16  32  56  74  92 122 165 211 245 281
#     4  10  19  33  55  77  97 125 166 208 244 286
#     4  11  23  33  45  73 108 138 162 190 243 299
#
# _framework density 17.541543999999998
#
# number of rings (size 3 to 8) (size 9 to 14) (size 15 to 20)
#    1.200    1.600    0.000    3.000    0.000    4.800 
#    0.000    1.000    0.000    2.400    0.000    4.200 
#    0.000    0.000    0.000    0.000    0.000    0.000 
#
# Total GULP energy -247779.574849 kJ/mol
# GULP energy per Si atom -12388.978742 kJ/mol
# Density = 1.750162 g / cm^3
# Si number density = 17.541544 Si / 1000 Ang^3
#
#
#
# Elastic Constant Matrix: (Units=GPa)
#
#
# Indices 1 2 3 4 5 6 
#
# 1 82.1851 14.3875 42.3542 0.0000 -18.4984 0.0000
# 2 14.3875 89.7612 29.2296 0.0000 -11.2501 0.0000
# 3 42.3542 29.2296 94.4127 0.0000 -24.5696 0.0000
# 4 0.0000 0.0000 0.0000 23.7612 0.0000 4.0138
# 5 -18.4984 -11.2501 -24.5696 0.0000 16.9223 0.0000
# 6 0.0000 0.0000 0.0000 4.0138 0.0000 7.9136
#
#
#
# Elastic Compliance Matrix: (Units=1/GPa)
#
#
# Indices 1 2 3 4 5 6 
#
# 1 0.017285 0.000285 -0.004623 0.000000 0.012373 0.000000
# 2 0.000285 0.012591 -0.002840 0.000000 0.004560 0.000000
# 3 -0.004623 -0.002840 0.018867 0.000000 0.020452 0.000000
# 4 0.000000 0.000000 0.000000 0.046029 0.000000 -0.023346
# 5 0.012373 0.004560 0.020452 0.000000 0.105345 0.000000
# 6 0.000000 0.000000 0.000000 -0.023346 0.000000 0.138206
#
#
# Mechanical properties :
#
#
# Convention : Reuss Voigt Hill
#
# Bulk Modulus (GPa) = 29.07854 48.70018 38.88936
# Shear Modulus (GPa) = 13.73102 21.74528 17.73815
#
# Velocity S-wave (km/s) = 2.80084 3.52468 3.18340
# Velocity P-wave (km/s) = 5.20313 6.66240 5.97746
#
# Compressibility (1/GPa) = 0.03438962
#
# Stress axis : x y z
#
# Youngs Moduli (GPa) = 57.85418 79.42132 53.00260
#
# Poissons Ratio (x) = -0.02267 0.24501
# Poissons Ratio (y) = -0.01652 0.15050
# Poissons Ratio (z) = 0.26744 0.22552
#
# Static dielectric constant tensor:
#      x y z
#    x 2.635610 0.000000 -0.080960 
#    y 0.000000 3.319940 0.000000 
#    z -0.080960 0.000000 3.300850 
# 
# 
# High freq. dielectric constant tensor:
#      x y z
#    x 1.609100 0.000000 -0.013170 
#    y 0.000000 1.692930 0.000000 
#    z -0.013170 0.000000 1.682670 
# 
# From -- ./inp_files/72477.got.cif
#   From: 2010.06.25/outbox.cif.g09.slc.cpg/sg12_37_cif.got.tgz:72477.got - 2010.06.28 00:19:55.
