data_PCOD8089784
_publ_section_title
;
Structure prediction by ZEFSAII (Michael W. Deem and Ramdas Pophale) SiO2 
 PCOD8089784
Probable space group: C 2/M
;
_chemical_formula_sum "Si O2"
_cell_formula_units_Z 52
_cell_length_a 12.839723
_cell_length_b 18.662867
_cell_length_c 12.507832
_cell_angle_alpha 90.000000
_cell_angle_beta 68.735403
_cell_angle_gamma 90.000000
_cell_volume 2793.139272
_symmetry_space_group_name_H-M "C 2/M"
_symmetry_group_IT_number 12
_symmetry_cell_setting 'monoclinic'
loop_
_space_group_symop_operation_xyz
x,y,z
-x,y,-z
-x,-y,-z
x,-y,z
1/2+x,1/2+y,z
1/2-x,1/2+y,-z
1/2-x,1/2-y,-z
1/2+x,1/2-y,z
loop_
_atom_site_type_symbol
_atom_site_label
_atom_site_fract_x
_atom_site_fract_y
_atom_site_fract_z
Si Si1 0.500000 0.380784 0.500000
Si Si2 0.702704 0.414338 0.701397
Si Si3 0.461954 0.579373 0.747353
Si Si4 0.646198 0.084797 0.160237
Si Si5 0.891864 0.584127 0.264839
Si Si6 0.233298 0.167866 0.481624
Si Si7 0.727954 0.915607 0.904993
O O1 0.530186 0.427417 0.384491
O O2 0.393304 0.333006 0.512616
O O3 0.707369 0.500000 0.686838
O O4 0.574167 0.385566 0.756007
O O5 0.770306 0.386865 0.779283
O O6 0.757951 0.379916 0.576562
O O7 0.455905 0.500000 0.796355
O O8 0.348539 0.619493 0.827536
O O9 0.520032 0.107142 0.235542
O O10 0.652451 0.000000 0.149940
O O11 0.685150 0.118315 0.032394
O O12 0.870418 0.500000 0.300994
O O13 0.816829 0.636611 0.362700
O O14 0.863289 0.599782 0.151986
O O15 0.250000 0.250000 0.500000
O O16 0.743452 0.000000 0.911672
#
# Coordination Sequence:
#
# PCOD8089784 Si02
#       7
#     4   8   8   8   8   8   8
#     4  10  19  34  50  72 101 136 172 218 258 312
#     4   9  19  34  51  77 108 141 173 211 263 318
#     4   9  16  27  50  78 105 134 172 218 261 303
#     4   9  18  31  50  79 114 141 172 214 257 311
#     4  10  19  33  54  80 107 140 177 218 261 308
#     4  11  23  36  54  79 103 136 175 220 266 313
#     4   9  16  28  50  82 108 135 174 219 261 302
#
# _framework density 18.617045000000001
#
# number of rings (size 3 to 8) (size 9 to 14) (size 15 to 20)
#    0.000    2.462    1.538    1.154    0.000    5.538 
#    0.000    5.385    0.000    0.923    8.000    0.000 
#    0.000    0.000    0.000    0.000    0.000    0.000 
#
# Total GULP energy -322201.292141 kJ/mol
# GULP energy per Si atom -12392.357390 kJ/mol
# Density = 1.857467 g / cm^3
# Si number density = 18.617045 Si / 1000 Ang^3
#
#
#
# Elastic Constant Matrix: (Units=GPa)
#
#
# Indices 1 2 3 4 5 6 
#
# 1 152.4511 29.6249 68.8087 0.0000 7.2017 0.0000
# 2 29.6249 47.5302 29.8389 0.0000 0.2977 0.0000
# 3 68.8087 29.8389 122.2799 0.0000 1.0826 0.0000
# 4 0.0000 0.0000 0.0000 3.5367 0.0000 -0.9765
# 5 7.2017 0.2977 1.0826 0.0000 32.6110 0.0000
# 6 0.0000 0.0000 0.0000 -0.9765 0.0000 12.9668
#
#
#
# Elastic Compliance Matrix: (Units=1/GPa)
#
#
# Indices 1 2 3 4 5 6 
#
# 1 0.009233 -0.002942 -0.004461 0.000000 -0.001864 0.000000
# 2 -0.002942 0.025783 -0.004641 0.000000 0.000569 0.000000
# 3 -0.004461 -0.004641 0.011815 0.000000 0.000635 0.000000
# 4 0.000000 0.000000 0.000000 0.288755 0.000000 0.021745
# 5 -0.001864 0.000569 0.000635 0.000000 0.031050 0.000000
# 6 0.000000 0.000000 0.000000 0.021745 0.000000 0.078757
#
#
# Mechanical properties :
#
#
# Convention : Reuss Voigt Hill
#
# Bulk Modulus (GPa) = 43.97066 64.31182 54.14124
# Shear Modulus (GPa) = 10.48081 22.75547 16.61814
#
# Velocity S-wave (km/s) = 2.37527 3.49992 2.99093
# Velocity P-wave (km/s) = 5.58501 7.13808 6.40876
#
# Compressibility (1/GPa) = 0.02274244
#
# Stress axis : x y z
#
# Youngs Moduli (GPa) = 108.31025 38.78495 84.63810
#
# Poissons Ratio (x) = 0.11412 0.37756
# Poissons Ratio (y) = 0.31870 0.39280
# Poissons Ratio (z) = 0.48316 0.18000
#
# Static dielectric constant tensor:
#      x y z
#    x 3.775870 0.000000 -0.050820 
#    y 0.000000 2.828620 0.000000 
#    z -0.050820 0.000000 3.623570 
# 
# 
# High freq. dielectric constant tensor:
#      x y z
#    x 1.743510 0.000000 -0.002710 
#    y 0.000000 1.655200 0.000000 
#    z -0.002710 0.000000 1.727000 
# 
# From -- ./inp_files/133060.got.cif
#   From: 2010.06.25/outbox.cif.g09.slc.cpg/sg12_67_cif.got.tgz:133060.got - 2010.06.28 00:19:55.
