data_PCOD8089537
_publ_section_title
;
Structure prediction by ZEFSAII (Michael W. Deem and Ramdas Pophale) SiO2 
 PCOD8089537
Probable space group: C 2/M
;
_chemical_formula_sum "Si O2"
_cell_formula_units_Z 64
_cell_length_a 32.431875
_cell_length_b 9.087929
_cell_length_c 12.101554
_cell_angle_alpha 90.000000
_cell_angle_beta 91.262164
_cell_angle_gamma 90.000000
_cell_volume 3565.929410
_symmetry_space_group_name_H-M "C 2/M"
_symmetry_group_IT_number 12
_symmetry_cell_setting 'monoclinic'
loop_
_space_group_symop_operation_xyz
x,y,z
-x,y,-z
-x,-y,-z
x,-y,z
1/2+x,1/2+y,z
1/2-x,1/2+y,-z
1/2-x,1/2-y,-z
1/2+x,1/2-y,z
loop_
_atom_site_type_symbol
_atom_site_label
_atom_site_fract_x
_atom_site_fract_y
_atom_site_fract_z
Si Si1 0.856808 0.829534 0.869367
Si Si2 0.366962 0.330414 0.412510
Si Si3 0.512501 0.826489 0.377156
Si Si4 0.813931 0.329181 0.247285
Si Si5 0.060038 0.174031 0.744426
Si Si6 0.736751 0.327608 0.110250
Si Si7 0.885567 0.326696 0.083856
Si Si8 0.597493 0.329974 0.354792
O O1 0.809132 0.781287 0.857883
O O2 0.876888 0.797758 0.753004
O O3 0.860633 0.000000 0.903866
O O4 0.880558 0.731186 0.959588
O O5 0.358409 0.500000 0.391894
O O6 0.326985 0.248401 0.361910
O O7 0.408270 0.281498 0.350684
O O8 0.372482 0.291605 0.541209
O O9 0.500000 0.779664 0.500000
O O10 0.483849 0.742919 0.288065
O O11 0.558729 0.776963 0.355372
O O12 0.508216 0.000000 0.359095
O O13 0.816668 0.500000 0.271784
O O14 0.767875 0.279905 0.210367
O O15 0.844522 0.284471 0.149394
O O16 0.075255 0.245185 0.859969
O O17 0.055445 0.000000 0.758811
O O18 0.740911 0.500000 0.088895
O O19 0.750000 0.250000 0.000000
O O20 0.893881 0.500000 0.082800
O O21 0.582873 0.500000 0.361798
#
# Coordination Sequence:
#
# PCOD8089537 Si02
#       8
#     8   8   8   8   8   8   8   8
#     4  10  21  36  56  79 109 146 184 223 267 323
#     4   9  18  32  52  77 105 139 178 218 263 314
#     4  11  22  35  55  84 112 139 177 224 271 319
#     4   9  18  31  50  77 108 139 173 220 271 313
#     4  10  19  33  56  82 108 140 180 223 267 317
#     4  10  19  33  53  80 108 140 181 225 269 315
#     4  10  19  33  53  79 112 143 177 222 274 324
#     4  10  21  38  56  78 109 146 183 221 267 321
#
# _framework density 17.947634999999998
#
# number of rings (size 3 to 8) (size 9 to 14) (size 15 to 20)
#    0.000    2.125    2.500    1.125    0.000    3.000 
#    0.000    1.250    0.000    3.750    0.000    0.000 
#    0.000    0.000    0.000    0.000    0.000    0.000 
#
# Total GULP energy -396888.360819 kJ/mol
# GULP energy per Si atom -12402.761276 kJ/mol
# Density = 1.790678 g / cm^3
# Si number density = 17.947635 Si / 1000 Ang^3
#
#
#
# Elastic Constant Matrix: (Units=GPa)
#
#
# Indices 1 2 3 4 5 6 
#
# 1 107.1047 48.4232 63.4446 0.0000 17.4514 0.0000
# 2 48.4232 67.9283 51.4555 0.0000 11.9384 0.0000
# 3 63.4446 51.4555 123.3875 0.0000 20.3304 0.0000
# 4 0.0000 0.0000 0.0000 28.7897 0.0000 9.4692
# 5 17.4514 11.9384 20.3304 0.0000 32.9090 0.0000
# 6 0.0000 0.0000 0.0000 9.4692 0.0000 26.6474
#
#
#
# Elastic Compliance Matrix: (Units=1/GPa)
#
#
# Indices 1 2 3 4 5 6 
#
# 1 0.015843 -0.007273 -0.004636 0.000000 -0.002899 0.000000
# 2 -0.007273 0.025047 -0.006506 0.000000 -0.001210 0.000000
# 3 -0.004636 -0.006506 0.013814 0.000000 -0.003715 0.000000
# 4 0.000000 0.000000 0.000000 0.039332 0.000000 -0.013976
# 5 -0.002899 -0.001210 -0.003715 0.000000 0.034658 0.000000
# 6 0.000000 0.000000 0.000000 -0.013976 0.000000 0.042494
#
#
# Mechanical properties :
#
#
# Convention : Reuss Voigt Hill
#
# Bulk Modulus (GPa) = 55.94632 69.45191 62.69911
# Shear Modulus (GPa) = 23.36719 26.67571 25.02145
#
# Velocity S-wave (km/s) = 3.61219 3.85945 3.73786
# Velocity P-wave (km/s) = 6.97401 7.65777 7.32388
#
# Compressibility (1/GPa) = 0.01787428
#
# Stress axis : x y z
#
# Youngs Moduli (GPa) = 63.11833 39.92487 72.39253
#
# Poissons Ratio (x) = 0.29037 0.33560
# Poissons Ratio (y) = 0.45905 0.47100
# Poissons Ratio (z) = 0.29260 0.25976
#
# Static dielectric constant tensor:
#      x y z
#    x 3.361530 0.000000 0.193300 
#    y 0.000000 3.298100 0.000000 
#    z 0.193300 0.000000 3.321860 
# 
# 
# High freq. dielectric constant tensor:
#      x y z
#    x 1.687060 0.000000 0.023900 
#    y 0.000000 1.696330 0.000000 
#    z 0.023900 0.000000 1.687280 
# 
# From -- ./inp_files/187452.got.cif
#   From: 2010.06.25/outbox.cif.g09.slc.cpg/sg12_94_cif.got.tgz:187452.got - 2010.06.28 00:19:55.
