data_PCOD8089874
_publ_section_title
;
Structure prediction by ZEFSAII (Michael W. Deem and Ramdas Pophale) SiO2 
 PCOD8089874
Probable space group: C 2/M
;
_chemical_formula_sum "Si O2"
_cell_formula_units_Z 64
_cell_length_a 20.981012
_cell_length_b 8.812035
_cell_length_c 23.413643
_cell_angle_alpha 90.000000
_cell_angle_beta 128.697873
_cell_angle_gamma 90.000000
_cell_volume 3378.459646
_symmetry_space_group_name_H-M "C 2/M"
_symmetry_group_IT_number 12
_symmetry_cell_setting 'monoclinic'
loop_
_space_group_symop_operation_xyz
x,y,z
-x,y,-z
-x,-y,-z
x,-y,z
1/2+x,1/2+y,z
1/2-x,1/2+y,-z
1/2-x,1/2-y,-z
1/2+x,1/2-y,z
loop_
_atom_site_type_symbol
_atom_site_label
_atom_site_fract_x
_atom_site_fract_y
_atom_site_fract_z
Si Si1 0.469896 0.680238 0.192057
Si Si2 0.820572 0.180838 0.503701
Si Si3 0.648338 0.669776 0.710553
Si Si4 0.524375 0.322935 0.344123
Si Si5 0.784596 0.176532 0.852032
Si Si6 0.881319 0.820820 0.797856
Si Si7 0.259788 0.670704 0.350003
Si Si8 0.217102 0.820049 0.923947
O O1 0.466182 0.500000 0.193111
O O2 0.512118 0.745688 0.273440
O O3 0.526739 0.730351 0.169498
O O4 0.376493 0.740172 0.136032
O O5 0.750000 0.250000 0.500000
O O6 0.902225 0.250248 0.578325
O O7 0.803616 0.240587 0.430160
O O8 0.822340 0.000000 0.505816
O O9 0.665137 0.500000 0.746097
O O10 0.554628 0.712904 0.662777
O O11 0.699246 0.795691 0.772669
O O12 0.668521 0.672738 0.655738
O O13 0.541223 0.500000 0.346630
O O14 0.856458 0.236381 0.848339
O O15 0.779294 0.266893 0.908619
O O16 0.796710 0.000000 0.872739
O O17 0.818498 0.764453 0.714564
O O18 0.874045 0.000000 0.794247
O O19 0.228509 0.500000 0.343896
O O20 0.219647 0.000000 0.928922
O O21 0.250000 0.750000 0.000000
#
# Coordination Sequence:
#
# PCOD8089874 Si02
#       8
#     8   8   8   8   8   8   8   8
#     4   9  17  32  55  80 101 131 179 221 253 301
#     4  10  20  32  46  67  98 135 175 220 267 316
#     4   9  16  30  51  73  99 135 175 217 262 308
#     4   9  16  28  50  74  96 130 176 218 258 305
#     4  10  19  33  54  82 111 138 172 211 259 313
#     4   9  18  33  56  80 104 140 181 217 253 305
#     4   9  18  30  46  73 106 135 171 219 271 312
#     4  11  22  38  60  83 109 139 172 213 260 311
#
# _framework density 18.943543999999999
#
# number of rings (size 3 to 8) (size 9 to 14) (size 15 to 20)
#    0.000    2.500    1.250    1.500    0.000    2.500 
#    0.000    5.000    0.000    3.750    0.000    4.375 
#    0.000    0.000    0.000    0.000    0.000    0.000 
#
# Total GULP energy -396481.214257 kJ/mol
# GULP energy per Si atom -12390.037946 kJ/mol
# Density = 1.890043 g / cm^3
# Si number density = 18.943544 Si / 1000 Ang^3
#
#
#
# Elastic Constant Matrix: (Units=GPa)
#
#
# Indices 1 2 3 4 5 6 
#
# 1 124.3584 20.1669 45.8248 0.0000 -13.6987 0.0000
# 2 20.1669 26.1241 17.1629 0.0000 -6.7037 0.0000
# 3 45.8248 17.1629 106.2070 0.0000 -21.4019 0.0000
# 4 0.0000 0.0000 0.0000 23.8463 0.0000 -2.2772
# 5 -13.6987 -6.7037 -21.4019 0.0000 27.2013 0.0000
# 6 0.0000 0.0000 0.0000 -2.2772 0.0000 24.1990
#
#
#
# Elastic Compliance Matrix: (Units=1/GPa)
#
#
# Indices 1 2 3 4 5 6 
#
# 1 0.010279 -0.005446 -0.003306 0.000000 0.001233 0.000000
# 2 -0.005446 0.046572 -0.004060 0.000000 0.005541 0.000000
# 3 -0.003306 -0.004060 0.013026 0.000000 0.007584 0.000000
# 4 0.000000 0.000000 0.000000 0.042315 0.000000 0.003982
# 5 0.001233 0.005541 0.007584 0.000000 0.044716 0.000000
# 6 0.000000 0.000000 0.000000 0.003982 0.000000 0.041699
#
#
# Mechanical properties :
#
#
# Convention : Reuss Voigt Hill
#
# Bulk Modulus (GPa) = 22.59755 46.99985 34.79870
# Shear Modulus (GPa) = 20.92205 26.61831 23.77018
#
# Velocity S-wave (km/s) = 3.32692 3.75259 3.54615
# Velocity P-wave (km/s) = 5.16843 6.60607 5.93097
#
# Compressibility (1/GPa) = 0.04425259
#
# Stress axis : x y z
#
# Youngs Moduli (GPa) = 97.28921 21.47215 76.76738
#
# Poissons Ratio (x) = 0.11694 0.25382
# Poissons Ratio (y) = 0.52986 0.31164
# Poissons Ratio (z) = 0.32168 0.08717
#
# Static dielectric constant tensor:
#      x y z
#    x 4.411220 0.000000 -1.086610 
#    y 0.000000 3.210350 0.000000 
#    z -1.086610 0.000000 5.115230 
# 
# 
# High freq. dielectric constant tensor:
#      x y z
#    x 1.749770 0.000000 -0.014580 
#    y 0.000000 1.701540 0.000000 
#    z -0.014580 0.000000 1.726070 
# 
# From -- ./inp_files/320103.got.cif
#   From: 2010.06.25/outbox.cif.g09.slc.cpg/sg12_161_cif.got.tgz:320103.got - 2010.06.28 00:19:55.
