data_PCOD8089695
_publ_section_title
;
Structure prediction by ZEFSAII (Michael W. Deem and Ramdas Pophale) SiO2 
 PCOD8089695
Probable space group: C 2/M
;
_chemical_formula_sum "Si O2"
_cell_formula_units_Z 56
_cell_length_a 25.191238
_cell_length_b 16.006228
_cell_length_c 23.867105
_cell_angle_alpha 90.000000
_cell_angle_beta 161.464780
_cell_angle_gamma 90.000000
_cell_volume 3059.227350
_symmetry_space_group_name_H-M "C 2/M"
_symmetry_group_IT_number 12
_symmetry_cell_setting 'monoclinic'
loop_
_space_group_symop_operation_xyz
x,y,z
-x,y,-z
-x,-y,-z
x,-y,z
1/2+x,1/2+y,z
1/2-x,1/2+y,-z
1/2-x,1/2-y,-z
1/2+x,1/2-y,z
loop_
_atom_site_type_symbol
_atom_site_label
_atom_site_fract_x
_atom_site_fract_y
_atom_site_fract_z
Si Si1 0.310433 0.218175 0.826536
Si Si2 0.367821 0.737767 0.464179
Si Si3 0.367956 0.405726 0.281794
Si Si4 0.373737 0.748231 0.675561
Si Si5 0.889185 0.905370 0.090932
Si Si6 0.297126 0.841657 0.987457
Si Si7 0.692108 0.188881 0.815126
O O1 0.209966 0.256429 0.674095
O O2 0.225474 0.129486 0.756680
O O3 0.297853 0.280216 0.867115
O O4 0.500000 0.202650 0.000000
O O5 0.469695 0.650617 0.568902
O O6 0.222517 0.734740 0.363585
O O7 0.495823 0.814775 0.603967
O O8 0.426299 0.500000 0.351259
O O9 0.234517 0.402269 0.097243
O O10 0.250000 0.750000 0.500000
O O11 0.454603 0.656402 0.759186
O O12 0.507849 0.823493 0.804929
O O13 0.786277 0.885276 0.043413
O O14 0.956005 0.000000 0.160213
O O15 0.767475 0.897309 0.914260
O O16 0.212659 0.752522 0.888540
#
# Coordination Sequence:
#
# PCOD8089695 Si02
#       7
#     8   8   8   8   8   8   8
#     4  10  19  33  54  78 102 138 181 215 253 308
#     4  10  19  34  56  77 102 140 180 214 253 310
#     4  10  20  34  51  76 111 143 175 216 259 300
#     4  11  20  35  57  79 105 138 178 213 253 315
#     4  11  21  35  55  78 106 135 171 222 271 305
#     4   9  18  34  53  74 102 140 175 204 251 315
#     4   9  18  34  55  75 101 137 176 211 253 310
#
# _framework density 18.305275999999999
#
# number of rings (size 3 to 8) (size 9 to 14) (size 15 to 20)
#    0.000    2.286    0.000    9.000    0.000    1.429 
#    0.000    6.429    0.000    5.571    0.000    0.000 
#    0.000    0.000    0.000    0.000    0.000    0.000 
#
# Total GULP energy -347049.966754 kJ/mol
# GULP energy per Si atom -12394.641670 kJ/mol
# Density = 1.826361 g / cm^3
# Si number density = 18.305276 Si / 1000 Ang^3
#
#
#
# Elastic Constant Matrix: (Units=GPa)
#
#
# Indices 1 2 3 4 5 6 
#
# 1 97.8630 37.0558 44.2389 0.0174 -0.0411 -0.0014
# 2 37.0558 72.9952 37.7204 0.0220 2.1286 0.0081
# 3 44.2389 37.7204 117.5530 -0.0859 -0.2803 -0.0130
# 4 0.0174 0.0220 -0.0859 19.4893 0.0032 -0.4768
# 5 -0.0411 2.1286 -0.2803 0.0032 41.9862 0.0038
# 6 -0.0014 0.0081 -0.0130 -0.4768 0.0038 7.7403
#
#
#
# Elastic Compliance Matrix: (Units=1/GPa)
#
#
# Indices 1 2 3 4 5 6 
#
# 1 0.013771 -0.005179 -0.003520 -0.000022 0.000253 0.000001
# 2 -0.005179 0.018402 -0.003958 -0.000034 -0.000964 -0.000028
# 3 -0.003520 -0.003958 0.011102 0.000057 0.000271 0.000026
# 4 -0.000022 -0.000034 0.000057 0.051388 -0.000002 0.003166
# 5 0.000253 -0.000964 0.000271 -0.000002 0.023868 -0.000010
# 6 0.000001 -0.000028 0.000026 0.003166 -0.000010 0.129388
#
#
# Mechanical properties :
#
#
# Convention : Reuss Voigt Hill
#
# Bulk Modulus (GPa) = 55.67672 58.49348 57.08510
# Shear Modulus (GPa) = 17.90695 25.13623 21.52159
#
# Velocity S-wave (km/s) = 3.13108 3.70965 3.43257
# Velocity P-wave (km/s) = 6.59949 7.09736 6.85294
#
# Compressibility (1/GPa) = 0.01796083
#
# Stress axis : x y z
#
# Youngs Moduli (GPa) = 72.61789 54.34128 90.07192
#
# Poissons Ratio (x) = 0.28144 0.31704
# Poissons Ratio (y) = 0.37610 0.35652
# Poissons Ratio (z) = 0.25561 0.21509
#
# Static dielectric constant tensor:
#      x y z
#    x 3.555370 -0.000030 -0.139210 
#    y -0.000030 3.221550 -0.000070 
#    z -0.139210 -0.000070 3.628190 
# 
# 
# High freq. dielectric constant tensor:
#      x y z
#    x 1.725730 0.000000 -0.010360 
#    y 0.000000 1.664920 -0.000010 
#    z -0.010360 -0.000010 1.718570 
# 
# From -- ./inp_files/349961.got.cif
#   From: 2010.06.25/outbox.cif.g09.slc.cpg/sg12_175_cif.got.tgz:349961.got - 2010.06.28 00:19:55.
