data_PCOD8089065
_publ_section_title
;
Structure prediction by ZEFSAII (Michael W. Deem and Ramdas Pophale) SiO2 
 PCOD8089065
Probable space group: C 2/M
;
_chemical_formula_sum "Si O2"
_cell_formula_units_Z 64
_cell_length_a 31.326255
_cell_length_b 8.497024
_cell_length_c 27.659297
_cell_angle_alpha 90.000000
_cell_angle_beta 152.073695
_cell_angle_gamma 90.000000
_cell_volume 3448.049954
_symmetry_space_group_name_H-M "C 2/M"
_symmetry_group_IT_number 12
_symmetry_cell_setting 'monoclinic'
loop_
_space_group_symop_operation_xyz
x,y,z
-x,y,-z
-x,-y,-z
x,-y,z
1/2+x,1/2+y,z
1/2-x,1/2+y,-z
1/2-x,1/2-y,-z
1/2+x,1/2-y,z
loop_
_atom_site_type_symbol
_atom_site_label
_atom_site_fract_x
_atom_site_fract_y
_atom_site_fract_z
Si Si1 0.727359 0.815034 0.863446
Si Si2 0.097649 0.183210 0.273912
Si Si3 0.904172 0.314459 0.185787
Si Si4 0.728666 0.316070 0.590380
Si Si5 0.403688 0.685967 0.459650
Si Si6 0.608152 0.313885 0.661238
Si Si7 0.108506 0.316470 0.389075
Si Si8 0.593351 0.185392 0.920099
O O1 0.665897 0.742038 0.845472
O O2 0.681040 0.777803 0.766225
O O3 0.740640 0.000000 0.882639
O O4 0.825547 0.732170 0.962891
O O5 0.174407 0.227020 0.311216
O O6 0.121117 0.282338 0.345212
O O7 0.999081 0.231275 0.154290
O O8 0.099763 0.000000 0.288282
O O9 0.895249 0.500000 0.177757
O O10 0.882229 0.253228 0.109702
O O11 0.006612 0.265656 0.303036
O O12 0.745772 0.500000 0.614874
O O13 0.666489 0.244211 0.571306
O O14 0.679119 0.286589 0.489878
O O15 0.406694 0.500000 0.466701
O O16 0.371475 0.733972 0.373795
O O17 0.506403 0.746158 0.572993
O O18 0.618248 0.500000 0.679370
O O19 0.127147 0.500000 0.417218
O O20 0.576423 0.000000 0.903491
#
# Coordination Sequence:
#
# PCOD8089065 Si02
#       8
#     8   8   8   8   8   8   8   8
#     4  11  20  31  49  77 106 134 166 205 249 299
#     4  11  22  36  51  71  99 134 170 211 254 296
#     4   8  17  31  48  71 103 135 167 203 244 290
#     4  11  20  32  51  76 101 132 170 209 250 298
#     4   8  17  33  55  78 103 132 167 205 246 295
#     4   9  17  34  55  77 103 134 167 203 244 295
#     4  10  19  33  50  73 104 138 171 207 245 292
#     4  10  20  36  53  71  97 135 174 211 248 291
#
# _framework density 18.561216999999999
#
# number of rings (size 3 to 8) (size 9 to 14) (size 15 to 20)
#    0.000    2.250    0.000    5.625    0.000    0.000 
#    0.000    9.375    0.000    0.750    0.000    5.250 
#    0.000    0.000    0.000    0.000    0.000    0.000 
#
# Total GULP energy -396822.527923 kJ/mol
# GULP energy per Si atom -12400.703998 kJ/mol
# Density = 1.851897 g / cm^3
# Si number density = 18.561217 Si / 1000 Ang^3
#
#
#
# Elastic Constant Matrix: (Units=GPa)
#
#
# Indices 1 2 3 4 5 6 
#
# 1 101.4587 16.2358 52.8296 0.0000 19.1793 0.0000
# 2 16.2358 48.7383 18.0372 0.0000 5.9367 0.0000
# 3 52.8296 18.0372 120.0677 0.0000 12.7917 0.0000
# 4 0.0000 0.0000 0.0000 27.9193 0.0000 1.2106
# 5 19.1793 5.9367 12.7917 0.0000 24.2130 0.0000
# 6 0.0000 0.0000 0.0000 1.2106 0.0000 20.0003
#
#
#
# Elastic Compliance Matrix: (Units=1/GPa)
#
#
# Indices 1 2 3 4 5 6 
#
# 1 0.014408 -0.001881 -0.005182 0.000000 -0.008214 0.000000
# 2 -0.001881 0.022309 -0.002225 0.000000 -0.002804 0.000000
# 3 -0.005182 -0.002225 0.011071 0.000000 -0.001199 0.000000
# 4 0.000000 0.000000 0.000000 0.035912 0.000000 -0.002174
# 5 -0.008214 -0.002804 -0.001199 0.000000 0.049127 0.000000
# 6 0.000000 0.000000 0.000000 -0.002174 0.000000 0.050131
#
#
# Mechanical properties :
#
#
# Convention : Reuss Voigt Hill
#
# Bulk Modulus (GPa) = 34.23256 49.38554 41.80905
# Shear Modulus (GPa) = 23.66619 26.63731 25.15175
#
# Velocity S-wave (km/s) = 3.57464 3.79239 3.68512
# Velocity P-wave (km/s) = 5.95990 6.77059 6.37814
#
# Compressibility (1/GPa) = 0.02921196
#
# Stress axis : x y z
#
# Youngs Moduli (GPa) = 69.40485 44.82398 90.32975
#
# Poissons Ratio (x) = 0.08433 0.46808
# Poissons Ratio (y) = 0.13058 0.20097
# Poissons Ratio (z) = 0.35965 0.09973
#
# Static dielectric constant tensor:
#      x y z
#    x 3.680640 0.000000 0.200800 
#    y 0.000000 3.151360 0.000000 
#    z 0.200800 0.000000 3.343720 
# 
# 
# High freq. dielectric constant tensor:
#      x y z
#    x 1.706600 0.000000 0.016160 
#    y 0.000000 1.706390 0.000000 
#    z 0.016160 0.000000 1.712840 
# 
# From -- ./inp_files/353561.got.cif
#   From: 2010.06.25/outbox.cif.g09.slc.cpg/sg12_177_cif.got.tgz:353561.got - 2010.06.28 00:19:55.
