data_PCOD8089798
_publ_section_title
;
Structure prediction by ZEFSAII (Michael W. Deem and Ramdas Pophale) SiO2 
 PCOD8089798
Probable space group: C 2/M
;
_chemical_formula_sum "Si O2"
_cell_formula_units_Z 56
_cell_length_a 31.452260
_cell_length_b 9.164761
_cell_length_c 11.839463
_cell_angle_alpha 90.000000
_cell_angle_beta 123.071292
_cell_angle_gamma 90.000000
_cell_volume 2859.861493
_symmetry_space_group_name_H-M "C 2/M"
_symmetry_group_IT_number 12
_symmetry_cell_setting 'monoclinic'
loop_
_space_group_symop_operation_xyz
x,y,z
-x,y,-z
-x,-y,-z
x,-y,z
1/2+x,1/2+y,z
1/2-x,1/2+y,-z
1/2-x,1/2-y,-z
1/2+x,1/2-y,z
loop_
_atom_site_type_symbol
_atom_site_label
_atom_site_fract_x
_atom_site_fract_y
_atom_site_fract_z
Si Si1 0.057046 0.828510 0.110714
Si Si2 0.566431 0.827570 0.351424
Si Si3 0.019892 0.164580 0.654452
Si Si4 0.244656 0.827588 0.373526
Si Si5 0.339902 0.170725 0.359312
Si Si6 0.864578 0.827533 0.174383
Si Si7 0.149886 0.172004 0.095350
O O1 0.079178 0.744293 0.250315
O O2 0.094049 0.786102 0.060725
O O3 0.058420 0.000000 0.138735
O O4 0.000000 0.776432 0.000000
O O5 0.511922 0.771591 0.312814
O O6 0.609265 0.778187 0.502554
O O7 0.565303 0.000000 0.335216
O O8 0.077029 0.221103 0.736773
O O9 0.000000 0.170251 0.500000
O O10 0.016197 0.000000 0.698715
O O11 0.250000 0.750000 0.500000
O O12 0.292231 0.784430 0.365654
O O13 0.194265 0.765044 0.239208
O O14 0.241809 0.000000 0.389992
O O15 0.334335 0.250919 0.231451
O O16 0.341026 0.000000 0.336430
O O17 0.858980 0.000000 0.181489
O O18 0.843106 0.771225 0.022810
O O19 0.155582 0.000000 0.101059
#
# Coordination Sequence:
#
# PCOD8089798 Si02
#       7
#     8   8   8   8   8   8   8
#     4  10  20  36  58  81 108 141 182 230 276 322
#     4  11  22  34  52  79 113 147 181 223 273 329
#     4  10  19  33  54  80 109 144 185 226 266 314
#     4  10  21  39  60  81 108 142 182 226 273 323
#     4  10  22  37  53  79 114 146 177 222 275 322
#     4  10  20  36  58  83 110 141 184 227 268 324
#     4   9  19  36  58  82 108 142 181 228 276 318
#
# _framework density 19.581368000000001
#
# number of rings (size 3 to 8) (size 9 to 14) (size 15 to 20)
#    0.000    2.000    1.429    2.143    0.000    5.143 
#    0.000    1.429    0.000    0.000    0.000    0.000 
#    0.000    0.000    0.000    0.000    0.000    0.000 
#
# Total GULP energy -347262.643517 kJ/mol
# GULP energy per Si atom -12402.237268 kJ/mol
# Density = 1.953680 g / cm^3
# Si number density = 19.581368 Si / 1000 Ang^3
#
#
#
# Elastic Constant Matrix: (Units=GPa)
#
#
# Indices 1 2 3 4 5 6 
#
# 1 135.4391 41.6444 75.2681 0.0000 -11.3801 0.0000
# 2 41.6444 42.6219 38.4977 0.0000 -9.5594 0.0000
# 3 75.2681 38.4977 150.9532 0.0000 -14.5694 0.0000
# 4 0.0000 0.0000 0.0000 27.7142 0.0000 -10.5731
# 5 -11.3801 -9.5594 -14.5694 0.0000 36.8008 0.0000
# 6 0.0000 0.0000 0.0000 -10.5731 0.0000 19.9286
#
#
#
# Elastic Compliance Matrix: (Units=1/GPa)
#
#
# Indices 1 2 3 4 5 6 
#
# 1 0.012114 -0.008283 -0.003924 0.000000 0.000041 0.000000
# 2 -0.008283 0.037071 -0.004826 0.000000 0.005158 0.000000
# 3 -0.003924 -0.004826 0.009954 0.000000 0.001474 0.000000
# 4 0.000000 0.000000 0.000000 0.045239 0.000000 0.024002
# 5 0.000041 0.005158 0.001474 0.000000 0.029109 0.000000
# 6 0.000000 0.000000 0.000000 0.024002 0.000000 0.062913
#
#
# Mechanical properties :
#
#
# Convention : Reuss Voigt Hill
#
# Bulk Modulus (GPa) = 39.88363 71.09275 55.48819
# Shear Modulus (GPa) = 20.93569 28.46232 24.69901
#
# Velocity S-wave (km/s) = 3.27335 3.81667 3.55541
# Velocity P-wave (km/s) = 5.89057 7.47046 6.72706
#
# Compressibility (1/GPa) = 0.02507295
#
# Stress axis : x y z
#
# Youngs Moduli (GPa) = 82.54615 26.97501 100.45862
#
# Poissons Ratio (x) = 0.22343 0.39421
# Poissons Ratio (y) = 0.68373 0.48486
# Poissons Ratio (z) = 0.32392 0.13019
#
# Static dielectric constant tensor:
#      x y z
#    x 3.722570 0.000000 0.061690 
#    y 0.000000 3.289030 0.000000 
#    z 0.061690 0.000000 3.815270 
# 
# 
# High freq. dielectric constant tensor:
#      x y z
#    x 1.770230 0.000000 -0.004710 
#    y 0.000000 1.733780 0.000000 
#    z -0.004710 0.000000 1.775140 
# 
# From -- ./inp_files/187776.got.cif
#   From: 2010.06.25/outbox.cif.g09.slc.cpg/sg12_94_cif.got.tgz:187776.got - 2010.06.28 00:19:55.
