data_PCOD8089475
_publ_section_title
;
Structure prediction by ZEFSAII (Michael W. Deem and Ramdas Pophale) SiO2 
 PCOD8089475
Probable space group: C 2/M
;
_chemical_formula_sum "Si O2"
_cell_formula_units_Z 48
_cell_length_a 19.238954
_cell_length_b 8.926953
_cell_length_c 29.212280
_cell_angle_alpha 90.000000
_cell_angle_beta 148.420178
_cell_angle_gamma 90.000000
_cell_volume 2627.368904
_symmetry_space_group_name_H-M "C 2/M"
_symmetry_group_IT_number 12
_symmetry_cell_setting 'monoclinic'
loop_
_space_group_symop_operation_xyz
x,y,z
-x,y,-z
-x,-y,-z
x,-y,z
1/2+x,1/2+y,z
1/2-x,1/2+y,-z
1/2-x,1/2-y,-z
1/2+x,1/2-y,z
loop_
_atom_site_type_symbol
_atom_site_label
_atom_site_fract_x
_atom_site_fract_y
_atom_site_fract_z
Si Si1 0.373594 0.825898 0.592939
Si Si2 0.355352 0.325894 0.271293
Si Si3 0.215598 0.825914 0.869748
Si Si4 0.550711 0.170584 0.264742
Si Si5 0.122131 0.328070 0.205626
Si Si6 0.143010 0.823215 0.973500
O O1 0.250000 0.750000 0.500000
O O2 0.509992 0.766530 0.647759
O O3 0.366801 0.789120 0.643399
O O4 0.365219 0.000000 0.578149
O O5 0.393673 0.500000 0.294272
O O6 0.280462 0.287162 0.181831
O O7 0.258759 0.278753 0.258352
O O8 0.073294 0.780773 0.810668
O O9 0.239657 0.000000 0.892819
O O10 0.329798 0.732400 0.959425
O O11 0.643303 0.190573 0.272136
O O12 0.496824 0.000000 0.238006
O O13 0.087766 0.500000 0.173626
O O14 0.004851 0.223057 0.122566
O O15 0.158205 0.000000 0.978969
O O16 0.250000 0.750000 0.000000
#
# Coordination Sequence:
#
# PCOD8089475 Si02
#       6
#     8   8   8   8   8   8
#     4  10  20  36  59  84 107 137 177 221 268 325
#     4   9  20  37  57  81 110 142 176 219 272 324
#     4  10  19  33  53  77 106 143 184 223 265 314
#     4   9  18  33  55  79 104 138 181 222 265 317
#     4  10  20  36  56  79 109 143 179 223 272 317
#     4  12  23  34  51  77 108 144 188 229 265 311
#
# _framework density 18.269227000000001
#
# number of rings (size 3 to 8) (size 9 to 14) (size 15 to 20)
#    0.000    2.000    1.667    2.500    0.000    2.667 
#    0.000    4.167    0.000    5.000    0.000    0.000 
#    0.000    0.000    0.000    0.000    0.000    0.000 
#
# Total GULP energy -297643.373859 kJ/mol
# GULP energy per Si atom -12401.807244 kJ/mol
# Density = 1.822765 g / cm^3
# Si number density = 18.269227 Si / 1000 Ang^3
#
#
#
# Elastic Constant Matrix: (Units=GPa)
#
#
# Indices 1 2 3 4 5 6 
#
# 1 134.9226 45.5570 62.4073 0.0000 6.5041 0.0000
# 2 45.5570 102.1027 62.9014 0.0000 2.4737 0.0000
# 3 62.4073 62.9014 127.1475 0.0000 -4.9799 0.0000
# 4 0.0000 0.0000 0.0000 34.8708 0.0000 0.3408
# 5 6.5041 2.4737 -4.9799 0.0000 20.1749 0.0000
# 6 0.0000 0.0000 0.0000 0.3408 0.0000 23.8479
#
#
#
# Elastic Compliance Matrix: (Units=1/GPa)
#
#
# Indices 1 2 3 4 5 6 
#
# 1 0.010198 -0.001823 -0.004265 0.000000 -0.004117 0.000000
# 2 -0.001823 0.014660 -0.006467 0.000000 -0.002806 0.000000
# 3 -0.004265 -0.006467 0.013372 0.000000 0.005469 0.000000
# 4 0.000000 0.000000 0.000000 0.028681 0.000000 -0.000410
# 5 -0.004117 -0.002806 0.005469 0.000000 0.052588 0.000000
# 6 0.000000 0.000000 0.000000 -0.000410 0.000000 0.041938
#
#
# Mechanical properties :
#
#
# Convention : Reuss Voigt Hill
#
# Bulk Modulus (GPa) = 76.22500 78.43379 77.32939
# Shear Modulus (GPa) = 26.18876 28.66587 27.42731
#
# Velocity S-wave (km/s) = 3.79025 3.96546 3.87885
# Velocity P-wave (km/s) = 7.80823 7.99949 7.90444
#
# Compressibility (1/GPa) = 0.01311906
#
# Stress axis : x y z
#
# Youngs Moduli (GPa) = 98.05412 68.21346 74.78361
#
# Poissons Ratio (x) = 0.12437 0.31895
# Poissons Ratio (y) = 0.17877 0.48366
# Poissons Ratio (z) = 0.41820 0.44117
#
# Static dielectric constant tensor:
#      x y z
#    x 3.575730 0.000000 -0.186530 
#    y 0.000000 3.435580 0.000000 
#    z -0.186530 0.000000 3.241880 
# 
# 
# High freq. dielectric constant tensor:
#      x y z
#    x 1.708440 0.000000 -0.013480 
#    y 0.000000 1.713410 0.000000 
#    z -0.013480 0.000000 1.690320 
# 
# From -- ./inp_files/248777.got.cif
#   From: 2010.06.25/outbox.cif.g09.slc.cpg/sg12_125_cif.got.tgz:248777.got - 2010.06.28 00:19:55.
