data_PCOD8089777
_publ_section_title
;
Structure prediction by ZEFSAII (Michael W. Deem and Ramdas Pophale) SiO2 
 PCOD8089777
Probable space group: C 2/M
;
_chemical_formula_sum "Si O2"
_cell_formula_units_Z 56
_cell_length_a 18.706318
_cell_length_b 9.309285
_cell_length_c 20.376225
_cell_angle_alpha 90.000000
_cell_angle_beta 57.185633
_cell_angle_gamma 90.000000
_cell_volume 2982.155582
_symmetry_space_group_name_H-M "C 2/M"
_symmetry_group_IT_number 12
_symmetry_cell_setting 'monoclinic'
loop_
_space_group_symop_operation_xyz
x,y,z
-x,y,-z
-x,-y,-z
x,-y,z
1/2+x,1/2+y,z
1/2-x,1/2+y,-z
1/2-x,1/2-y,-z
1/2+x,1/2-y,z
loop_
_atom_site_type_symbol
_atom_site_label
_atom_site_fract_x
_atom_site_fract_y
_atom_site_fract_z
Si Si1 0.040167 0.837100 0.221035
Si Si2 0.589578 0.661359 0.430591
Si Si3 0.218317 0.158039 0.833160
Si Si4 0.253358 0.834857 0.430614
Si Si5 0.095330 0.344517 0.304916
Si Si6 0.773324 0.831548 0.922780
Si Si7 0.644141 0.332440 0.732004
O O1 0.029809 0.742344 0.291950
O O2 0.126538 0.801704 0.139066
O O3 0.957685 0.808669 0.217147
O O4 0.042387 0.000000 0.244849
O O5 0.500000 0.721860 0.500000
O O6 0.579187 0.500000 0.408422
O O7 0.656375 0.667707 0.455678
O O8 0.621251 0.762296 0.357316
O O9 0.318034 0.135093 0.776657
O O10 0.210353 0.270903 0.896914
O O11 0.176204 0.220871 0.787484
O O12 0.178139 0.000000 0.869806
O O13 0.250000 0.750000 0.500000
O O14 0.313827 0.759203 0.347109
O O15 0.283867 0.000000 0.425452
O O16 0.054803 0.500000 0.341342
O O17 0.754584 0.000000 0.939153
O O18 0.750000 0.750000 0.000000
O O19 0.668489 0.500000 0.709685
#
# Coordination Sequence:
#
# PCOD8089777 Si02
#       7
#     8   8   8   8   8   8   8
#     4   9  20  36  57  82 110 146 185 221 268 331
#     4  10  22  38  54  73 102 143 187 227 274 331
#     4   9  18  34  57  82 108 141 179 221 271 325
#     4  11  24  39  56  79 111 149 189 235 284 333
#     4  10  19  33  54  80 106 136 178 232 278 318
#     4  10  20  36  59  86 114 146 182 222 269 325
#     4  10  20  38  60  81 111 148 187 231 277 331
#
# _framework density 18.778362000000001
#
# number of rings (size 3 to 8) (size 9 to 14) (size 15 to 20)
#    0.000    2.143    1.429    1.286    2.000    3.143 
#    0.000    0.714    0.000    4.286    0.000    0.000 
#    0.000    0.000    0.000    0.000    0.000    0.000 
#
# Total GULP energy -347090.856152 kJ/mol
# GULP energy per Si atom -12396.102005 kJ/mol
# Density = 1.873562 g / cm^3
# Si number density = 18.778362 Si / 1000 Ang^3
#
#
#
# Elastic Constant Matrix: (Units=GPa)
#
#
# Indices 1 2 3 4 5 6 
#
# 1 110.4302 52.1600 48.0372 0.0000 17.8210 -0.0001
# 2 52.1600 125.6230 67.6301 -0.0001 22.7783 -0.0004
# 3 48.0372 67.6301 89.8980 0.0000 26.7443 0.0000
# 4 0.0000 -0.0001 0.0000 28.4798 0.0000 8.5104
# 5 17.8210 22.7783 26.7443 0.0000 33.1659 0.0000
# 6 -0.0001 -0.0004 0.0000 8.5104 0.0000 28.0707
#
#
#
# Elastic Compliance Matrix: (Units=1/GPa)
#
#
# Indices 1 2 3 4 5 6 
#
# 1 0.012349 -0.002595 -0.004213 0.000000 -0.001456 0.000000
# 2 -0.002595 0.013975 -0.008796 0.000000 -0.001110 0.000000
# 3 -0.004213 -0.008796 0.023052 0.000000 -0.010283 0.000000
# 4 0.000000 0.000000 0.000000 0.038611 0.000000 -0.011706
# 5 -0.001456 -0.001110 -0.010283 0.000000 0.039988 0.000000
# 6 0.000000 0.000000 0.000000 -0.011706 0.000000 0.039173
#
#
# Mechanical properties :
#
#
# Convention : Reuss Voigt Hill
#
# Bulk Modulus (GPa) = 55.04755 73.51176 64.27966
# Shear Modulus (GPa) = 24.46040 28.48485 26.47263
#
# Velocity S-wave (km/s) = 3.61305 3.89896 3.75872
# Velocity P-wave (km/s) = 6.83985 7.71371 7.28988
#
# Compressibility (1/GPa) = 0.01816611
#
# Stress axis : x y z
#
# Youngs Moduli (GPa) = 80.97818 71.55835 43.38107
#
# Poissons Ratio (x) = 0.18571 0.18278
# Poissons Ratio (y) = 0.21016 0.38158
# Poissons Ratio (z) = 0.34119 0.62942
#
# Static dielectric constant tensor:
#      x y z
#    x 3.508390 0.000000 0.057220 
#    y 0.000000 3.825990 0.000000 
#    z 0.057220 0.000000 3.243260 
# 
# 
# High freq. dielectric constant tensor:
#      x y z
#    x 1.731220 0.000000 0.011190 
#    y 0.000000 1.738450 0.000000 
#    z 0.011190 0.000000 1.706820 
# 
# From -- ./inp_files/275309.got.cif
#   From: 2010.06.25/outbox.cif.g09.slc.cpg/sg12_138_cif.got.tgz:275309.got - 2010.06.28 00:19:55.
