data_PCOD8089244
_publ_section_title
;
Structure prediction by ZEFSAII (Michael W. Deem and Ramdas Pophale) SiO2 
 PCOD8089244
Probable space group: C 2/M
;
_chemical_formula_sum "Si O2"
_cell_formula_units_Z 56
_cell_length_a 14.729013
_cell_length_b 17.746318
_cell_length_c 15.835044
_cell_angle_alpha 90.000000
_cell_angle_beta 126.761612
_cell_angle_gamma 90.000000
_cell_volume 3315.931488
_symmetry_space_group_name_H-M "C 2/M"
_symmetry_group_IT_number 12
_symmetry_cell_setting 'monoclinic'
loop_
_space_group_symop_operation_xyz
x,y,z
-x,y,-z
-x,-y,-z
x,-y,z
1/2+x,1/2+y,z
1/2-x,1/2+y,-z
1/2-x,1/2-y,-z
1/2+x,1/2-y,z
loop_
_atom_site_type_symbol
_atom_site_label
_atom_site_fract_x
_atom_site_fract_y
_atom_site_fract_z
Si Si1 0.722555 0.664801 0.574744
Si Si2 0.104535 0.285069 0.619037
Si Si3 0.891394 0.088894 0.985677
Si Si4 0.007913 0.115390 0.208591
Si Si5 0.474666 0.500000 0.336897
Si Si6 0.928241 0.238745 0.644564
Si Si7 0.264906 0.416118 0.758479
Si Si8 0.330189 0.500000 0.415298
O O1 0.679624 0.714332 0.630210
O O2 0.845437 0.690699 0.611120
O O3 0.630156 0.676832 0.449462
O O4 0.739040 0.577280 0.608048
O O5 0.182788 0.358735 0.665470
O O6 0.000000 0.303612 0.500000
O O7 0.049841 0.266426 0.678606
O O8 0.896205 0.118483 0.085384
O O9 0.900910 0.000000 0.995408
O O10 0.782486 0.110190 0.866842
O O11 0.000000 0.124876 0.000000
O O12 0.976693 0.072963 0.278056
O O13 0.045476 0.200047 0.251612
O O14 0.112975 0.076644 0.219143
O O15 0.364521 0.500000 0.335648
O O16 0.573103 0.500000 0.460677
O O17 0.210824 0.500000 0.725270
#
# Coordination Sequence:
#
# PCOD8089244 Si02
#       8
#     8   8   8   8   4   8   8   4
#     4  10  20  35  49  69 104 141 170 212 251 297
#     4  10  21  35  49  72 106 140 173 207 252 304
#     4   8  15  27  48  76 102 126 158 213 269 303
#     4  11  16  31  52  78 102 127 170 207 265 314
#     4  11  20  26  49  81  98 126 166 219 258 307
#     4  10  20  32  51  71  99 142 171 202 252 303
#     4  10  19  33  52  75 105 134 166 212 261 306
#     4  11  22  32  46  75 106 134 172 211 255 297
#
# _framework density 16.888165000000001
#
# number of rings (size 3 to 8) (size 9 to 14) (size 15 to 20)
#    0.000    2.000    4.286    1.714    4.000    0.286 
#    1.286    0.714    0.000    0.000    0.000    0.000 
#    0.000    2.286    0.000    0.000    0.000    0.000 
#
# Total GULP energy -346915.776296 kJ/mol
# GULP energy per Si atom -12389.849153 kJ/mol
# Density = 1.684973 g / cm^3
# Si number density = 16.888165 Si / 1000 Ang^3
#
#
#
# Elastic Constant Matrix: (Units=GPa)
#
#
# Indices 1 2 3 4 5 6 
#
# 1 65.2221 27.3800 19.0544 0.0000 -11.5966 0.0000
# 2 27.3800 107.3990 37.5043 0.0000 -0.8201 0.0000
# 3 19.0544 37.5043 70.1346 0.0000 -16.3093 0.0000
# 4 0.0000 0.0000 0.0000 23.9612 0.0000 -3.5474
# 5 -11.5966 -0.8201 -16.3093 0.0000 19.4109 0.0000
# 6 0.0000 0.0000 0.0000 -3.5474 0.0000 20.0313
#
#
#
# Elastic Compliance Matrix: (Units=1/GPa)
#
#
# Indices 1 2 3 4 5 6 
#
# 1 0.019395 -0.004844 -0.000040 0.000000 0.011349 0.000000
# 2 -0.004844 0.013208 -0.007818 0.000000 -0.008904 0.000000
# 3 -0.000040 -0.007818 0.022827 0.000000 0.018826 0.000000
# 4 0.000000 0.000000 0.000000 0.042858 0.000000 0.007590
# 5 0.011349 -0.008904 0.018826 0.000000 0.073739 0.000000
# 6 0.000000 0.000000 0.000000 0.007590 0.000000 0.051266
#
#
# Mechanical properties :
#
#
# Convention : Reuss Voigt Hill
#
# Bulk Modulus (GPa) = 33.30258 45.62590 39.46424
# Shear Modulus (GPa) = 19.32699 23.26847 21.29773
#
# Velocity S-wave (km/s) = 3.38658 3.71590 3.55506
# Velocity P-wave (km/s) = 5.92066 6.74431 6.34586
#
# Compressibility (1/GPa) = 0.03002771
#
# Stress axis : x y z
#
# Youngs Moduli (GPa) = 51.55901 75.71222 43.80715
#
# Poissons Ratio (x) = 0.36675 0.00175
# Poissons Ratio (y) = 0.24975 0.34246
# Poissons Ratio (z) = 0.00206 0.59188
#
# Static dielectric constant tensor:
#      x y z
#    x 3.116090 0.000000 -0.247170 
#    y 0.000000 3.014340 0.000000 
#    z -0.247170 0.000000 3.259940 
# 
# 
# High freq. dielectric constant tensor:
#      x y z
#    x 1.627780 0.000000 -0.022780 
#    y 0.000000 1.639480 0.000000 
#    z -0.022780 0.000000 1.637830 
# 
# From -- ./inp_files/216458.got.cif
#   From: 2010.06.25/outbox.cif.g09.slc.cpg/sg12_109_cif.got.tgz:216458.got - 2010.06.28 00:19:55.
