data_PCOD8089058
_publ_section_title
;
Structure prediction by ZEFSAII (Michael W. Deem and Ramdas Pophale) SiO2 
 PCOD8089058
Probable space group: C 2/M
;
_chemical_formula_sum "Si O2"
_cell_formula_units_Z 56
_cell_length_a 29.981846
_cell_length_b 9.174024
_cell_length_c 15.869332
_cell_angle_alpha 90.000000
_cell_angle_beta 134.502319
_cell_angle_gamma 90.000000
_cell_volume 3113.161612
_symmetry_space_group_name_H-M "C 2/M"
_symmetry_group_IT_number 12
_symmetry_cell_setting 'monoclinic'
loop_
_space_group_symop_operation_xyz
x,y,z
-x,y,-z
-x,-y,-z
x,-y,z
1/2+x,1/2+y,z
1/2-x,1/2+y,-z
1/2-x,1/2-y,-z
1/2+x,1/2-y,z
loop_
_atom_site_type_symbol
_atom_site_label
_atom_site_fract_x
_atom_site_fract_y
_atom_site_fract_z
Si Si1 0.693756 0.171027 0.971078
Si Si2 0.596702 0.173126 0.111585
Si Si3 0.486300 0.172447 0.847190
Si Si4 0.595798 0.667546 0.737977
Si Si5 0.720651 0.170901 0.198017
Si Si6 0.359419 0.673783 0.384423
Si Si7 0.034096 0.832836 0.353396
O O1 0.628517 0.234308 0.852029
O O2 0.697375 0.000000 0.957809
O O3 0.750000 0.250000 0.000000
O O4 0.698194 0.207310 0.074887
O O5 0.572258 0.220486 0.171279
O O6 0.666995 0.235308 0.189329
O O7 0.597153 0.000000 0.105526
O O8 0.549684 0.229099 0.976132
O O9 0.479273 0.242582 0.747378
O O10 0.487850 0.000000 0.837529
O O11 0.617948 0.500000 0.777393
O O12 0.614420 0.728839 0.670792
O O13 0.521771 0.682173 0.653209
O O14 0.789463 0.238279 0.306887
O O15 0.726553 0.000000 0.219742
O O16 0.359802 0.500000 0.383359
O O17 0.403963 0.729739 0.518582
O O18 0.043324 0.000000 0.338788
#
# Coordination Sequence:
#
# PCOD8089058 Si02
#       7
#     8   8   8   8   8   8   8
#     4  11  20  31  50  76 103 130 160 200 246 292
#     4   8  15  29  51  75  94 122 159 200 246 295
#     4   9  17  32  52  73  98 122 157 204 250 297
#     4  10  19  33  50  71  97 130 170 206 242 284
#     4   9  16  28  49  73  95 123 165 202 235 285
#     4   9  17  31  48  68  96 132 169 203 236 287
#     4  10  20  32  50  72  97 130 167 204 245 291
#
# _framework density 17.988143999999998
#
# number of rings (size 3 to 8) (size 9 to 14) (size 15 to 20)
#    0.000    2.571    1.429    2.571    0.000    3.429 
#    0.000    2.857    0.000    3.429    0.000    0.000 
#    0.000    0.000    0.000    0.000    0.000    0.000 
#
# Total GULP energy -347074.599242 kJ/mol
# GULP energy per Si atom -12395.521402 kJ/mol
# Density = 1.794720 g / cm^3
# Si number density = 17.988144 Si / 1000 Ang^3
#
#
#
# Elastic Constant Matrix: (Units=GPa)
#
#
# Indices 1 2 3 4 5 6 
#
# 1 133.6157 12.5798 49.5121 0.0000 10.8812 0.0000
# 2 12.5798 20.9598 16.2393 0.0000 -0.5557 0.0000
# 3 49.5121 16.2393 101.4106 0.0000 10.5505 0.0000
# 4 0.0000 0.0000 0.0000 24.1052 0.0000 -2.8251
# 5 10.8812 -0.5557 10.5505 0.0000 25.4286 0.0000
# 6 0.0000 0.0000 0.0000 -2.8251 0.0000 18.1396
#
#
#
# Elastic Compliance Matrix: (Units=1/GPa)
#
#
# Indices 1 2 3 4 5 6 
#
# 1 0.009380 -0.002677 -0.003895 0.000000 -0.002456 0.000000
# 2 -0.002677 0.055854 -0.008239 0.000000 0.005784 0.000000
# 3 -0.003895 -0.008239 0.013511 0.000000 -0.004119 0.000000
# 4 0.000000 0.000000 0.000000 0.042256 0.000000 0.006581
# 5 -0.002456 0.005784 -0.004119 0.000000 0.042212 0.000000
# 6 0.000000 0.000000 0.000000 0.006581 0.000000 0.056153
#
#
# Mechanical properties :
#
#
# Convention : Reuss Voigt Hill
#
# Bulk Modulus (GPa) = 20.35755 45.84984 33.10369
# Shear Modulus (GPa) = 18.84228 25.37834 22.11031
#
# Velocity S-wave (km/s) = 3.24000 3.76019 3.50974
# Velocity P-wave (km/s) = 5.03374 6.66305 5.90486
#
# Compressibility (1/GPa) = 0.04912183
#
# Stress axis : x y z
#
# Youngs Moduli (GPa) = 106.61464 17.90396 74.01598
#
# Poissons Ratio (x) = 0.04792 0.28831
# Poissons Ratio (y) = 0.28536 0.60982
# Poissons Ratio (z) = 0.41530 0.14751
#
# Static dielectric constant tensor:
#      x y z
#    x 3.676480 0.000000 0.263070 
#    y 0.000000 2.985460 0.000000 
#    z 0.263070 0.000000 3.409730 
# 
# 
# High freq. dielectric constant tensor:
#      x y z
#    x 1.708760 0.000000 0.009390 
#    y 0.000000 1.647700 0.000000 
#    z 0.009390 0.000000 1.692790 
# 
# From -- ./inp_files/237351.got.cif
#   From: 2010.06.25/outbox.cif.g09.slc.cpg/sg12_119_cif.got.tgz:237351.got - 2010.06.28 00:19:55.
