data_PCOD8089390
_publ_section_title
;
Structure prediction by ZEFSAII (Michael W. Deem and Ramdas Pophale) SiO2 
 PCOD8089390
Probable space group: C 2/M
;
_chemical_formula_sum "Si O2"
_cell_formula_units_Z 64
_cell_length_a 14.384463
_cell_length_b 9.346089
_cell_length_c 26.746117
_cell_angle_alpha 90.000000
_cell_angle_beta 105.892479
_cell_angle_gamma 90.000000
_cell_volume 3458.269319
_symmetry_space_group_name_H-M "C 2/M"
_symmetry_group_IT_number 12
_symmetry_cell_setting 'monoclinic'
loop_
_space_group_symop_operation_xyz
x,y,z
-x,y,-z
-x,-y,-z
x,-y,z
1/2+x,1/2+y,z
1/2-x,1/2+y,-z
1/2-x,1/2-y,-z
1/2+x,1/2-y,z
loop_
_atom_site_type_symbol
_atom_site_label
_atom_site_fract_x
_atom_site_fract_y
_atom_site_fract_z
Si Si1 0.356095 0.665445 0.708664
Si Si2 0.909535 0.161671 0.094655
Si Si3 0.792501 0.332291 0.553057
Si Si4 0.611536 0.161285 0.004319
Si Si5 0.465104 0.332671 0.625098
Si Si6 0.397832 0.331145 0.825666
Si Si7 0.814800 0.164984 0.360814
Si Si8 0.282391 0.161914 0.882573
O O1 0.327445 0.500000 0.704361
O O2 0.436695 0.698086 0.678501
O O3 0.401682 0.712991 0.768153
O O4 0.256367 0.749163 0.685842
O O5 0.866879 0.247690 0.041688
O O6 0.832632 0.165959 0.128181
O O7 0.007198 0.228199 0.131971
O O8 0.927496 0.000000 0.079003
O O9 0.806712 0.500000 0.543394
O O10 0.750000 0.250000 0.500000
O O11 0.896378 0.263061 0.580242
O O12 0.716383 0.308776 0.586617
O O13 0.647577 0.000000 0.999418
O O14 0.500000 0.167511 0.000000
O O15 0.668068 0.226008 0.060073
O O16 0.451042 0.500000 0.609428
O O17 0.575104 0.283247 0.631429
O O18 0.388964 0.500000 0.830184
O O19 0.306172 0.257522 0.838078
O O20 0.805213 0.000000 0.344437
O O21 0.319731 0.000000 0.879242
#
# Coordination Sequence:
#
# PCOD8089390 Si02
#       8
#     8   8   8   8   8   8   8   8
#     4   9  19  35  54  75 102 133 168 213 263 309
#     4  10  21  35  53  76 101 131 170 209 251 306
#     4  10  20  34  52  79 114 146 180 219 259 306
#     4  10  19  33  53  75 102 132 165 206 255 308
#     4   9  18  35  57  78 103 139 178 217 262 306
#     4  10  21  36  52  75 104 132 165 210 258 306
#     4   9  19  35  56  80 104 137 180 219 257 306
#     4  10  21  36  53  75 101 133 169 207 253 309
#
# _framework density 18.506366
#
# number of rings (size 3 to 8) (size 9 to 14) (size 15 to 20)
#    0.000    2.375    1.250    0.750    0.000    4.250 
#    0.000    5.000    0.000    0.000    0.000    0.000 
#    0.000    0.000    0.000    0.000    0.000    0.000 
#
# Total GULP energy -396831.132499 kJ/mol
# GULP energy per Si atom -12400.972891 kJ/mol
# Density = 1.846424 g / cm^3
# Si number density = 18.506366 Si / 1000 Ang^3
#
#
#
# Elastic Constant Matrix: (Units=GPa)
#
#
# Indices 1 2 3 4 5 6 
#
# 1 105.6156 33.4710 32.1776 0.0000 -2.6553 0.0000
# 2 33.4710 58.4919 45.3615 0.0000 0.2641 0.0000
# 3 32.1776 45.3615 103.3762 0.0000 -0.5133 0.0000
# 4 0.0000 0.0000 0.0000 31.5076 0.0000 -0.3067
# 5 -2.6553 0.2641 -0.5133 0.0000 17.1397 0.0000
# 6 0.0000 0.0000 0.0000 -0.3067 0.0000 28.9878
#
#
#
# Elastic Compliance Matrix: (Units=1/GPa)
#
#
# Indices 1 2 3 4 5 6 
#
# 1 0.011702 -0.005892 -0.001048 0.000000 0.001872 0.000000
# 2 -0.005892 0.028892 -0.010852 0.000000 -0.001683 0.000000
# 3 -0.001048 -0.010852 0.014764 0.000000 0.000447 0.000000
# 4 0.000000 0.000000 0.000000 0.031742 0.000000 0.000336
# 5 0.001872 -0.001683 0.000447 0.000000 0.058674 0.000000
# 6 0.000000 0.000000 0.000000 0.000336 0.000000 0.034501
#
#
# Mechanical properties :
#
#
# Convention : Reuss Voigt Hill
#
# Bulk Modulus (GPa) = 50.57282 54.38934 52.48108
# Shear Modulus (GPa) = 22.47721 25.95859 24.21790
#
# Velocity S-wave (km/s) = 3.48884 3.74931 3.62142
# Velocity P-wave (km/s) = 6.60424 6.94236 6.77541
#
# Compressibility (1/GPa) = 0.01977347
#
# Stress axis : x y z
#
# Youngs Moduli (GPa) = 85.45656 34.61220 67.73436
#
# Poissons Ratio (x) = 0.20394 0.07096
# Poissons Ratio (y) = 0.50353 0.73505
# Poissons Ratio (z) = 0.08953 0.37561
#
# Static dielectric constant tensor:
#      x y z
#    x 3.441790 0.000000 0.004620 
#    y 0.000000 3.397800 0.000000 
#    z 0.004620 0.000000 3.389830 
# 
# 
# High freq. dielectric constant tensor:
#      x y z
#    x 1.721560 0.000000 -0.000470 
#    y 0.000000 1.711850 0.000000 
#    z -0.000470 0.000000 1.712820 
# 
# From -- ./inp_files/359704.got.cif
#   From: 2010.06.25/outbox.cif.g09.slc.cpg/sg12_180_cif.got.tgz:359704.got - 2010.06.28 00:19:55.
