data_PCOD8089046
_publ_section_title
;
Structure prediction by ZEFSAII (Michael W. Deem and Ramdas Pophale) SiO2 
 PCOD8089046
Probable space group: C 2/M
;
_chemical_formula_sum "Si O2"
_cell_formula_units_Z 64
_cell_length_a 20.700633
_cell_length_b 8.758971
_cell_length_c 25.487741
_cell_angle_alpha 90.000000
_cell_angle_beta 50.120902
_cell_angle_gamma 90.000000
_cell_volume 3546.413318
_symmetry_space_group_name_H-M "C 2/M"
_symmetry_group_IT_number 12
_symmetry_cell_setting 'monoclinic'
loop_
_space_group_symop_operation_xyz
x,y,z
-x,y,-z
-x,-y,-z
x,-y,z
1/2+x,1/2+y,z
1/2-x,1/2+y,-z
1/2-x,1/2-y,-z
1/2+x,1/2-y,z
loop_
_atom_site_type_symbol
_atom_site_label
_atom_site_fract_x
_atom_site_fract_y
_atom_site_fract_z
Si Si1 0.820792 0.819177 0.999998
Si Si2 0.322173 0.818759 0.651127
Si Si3 0.917937 0.667747 0.506908
Si Si4 0.925204 0.180827 0.770119
Si Si5 0.482224 0.680661 0.852839
Si Si6 0.232755 0.319409 0.865145
Si Si7 0.662571 0.681239 0.796919
Si Si8 0.975908 0.682292 0.639982
O O1 0.814677 0.757071 0.061672
O O2 0.811148 0.000000 0.004405
O O3 0.750000 0.750000 0.000000
O O4 0.911384 0.766915 0.930818
O O5 0.346281 0.749063 0.580489
O O6 0.228669 0.771086 0.717005
O O7 0.387544 0.760158 0.661188
O O8 0.331794 0.000000 0.641625
O O9 0.884324 0.500000 0.509539
O O10 0.000000 0.653081 0.500000
O O11 0.946633 0.746644 0.436950
O O12 0.960627 0.246115 0.806507
O O13 0.829205 0.237333 0.813600
O O14 0.983646 0.248774 0.693848
O O15 0.930263 0.000000 0.765275
O O16 0.485246 0.500000 0.847492
O O17 0.572213 0.742484 0.825204
O O18 0.227973 0.500000 0.873957
O O19 0.184877 0.266826 0.838417
O O20 0.664332 0.500000 0.806070
O O21 0.979176 0.500000 0.640832
#
# Coordination Sequence:
#
# PCOD8089046 Si02
#       8
#     8   8   8   8   8   8   8   8
#     4  11  21  37  58  79 103 133 171 210 254 300
#     4   8  13  23  44  73  98 124 161 205 249 291
#     4   7  11  20  37  66 102 126 149 202 257 285
#     4  10  19  33  50  70 101 136 166 201 250 302
#     4   9  20  37  54  74 101 133 166 206 255 304
#     4  11  22  36  54  77 105 135 167 207 256 302
#     4  10  19  34  56  78 100 130 173 212 246 299
#     4   9  15  25  45  74  99 123 164 212 249 285
#
# _framework density 18.046403000000002
#
# number of rings (size 3 to 8) (size 9 to 14) (size 15 to 20)
#    0.000    2.625    2.500    2.250    0.000    1.000 
#    0.000    4.375    0.000    4.875    0.000    0.000 
#    0.000    0.000    0.000    0.000    0.000    0.000 
#
# Total GULP energy -396544.751370 kJ/mol
# GULP energy per Si atom -12392.023480 kJ/mol
# Density = 1.800533 g / cm^3
# Si number density = 18.046403 Si / 1000 Ang^3
#
#
#
# Elastic Constant Matrix: (Units=GPa)
#
#
# Indices 1 2 3 4 5 6 
#
# 1 111.2486 20.8313 75.4458 0.0001 0.1917 0.0004
# 2 20.8313 29.7940 32.0221 -0.0002 1.3348 0.0007
# 3 75.4458 32.0221 197.8565 0.0001 9.6581 0.0001
# 4 0.0001 -0.0002 0.0001 21.0678 0.0000 5.7406
# 5 0.1917 1.3348 9.6581 0.0000 27.0469 0.0003
# 6 0.0004 0.0007 0.0001 5.7406 0.0003 19.8421
#
#
#
# Elastic Compliance Matrix: (Units=1/GPa)
#
#
# Indices 1 2 3 4 5 6 
#
# 1 0.012655 -0.004418 -0.004190 0.000000 0.001624 0.000000
# 2 -0.004418 0.042177 -0.005131 0.000001 -0.000218 -0.000002
# 3 -0.004190 -0.005131 0.007601 0.000000 -0.002431 0.000000
# 4 0.000000 0.000001 0.000000 0.051528 0.000000 -0.014908
# 5 0.001624 -0.000218 -0.002431 0.000000 0.037840 -0.000001
# 6 0.000000 -0.000002 0.000000 -0.014908 -0.000001 0.054711
#
#
# Mechanical properties :
#
#
# Convention : Reuss Voigt Hill
#
# Bulk Modulus (GPa) = 28.60749 66.16640 47.38695
# Shear Modulus (GPa) = 20.35500 27.63137 23.99318
#
# Velocity S-wave (km/s) = 3.36210 3.91721 3.65022
# Velocity P-wave (km/s) = 5.56401 7.56330 6.63935
#
# Compressibility (1/GPa) = 0.03495587
#
# Stress axis : x y z
#
# Youngs Moduli (GPa) = 79.02245 23.70962 131.56363
#
# Poissons Ratio (x) = 0.10474 0.55122
# Poissons Ratio (y) = 0.34909 0.67505
# Poissons Ratio (z) = 0.33108 0.12165
#
# Static dielectric constant tensor:
#      x y z
#    x 3.163540 0.000000 -0.052580 
#    y 0.000000 2.951730 0.000000 
#    z -0.052580 0.000000 3.876690 
# 
# 
# High freq. dielectric constant tensor:
#      x y z
#    x 1.665970 0.000000 0.006930 
#    y 0.000000 1.657960 0.000000 
#    z 0.006930 0.000000 1.726650 
# 
# From -- ./inp_files/345946.got.cif
#   From: 2010.06.25/outbox.cif.g09.slc.cpg/sg12_173_cif.got.tgz:345946.got - 2010.06.28 00:19:55.
