data_PCOD8089688
_publ_section_title
;
Structure prediction by ZEFSAII (Michael W. Deem and Ramdas Pophale) SiO2 
 PCOD8089688
Probable space group: C 2/M
;
_chemical_formula_sum "Si O2"
_cell_formula_units_Z 48
_cell_length_a 13.434499
_cell_length_b 21.751566
_cell_length_c 13.419236
_cell_angle_alpha 90.000000
_cell_angle_beta 43.819432
_cell_angle_gamma 90.000000
_cell_volume 2715.121559
_symmetry_space_group_name_H-M "C 2/M"
_symmetry_group_IT_number 12
_symmetry_cell_setting 'monoclinic'
loop_
_space_group_symop_operation_xyz
x,y,z
-x,y,-z
-x,-y,-z
x,-y,z
1/2+x,1/2+y,z
1/2-x,1/2+y,-z
1/2-x,1/2-y,-z
1/2+x,1/2-y,z
loop_
_atom_site_type_symbol
_atom_site_label
_atom_site_fract_x
_atom_site_fract_y
_atom_site_fract_z
Si Si1 0.939595 0.299269 0.432663
Si Si2 0.047914 0.071487 0.353232
Si Si3 0.844889 0.337771 0.886464
Si Si4 0.857239 0.427925 0.048476
Si Si5 0.117812 0.824339 0.633356
Si Si6 0.563067 0.278042 0.059590
O O1 0.926309 0.227021 0.416360
O O2 0.787456 0.332106 0.525105
O O3 0.000000 0.305908 0.500000
O O4 0.044541 0.336191 0.283950
O O5 0.215224 0.090008 0.215410
O O6 0.000000 0.086435 0.500000
O O7 0.948440 0.110778 0.351357
O O8 0.022832 0.000000 0.345860
O O9 0.871209 0.284593 0.947290
O O10 0.852002 0.401594 0.940491
O O11 0.685539 0.329524 0.957500
O O12 0.868029 0.500000 0.026950
O O13 0.000000 0.402422 0.000000
O O14 0.060901 0.804428 0.781507
O O15 0.500000 0.260277 0.000000
#
# Coordination Sequence:
#
# PCOD8089688 Si02
#       6
#     8   8   8   8   8   8
#     4  10  21  35  54  81 111 144 178 219 270 321
#     4  10  21  37  58  82 108 141 180 223 271 323
#     4  10  20  34  53  80 108 138 177 220 269 319
#     4  10  21  37  57  82 110 140 178 225 274 321
#     4  10  20  36  55  80 111 142 178 222 269 319
#     4  10  19  33  54  77 107 142 177 218 265 322
#
# _framework density 17.678767000000001
#
# number of rings (size 3 to 8) (size 9 to 14) (size 15 to 20)
#    0.000    2.000    1.667    2.000    2.333    0.000 
#    6.000    0.000    0.000    6.000    0.000    0.000 
#    0.000    0.000    0.000    0.000    0.000    0.000 
#
# Total GULP energy -297631.093794 kJ/mol
# GULP energy per Si atom -12401.295575 kJ/mol
# Density = 1.763853 g / cm^3
# Si number density = 17.678767 Si / 1000 Ang^3
#
#
#
# Elastic Constant Matrix: (Units=GPa)
#
#
# Indices 1 2 3 4 5 6 
#
# 1 102.5123 28.0959 62.6524 -0.0002 0.6282 0.0000
# 2 28.0959 46.2047 30.6736 0.0000 0.3156 0.0000
# 3 62.6524 30.6736 125.1821 -0.0002 -11.6976 0.0000
# 4 -0.0002 0.0000 -0.0002 7.9176 0.0002 2.8231
# 5 0.6282 0.3156 -11.6976 0.0002 32.7185 0.0000
# 6 0.0000 0.0000 0.0000 2.8231 0.0000 24.3662
#
#
#
# Elastic Compliance Matrix: (Units=1/GPa)
#
#
# Indices 1 2 3 4 5 6 
#
# 1 0.015148 -0.004774 -0.006657 0.000000 -0.002625 0.000000
# 2 -0.004774 0.027567 -0.004533 0.000000 -0.001795 0.000000
# 3 -0.006657 -0.004533 0.012877 0.000000 0.004775 0.000000
# 4 0.000000 0.000000 0.000000 0.131743 -0.000001 -0.015264
# 5 -0.002625 -0.001795 0.004775 -0.000001 0.032339 0.000000
# 6 0.000000 0.000000 0.000000 -0.015264 0.000000 0.042809
#
#
# Mechanical properties :
#
#
# Convention : Reuss Voigt Hill
#
# Bulk Modulus (GPa) = 42.25786 57.41588 49.83687
# Shear Modulus (GPa) = 16.53989 23.16561 19.85275
#
# Velocity S-wave (km/s) = 3.06204 3.62382 3.35471
# Velocity P-wave (km/s) = 6.03792 7.07512 6.57700
#
# Compressibility (1/GPa) = 0.02366424
#
# Stress axis : x y z
#
# Youngs Moduli (GPa) = 66.01575 36.27467 77.65698
#
# Poissons Ratio (x) = 0.17317 0.51696
# Poissons Ratio (y) = 0.31515 0.35205
# Poissons Ratio (z) = 0.43946 0.16445
#
# Static dielectric constant tensor:
#      x y z
#    x 3.447910 0.000000 -0.352740 
#    y 0.000000 3.110650 0.000000 
#    z -0.352740 0.000000 3.607760 
# 
# 
# High freq. dielectric constant tensor:
#      x y z
#    x 1.683510 0.000000 -0.012080 
#    y 0.000000 1.663100 0.000000 
#    z -0.012080 0.000000 1.701180 
# 
# From -- ./inp_files/50796.got.cif
#   From: 2010.06.25/outbox.cif.g09.slc.cpg/sg12_26_cif.got.tgz:50796.got - 2010.06.28 00:19:55.
