data_PCOD8089611
_publ_section_title
;
Structure prediction by ZEFSAII (Michael W. Deem and Ramdas Pophale) SiO2 
 PCOD8089611
Probable space group: C 2/M
;
_chemical_formula_sum "Si O2"
_cell_formula_units_Z 56
_cell_length_a 14.415230
_cell_length_b 28.590053
_cell_length_c 14.483226
_cell_angle_alpha 90.000000
_cell_angle_beta 147.873536
_cell_angle_gamma 90.000000
_cell_volume 3174.255224
_symmetry_space_group_name_H-M "C 2/M"
_symmetry_group_IT_number 12
_symmetry_cell_setting 'monoclinic'
loop_
_space_group_symop_operation_xyz
x,y,z
-x,y,-z
-x,-y,-z
x,-y,z
1/2+x,1/2+y,z
1/2-x,1/2+y,-z
1/2-x,1/2-y,-z
1/2+x,1/2-y,z
loop_
_atom_site_type_symbol
_atom_site_label
_atom_site_fract_x
_atom_site_fract_y
_atom_site_fract_z
Si Si1 0.341885 0.142879 0.119484
Si Si2 0.073956 0.709874 0.960220
Si Si3 0.758905 0.229242 0.649701
Si Si4 0.729048 0.448215 0.296078
Si Si5 0.033039 0.856566 0.132714
Si Si6 0.537838 0.947660 0.685925
Si Si7 0.395929 0.231505 0.279659
O O1 0.409506 0.160083 0.076524
O O2 0.420949 0.091316 0.202462
O O3 0.396152 0.177985 0.246918
O O4 0.133939 0.143883 0.942903
O O5 0.933067 0.739929 0.783219
O O6 0.262887 0.735538 0.110020
O O7 0.000000 0.701633 0.000000
O O8 0.817418 0.174771 0.692531
O O9 0.603888 0.244989 0.448317
O O10 0.673835 0.236169 0.676941
O O11 0.645536 0.500000 0.222923
O O12 0.577129 0.410931 0.166552
O O13 0.841844 0.439159 0.300633
O O14 0.840473 0.442577 0.483605
O O15 0.000000 0.837043 0.000000
O O16 0.566457 0.000000 0.751355
#
# Coordination Sequence:
#
# PCOD8089611 Si02
#       7
#     8   8   8   8   8   8   8
#     4  12  21  32  52  77 101 134 175 212 248 306
#     4  10  22  40  51  69 103 135 176 222 258 287
#     4  10  19  34  52  72 104 140 165 206 255 302
#     4   9  18  32  49  73 109 142 164 197 250 311
#     4  12  19  29  47  76 111 136 168 206 248 300
#     4   9  18  33  51  74 103 137 173 203 246 311
#     4  10  19  33  54  75 101 134 172 205 252 311
#
# _framework density 17.641933999999999
#
# number of rings (size 3 to 8) (size 9 to 14) (size 15 to 20)
#    0.000    1.714    4.286    2.571    0.000    3.714 
#    2.571    0.000    0.000    0.429    0.000    0.000 
#    0.000    2.286    0.000    0.000    0.000    0.000 
#
# Total GULP energy -346980.992498 kJ/mol
# GULP energy per Si atom -12392.178304 kJ/mol
# Density = 1.760178 g / cm^3
# Si number density = 17.641934 Si / 1000 Ang^3
#
#
#
# Elastic Constant Matrix: (Units=GPa)
#
#
# Indices 1 2 3 4 5 6 
#
# 1 37.0538 34.9564 32.8457 0.0000 5.6343 0.0000
# 2 34.9564 118.4677 51.0650 0.0000 1.3259 0.0000
# 3 32.8457 51.0650 113.5019 0.0000 16.5545 0.0000
# 4 0.0000 0.0000 0.0000 29.4824 0.0000 0.1025
# 5 5.6343 1.3259 16.5545 0.0000 19.6469 0.0000
# 6 0.0000 0.0000 0.0000 0.1025 0.0000 26.2023
#
#
#
# Elastic Compliance Matrix: (Units=1/GPa)
#
#
# Indices 1 2 3 4 5 6 
#
# 1 0.043453 -0.009536 -0.007480 0.000000 -0.005515 0.000000
# 2 -0.009536 0.012809 -0.003735 0.000000 0.005017 0.000000
# 3 -0.007480 -0.003735 0.014030 0.000000 -0.009424 0.000000
# 4 0.000000 0.000000 0.000000 0.033919 0.000000 -0.000133
# 5 -0.005515 0.005017 -0.009424 0.000000 0.060083 0.000000
# 6 0.000000 0.000000 0.000000 -0.000133 0.000000 0.038165
#
#
# Mechanical properties :
#
#
# Convention : Reuss Voigt Hill
#
# Bulk Modulus (GPa) = 34.73413 56.30640 45.52026
# Shear Modulus (GPa) = 19.71945 25.07673 22.39809
#
# Velocity S-wave (km/s) = 3.34692 3.77427 3.56700
# Velocity P-wave (km/s) = 5.88786 7.13996 6.54393
#
# Compressibility (1/GPa) = 0.02879013
#
# Stress axis : x y z
#
# Youngs Moduli (GPa) = 23.01336 78.07243 71.27591
#
# Poissons Ratio (x) = 0.74448 0.53315
# Poissons Ratio (y) = 0.21945 0.26621
# Poissons Ratio (z) = 0.17214 0.29160
#
# Static dielectric constant tensor:
#      x y z
#    x 2.946040 0.000000 0.227220 
#    y 0.000000 3.303060 0.000000 
#    z 0.227220 0.000000 3.785290 
# 
# 
# High freq. dielectric constant tensor:
#      x y z
#    x 1.647250 0.000000 0.017290 
#    y 0.000000 1.669350 0.000000 
#    z 0.017290 0.000000 1.693200 
# 
# From -- ./inp_files/90443.got.cif
#   From: 2010.06.25/outbox.cif.g09.slc.cpg/sg12_46_cif.got.tgz:90443.got - 2010.06.28 00:19:55.
