data_PCOD8089045
_publ_section_title
;
Structure prediction by ZEFSAII (Michael W. Deem and Ramdas Pophale) SiO2 
 PCOD8089045
Probable space group: C 2/M
;
_chemical_formula_sum "Si O2"
_cell_formula_units_Z 56
_cell_length_a 17.955185
_cell_length_b 13.429686
_cell_length_c 21.061727
_cell_angle_alpha 90.000000
_cell_angle_beta 39.919076
_cell_angle_gamma 90.000000
_cell_volume 3259.005966
_symmetry_space_group_name_H-M "C 2/M"
_symmetry_group_IT_number 12
_symmetry_cell_setting 'monoclinic'
loop_
_space_group_symop_operation_xyz
x,y,z
-x,y,-z
-x,-y,-z
x,-y,z
1/2+x,1/2+y,z
1/2-x,1/2+y,-z
1/2-x,1/2-y,-z
1/2+x,1/2-y,z
loop_
_atom_site_type_symbol
_atom_site_label
_atom_site_fract_x
_atom_site_fract_y
_atom_site_fract_z
Si Si1 0.866978 0.384041 0.770713
Si Si2 0.373534 0.887339 0.108389
Si Si3 0.119027 0.112801 0.905092
Si Si4 0.766268 0.385533 0.044984
Si Si5 0.837857 0.775866 0.237885
Si Si6 0.615873 0.884307 0.387070
Si Si7 0.930234 0.732278 0.847106
O O1 0.877836 0.500000 0.780532
O O2 0.732700 0.345814 0.867066
O O3 0.907922 0.365068 0.672072
O O4 0.940866 0.320684 0.771865
O O5 0.284755 0.875708 0.108122
O O6 0.331507 0.816062 0.192584
O O7 0.373323 0.000000 0.135133
O O8 0.500000 0.858469 0.000000
O O9 0.134377 0.123526 0.819787
O O10 0.106231 0.000000 0.933880
O O11 0.000000 0.171727 0.000000
O O12 0.754582 0.500000 0.031780
O O13 0.646384 0.331961 0.104896
O O14 0.876400 0.340721 0.935156
O O15 0.713014 0.805413 0.349805
O O16 0.936320 0.758319 0.225441
O O17 0.500000 0.856881 0.500000
O O18 0.651452 0.000000 0.375331
#
# Coordination Sequence:
#
# PCOD8089045 Si02
#       7
#     8   8   8   8   8   8   8
#     4   9  18  33  51  72 102 132 164 206 253 307
#     4  10  19  33  50  69  99 145 187 210 226 271
#     4   9  18  29  46  70  97 132 169 210 252 292
#     4  10  21  33  44  64 103 147 177 198 232 284
#     4  11  20  31  52  75 102 129 170 214 249 298
#     4   9  19  38  62  81  95 120 162 214 271 320
#     4  11  22  30  45  74 104 137 167 204 249 294
#
# _framework density 17.183153000000001
#
# number of rings (size 3 to 8) (size 9 to 14) (size 15 to 20)
#    0.000    2.143    1.429    3.857    4.000    1.714 
#    0.000    0.714    0.000    0.429    0.000    0.000 
#    0.000    0.000    0.000    0.000    0.000    0.000 
#
# Total GULP energy -346961.021282 kJ/mol
# GULP energy per Si atom -12391.465046 kJ/mol
# Density = 1.714404 g / cm^3
# Si number density = 17.183153 Si / 1000 Ang^3
#
#
#
# Elastic Constant Matrix: (Units=GPa)
#
#
# Indices 1 2 3 4 5 6 
#
# 1 121.7411 46.9279 47.2995 0.0000 -10.8343 0.0000
# 2 46.9279 88.6657 37.4136 0.0000 -15.4318 0.0000
# 3 47.2995 37.4136 91.8845 0.0000 -21.4688 0.0000
# 4 0.0000 0.0000 0.0000 22.3645 0.0000 1.2040
# 5 -10.8343 -15.4318 -21.4688 0.0000 17.9035 0.0000
# 6 0.0000 0.0000 0.0000 1.2040 0.0000 22.1536
#
#
#
# Elastic Compliance Matrix: (Units=1/GPa)
#
#
# Indices 1 2 3 4 5 6 
#
# 1 0.011580 -0.004598 -0.004692 0.000000 -0.002582 0.000000
# 2 -0.004598 0.016120 -0.002223 0.000000 0.008446 0.000000
# 3 -0.004692 -0.002223 0.018189 0.000000 0.017055 0.000000
# 4 0.000000 0.000000 0.000000 0.044845 0.000000 -0.002437
# 5 -0.002582 0.008446 0.017055 0.000000 0.082024 0.000000
# 6 0.000000 0.000000 0.000000 -0.002437 0.000000 0.045272
#
#
# Mechanical properties :
#
#
# Convention : Reuss Voigt Hill
#
# Bulk Modulus (GPa) = 43.74181 62.84149 53.29165
# Shear Modulus (GPa) = 20.10636 23.86100 21.98368
#
# Velocity S-wave (km/s) = 3.42441 3.73047 3.58071
# Velocity P-wave (km/s) = 6.41459 7.43009 6.94093
#
# Compressibility (1/GPa) = 0.02286142
#
# Stress axis : x y z
#
# Youngs Moduli (GPa) = 86.35679 62.03370 54.97896
#
# Poissons Ratio (x) = 0.28526 0.25796
# Poissons Ratio (y) = 0.39711 0.12224
# Poissons Ratio (z) = 0.40518 0.13792
#
# Static dielectric constant tensor:
#      x y z
#    x 3.277150 0.000000 -0.118380 
#    y 0.000000 3.313360 0.000000 
#    z -0.118380 0.000000 3.018640 
# 
# 
# High freq. dielectric constant tensor:
#      x y z
#    x 1.662670 0.000000 -0.001080 
#    y 0.000000 1.672410 0.000000 
#    z -0.001080 0.000000 1.621740 
# 
# From -- ./inp_files/270167.got.cif
#   From: 2010.06.25/outbox.cif.g09.slc.cpg/sg12_136_cif.got.tgz:270167.got - 2010.06.28 00:19:55.
