data_PCOD8089757
_publ_section_title
;
Structure prediction by ZEFSAII (Michael W. Deem and Ramdas Pophale) SiO2 
 PCOD8089757
Probable space group: C 2/M
;
_chemical_formula_sum "Si O2"
_cell_formula_units_Z 64
_cell_length_a 24.132499
_cell_length_b 9.150629
_cell_length_c 29.609472
_cell_angle_alpha 90.000000
_cell_angle_beta 33.324705
_cell_angle_gamma 90.000000
_cell_volume 3592.189554
_symmetry_space_group_name_H-M "C 2/M"
_symmetry_group_IT_number 12
_symmetry_cell_setting 'monoclinic'
loop_
_space_group_symop_operation_xyz
x,y,z
-x,y,-z
-x,-y,-z
x,-y,z
1/2+x,1/2+y,z
1/2-x,1/2+y,-z
1/2-x,1/2-y,-z
1/2+x,1/2-y,z
loop_
_atom_site_type_symbol
_atom_site_label
_atom_site_fract_x
_atom_site_fract_y
_atom_site_fract_z
Si Si1 0.939075 0.829143 0.769766
Si Si2 0.959324 0.329637 0.978727
Si Si3 0.695778 0.170866 0.264704
Si Si4 0.641745 0.169576 0.790000
Si Si5 0.895302 0.329449 0.288131
Si Si6 0.243890 0.828100 0.877423
Si Si7 0.278632 0.329971 0.525893
Si Si8 0.504347 0.668298 0.370184
O O1 0.831540 0.749388 0.846289
O O2 0.990314 0.796694 0.686702
O O3 0.009955 0.763974 0.760093
O O4 0.923127 0.000000 0.789244
O O5 0.930333 0.500000 0.996800
O O6 0.042583 0.286883 0.885316
O O7 0.861702 0.234641 0.033287
O O8 0.000000 0.284906 0.000000
O O9 0.762693 0.239846 0.258327
O O10 0.744253 0.211038 0.183431
O O11 0.582989 0.234667 0.344585
O O12 0.689326 0.000000 0.277107
O O13 0.623340 0.210303 0.750894
O O14 0.667199 0.000000 0.779524
O O15 0.919886 0.500000 0.278140
O O16 0.795288 0.282970 0.383507
O O17 0.249037 0.000000 0.882747
O O18 0.270635 0.500000 0.520392
O O19 0.250000 0.250000 0.500000
O O20 0.392529 0.290335 0.463302
O O21 0.531059 0.500000 0.361194
#
# Coordination Sequence:
#
# PCOD8089757 Si02
#       8
#     8   8   8   8   8   8   8   8
#     4  10  19  33  54  79 108 140 177 217 263 315
#     4  10  19  33  55  80 105 136 179 222 263 313
#     4  10  20  33  52  79 107 138 175 219 266 312
#     4  10  21  37  55  77 108 145 177 213 265 323
#     4  10  21  36  55  79 110 143 176 216 265 318
#     4  10  20  33  53  81 110 136 173 223 270 312
#     4  10  19  33  54  81 108 137 177 220 262 310
#     4   9  18  32  52  78 106 137 174 216 261 312
#
# _framework density 17.816431999999999
#
# number of rings (size 3 to 8) (size 9 to 14) (size 15 to 20)
#    0.000    2.125    2.500    1.125    0.000    3.250 
#    0.000    1.250    0.000    3.750    0.000    0.000 
#    0.000    0.000    0.000    0.000    0.000    0.000 
#
# Total GULP energy -396934.732878 kJ/mol
# GULP energy per Si atom -12404.210402 kJ/mol
# Density = 1.777588 g / cm^3
# Si number density = 17.816432 Si / 1000 Ang^3
#
#
#
# Elastic Constant Matrix: (Units=GPa)
#
#
# Indices 1 2 3 4 5 6 
#
# 1 129.5796 69.3781 80.6507 -0.0058 -17.9114 0.0031
# 2 69.3781 80.0776 52.4850 -0.0147 -16.0858 0.0277
# 3 80.6507 52.4850 121.4896 -0.0024 -12.6695 0.0062
# 4 -0.0058 -0.0147 -0.0024 25.0638 0.0027 -8.9953
# 5 -17.9114 -16.0858 -12.6695 0.0027 31.8770 -0.0050
# 6 0.0031 0.0277 0.0062 -8.9953 -0.0050 33.3465
#
#
#
# Elastic Compliance Matrix: (Units=1/GPa)
#
#
# Indices 1 2 3 4 5 6 
#
# 1 0.018208 -0.010588 -0.007306 0.000000 0.001984 0.000009
# 2 -0.010588 0.024773 -0.003120 0.000005 0.005312 -0.000017
# 3 -0.007306 -0.003120 0.014435 -0.000002 0.000058 0.000000
# 4 0.000000 0.000005 -0.000002 0.044175 0.000000 0.011916
# 5 0.001984 0.005312 0.000058 0.000000 0.035189 0.000001
# 6 0.000009 -0.000017 0.000000 0.011916 0.000001 0.033203
#
#
# Mechanical properties :
#
#
# Convention : Reuss Voigt Hill
#
# Bulk Modulus (GPa) = 64.98352 81.79716 73.39034
# Shear Modulus (GPa) = 23.02686 26.63301 24.82993
#
# Velocity S-wave (km/s) = 3.59897 3.87053 3.73722
# Velocity P-wave (km/s) = 7.33643 8.12314 7.73979
#
# Compressibility (1/GPa) = 0.01538852
#
# Stress axis : x y z
#
# Youngs Moduli (GPa) = 54.92204 40.36734 69.27575
#
# Poissons Ratio (x) = 0.42739 0.50614
# Poissons Ratio (y) = 0.58149 0.21611
# Poissons Ratio (z) = 0.40127 0.12593
#
# Static dielectric constant tensor:
#      x y z
#    x 3.168360 -0.000010 -0.128610 
#    y -0.000010 3.261210 -0.000010 
#    z -0.128610 -0.000010 3.353750 
# 
# 
# High freq. dielectric constant tensor:
#      x y z
#    x 1.677800 0.000000 -0.020090 
#    y 0.000000 1.691010 0.000000 
#    z -0.020090 0.000000 1.686720 
# 
# From -- ./inp_files/287568.got.cif
#   From: 2010.06.25/outbox.cif.g09.slc.cpg/sg12_144_cif.got.tgz:287568.got - 2010.06.28 00:19:55.
