data_PCOD8089944
_publ_section_title
;
Structure prediction by ZEFSAII (Michael W. Deem and Ramdas Pophale) SiO2 
 PCOD8089944
Probable space group: C 2/M
;
_chemical_formula_sum "Si O2"
_cell_formula_units_Z 48
_cell_length_a 9.230117
_cell_length_b 17.609704
_cell_length_c 29.637849
_cell_angle_alpha 90.000000
_cell_angle_beta 146.981102
_cell_angle_gamma 90.000000
_cell_volume 2625.035646
_symmetry_space_group_name_H-M "C 2/M"
_symmetry_group_IT_number 12
_symmetry_cell_setting 'monoclinic'
loop_
_space_group_symop_operation_xyz
x,y,z
-x,y,-z
-x,-y,-z
x,-y,z
1/2+x,1/2+y,z
1/2-x,1/2+y,-z
1/2-x,1/2-y,-z
1/2+x,1/2-y,z
loop_
_atom_site_type_symbol
_atom_site_label
_atom_site_fract_x
_atom_site_fract_y
_atom_site_fract_z
Si Si1 0.488718 0.914092 0.146557
Si Si2 0.301187 0.841395 0.713911
Si Si3 0.248691 0.696669 0.761099
Si Si4 0.221377 0.738839 0.940910
Si Si5 0.272773 0.590204 0.592382
Si Si6 0.579152 0.413693 0.270435
O O1 0.533924 0.900052 0.211760
O O2 0.291116 0.850575 0.075449
O O3 0.762814 0.904249 0.190790
O O4 0.376275 0.000000 0.110889
O O5 0.221793 0.768539 0.722258
O O6 0.472292 0.819317 0.714777
O O7 0.019807 0.879214 0.626756
O O8 0.478917 0.712041 0.857815
O O9 0.316445 0.626346 0.747072
O O10 0.500000 0.774811 0.000000
O O11 0.250000 0.750000 0.000000
O O12 0.284913 0.500000 0.594060
O O13 0.294250 0.618817 0.649977
O O14 0.000000 0.621703 0.500000
O O15 0.666349 0.500000 0.287479
#
# Coordination Sequence:
#
# PCOD8089944 Si02
#       6
#     8   8   8   8   8   8
#     4   9  18  34  53  74 102 138 178 218 265 321
#     4  10  19  33  55  77 104 141 179 216 256 314
#     4  11  21  36  54  77 106 139 184 222 259 318
#     4  11  21  34  52  74 102 138 177 224 275 316
#     4   9  18  35  58  83 111 140 171 212 264 316
#     4   9  18  34  55  76 104 141 177 216 264 318
#
# _framework density 18.285464999999999
#
# number of rings (size 3 to 8) (size 9 to 14) (size 15 to 20)
#    0.000    2.167    0.000    7.500    0.000    1.667 
#    0.000    5.000    0.000    6.000    0.000    0.000 
#    0.000    0.000    0.000    0.000    0.000    0.000 
#
# Total GULP energy -297447.155130 kJ/mol
# GULP energy per Si atom -12393.631464 kJ/mol
# Density = 1.824385 g / cm^3
# Si number density = 18.285465 Si / 1000 Ang^3
#
#
#
# Elastic Constant Matrix: (Units=GPa)
#
#
# Indices 1 2 3 4 5 6 
#
# 1 133.2778 32.0054 33.6095 -0.0011 9.6781 -0.0002
# 2 32.0054 54.1168 22.9608 -0.0004 0.6242 0.0000
# 3 33.6095 22.9608 85.9802 -0.0001 8.0171 0.0007
# 4 -0.0011 -0.0004 -0.0001 20.6926 0.0011 3.3921
# 5 9.6781 0.6242 8.0171 0.0011 22.5201 0.0007
# 6 -0.0002 0.0000 0.0007 3.3921 0.0007 33.2219
#
#
#
# Elastic Compliance Matrix: (Units=1/GPa)
#
#
# Indices 1 2 3 4 5 6 
#
# 1 0.009376 -0.004599 -0.002144 0.000001 -0.003139 0.000000
# 2 -0.004599 0.023142 -0.004661 0.000000 0.002995 0.000000
# 3 -0.002144 -0.004661 0.014083 0.000000 -0.003963 0.000000
# 4 0.000001 0.000000 0.000000 0.049149 -0.000003 -0.005018
# 5 -0.003139 0.002995 -0.003963 -0.000003 0.047081 -0.000001
# 6 0.000000 0.000000 0.000000 -0.005018 -0.000001 0.030613
#
#
# Mechanical properties :
#
#
# Convention : Reuss Voigt Hill
#
# Bulk Modulus (GPa) = 42.03202 50.05846 46.04524
# Shear Modulus (GPa) = 24.48759 27.60684 26.04721
#
# Velocity S-wave (km/s) = 3.66346 3.88979 3.77832
# Velocity P-wave (km/s) = 6.39774 6.89996 6.65359
#
# Compressibility (1/GPa) = 0.02379138
#
# Stress axis : x y z
#
# Youngs Moduli (GPa) = 106.65248 43.21182 71.00711
#
# Poissons Ratio (x) = 0.19874 0.15226
# Poissons Ratio (y) = 0.49052 0.33099
# Poissons Ratio (z) = 0.22869 0.20143
#
# Static dielectric constant tensor:
#      x y z
#    x 3.355240 0.000000 -0.016170 
#    y 0.000000 2.948140 0.000020 
#    z -0.016170 0.000020 3.324430 
# 
# 
# High freq. dielectric constant tensor:
#      x y z
#    x 1.705750 0.000000 0.004830 
#    y 0.000000 1.709310 0.000000 
#    z 0.004830 0.000000 1.695710 
# 
# From -- ./inp_files/195925.got.cif
#   From: 2010.06.25/outbox.cif.g09.slc.cpg/sg12_98_cif.got.tgz:195925.got - 2010.06.28 00:19:55.
