data_PCOD8089320
_publ_section_title
;
Structure prediction by ZEFSAII (Michael W. Deem and Ramdas Pophale) SiO2 
 PCOD8089320
Probable space group: C 2/M
;
_chemical_formula_sum "Si O2"
_cell_formula_units_Z 64
_cell_length_a 29.036633
_cell_length_b 12.448738
_cell_length_c 8.870978
_cell_angle_alpha 90.000000
_cell_angle_beta 84.570102
_cell_angle_gamma 90.000000
_cell_volume 3192.198569
_symmetry_space_group_name_H-M "C 2/M"
_symmetry_group_IT_number 12
_symmetry_cell_setting 'monoclinic'
loop_
_space_group_symop_operation_xyz
x,y,z
-x,y,-z
-x,-y,-z
x,-y,z
1/2+x,1/2+y,z
1/2-x,1/2+y,-z
1/2-x,1/2-y,-z
1/2+x,1/2-y,z
loop_
_atom_site_type_symbol
_atom_site_label
_atom_site_fract_x
_atom_site_fract_y
_atom_site_fract_z
Si Si1 0.810564 0.766227 0.387492
Si Si2 0.552489 0.381272 0.346460
Si Si3 0.953866 0.321235 0.448614
Si Si4 0.622832 0.374648 0.862754
Si Si5 0.860474 0.619537 0.606376
Si Si6 0.767506 0.877835 0.667904
Si Si7 0.355120 0.691194 0.820161
Si Si8 0.024195 0.788230 0.842369
O O1 0.853581 0.818528 0.288357
O O2 0.826805 0.676278 0.500075
O O3 0.785918 0.859698 0.491620
O O4 0.774581 0.705817 0.287334
O O5 0.544262 0.500000 0.414647
O O6 0.550061 0.300774 0.487556
O O7 0.603107 0.379723 0.256979
O O8 0.514193 0.356793 0.232846
O O9 0.910785 0.391140 0.513927
O O10 0.958095 0.311681 0.265798
O O11 0.000000 0.377073 0.500000
O O12 0.635817 0.500000 0.864905
O O13 0.567619 0.362849 0.871532
O O14 0.643672 0.312972 0.000203
O O15 0.842443 0.500000 0.647905
O O16 0.861935 0.685794 0.762177
O O17 0.806901 0.857392 0.779198
O O18 0.749920 0.000000 0.688098
O O19 0.000000 0.741209 0.000000
#
# Coordination Sequence:
#
# PCOD8089320 Si02
#       8
#     8   8   8   8   8   8   8   8
#     4  10  22  38  61  91 116 150 200 248 296 356
#     4  10  19  33  52  81 118 154 193 236 288 350
#     4   9  20  35  53  81 109 151 196 246 288 343
#     4  12  23  37  58  89 130 164 189 232 295 358
#     4  10  20  40  62  81 109 151 203 255 297 337
#     4  10  20  39  63  86 116 154 197 248 300 350
#     4  10  22  37  57  88 120 153 195 240 294 355
#     4  11  21  34  54  83 123 160 195 230 284 352
#
# _framework density 20.048878999999999
#
# number of rings (size 3 to 8) (size 9 to 14) (size 15 to 20)
#    0.000    1.750    2.500    2.250    0.000    4.000 
#    0.000    1.875    0.000    0.375    0.000    0.000 
#    0.000    0.000    0.000    0.000    0.000    0.000 
#
# Total GULP energy -396793.047456 kJ/mol
# GULP energy per Si atom -12399.782733 kJ/mol
# Density = 2.000325 g / cm^3
# Si number density = 20.048879 Si / 1000 Ang^3
#
#
#
# Elastic Constant Matrix: (Units=GPa)
#
#
# Indices 1 2 3 4 5 6 
#
# 1 92.9048 14.7412 14.4715 0.0000 14.4171 0.0000
# 2 14.7412 102.0547 35.4109 0.0000 3.8157 0.0000
# 3 14.4715 35.4109 90.7410 0.0000 2.9139 0.0000
# 4 0.0000 0.0000 0.0000 13.7690 0.0000 2.9805
# 5 14.4171 3.8157 2.9139 0.0000 34.4883 0.0000
# 6 0.0000 0.0000 0.0000 2.9805 0.0000 10.8054
#
#
#
# Elastic Compliance Matrix: (Units=1/GPa)
#
#
# Indices 1 2 3 4 5 6 
#
# 1 0.011875 -0.001080 -0.001320 0.000000 -0.004733 0.000000
# 2 -0.001080 0.011458 -0.004285 0.000000 -0.000454 0.000000
# 3 -0.001320 -0.004285 0.012905 0.000000 -0.000064 0.000000
# 4 0.000000 0.000000 0.000000 0.077239 0.000000 -0.021305
# 5 -0.004733 -0.000454 -0.000064 0.000000 0.031030 0.000000
# 6 0.000000 0.000000 0.000000 -0.021305 0.000000 0.098423
#
#
# Mechanical properties :
#
#
# Convention : Reuss Voigt Hill
#
# Bulk Modulus (GPa) = 43.72878 46.10531 44.91704
# Shear Modulus (GPa) = 18.94489 26.55101 22.74795
#
# Velocity S-wave (km/s) = 3.07731 3.64306 3.37207
# Velocity P-wave (km/s) = 5.87239 6.38296 6.13299
#
# Compressibility (1/GPa) = 0.02286824
#
# Stress axis : x y z
#
# Youngs Moduli (GPa) = 84.20865 87.27248 77.48894
#
# Poissons Ratio (x) = 0.09427 0.10231
# Poissons Ratio (y) = 0.09096 0.33201
# Poissons Ratio (z) = 0.11118 0.37393
#
# Static dielectric constant tensor:
#      x y z
#    x 3.879550 0.000000 0.014070 
#    y 0.000000 3.338870 0.000000 
#    z 0.014070 0.000000 3.581970 
# 
# 
# High freq. dielectric constant tensor:
#      x y z
#    x 1.799770 0.000000 0.005970 
#    y 0.000000 1.758720 0.000000 
#    z 0.005970 0.000000 1.768870 
# 
# From -- ./inp_files/110484.got.cif
#   From: 2010.06.25/outbox.cif.g09.slc.cpg/sg12_56_cif.got.tgz:110484.got - 2010.06.28 00:19:55.
