data_PCOD8089248
_publ_section_title
;
Structure prediction by ZEFSAII (Michael W. Deem and Ramdas Pophale) SiO2 
 PCOD8089248
Probable space group: C 2/M
;
_chemical_formula_sum "Si O2"
_cell_formula_units_Z 48
_cell_length_a 27.517345
_cell_length_b 8.661627
_cell_length_c 11.682870
_cell_angle_alpha 90.000000
_cell_angle_beta 109.069868
_cell_angle_gamma 90.000000
_cell_volume 2631.739520
_symmetry_space_group_name_H-M "C 2/M"
_symmetry_group_IT_number 12
_symmetry_cell_setting 'monoclinic'
loop_
_space_group_symop_operation_xyz
x,y,z
-x,y,-z
-x,-y,-z
x,-y,z
1/2+x,1/2+y,z
1/2-x,1/2+y,-z
1/2-x,1/2-y,-z
1/2+x,1/2-y,z
loop_
_atom_site_type_symbol
_atom_site_label
_atom_site_fract_x
_atom_site_fract_y
_atom_site_fract_z
Si Si1 0.372496 0.680560 0.107391
Si Si2 0.358231 0.174103 0.735407
Si Si3 0.817112 0.318064 0.260035
Si Si4 0.786967 0.675611 0.887548
Si Si5 0.302891 0.680481 0.495019
Si Si6 0.558151 0.182077 0.020468
O O1 0.375732 0.500000 0.132696
O O2 0.367351 0.767129 0.226008
O O3 0.323625 0.720256 0.992189
O O4 0.424101 0.736461 0.082979
O O5 0.306862 0.177211 0.772662
O O6 0.348743 0.284059 0.619765
O O7 0.406909 0.236479 0.845526
O O8 0.368848 0.000000 0.700344
O O9 0.812063 0.500000 0.263550
O O10 0.769271 0.248317 0.152863
O O11 0.820485 0.251780 0.389245
O O12 0.786104 0.500000 0.934291
O O13 0.295367 0.500000 0.473714
O O14 0.250000 0.750000 0.500000
O O15 0.565223 0.000000 0.008525
O O16 0.500000 0.231093 0.000000
#
# Coordination Sequence:
#
# PCOD8089248 Si02
#       6
#     8   8   8   8   8   8
#     4  11  22  35  52  78 111 142 179 224 274 327
#     4   9  18  33  54  80 110 142 182 224 266 318
#     4  12  23  35  52  74 106 147 187 224 269 321
#     4  10  19  33  52  75 108 145 183 222 265 321
#     4  12  23  35  52  76 110 150 189 224 265 317
#     4   9  19  38  63  86 109 139 178 226 277 327
#
# _framework density 18.238886999999998
#
# number of rings (size 3 to 8) (size 9 to 14) (size 15 to 20)
#    0.000    1.500    1.667    6.500    0.000    3.000 
#    0.000    0.000    0.000    1.000    0.000    7.000 
#    0.000    0.000    0.000    0.000    0.000    0.000 
#
# Total GULP energy -297655.451881 kJ/mol
# GULP energy per Si atom -12402.310495 kJ/mol
# Density = 1.819737 g / cm^3
# Si number density = 18.238887 Si / 1000 Ang^3
#
#
#
# Elastic Constant Matrix: (Units=GPa)
#
#
# Indices 1 2 3 4 5 6 
#
# 1 105.7508 38.5583 49.6220 0.0000 -11.3071 0.0000
# 2 38.5583 94.6675 28.9647 0.0000 -8.0204 0.0000
# 3 49.6220 28.9647 87.2317 0.0000 -21.4542 0.0000
# 4 0.0000 0.0000 0.0000 31.6673 0.0000 -4.1633
# 5 -11.3071 -8.0204 -21.4542 0.0000 23.3338 0.0000
# 6 0.0000 0.0000 0.0000 -4.1633 0.0000 24.2467
#
#
#
# Elastic Compliance Matrix: (Units=1/GPa)
#
#
# Indices 1 2 3 4 5 6 
#
# 1 0.013943 -0.003629 -0.006941 0.000000 -0.000873 0.000000
# 2 -0.003629 0.012709 -0.001956 0.000000 0.000811 0.000000
# 3 -0.006941 -0.001956 0.019472 0.000000 0.013868 0.000000
# 4 0.000000 0.000000 0.000000 0.032308 0.000000 0.005547
# 5 -0.000873 0.000811 0.013868 0.000000 0.055463 0.000000
# 6 0.000000 0.000000 0.000000 0.005547 0.000000 0.042195
#
#
# Mechanical properties :
#
#
# Convention : Reuss Voigt Hill
#
# Bulk Modulus (GPa) = 47.45695 57.99334 52.72515
# Shear Modulus (GPa) = 24.01920 27.21655 25.61788
#
# Velocity S-wave (km/s) = 3.63288 3.86713 3.75183
# Velocity P-wave (km/s) = 6.60857 7.19758 6.90935
#
# Compressibility (1/GPa) = 0.02107173
#
# Stress axis : x y z
#
# Youngs Moduli (GPa) = 71.71929 78.68665 51.35465
#
# Poissons Ratio (x) = 0.28558 0.35647
# Poissons Ratio (y) = 0.26029 0.10043
# Poissons Ratio (z) = 0.49782 0.15389
#
# Static dielectric constant tensor:
#      x y z
#    x 3.277520 0.000000 -0.199580 
#    y 0.000000 3.382720 0.000000 
#    z -0.199580 0.000000 3.430700 
# 
# 
# High freq. dielectric constant tensor:
#      x y z
#    x 1.678980 0.000000 -0.019740 
#    y 0.000000 1.714840 0.000000 
#    z -0.019740 0.000000 1.704150 
# 
# From -- ./inp_files/179336.got.cif
#   From: 2010.06.25/outbox.cif.g09.slc.cpg/sg12_90_cif.got.tgz:179336.got - 2010.06.28 00:19:55.
