data_PCOD8089915
_publ_section_title
;
Structure prediction by ZEFSAII (Michael W. Deem and Ramdas Pophale) SiO2 
 PCOD8089915
Probable space group: C 2/M
;
_chemical_formula_sum "Si O2"
_cell_formula_units_Z 64
_cell_length_a 22.579475
_cell_length_b 12.534304
_cell_length_c 12.411669
_cell_angle_alpha 90.000000
_cell_angle_beta 111.116808
_cell_angle_gamma 90.000000
_cell_volume 3276.838828
_symmetry_space_group_name_H-M "C 2/M"
_symmetry_group_IT_number 12
_symmetry_cell_setting 'monoclinic'
loop_
_space_group_symop_operation_xyz
x,y,z
-x,y,-z
-x,-y,-z
x,-y,z
1/2+x,1/2+y,z
1/2-x,1/2+y,-z
1/2-x,1/2-y,-z
1/2+x,1/2-y,z
loop_
_atom_site_type_symbol
_atom_site_label
_atom_site_fract_x
_atom_site_fract_y
_atom_site_fract_z
Si Si1 0.072772 0.881009 0.346229
Si Si2 0.566930 0.221998 0.527180
Si Si3 0.159394 0.808603 0.921864
Si Si4 0.349005 0.377044 0.315870
Si Si5 0.772589 0.622766 0.129462
Si Si6 0.789153 0.121425 0.497843
Si Si7 0.523038 0.624044 0.900516
Si Si8 0.696324 0.876601 0.612415
O O1 0.049946 0.794284 0.414663
O O2 0.149054 0.873987 0.384706
O O3 0.038222 0.854380 0.212412
O O4 0.053394 0.000000 0.372129
O O5 0.500000 0.161295 0.500000
O O6 0.587777 0.303554 0.637555
O O7 0.621026 0.134120 0.543638
O O8 0.178465 0.869535 0.822542
O O9 0.180665 0.685692 0.921456
O O10 0.085024 0.813040 0.899855
O O11 0.199517 0.862197 0.044712
O O12 0.364674 0.500000 0.353949
O O13 0.305285 0.328577 0.387979
O O14 0.792971 0.500000 0.137662
O O15 0.782520 0.669890 0.256790
O O16 0.732866 0.177265 0.532779
O O17 0.768516 0.000000 0.459503
O O18 0.542303 0.500000 0.917642
O O19 0.500000 0.667750 0.000000
O O20 0.715937 0.000000 0.625496
#
# Coordination Sequence:
#
# PCOD8089915 Si02
#       8
#     8   8   8   8   8   8   8   8
#     4   9  19  33  51  79 111 142 173 219 278 336
#     4  11  21  33  51  77 106 142 185 224 272 326
#     4  11  21  37  58  85 114 146 189 224 276 337
#     4  10  19  33  54  84 114 143 175 221 279 336
#     4  10  22  38  58  82 110 148 189 235 279 322
#     4   8  17  33  54  78 109 143 179 223 278 332
#     4  10  21  35  56  86 119 151 182 224 280 339
#     4  10  21  38  56  77 109 146 187 235 277 318
#
# _framework density 19.531016999999999
#
# number of rings (size 3 to 8) (size 9 to 14) (size 15 to 20)
#    0.000    2.125    1.250    3.000    1.750    4.250 
#    0.000    0.000    0.000    0.375    0.000    0.000 
#    0.000    0.000    0.000    0.000    0.000    0.000 
#
# Total GULP energy -396583.073146 kJ/mol
# GULP energy per Si atom -12393.221036 kJ/mol
# Density = 1.948656 g / cm^3
# Si number density = 19.531017 Si / 1000 Ang^3
#
#
#
# Elastic Constant Matrix: (Units=GPa)
#
#
# Indices 1 2 3 4 5 6 
#
# 1 135.6194 21.7799 62.6195 0.0000 2.0101 0.0000
# 2 21.7799 33.6707 22.7363 0.0000 -4.4597 0.0000
# 3 62.6195 22.7363 138.7360 0.0000 0.2646 0.0000
# 4 0.0000 0.0000 0.0000 23.8950 0.0000 -5.0956
# 5 2.0101 -4.4597 0.2646 0.0000 22.8024 0.0000
# 6 0.0000 0.0000 0.0000 -5.0956 0.0000 17.4896
#
#
#
# Elastic Compliance Matrix: (Units=1/GPa)
#
#
# Indices 1 2 3 4 5 6 
#
# 1 0.009772 -0.003999 -0.003752 0.000000 -0.001600 0.000000
# 2 -0.003999 0.036054 -0.004118 0.000000 0.007452 0.000000
# 3 -0.003752 -0.004118 0.009577 0.000000 -0.000586 0.000000
# 4 0.000000 0.000000 0.000000 0.044622 0.000000 0.013001
# 5 -0.001600 0.007452 -0.000586 0.000000 0.045460 0.000000
# 6 0.000000 0.000000 0.000000 0.013001 0.000000 0.060965
#
#
# Mechanical properties :
#
#
# Convention : Reuss Voigt Hill
#
# Bulk Modulus (GPa) = 31.58066 58.03307 44.80687
# Shear Modulus (GPa) = 20.76898 26.23010 23.49954
#
# Velocity S-wave (km/s) = 3.26450 3.66867 3.47247
# Velocity P-wave (km/s) = 5.51487 6.90820 6.25049
#
# Compressibility (1/GPa) = 0.03166495
#
# Stress axis : x y z
#
# Youngs Moduli (GPa) = 102.33240 27.73634 104.41184
#
# Poissons Ratio (x) = 0.11093 0.39178
# Poissons Ratio (y) = 0.40926 0.42993
# Poissons Ratio (z) = 0.38398 0.11421
#
# Static dielectric constant tensor:
#      x y z
#    x 3.472480 0.000000 -0.077840 
#    y 0.000000 3.514870 0.000000 
#    z -0.077840 0.000000 3.703820 
# 
# 
# High freq. dielectric constant tensor:
#      x y z
#    x 1.748010 0.000000 -0.000780 
#    y 0.000000 1.756610 0.000000 
#    z -0.000780 0.000000 1.764420 
# 
# From -- ./inp_files/167320.got.cif
#   From: 2010.06.25/outbox.cif.g09.slc.cpg/sg12_84_cif.got.tgz:167320.got - 2010.06.28 00:19:55.
