data_PCOD8089908
_publ_section_title
;
Structure prediction by ZEFSAII (Michael W. Deem and Ramdas Pophale) SiO2 
 PCOD8089908
Probable space group: C 2/M
;
_chemical_formula_sum "Si O2"
_cell_formula_units_Z 64
_cell_length_a 30.844972
_cell_length_b 8.724434
_cell_length_c 15.040892
_cell_angle_alpha 90.000000
_cell_angle_beta 47.982638
_cell_angle_gamma 90.000000
_cell_volume 3007.115866
_symmetry_space_group_name_H-M "C 2/M"
_symmetry_group_IT_number 12
_symmetry_cell_setting 'monoclinic'
loop_
_space_group_symop_operation_xyz
x,y,z
-x,y,-z
-x,-y,-z
x,-y,z
1/2+x,1/2+y,z
1/2-x,1/2+y,-z
1/2-x,1/2-y,-z
1/2+x,1/2-y,z
loop_
_atom_site_type_symbol
_atom_site_label
_atom_site_fract_x
_atom_site_fract_y
_atom_site_fract_z
Si Si1 0.131293 0.671227 0.299514
Si Si2 0.240040 0.829346 0.920176
Si Si3 0.168731 0.816960 0.853624
Si Si4 0.581155 0.319673 0.725640
Si Si5 0.546591 0.319460 0.079746
Si Si6 0.555176 0.321066 0.267918
Si Si7 0.800329 0.680634 0.368671
Si Si8 0.938186 0.679082 0.434940
O O1 0.108560 0.500000 0.309023
O O2 0.200235 0.673809 0.216484
O O3 0.113062 0.782843 0.244066
O O4 0.106357 0.727384 0.427324
O O5 0.192829 0.757385 0.916449
O O6 0.219235 0.000000 0.971851
O O7 0.250000 0.750000 0.000000
O O8 0.205916 0.739666 0.723903
O O9 0.176151 0.000000 0.836153
O O10 0.099696 0.767488 0.941851
O O11 0.591730 0.500000 0.727788
O O12 0.519183 0.263036 0.855707
O O13 0.634992 0.226218 0.689960
O O14 0.577095 0.286916 0.626894
O O15 0.543452 0.500000 0.083197
O O16 0.563931 0.265337 0.154823
O O17 0.540757 0.500000 0.293629
O O18 0.502372 0.222716 0.382308
O O19 0.792979 0.500000 0.381960
O O20 0.750000 0.750000 0.500000
O O21 0.933600 0.500000 0.415691
#
# Coordination Sequence:
#
# PCOD8089908 Si02
#       8
#     8   8   8   8   8   8   8   8
#     4  10  21  34  50  77 115 159 204 253 311 372
#     4  10  22  39  60  88 123 164 207 255 311 370
#     4  10  21  41  67  93 124 168 213 258 313 374
#     4  10  21  40  64  93 125 161 206 254 305 368
#     4   8  17  35  61  90 122 159 203 251 307 368
#     4  10  19  33  54  83 117 158 207 256 307 364
#     4  12  27  46  67  94 126 163 207 260 318 377
#     4  10  20  34  54  82 119 161 203 252 312 372
#
# _framework density 21.282851999999998
#
# number of rings (size 3 to 8) (size 9 to 14) (size 15 to 20)
#    0.000    2.000    0.000    4.125    1.750    5.000 
#    0.000    6.250    0.000    0.000    0.000    0.000 
#    0.000    0.000    0.000    0.000    0.000    0.000 
#
# Total GULP energy -396634.669231 kJ/mol
# GULP energy per Si atom -12394.833413 kJ/mol
# Density = 2.123441 g / cm^3
# Si number density = 21.282852 Si / 1000 Ang^3
#
#
#
# Elastic Constant Matrix: (Units=GPa)
#
#
# Indices 1 2 3 4 5 6 
#
# 1 107.3722 30.2769 40.9702 0.0000 -7.0590 0.0000
# 2 30.2769 73.3788 40.4753 0.0001 0.2550 -0.0002
# 3 40.9702 40.4753 134.3650 0.0000 -8.5937 0.0001
# 4 0.0000 0.0001 0.0000 28.3823 0.0000 2.4397
# 5 -7.0590 0.2550 -8.5937 0.0000 24.3799 0.0000
# 6 0.0000 -0.0002 0.0001 2.4397 0.0000 34.6206
#
#
#
# Elastic Compliance Matrix: (Units=1/GPa)
#
#
# Indices 1 2 3 4 5 6 
#
# 1 0.011306 -0.003431 -0.002253 0.000000 0.002515 0.000000
# 2 -0.003431 0.017476 -0.004392 0.000000 -0.002724 0.000000
# 3 -0.002253 -0.004392 0.009631 0.000000 0.002788 0.000000
# 4 0.000000 0.000000 0.000000 0.035448 0.000000 -0.002498
# 5 0.002515 -0.002724 0.002788 0.000000 0.042757 0.000000
# 6 0.000000 0.000000 0.000000 -0.002498 0.000000 0.029061
#
#
# Mechanical properties :
#
#
# Convention : Reuss Voigt Hill
#
# Bulk Modulus (GPa) = 54.76469 59.84009 57.30239
# Shear Modulus (GPa) = 29.08372 31.03614 30.05993
#
# Velocity S-wave (km/s) = 3.70068 3.82287 3.76227
# Velocity P-wave (km/s) = 6.63684 6.90387 6.77167
#
# Compressibility (1/GPa) = 0.01825994
#
# Stress axis : x y z
#
# Youngs Moduli (GPa) = 88.44940 57.22179 103.83280
#
# Poissons Ratio (x) = 0.19633 0.23393
# Poissons Ratio (y) = 0.30347 0.45608
# Poissons Ratio (z) = 0.19927 0.25134
#
# Static dielectric constant tensor:
#      x y z
#    x 3.955030 0.000000 -0.211730 
#    y 0.000000 3.635660 0.000000 
#    z -0.211730 0.000000 4.161170 
# 
# 
# High freq. dielectric constant tensor:
#      x y z
#    x 1.837620 0.000000 -0.008420 
#    y 0.000000 1.810460 0.000000 
#    z -0.008420 0.000000 1.845700 
# 
# From -- ./inp_files/249849.got.cif
#   From: 2010.06.25/outbox.cif.g09.slc.cpg/sg12_125_cif.got.tgz:249849.got - 2010.06.28 00:19:55.
