data_PCOD8089417
_publ_section_title
;
Structure prediction by ZEFSAII (Michael W. Deem and Ramdas Pophale) SiO2 
 PCOD8089417
Probable space group: C 2/M
;
_chemical_formula_sum "Si O2"
_cell_formula_units_Z 64
_cell_length_a 14.687210
_cell_length_b 8.831959
_cell_length_c 26.082685
_cell_angle_alpha 90.000000
_cell_angle_beta 91.306687
_cell_angle_gamma 90.000000
_cell_volume 3382.483559
_symmetry_space_group_name_H-M "C 2/M"
_symmetry_group_IT_number 12
_symmetry_cell_setting 'monoclinic'
loop_
_space_group_symop_operation_xyz
x,y,z
-x,y,-z
-x,-y,-z
x,-y,z
1/2+x,1/2+y,z
1/2-x,1/2+y,-z
1/2-x,1/2-y,-z
1/2+x,1/2-y,z
loop_
_atom_site_type_symbol
_atom_site_label
_atom_site_fract_x
_atom_site_fract_y
_atom_site_fract_z
Si Si1 0.512012 0.320950 0.443516
Si Si2 0.343032 0.820060 0.255225
Si Si3 0.650541 0.822986 0.999671
Si Si4 0.635341 0.678812 0.638371
Si Si5 0.359272 0.675402 0.735738
Si Si6 0.323297 0.675686 0.622343
Si Si7 0.985624 0.820649 0.189152
Si Si8 0.003391 0.678296 0.080786
O O1 0.500000 0.249395 0.500000
O O2 0.500726 0.500000 0.446037
O O3 0.435412 0.256798 0.404375
O O4 0.611950 0.278080 0.423840
O O5 0.388216 0.756469 0.307799
O O6 0.239672 0.758363 0.251195
O O7 0.391685 0.756044 0.205444
O O8 0.347665 0.000000 0.256670
O O9 0.589287 0.774877 0.950049
O O10 0.666607 0.000000 0.998976
O O11 0.750000 0.750000 0.000000
O O12 0.593260 0.777492 0.049463
O O13 0.626207 0.500000 0.645710
O O14 0.735008 0.719869 0.618722
O O15 0.358733 0.500000 0.748971
O O16 0.378982 0.704331 0.675878
O O17 0.436875 0.749042 0.772208
O O18 0.292981 0.500000 0.619624
O O19 0.009153 0.775050 0.132043
O O20 0.976115 0.000000 0.193332
O O21 0.002529 0.500000 0.092677
#
# Coordination Sequence:
#
# PCOD8089417 Si02
#       8
#     8   8   8   8   8   8   8   8
#     4   9  18  32  51  74 101 136 172 205 254 318
#     4  10  20  36  55  75 103 140 174 206 256 317
#     4   9  19  37  60  79 103 141 183 221 259 305
#     4  10  19  33  53  76 101 130 171 218 255 299
#     4   8  17  33  51  71  99 136 172 203 248 309
#     4   9  17  33  54  72  96 134 174 209 252 309
#     4  11  21  34  54  81 109 137 173 218 256 296
#     4   9  20  38  54  76 110 145 175 210 264 318
#
# _framework density 18.921008
#
# number of rings (size 3 to 8) (size 9 to 14) (size 15 to 20)
#    0.000    2.625    0.000    3.375    0.000    4.500 
#    0.000   15.000    0.000    2.625    0.000    0.000 
#    0.000    0.000    0.000    0.000    0.000    0.000 
#
# Total GULP energy -396732.977425 kJ/mol
# GULP energy per Si atom -12397.905545 kJ/mol
# Density = 1.887794 g / cm^3
# Si number density = 18.921008 Si / 1000 Ang^3
#
#
#
# Elastic Constant Matrix: (Units=GPa)
#
#
# Indices 1 2 3 4 5 6 
#
# 1 87.1179 23.8557 40.2228 0.0000 -10.4087 0.0000
# 2 23.8557 49.2872 26.3220 0.0000 -4.0303 0.0000
# 3 40.2228 26.3220 104.2920 0.0000 -15.8781 0.0000
# 4 0.0000 0.0000 0.0000 27.1234 0.0000 -3.4003
# 5 -10.4087 -4.0303 -15.8781 0.0000 26.4846 0.0000
# 6 0.0000 0.0000 0.0000 -3.4003 0.0000 28.2360
#
#
#
# Elastic Compliance Matrix: (Units=1/GPa)
#
#
# Indices 1 2 3 4 5 6 
#
# 1 0.015051 -0.004835 -0.004177 0.000000 0.002675 0.000000
# 2 -0.004835 0.025003 -0.004573 0.000000 -0.000837 0.000000
# 3 -0.004177 -0.004573 0.013203 0.000000 0.005578 0.000000
# 4 0.000000 0.000000 0.000000 0.037434 0.000000 0.004508
# 5 0.002675 -0.000837 0.005578 0.000000 0.042026 0.000000
# 6 0.000000 0.000000 0.000000 0.004508 0.000000 0.035959
#
#
# Mechanical properties :
#
#
# Convention : Reuss Voigt Hill
#
# Bulk Modulus (GPa) = 38.33459 46.83312 42.58386
# Shear Modulus (GPa) = 24.44486 26.38859 25.41672
#
# Velocity S-wave (km/s) = 3.59826 3.73858 3.66909
# Velocity P-wave (km/s) = 6.12924 6.59103 6.36432
#
# Compressibility (1/GPa) = 0.02608610
#
# Stress axis : x y z
#
# Youngs Moduli (GPa) = 66.44082 39.99442 75.74098
#
# Poissons Ratio (x) = 0.19339 0.31638
# Poissons Ratio (y) = 0.32126 0.34638
# Poissons Ratio (z) = 0.27753 0.18290
#
# Static dielectric constant tensor:
#      x y z
#    x 3.711100 0.000000 0.037130 
#    y 0.000000 3.147840 0.000000 
#    z 0.037130 0.000000 3.564370 
# 
# 
# High freq. dielectric constant tensor:
#      x y z
#    x 1.743240 0.000000 -0.005090 
#    y 0.000000 1.709460 0.000000 
#    z -0.005090 0.000000 1.736080 
# 
# From -- ./inp_files/338885.got.cif
#   From: 2010.06.25/outbox.cif.g09.slc.cpg/sg12_170_cif.got.tgz:338885.got - 2010.06.28 00:19:55.
