data_PCOD8089632
_publ_section_title
;
Structure prediction by ZEFSAII (Michael W. Deem and Ramdas Pophale) SiO2 
 PCOD8089632
Probable space group: C 2/M
;
_chemical_formula_sum "Si O2"
_cell_formula_units_Z 64
_cell_length_a 25.265148
_cell_length_b 9.365886
_cell_length_c 16.205305
_cell_angle_alpha 90.000000
_cell_angle_beta 66.583283
_cell_angle_gamma 90.000000
_cell_volume 3518.841052
_symmetry_space_group_name_H-M "C 2/M"
_symmetry_group_IT_number 12
_symmetry_cell_setting 'monoclinic'
loop_
_space_group_symop_operation_xyz
x,y,z
-x,y,-z
-x,-y,-z
x,-y,z
1/2+x,1/2+y,z
1/2-x,1/2+y,-z
1/2-x,1/2-y,-z
1/2+x,1/2-y,z
loop_
_atom_site_type_symbol
_atom_site_label
_atom_site_fract_x
_atom_site_fract_y
_atom_site_fract_z
Si Si1 0.788458 0.332982 0.592166
Si Si2 0.439978 0.346591 0.074252
Si Si3 0.949289 0.168767 0.253130
Si Si4 0.923012 0.166804 0.794580
Si Si5 0.114862 0.657991 0.026276
Si Si6 0.331810 0.333040 0.408677
Si Si7 0.825401 0.833341 0.730135
Si Si8 0.744652 0.843879 0.924199
O O1 0.803494 0.500000 0.584401
O O2 0.719160 0.309364 0.627409
O O3 0.819812 0.261209 0.495714
O O4 0.815425 0.261355 0.656169
O O5 0.404920 0.500000 0.098704
O O6 0.445596 0.277287 0.161476
O O7 0.417050 0.225481 0.030078
O O8 0.500000 0.391191 0.000000
O O9 0.893052 0.224986 0.336486
O O10 0.010418 0.221057 0.254859
O O11 0.947936 0.000000 0.255104
O O12 0.889220 0.193805 0.729430
O O13 0.921890 0.000000 0.818948
O O14 0.889333 0.248214 0.888356
O O15 0.090449 0.500000 0.061579
O O16 0.177723 0.644981 0.948315
O O17 0.334701 0.500000 0.431646
O O18 0.777851 0.778884 0.825293
O O19 0.817094 0.000000 0.712683
O O20 0.772078 0.000000 0.924812
O O21 0.750000 0.750000 0.000000
#
# Coordination Sequence:
#
# PCOD8089632 Si02
#       8
#     8   8   8   8   8   8   8   8
#     4  10  21  37  59  85 110 137 170 215 274 330
#     4  10  19  33  54  76 104 144 186 224 261 309
#     4   9  18  34  57  83 104 134 185 230 263 309
#     4  10  19  36  58  77 104 145 187 224 263 312
#     4  11  22  33  47  74 112 147 180 224 275 317
#     4   9  19  38  61  83 108 136 172 221 270 320
#     4  10  21  36  56  80 107 143 182 221 266 315
#     4  10  21  35  51  75 108 146 186 224 263 313
#
# _framework density 18.187805999999998
#
# number of rings (size 3 to 8) (size 9 to 14) (size 15 to 20)
#    0.000    2.125    2.500    0.750    1.750    2.250 
#    0.000    1.875    0.000    3.750    0.000    0.000 
#    0.000    0.000    0.000    0.000    0.000    0.000 
#
# Total GULP energy -396539.534592 kJ/mol
# GULP energy per Si atom -12391.860456 kJ/mol
# Density = 1.814641 g / cm^3
# Si number density = 18.187806 Si / 1000 Ang^3
#
#
#
# Elastic Constant Matrix: (Units=GPa)
#
#
# Indices 1 2 3 4 5 6 
#
# 1 105.1502 45.7449 63.0321 0.0000 6.1354 0.0000
# 2 45.7449 82.0512 47.5865 0.0000 14.4051 0.0000
# 3 63.0321 47.5865 112.3158 0.0000 7.9599 0.0000
# 4 0.0000 0.0000 0.0000 29.4525 0.0000 6.2698
# 5 6.1354 14.4051 7.9599 0.0000 34.9966 0.0000
# 6 0.0000 0.0000 0.0000 6.2698 0.0000 26.6232
#
#
#
# Elastic Compliance Matrix: (Units=1/GPa)
#
#
# Indices 1 2 3 4 5 6 
#
# 1 0.015667 -0.004968 -0.006747 0.000000 0.000833 0.000000
# 2 -0.004968 0.018712 -0.004732 0.000000 -0.005755 0.000000
# 3 -0.006747 -0.004732 0.014710 0.000000 -0.000215 0.000000
# 4 0.000000 0.000000 0.000000 0.035745 0.000000 -0.008418
# 5 0.000833 -0.005755 -0.000215 0.000000 0.030846 0.000000
# 6 0.000000 0.000000 0.000000 -0.008418 0.000000 0.039544
#
#
# Mechanical properties :
#
#
# Convention : Reuss Voigt Hill
#
# Bulk Modulus (GPa) = 61.74532 68.02714 64.88623
# Shear Modulus (GPa) = 25.83768 27.75803 26.79786
#
# Velocity S-wave (km/s) = 3.77318 3.91089 3.84265
# Velocity P-wave (km/s) = 7.28045 7.60770 7.44588
#
# Compressibility (1/GPa) = 0.01619556
#
# Stress axis : x y z
#
# Youngs Moduli (GPa) = 63.82758 53.44137 67.98178
#
# Poissons Ratio (x) = 0.26551 0.45865
# Poissons Ratio (y) = 0.31711 0.32169
# Poissons Ratio (z) = 0.43062 0.25289
#
# Static dielectric constant tensor:
#      x y z
#    x 3.684670 0.000000 -0.242070 
#    y 0.000000 2.492740 0.000000 
#    z -0.242070 0.000000 3.421640 
# 
# 
# High freq. dielectric constant tensor:
#      x y z
#    x 1.709130 0.000000 -0.001220 
#    y 0.000000 1.695810 0.000000 
#    z -0.001220 0.000000 1.691410 
# 
# From -- ./inp_files/243804.got.cif
#   From: 2010.06.25/outbox.cif.g09.slc.cpg/sg12_122_cif.got.tgz:243804.got - 2010.06.28 00:19:55.
