data_PCOD8089861
_publ_section_title
;
Structure prediction by ZEFSAII (Michael W. Deem and Ramdas Pophale) SiO2 
 PCOD8089861
Probable space group: C 2/M
;
_chemical_formula_sum "Si O2"
_cell_formula_units_Z 52
_cell_length_a 22.399002
_cell_length_b 9.357147
_cell_length_c 19.999807
_cell_angle_alpha 90.000000
_cell_angle_beta 39.685880
_cell_angle_gamma 90.000000
_cell_volume 2676.775847
_symmetry_space_group_name_H-M "C 2/M"
_symmetry_group_IT_number 12
_symmetry_cell_setting 'monoclinic'
loop_
_space_group_symop_operation_xyz
x,y,z
-x,y,-z
-x,-y,-z
x,-y,z
1/2+x,1/2+y,z
1/2-x,1/2+y,-z
1/2-x,1/2-y,-z
1/2+x,1/2-y,z
loop_
_atom_site_type_symbol
_atom_site_label
_atom_site_fract_x
_atom_site_fract_y
_atom_site_fract_z
Si Si1 0.254631 0.663597 0.320380
Si Si2 0.704790 0.842174 0.837162
Si Si3 0.828187 0.666050 0.472673
Si Si4 0.207717 0.170731 0.100277
Si Si5 0.537183 0.341653 0.826457
Si Si6 0.025291 0.668967 0.239221
Si Si7 0.500000 0.248311 0.000000
O O1 0.249916 0.500000 0.302484
O O2 0.239108 0.749333 0.265478
O O3 0.177595 0.701854 0.443011
O O4 0.353989 0.699602 0.268455
O O5 0.726666 0.790399 0.893372
O O6 0.744836 0.000000 0.793202
O O7 0.593604 0.846138 0.920021
O O8 0.807731 0.500000 0.477684
O O9 0.750000 0.750000 0.500000
O O10 0.931385 0.707994 0.359999
O O11 0.107184 0.240322 0.203221
O O12 0.200900 0.000000 0.093493
O O13 0.250000 0.250000 0.000000
O O14 0.521192 0.500000 0.809564
O O15 0.483385 0.222358 0.829892
O O16 0.499161 0.346175 0.934889
O O17 0.047475 0.500000 0.220013
#
# Coordination Sequence:
#
# PCOD8089861 Si02
#       7
#     8   8   8   8   8   8   4
#     4   9  19  35  56  83 116 150 186 235 293 349
#     4  10  22  38  57  83 113 148 190 239 295 350
#     4  10  20  36  58  88 121 154 194 242 293 347
#     4  11  24  42  62  85 118 157 198 242 290 350
#     4  10  19  33  54  81 114 150 190 235 289 347
#     4  11  23  37  58  87 118 154 198 241 289 346
#     4  10  20  34  56  84 114 142 186 240 296 354
#
# _framework density 19.426355999999998
#
# number of rings (size 3 to 8) (size 9 to 14) (size 15 to 20)
#    0.000    1.846    1.538    2.308    0.000    7.385 
#    0.000    0.769    0.000    4.615    0.000    0.000 
#    0.000    0.000    0.000    0.000    0.000    0.000 
#
# Total GULP energy -322364.834523 kJ/mol
# GULP energy per Si atom -12398.647482 kJ/mol
# Density = 1.938214 g / cm^3
# Si number density = 19.426356 Si / 1000 Ang^3
#
#
#
# Elastic Constant Matrix: (Units=GPa)
#
#
# Indices 1 2 3 4 5 6 
#
# 1 110.1825 56.3976 54.4792 -0.0004 13.0305 0.0004
# 2 56.3976 94.9334 42.9718 -0.0008 2.9350 0.0010
# 3 54.4792 42.9718 121.7184 -0.0004 5.9281 0.0006
# 4 -0.0004 -0.0008 -0.0004 27.9507 0.0002 2.3989
# 5 13.0305 2.9350 5.9281 0.0002 27.5152 -0.0003
# 6 0.0004 0.0010 0.0006 2.3989 -0.0003 32.7967
#
#
#
# Elastic Compliance Matrix: (Units=1/GPa)
#
#
# Indices 1 2 3 4 5 6 
#
# 1 0.015427 -0.007128 -0.004113 0.000000 -0.005660 0.000000
# 2 -0.007128 0.015835 -0.002508 0.000000 0.002227 0.000000
# 3 -0.004113 -0.002508 0.010949 0.000000 -0.000144 0.000000
# 4 0.000000 0.000000 0.000000 0.036003 0.000000 -0.002633
# 5 -0.005660 0.002227 -0.000144 0.000000 0.038817 0.000000
# 6 0.000000 0.000000 0.000000 -0.002633 0.000000 0.030684
#
#
# Mechanical properties :
#
#
# Convention : Reuss Voigt Hill
#
# Bulk Modulus (GPa) = 67.96977 70.50349 69.23663
# Shear Modulus (GPa) = 27.75944 29.18489 28.47217
#
# Velocity S-wave (km/s) = 3.78426 3.88020 3.83253
# Velocity P-wave (km/s) = 7.35925 7.51306 7.43655
#
# Compressibility (1/GPa) = 0.01471242
#
# Stress axis : x y z
#
# Youngs Moduli (GPa) = 64.81955 63.15089 91.33203
#
# Poissons Ratio (x) = 0.45017 0.37563
# Poissons Ratio (y) = 0.46206 0.22909
# Poissons Ratio (z) = 0.26659 0.15841
#
# Static dielectric constant tensor:
#      x y z
#    x 3.484870 0.000000 -0.004640 
#    y 0.000000 3.504750 0.000000 
#    z -0.004640 0.000000 3.769960 
# 
# 
# High freq. dielectric constant tensor:
#      x y z
#    x 1.741670 0.000000 0.009310 
#    y 0.000000 1.757900 0.000000 
#    z 0.009310 0.000000 1.760800 
# 
# From -- ./inp_files/324029.got.cif
#   From: 2010.06.25/outbox.cif.g09.slc.cpg/sg12_163_cif.got.tgz:324029.got - 2010.06.28 00:19:55.
