data_PCOD8089092
_publ_section_title
;
Structure prediction by ZEFSAII (Michael W. Deem and Ramdas Pophale) SiO2 
 PCOD8089092
Probable space group: C 2/M
;
_chemical_formula_sum "Si O2"
_cell_formula_units_Z 64
_cell_length_a 13.160070
_cell_length_b 31.547737
_cell_length_c 9.624345
_cell_angle_alpha 90.000000
_cell_angle_beta 90.561149
_cell_angle_gamma 90.000000
_cell_volume 3995.551791
_symmetry_space_group_name_H-M "C 2/M"
_symmetry_group_IT_number 12
_symmetry_cell_setting 'monoclinic'
loop_
_space_group_symop_operation_xyz
x,y,z
-x,y,-z
-x,-y,-z
x,-y,z
1/2+x,1/2+y,z
1/2-x,1/2+y,-z
1/2-x,1/2-y,-z
1/2+x,1/2-y,z
loop_
_atom_site_type_symbol
_atom_site_label
_atom_site_fract_x
_atom_site_fract_y
_atom_site_fract_z
Si Si1 0.186135 0.310740 0.271972
Si Si2 0.392201 0.724801 0.829538
Si Si3 0.621387 0.729106 0.845816
Si Si4 0.697237 0.180522 0.780097
Si Si5 0.898726 0.546296 0.585604
Si Si6 0.121691 0.635660 0.514769
Si Si7 0.099930 0.544928 0.092560
Si Si8 0.618726 0.133513 0.033901
O O1 0.123285 0.267558 0.257526
O O2 0.302183 0.304251 0.223525
O O3 0.179742 0.327817 0.428629
O O4 0.130070 0.346997 0.185354
O O5 0.508837 0.710972 0.815819
O O6 0.318149 0.689048 0.763844
O O7 0.360178 0.733639 0.988901
O O8 0.636111 0.775038 0.774727
O O9 0.654647 0.146238 0.671822
O O10 0.685068 0.160376 0.930454
O O11 0.841422 0.500000 0.566682
O O12 0.838875 0.588173 0.527994
O O13 0.928386 0.553026 0.746836
O O14 0.000000 0.543537 0.500000
O O15 0.000000 0.638812 0.500000
O O16 0.160544 0.500000 0.078431
O O17 0.162938 0.585329 0.038113
O O18 0.000000 0.541312 0.000000
O O19 0.500000 0.133826 0.000000
#
# Coordination Sequence:
#
# PCOD8089092 Si02
#       8
#     8   8   8   8   8   8   8   8
#     4  11  19  33  48  71  94 125 167 195 234 281
#     4  10  19  33  51  71  95 124 161 203 248 278
#     4  10  19  33  52  70  94 126 159 205 247 281
#     4  11  21  33  47  72  95 126 167 198 232 284
#     4   9  18  31  44  63  96 132 157 186 237 290
#     4  11  22  32  46  71 100 132 160 195 233 282
#     4   9  18  29  44  68  94 124 161 197 233 279
#     4  11  18  28  48  68  93 127 159 199 229 272
#
# _framework density 16.017813
#
# number of rings (size 3 to 8) (size 9 to 14) (size 15 to 20)
#    0.000    1.750    3.750    3.000    5.250    2.000 
#    0.000    1.875    0.000    0.000    0.000    0.000 
#    0.000    6.000    0.000    0.000    0.000    0.000 
#
# Total GULP energy -396504.978605 kJ/mol
# GULP energy per Si atom -12390.780581 kJ/mol
# Density = 1.598136 g / cm^3
# Si number density = 16.017813 Si / 1000 Ang^3
#
#
#
# Elastic Constant Matrix: (Units=GPa)
#
#
# Indices 1 2 3 4 5 6 
#
# 1 67.9880 27.4301 11.9733 0.0000 -2.6384 0.0000
# 2 27.4301 105.8213 15.1340 0.0000 -0.4052 0.0000
# 3 11.9733 15.1340 41.8807 0.0000 1.1242 0.0000
# 4 0.0000 0.0000 0.0000 21.5562 0.0000 8.7794
# 5 -2.6384 -0.4052 1.1242 0.0000 21.2204 0.0000
# 6 0.0000 0.0000 0.0000 8.7794 0.0000 16.5437
#
#
#
# Elastic Compliance Matrix: (Units=1/GPa)
#
#
# Indices 1 2 3 4 5 6 
#
# 1 0.016983 -0.003892 -0.003509 0.000000 0.002223 0.000000
# 2 -0.003892 0.010860 -0.002808 0.000000 -0.000128 0.000000
# 3 -0.003509 -0.002808 0.025945 0.000000 -0.001864 0.000000
# 4 0.000000 0.000000 0.000000 0.059182 0.000000 -0.031406
# 5 0.002223 -0.000128 -0.001864 0.000000 0.047497 0.000000
# 6 0.000000 0.000000 0.000000 -0.031406 0.000000 0.077113
#
#
# Mechanical properties :
#
#
# Convention : Reuss Voigt Hill
#
# Bulk Modulus (GPa) = 29.96648 36.08497 33.02573
# Shear Modulus (GPa) = 18.57907 22.60758 20.59332
#
# Velocity S-wave (km/s) = 3.40943 3.76094 3.58949
# Velocity P-wave (km/s) = 5.85216 6.43712 6.15159
#
# Compressibility (1/GPa) = 0.03337062
#
# Stress axis : x y z
#
# Youngs Moduli (GPa) = 58.88310 92.08240 38.54275
#
# Poissons Ratio (x) = 0.35837 0.13523
# Poissons Ratio (y) = 0.22916 0.10824
# Poissons Ratio (z) = 0.20659 0.25859
#
# Static dielectric constant tensor:
#      x y z
#    x 2.763780 0.000000 -0.026580 
#    y 0.000000 3.571800 0.000000 
#    z -0.026580 0.000000 3.223430 
# 
# 
# High freq. dielectric constant tensor:
#      x y z
#    x 1.567830 0.000000 0.003530 
#    y 0.000000 1.621550 0.000000 
#    z 0.003530 0.000000 1.622440 
# 
# From -- ./inp_files/67842.got.cif
#   From: 2010.06.25/outbox.cif.g09.slc.cpg/sg12_34_cif.got.tgz:67842.got - 2010.06.28 00:19:55.
