data_PCOD8089097
_publ_section_title
;
Structure prediction by ZEFSAII (Michael W. Deem and Ramdas Pophale) SiO2 
 PCOD8089097
Probable space group: C 2/M
;
_chemical_formula_sum "Si O2"
_cell_formula_units_Z 56
_cell_length_a 19.511702
_cell_length_b 11.624321
_cell_length_c 14.940558
_cell_angle_alpha 90.000000
_cell_angle_beta 112.584478
_cell_angle_gamma 90.000000
_cell_volume 3128.809524
_symmetry_space_group_name_H-M "C 2/M"
_symmetry_group_IT_number 12
_symmetry_cell_setting 'monoclinic'
loop_
_space_group_symop_operation_xyz
x,y,z
-x,y,-z
-x,-y,-z
x,-y,z
1/2+x,1/2+y,z
1/2-x,1/2+y,-z
1/2-x,1/2-y,-z
1/2+x,1/2-y,z
loop_
_atom_site_type_symbol
_atom_site_label
_atom_site_fract_x
_atom_site_fract_y
_atom_site_fract_z
Si Si1 0.825074 0.124166 0.098405
Si Si2 0.186652 0.249089 0.081264
Si Si3 0.538769 0.367160 0.428118
Si Si4 0.299028 0.365298 0.544900
Si Si5 0.016430 0.196069 0.782172
Si Si6 0.450036 0.131446 0.053890
Si Si7 0.137518 0.873715 0.228360
O O1 0.773025 0.216015 0.122654
O O2 0.908036 0.124182 0.178132
O O3 0.790701 0.000000 0.100602
O O4 0.826577 0.142427 0.991978
O O5 0.164826 0.219950 0.171235
O O6 0.135674 0.352031 0.016828
O O7 0.500000 0.326434 0.500000
O O8 0.518933 0.500000 0.396001
O O9 0.627681 0.353423 0.480079
O O10 0.506748 0.286328 0.332948
O O11 0.266956 0.500000 0.514184
O O12 0.250000 0.250000 0.500000
O O13 0.319780 0.350616 0.658491
O O14 0.031382 0.316013 0.839899
O O15 0.950731 0.130582 0.800907
O O16 0.470449 0.000000 0.074733
O O17 0.500000 0.188016 0.000000
O O18 0.157119 0.000000 0.201382
#
# Coordination Sequence:
#
# PCOD8089097 Si02
#       7
#     8   8   8   8   8   8   8
#     4  10  20  32  49  73 106 136 167 216 260 306
#     4  10  20  33  48  75 103 138 177 209 257 317
#     4   9  18  34  57  80 106 139 176 223 275 325
#     4   9  19  36  57  81 109 138 175 224 276 328
#     4  10  19  34  54  79 103 132 178 219 263 315
#     4  10  19  33  51  72 106 144 177 212 258 315
#     4  10  19  34  55  77 103 134 173 221 268 315
#
# _framework density 17.898181999999998
#
# number of rings (size 3 to 8) (size 9 to 14) (size 15 to 20)
#    0.000    2.286    1.429    3.000    0.000    1.143 
#    0.000    8.571    0.000    1.714    0.000    0.000 
#    0.000    0.000    0.000    0.000    0.000    0.000 
#
# Total GULP energy -346926.443472 kJ/mol
# GULP energy per Si atom -12390.230124 kJ/mol
# Density = 1.785744 g / cm^3
# Si number density = 17.898182 Si / 1000 Ang^3
#
#
#
# Elastic Constant Matrix: (Units=GPa)
#
#
# Indices 1 2 3 4 5 6 
#
# 1 105.4871 33.2325 51.6340 0.0000 -4.2990 0.0000
# 2 33.2325 86.6744 43.1734 0.0000 3.9825 0.0000
# 3 51.6340 43.1734 82.6932 0.0000 -8.9196 0.0000
# 4 0.0000 0.0000 0.0000 14.8763 0.0000 -3.2919
# 5 -4.2990 3.9825 -8.9196 0.0000 33.8311 0.0000
# 6 0.0000 0.0000 0.0000 -3.2919 0.0000 18.0158
#
#
#
# Elastic Compliance Matrix: (Units=1/GPa)
#
#
# Indices 1 2 3 4 5 6 
#
# 1 0.013769 -0.001322 -0.007927 0.000000 -0.000185 0.000000
# 2 -0.001322 0.016292 -0.008136 0.000000 -0.004231 0.000000
# 3 -0.007927 -0.008136 0.021908 0.000000 0.005727 0.000000
# 4 0.000000 0.000000 0.000000 0.070054 0.000000 0.012800
# 5 -0.000185 -0.004231 0.005727 0.000000 0.031543 0.000000
# 6 0.000000 0.000000 0.000000 0.012800 0.000000 0.057846
#
#
# Mechanical properties :
#
#
# Convention : Reuss Voigt Hill
#
# Bulk Modulus (GPa) = 58.14833 58.99273 58.57053
# Shear Modulus (GPa) = 19.84796 23.13230 21.49013
#
# Velocity S-wave (km/s) = 3.33368 3.59895 3.46885
# Velocity P-wave (km/s) = 6.88308 7.09237 6.98851
#
# Compressibility (1/GPa) = 0.01719740
#
# Stress axis : x y z
#
# Youngs Moduli (GPa) = 72.62689 61.38100 45.64495
#
# Poissons Ratio (x) = 0.08116 0.36183
# Poissons Ratio (y) = 0.09603 0.37139
# Poissons Ratio (z) = 0.57571 0.49943
#
# Static dielectric constant tensor:
#      x y z
#    x 3.407380 0.000000 -0.047290 
#    y 0.000000 3.192910 0.000000 
#    z -0.047290 0.000000 3.217510 
# 
# 
# High freq. dielectric constant tensor:
#      x y z
#    x 1.699700 0.000000 -0.003770 
#    y 0.000000 1.677670 0.000000 
#    z -0.003770 0.000000 1.679590 
# 
# From -- ./inp_files/223180.got.cif
#   From: 2010.06.25/outbox.cif.g09.slc.cpg/sg12_112_cif.got.tgz:223180.got - 2010.06.28 00:19:55.
