data_PCOD8089000
_publ_section_title
;
Structure prediction by ZEFSAII (Michael W. Deem and Ramdas Pophale) SiO2 
 PCOD8089000
Probable space group: C 2/M
;
_chemical_formula_sum "Si O2"
_cell_formula_units_Z 48
_cell_length_a 22.333318
_cell_length_b 14.794769
_cell_length_c 13.387175
_cell_angle_alpha 90.000000
_cell_angle_beta 32.699956
_cell_angle_gamma 90.000000
_cell_volume 2389.664071
_symmetry_space_group_name_H-M "C 2/M"
_symmetry_group_IT_number 12
_symmetry_cell_setting 'monoclinic'
loop_
_space_group_symop_operation_xyz
x,y,z
-x,y,-z
-x,-y,-z
x,-y,z
1/2+x,1/2+y,z
1/2-x,1/2+y,-z
1/2-x,1/2-y,-z
1/2+x,1/2-y,z
loop_
_atom_site_type_symbol
_atom_site_label
_atom_site_fract_x
_atom_site_fract_y
_atom_site_fract_z
Si Si1 0.316572 0.320299 0.837546
Si Si2 0.830735 0.764907 0.607823
Si Si3 0.896727 0.597048 0.932851
Si Si4 0.073779 0.765272 0.991865
Si Si5 0.958086 0.401289 0.452549
Si Si6 0.496327 0.607776 0.733827
O O1 0.372150 0.271037 0.665015
O O2 0.407660 0.375446 0.770706
O O3 0.250000 0.250000 0.000000
O O4 0.234351 0.386991 0.893010
O O5 0.875282 0.666870 0.513205
O O6 0.886975 0.843412 0.459758
O O7 0.698780 0.756090 0.780663
O O8 0.917778 0.500000 0.956042
O O9 0.963669 0.673617 0.899603
O O10 0.933219 0.595045 0.767315
O O11 0.056897 0.850084 0.090409
O O12 0.000000 0.785255 0.000000
O O13 0.900291 0.500000 0.540937
O O14 0.000000 0.367783 0.500000
O O15 0.515635 0.500000 0.720625
#
# Coordination Sequence:
#
# PCOD8089000 Si02
#       6
#     8   8   8   8   8   8
#     4  11  19  37  64  97 134 172 199 252 324 403
#     4  11  22  40  67  91 130 166 213 262 330 387
#     4  10  20  37  62  93 125 159 210 263 314 379
#     4  11  26  46  67  86 125 177 226 275 323 377
#     4  10  19  32  58  96 130 160 200 252 318 396
#     4  12  25  42  66 100 134 167 213 269 330 393
#
# _framework density 20.086504999999999
#
# number of rings (size 3 to 8) (size 9 to 14) (size 15 to 20)
#    0.000    1.167    5.000    3.000    0.000    6.000 
#    0.000    0.000    0.000    0.000    0.000    0.000 
#    0.000    0.000    0.000    0.000    0.000    0.000 
#
# Total GULP energy -297327.120656 kJ/mol
# GULP energy per Si atom -12388.630027 kJ/mol
# Density = 2.004079 g / cm^3
# Si number density = 20.086505 Si / 1000 Ang^3
#
#
#
# Elastic Constant Matrix: (Units=GPa)
#
#
# Indices 1 2 3 4 5 6 
#
# 1 97.4785 32.5831 24.1152 0.0000 -7.7990 0.0000
# 2 32.5831 155.0235 43.0162 0.0000 -7.6758 0.0000
# 3 24.1152 43.0162 91.6829 0.0000 -6.0213 0.0000
# 4 0.0000 0.0000 0.0000 21.3748 0.0000 5.5595
# 5 -7.7990 -7.6758 -6.0213 0.0000 17.3042 0.0000
# 6 0.0000 0.0000 0.0000 5.5595 0.0000 12.7900
#
#
#
# Elastic Compliance Matrix: (Units=1/GPa)
#
#
# Indices 1 2 3 4 5 6 
#
# 1 0.011627 -0.001698 -0.002013 0.000000 0.003787 0.000000
# 2 -0.001698 0.007741 -0.003081 0.000000 0.001597 0.000000
# 3 -0.002013 -0.003081 0.013031 0.000000 0.002260 0.000000
# 4 0.000000 0.000000 0.000000 0.052748 0.000000 -0.022928
# 5 0.003787 0.001597 0.002260 0.000000 0.060991 0.000000
# 6 0.000000 0.000000 0.000000 -0.022928 0.000000 0.088152
#
#
# Mechanical properties :
#
#
# Convention : Reuss Voigt Hill
#
# Bulk Modulus (GPa) = 53.14600 60.40154 56.77377
# Shear Modulus (GPa) = 19.67385 26.59183 23.13284
#
# Velocity S-wave (km/s) = 3.13302 3.64244 3.39729
# Velocity P-wave (km/s) = 6.29315 6.91562 6.61172
#
# Compressibility (1/GPa) = 0.01881609
#
# Stress axis : x y z
#
# Youngs Moduli (GPa) = 86.00574 129.17609 76.74299
#
# Poissons Ratio (x) = 0.21931 0.15448
# Poissons Ratio (y) = 0.14601 0.23642
# Poissons Ratio (z) = 0.17313 0.39795
#
# Static dielectric constant tensor:
#      x y z
#    x 3.603820 0.000000 1.122100 
#    y 0.000000 4.007600 0.000000 
#    z 1.122100 0.000000 6.828800 
# 
# 
# High freq. dielectric constant tensor:
#      x y z
#    x 1.744870 0.000000 0.012160 
#    y 0.000000 1.794950 0.000000 
#    z 0.012160 0.000000 1.793250 
# 
# From -- ./inp_files/167630.got.cif
#   From: 2010.06.25/outbox.cif.g09.slc.cpg/sg12_84_cif.got.tgz:167630.got - 2010.06.28 00:19:55.
