data_PCOD8089500
_publ_section_title
;
Structure prediction by ZEFSAII (Michael W. Deem and Ramdas Pophale) SiO2 
 PCOD8089500
Probable space group: C 2/M
;
_chemical_formula_sum "Si O2"
_cell_formula_units_Z 64
_cell_length_a 19.752659
_cell_length_b 13.108893
_cell_length_c 24.538524
_cell_angle_alpha 90.000000
_cell_angle_beta 31.308979
_cell_angle_gamma 90.000000
_cell_volume 3301.820569
_symmetry_space_group_name_H-M "C 2/M"
_symmetry_group_IT_number 12
_symmetry_cell_setting 'monoclinic'
loop_
_space_group_symop_operation_xyz
x,y,z
-x,y,-z
-x,-y,-z
x,-y,z
1/2+x,1/2+y,z
1/2-x,1/2+y,-z
1/2-x,1/2-y,-z
1/2+x,1/2-y,z
loop_
_atom_site_type_symbol
_atom_site_label
_atom_site_fract_x
_atom_site_fract_y
_atom_site_fract_z
Si Si1 0.310906 0.735450 0.379383
Si Si2 0.440879 0.612945 0.779569
Si Si3 0.838091 0.765933 0.235501
Si Si4 0.102209 0.113550 0.068165
Si Si5 0.267624 0.258344 0.100724
Si Si6 0.499671 0.112897 0.935942
Si Si7 0.600313 0.880216 0.588965
Si Si8 0.195960 0.618388 0.246238
O O1 0.408290 0.640626 0.320302
O O2 0.297316 0.764195 0.325069
O O3 0.363078 0.834972 0.376390
O O4 0.174405 0.690917 0.494308
O O5 0.428181 0.500000 0.762137
O O6 0.372302 0.616037 0.885345
O O7 0.367854 0.699284 0.794933
O O8 0.870023 0.663511 0.179176
O O9 0.718651 0.827912 0.289407
O O10 0.967190 0.833770 0.144965
O O11 0.089911 0.000000 0.054308
O O12 0.229708 0.162706 0.951668
O O13 0.295133 0.323811 0.136476
O O14 0.372499 0.176228 0.009376
O O15 0.488274 0.000000 0.918415
O O16 0.500000 0.106882 0.000000
O O17 0.449180 0.869052 0.677542
O O18 0.640785 0.000000 0.559436
O O19 0.233349 0.500000 0.225415
#
# Coordination Sequence:
#
# PCOD8089500 Si02
#       8
#     8   8   8   8   8   8   8   8
#     4  10  21  40  62  85 115 149 192 242 294 350
#     4  10  19  33  53  78 106 145 191 234 284 343
#     4  10  21  37  58  85 118 154 193 237 287 345
#     4   9  19  32  50  77 112 148 186 231 283 343
#     4  11  19  33  51  78 113 152 190 236 284 339
#     4  10  20  35  54  80 114 157 200 234 277 336
#     4  10  22  40  63  89 115 149 193 244 299 351
#     4  11  22  36  57  86 118 151 192 240 294 349
#
# _framework density 19.383246
#
# number of rings (size 3 to 8) (size 9 to 14) (size 15 to 20)
#    0.000    1.875    2.500    1.875    0.000    2.500 
#    0.000    3.125    0.000    0.000    0.000    2.625 
#    0.000    0.000    0.000    0.000    0.000    0.000 
#
# Total GULP energy -396577.176306 kJ/mol
# GULP energy per Si atom -12393.036760 kJ/mol
# Density = 1.933913 g / cm^3
# Si number density = 19.383246 Si / 1000 Ang^3
#
#
#
# Elastic Constant Matrix: (Units=GPa)
#
#
# Indices 1 2 3 4 5 6 
#
# 1 83.9907 48.3768 25.8502 -0.0003 10.9754 0.0000
# 2 48.3768 123.3466 40.5447 -0.0001 11.1610 -0.0004
# 3 25.8502 40.5447 59.3798 -0.0003 12.1157 -0.0003
# 4 -0.0003 -0.0001 -0.0003 26.6261 -0.0004 -3.0053
# 5 10.9754 11.1610 12.1157 -0.0004 26.9001 0.0002
# 6 0.0000 -0.0004 -0.0003 -3.0053 0.0002 19.3551
#
#
#
# Elastic Compliance Matrix: (Units=1/GPa)
#
#
# Indices 1 2 3 4 5 6 
#
# 1 0.016147 -0.005091 -0.002907 0.000000 -0.003166 0.000000
# 2 -0.005091 0.012096 -0.005994 0.000000 -0.000242 0.000000
# 3 -0.002907 -0.005994 0.023620 0.000000 -0.006965 0.000000
# 4 0.000000 0.000000 0.000000 0.038227 0.000000 0.005936
# 5 -0.003166 -0.000242 -0.006965 0.000000 0.041704 -0.000001
# 6 0.000000 0.000000 0.000000 0.005936 -0.000001 0.052587
#
#
# Mechanical properties :
#
#
# Convention : Reuss Voigt Hill
#
# Bulk Modulus (GPa) = 41.87663 55.14006 48.50834
# Shear Modulus (GPa) = 22.69384 24.70594 23.69989
#
# Velocity S-wave (km/s) = 3.42540 3.57403 3.50051
# Velocity P-wave (km/s) = 6.10704 6.74838 6.43570
#
# Compressibility (1/GPa) = 0.02387967
#
# Stress axis : x y z
#
# Youngs Moduli (GPa) = 61.93210 82.67332 42.33698
#
# Poissons Ratio (x) = 0.42086 0.12309
# Poissons Ratio (y) = 0.31527 0.25375
# Poissons Ratio (z) = 0.18005 0.49550
#
# Static dielectric constant tensor:
#      x y z
#    x 3.387370 0.000000 0.096000 
#    y 0.000000 3.873770 0.000000 
#    z 0.096000 0.000000 3.420780 
# 
# 
# High freq. dielectric constant tensor:
#      x y z
#    x 1.741090 0.000000 0.004970 
#    y 0.000000 1.767980 0.000000 
#    z 0.004970 0.000000 1.738750 
# 
# From -- ./inp_files/366001.got.cif
#   From: 2010.06.25/outbox.cif.g09.slc.cpg/sg12_184_cif.got.tgz:366001.got - 2010.06.28 00:19:55.
