data_PCOD8089948
_publ_section_title
;
Structure prediction by ZEFSAII (Michael W. Deem and Ramdas Pophale) SiO2 
 PCOD8089948
Probable space group: C 2/M
;
_chemical_formula_sum "Si O2"
_cell_formula_units_Z 48
_cell_length_a 30.533901
_cell_length_b 13.670914
_cell_length_c 13.631210
_cell_angle_alpha 90.000000
_cell_angle_beta 153.234509
_cell_angle_gamma 90.000000
_cell_volume 2562.445515
_symmetry_space_group_name_H-M "C 2/M"
_symmetry_group_IT_number 12
_symmetry_cell_setting 'monoclinic'
loop_
_space_group_symop_operation_xyz
x,y,z
-x,y,-z
-x,-y,-z
x,-y,z
1/2+x,1/2+y,z
1/2-x,1/2+y,-z
1/2-x,1/2-y,-z
1/2+x,1/2-y,z
loop_
_atom_site_type_symbol
_atom_site_label
_atom_site_fract_x
_atom_site_fract_y
_atom_site_fract_z
Si Si1 0.608645 0.615751 0.824870
Si Si2 0.891354 0.884250 0.390287
Si Si3 0.389699 0.210515 0.666296
Si Si4 0.389698 0.210515 0.892499
Si Si5 0.211536 0.113740 0.621348
Si Si6 0.788463 0.113741 0.775201
O O1 0.604979 0.500000 0.813847
O O2 0.641382 0.655640 0.782763
O O3 0.500000 0.655138 0.632812
O O4 0.684713 0.648195 0.060585
O O5 0.815285 0.851806 0.321728
O O6 0.895024 0.000000 0.393939
O O7 0.379445 0.180029 0.758890
O O8 0.354269 0.322749 0.584424
O O9 0.324696 0.137706 0.470095
O O10 0.500001 0.199820 0.850562
O O11 0.324695 0.137706 0.828684
O O12 0.354267 0.322748 0.832647
O O13 0.189456 0.000000 0.558673
O O14 0.810543 0.000000 0.800848
#
# Coordination Sequence:
#
# PCOD8089948 Si02
#       6
#     8   8   8   8   8   8
#     4   8  14  26  47  76 105 130 160 201 248 296
#     4   8  14  26  47  76 105 130 160 201 248 296
#     4  10  22  37  50  71 105 136 165 209 258 299
#     4  10  22  37  50  71 105 136 165 209 258 299
#     4  10  19  33  55  77  98 130 171 209 246 295
#     4  10  19  33  55  77  98 130 171 209 246 295
#
# _framework density 18.732106000000002
#
# number of rings (size 3 to 8) (size 9 to 14) (size 15 to 20)
#    0.000    2.667    0.000    4.000    0.000    5.333 
#    0.000    6.667    0.000    3.000    0.000    4.667 
#    0.000    0.000    0.000    0.000    0.000    0.000 
#
# Total GULP energy -297437.922348 kJ/mol
# GULP energy per Si atom -12393.246765 kJ/mol
# Density = 1.868947 g / cm^3
# Si number density = 18.732106 Si / 1000 Ang^3
#
#
#
# Elastic Constant Matrix: (Units=GPa)
#
#
# Indices 1 2 3 4 5 6 
#
# 1 117.4951 18.7174 59.5992 0.0000 13.9481 0.0000
# 2 18.7174 48.7499 13.8125 0.0000 -3.8111 0.0000
# 3 59.5992 13.8125 139.9750 0.0000 3.5170 0.0000
# 4 0.0000 0.0000 0.0000 18.8400 0.0000 -0.9825
# 5 13.9481 -3.8111 3.5170 0.0000 29.8191 0.0000
# 6 0.0000 0.0000 0.0000 -0.9825 0.0000 20.1043
#
#
#
# Elastic Compliance Matrix: (Units=1/GPa)
#
#
# Indices 1 2 3 4 5 6 
#
# 1 0.012141 -0.003781 -0.004655 0.000000 -0.005613 0.000000
# 2 -0.003781 0.022543 -0.000733 0.000000 0.004736 0.000000
# 3 -0.004655 -0.000733 0.009174 0.000000 0.001002 0.000000
# 4 0.000000 0.000000 0.000000 0.053214 0.000000 0.002601
# 5 -0.005613 0.004736 0.001002 0.000000 0.036648 0.000000
# 6 0.000000 0.000000 0.000000 0.002601 0.000000 0.049868
#
#
# Mechanical properties :
#
#
# Convention : Reuss Voigt Hill
#
# Bulk Modulus (GPa) = 39.18934 54.49757 46.84346
# Shear Modulus (GPa) = 23.76045 28.02541 25.89293
#
# Velocity S-wave (km/s) = 3.56537 3.87216 3.72193
# Velocity P-wave (km/s) = 6.15756 7.01055 6.59785
#
# Compressibility (1/GPa) = 0.02551714
#
# Stress axis : x y z
#
# Youngs Moduli (GPa) = 82.36439 44.36008 109.00958
#
# Poissons Ratio (x) = 0.16774 0.50748
# Poissons Ratio (y) = 0.31145 0.07995
# Poissons Ratio (z) = 0.38343 0.03253
#
# Static dielectric constant tensor:
#      x y z
#    x 3.762350 0.000000 -0.133850 
#    y 0.000000 3.106540 0.000000 
#    z -0.133850 0.000000 3.590070 
# 
# 
# High freq. dielectric constant tensor:
#      x y z
#    x 1.731370 0.000000 -0.004290 
#    y 0.000000 1.692990 0.000000 
#    z -0.004290 0.000000 1.725850 
# 
# From -- ./inp_files/183880.got.cif
#   From: 2010.06.25/outbox.cif.g09.slc.cpg/sg12_92_cif.got.tgz:183880.got - 2010.06.28 00:19:55.
