data_PCOD8089311
_publ_section_title
;
Structure prediction by ZEFSAII (Michael W. Deem and Ramdas Pophale) SiO2 
 PCOD8089311
Probable space group: C 2/M
;
_chemical_formula_sum "Si O2"
_cell_formula_units_Z 56
_cell_length_a 24.502906
_cell_length_b 15.763504
_cell_length_c 9.453079
_cell_angle_alpha 90.000000
_cell_angle_beta 53.822781
_cell_angle_gamma 90.000000
_cell_volume 2947.285084
_symmetry_space_group_name_H-M "C 2/M"
_symmetry_group_IT_number 12
_symmetry_cell_setting 'monoclinic'
loop_
_space_group_symop_operation_xyz
x,y,z
-x,y,-z
-x,-y,-z
x,-y,z
1/2+x,1/2+y,z
1/2-x,1/2+y,-z
1/2-x,1/2-y,-z
1/2+x,1/2-y,z
loop_
_atom_site_type_symbol
_atom_site_label
_atom_site_fract_x
_atom_site_fract_y
_atom_site_fract_z
Si Si1 0.698683 0.136939 0.287930
Si Si2 0.173555 0.180255 0.427493
Si Si3 0.087589 0.098684 0.092761
Si Si4 0.315101 0.407597 0.303787
Si Si5 0.547017 0.092204 0.562832
Si Si6 0.022409 0.221817 0.628088
Si Si7 0.286745 0.597196 0.908810
O O1 0.699706 0.226629 0.361462
O O2 0.749150 0.081511 0.306007
O O3 0.624593 0.097102 0.393842
O O4 0.727749 0.147032 0.083843
O O5 0.194963 0.157262 0.553408
O O6 0.093369 0.173874 0.530317
O O7 0.212182 0.119812 0.257767
O O8 0.139885 0.117532 0.138677
O O9 0.027118 0.165729 0.200520
O O10 0.063022 0.000000 0.137175
O O11 0.121524 0.119677 0.890239
O O12 0.329815 0.500000 0.347391
O O13 0.500000 0.088281 0.500000
O O14 0.527626 0.179418 0.677350
O O15 0.538168 0.000000 0.657953
O O16 0.000000 0.223288 0.500000
O O17 0.267640 0.500000 0.957164
#
# Coordination Sequence:
#
# PCOD8089311 Si02
#       7
#     8   8   8   8   8   8   8
#     4  10  20  36  57  78 110 145 176 220 282 329
#     4  11  21  33  53  83 110 141 186 228 261 317
#     4   9  19  34  53  78 111 152 181 213 272 333
#     4  10  21  37  55  78 111 146 183 220 267 331
#     4   9  18  33  56  83 106 134 180 229 272 321
#     4  10  19  33  52  79 115 145 179 225 274 317
#     4  10  19  33  54  81 110 141 179 222 271 323
#
# _framework density 19.000536
#
# number of rings (size 3 to 8) (size 9 to 14) (size 15 to 20)
#    0.000    2.143    1.429    3.429    0.000    2.000 
#    0.000    1.429    0.000    0.000    0.000    9.000 
#    0.000    0.000    0.000    0.000    0.000    0.000 
#
# Total GULP energy -346992.353266 kJ/mol
# GULP energy per Si atom -12392.584045 kJ/mol
# Density = 1.895729 g / cm^3
# Si number density = 19.000536 Si / 1000 Ang^3
#
#
#
# Elastic Constant Matrix: (Units=GPa)
#
#
# Indices 1 2 3 4 5 6 
#
# 1 66.5703 28.9313 38.4489 0.0000 -10.1900 0.0000
# 2 28.9313 106.3583 65.6228 0.0000 -17.2279 0.0000
# 3 38.4489 65.6228 113.0997 0.0000 -1.6806 0.0000
# 4 0.0000 0.0000 0.0000 31.4558 0.0000 -25.0062
# 5 -10.1900 -17.2279 -1.6806 0.0000 27.7127 0.0000
# 6 0.0000 0.0000 0.0000 -25.0062 0.0000 5.5560
#
#
#
# Elastic Compliance Matrix: (Units=1/GPa)
#
#
# Indices 1 2 3 4 5 6 
#
# 1 0.019943 -0.000331 -0.006488 0.000000 0.006734 0.000000
# 2 -0.000331 0.017029 -0.009621 0.000000 0.009881 0.000000
# 3 -0.006488 -0.009621 0.016520 0.000000 -0.007365 0.000000
# 4 0.000000 0.000000 0.000000 -0.012332 0.000000 -0.055502
# 5 0.006734 0.009881 -0.007365 0.000000 0.044257 0.000000
# 6 0.000000 0.000000 0.000000 -0.055502 0.000000 -0.069817
#
#
# Mechanical properties :
#
#
# Convention : Reuss Voigt Hill
#
# Bulk Modulus (GPa) = 48.51421 61.33716 54.92569
# Shear Modulus (GPa) = 90.33245 23.14658 56.73951
#
# Velocity S-wave (km/s) = 6.90255 3.49407 5.47055
# Velocity P-wave (km/s) = 9.44010 6.97351 8.29896
#
# Compressibility (1/GPa) = 0.02061252
#
# Stress axis : x y z
#
# Youngs Moduli (GPa) = 50.14166 58.72313 60.53206
#
# Poissons Ratio (x) = 0.01946 0.39270
# Poissons Ratio (y) = 0.01662 0.58239
# Poissons Ratio (z) = 0.32530 0.56498
#
# Static dielectric constant tensor:
#      x y z
#    x 3.376230 0.000000 -0.166220 
#    y 0.000000 3.820590 0.000000 
#    z -0.166220 0.000000 3.317330 
# 
# 
# High freq. dielectric constant tensor:
#      x y z
#    x 1.727940 0.000000 -0.014590 
#    y 0.000000 1.754690 0.000000 
#    z -0.014590 0.000000 1.716430 
# 
# From -- ./inp_files/96749.got.cif
#   From: 2010.06.25/outbox.cif.g09.slc.cpg/sg12_49_cif.got.tgz:96749.got - 2010.06.28 00:19:55.
