data_PCOD8089973
_publ_section_title
;
Structure prediction by ZEFSAII (Michael W. Deem and Ramdas Pophale) SiO2 
 PCOD8089973
Probable space group: C 2/M
;
_chemical_formula_sum "Si O2"
_cell_formula_units_Z 64
_cell_length_a 14.524291
_cell_length_b 13.874068
_cell_length_c 19.133766
_cell_angle_alpha 90.000000
_cell_angle_beta 110.181640
_cell_angle_gamma 90.000000
_cell_volume 3618.940517
_symmetry_space_group_name_H-M "C 2/M"
_symmetry_group_IT_number 12
_symmetry_cell_setting 'monoclinic'
loop_
_space_group_symop_operation_xyz
x,y,z
-x,y,-z
-x,-y,-z
x,-y,z
1/2+x,1/2+y,z
1/2-x,1/2+y,-z
1/2-x,1/2-y,-z
1/2+x,1/2-y,z
loop_
_atom_site_type_symbol
_atom_site_label
_atom_site_fract_x
_atom_site_fract_y
_atom_site_fract_z
Si Si1 0.954498 0.384816 0.817642
Si Si2 0.062417 0.766608 0.446707
Si Si3 0.215521 0.888818 0.953493
Si Si4 0.758832 0.110486 0.199426
Si Si5 0.076698 0.894325 0.659920
Si Si6 0.091843 0.609602 0.348934
Si Si7 0.803486 0.895477 0.442914
Si Si8 0.084670 0.714946 0.962865
O O1 0.968304 0.500000 0.834252
O O2 0.850001 0.346223 0.820127
O O3 0.960196 0.357989 0.736853
O O4 0.037834 0.323156 0.878386
O O5 0.063604 0.661725 0.413165
O O6 0.168818 0.812743 0.493469
O O7 0.000000 0.756318 0.500000
O O8 0.020155 0.830412 0.371385
O O9 0.200310 0.877471 0.867292
O O10 0.133329 0.821514 0.968914
O O11 0.199838 0.000000 0.973360
O O12 0.327564 0.859160 0.998253
O O13 0.840367 0.158708 0.271219
O O14 0.749689 0.000000 0.221232
O O15 0.108473 0.904304 0.588148
O O16 0.051113 0.000000 0.684507
O O17 0.064150 0.500000 0.355176
O O18 0.208126 0.628148 0.371525
O O19 0.791003 0.000000 0.477706
O O20 0.000000 0.715201 0.000000
#
# Coordination Sequence:
#
# PCOD8089973 Si02
#       8
#     8   8   8   8   8   8   8   8
#     4  10  19  33  55  79 102 133 174 223 271 312
#     4  10  20  30  46  71  97 132 168 207 257 309
#     4  10  22  37  55  84 116 144 179 224 272 320
#     4   9  16  30  52  75 102 133 166 214 269 313
#     4   9  16  28  47  73 100 124 154 202 263 308
#     4  10  20  33  48  68  97 133 171 211 253 302
#     4   9  16  30  49  69  93 120 161 210 257 305
#     4  11  22  36  58  85 111 146 185 223 266 321
#
# _framework density 17.684733999999999
#
# number of rings (size 3 to 8) (size 9 to 14) (size 15 to 20)
#    0.000    2.250    2.500    1.125    1.750    2.500 
#    0.000    0.000    0.000    0.000    0.000    0.875 
#    0.000    0.000    0.000    0.000    0.000    0.000 
#
# Total GULP energy -396426.836677 kJ/mol
# GULP energy per Si atom -12388.338646 kJ/mol
# Density = 1.764448 g / cm^3
# Si number density = 17.684734 Si / 1000 Ang^3
#
#
#
# Elastic Constant Matrix: (Units=GPa)
#
#
# Indices 1 2 3 4 5 6 
#
# 1 53.5253 33.5067 36.6127 0.0000 8.2530 0.0000
# 2 33.5067 86.7049 53.5054 0.0000 3.8917 0.0000
# 3 36.6127 53.5054 114.7647 0.0000 17.2482 0.0000
# 4 0.0000 0.0000 0.0000 27.6554 0.0000 -1.3033
# 5 8.2530 3.8917 17.2482 0.0000 24.2427 0.0000
# 6 0.0000 0.0000 0.0000 -1.3033 0.0000 25.8263
#
#
#
# Elastic Compliance Matrix: (Units=1/GPa)
#
#
# Indices 1 2 3 4 5 6 
#
# 1 0.027192 -0.007567 -0.004410 0.000000 -0.004905 0.000000
# 2 -0.007567 0.018509 -0.006893 0.000000 0.004509 0.000000
# 3 -0.004410 -0.006893 0.014492 0.000000 -0.007703 0.000000
# 4 0.000000 0.000000 0.000000 0.036245 0.000000 0.001829
# 5 -0.004905 0.004509 -0.007703 0.000000 0.047676 0.000000
# 6 0.000000 0.000000 0.000000 0.001829 0.000000 0.038813
#
#
# Mechanical properties :
#
#
# Convention : Reuss Voigt Hill
#
# Bulk Modulus (GPa) = 44.53668 55.80494 50.17081
# Shear Modulus (GPa) = 21.91541 24.30289 23.10915
#
# Velocity S-wave (km/s) = 3.52409 3.71108 3.61879
# Velocity P-wave (km/s) = 6.46508 7.07013 6.77436
#
# Compressibility (1/GPa) = 0.02245340
#
# Stress axis : x y z
#
# Youngs Moduli (GPa) = 36.77496 54.02886 69.00571
#
# Poissons Ratio (x) = 0.40882 0.30432
# Poissons Ratio (y) = 0.27827 0.47564
# Poissons Ratio (z) = 0.16218 0.37241
#
# Static dielectric constant tensor:
#      x y z
#    x 3.118350 0.000000 0.238500 
#    y 0.000000 3.263490 0.000000 
#    z 0.238500 0.000000 3.352290 
# 
# 
# High freq. dielectric constant tensor:
#      x y z
#    x 1.660120 0.000000 0.021440 
#    y 0.000000 1.664560 0.000000 
#    z 0.021440 0.000000 1.695280 
# 
# From -- ./inp_files/309935.got.cif
#   From: 2010.06.25/outbox.cif.g09.slc.cpg/sg12_155_cif.got.tgz:309935.got - 2010.06.28 00:19:55.
