data_PCOD8089387
_publ_section_title
;
Structure prediction by ZEFSAII (Michael W. Deem and Ramdas Pophale) SiO2 
 PCOD8089387
Probable space group: C 2/M
;
_chemical_formula_sum "Si O2"
_cell_formula_units_Z 56
_cell_length_a 19.512573
_cell_length_b 9.361292
_cell_length_c 24.401966
_cell_angle_alpha 90.000000
_cell_angle_beta 43.892426
_cell_angle_gamma 90.000000
_cell_volume 3090.298758
_symmetry_space_group_name_H-M "C 2/M"
_symmetry_group_IT_number 12
_symmetry_cell_setting 'monoclinic'
loop_
_space_group_symop_operation_xyz
x,y,z
-x,y,-z
-x,-y,-z
x,-y,z
1/2+x,1/2+y,z
1/2-x,1/2+y,-z
1/2-x,1/2-y,-z
1/2+x,1/2-y,z
loop_
_atom_site_type_symbol
_atom_site_label
_atom_site_fract_x
_atom_site_fract_y
_atom_site_fract_z
Si Si1 0.906869 0.838993 0.514043
Si Si2 0.203011 0.336100 0.338301
Si Si3 0.475839 0.166650 0.636312
Si Si4 0.961459 0.332150 0.770411
Si Si5 0.543212 0.666618 0.030290
Si Si6 0.257504 0.164808 0.940437
Si Si7 0.929351 0.833641 0.201481
O O1 0.817273 0.760028 0.596478
O O2 0.000000 0.838206 0.500000
O O3 0.935273 0.755039 0.442497
O O4 0.874223 0.000000 0.517956
O O5 0.187004 0.500000 0.365137
O O6 0.129806 0.296364 0.330502
O O7 0.314331 0.308347 0.254176
O O8 0.472863 0.213802 0.700985
O O9 0.499917 0.000000 0.615777
O O10 0.978036 0.500000 0.768700
O O11 0.851541 0.285184 0.851500
O O12 0.042061 0.249736 0.759936
O O13 0.516750 0.500000 0.045641
O O14 0.492377 0.730932 0.114307
O O15 0.500000 0.738585 0.000000
O O16 0.659925 0.695627 0.961196
O O17 0.265080 0.000000 0.952207
O O18 0.250000 0.250000 0.000000
O O19 0.953148 0.000000 0.197287
#
# Coordination Sequence:
#
# PCOD8089387 Si02
#       7
#     8   8   8   8   8   8   8
#     4   9  17  31  52  78 105 132 165 205 255 308
#     4   9  18  32  53  77 102 132 169 212 254 298
#     4   9  18  33  53  77 103 132 170 212 252 297
#     4  10  21  34  51  75 105 138 170 208 253 303
#     4   9  18  31  51  77 103 131 169 215 253 291
#     4  10  19  33  53  75 101 136 173 208 251 299
#     4  10  20  34  52  76 104 136 171 209 255 303
#
# _framework density 18.121226
#
# number of rings (size 3 to 8) (size 9 to 14) (size 15 to 20)
#    0.000    2.571    1.429    0.429    2.000    2.857 
#    0.000    0.714    0.000    1.714    0.000    0.000 
#    0.000    0.000    0.000    0.000    0.000    0.000 
#
# Total GULP energy -347206.848863 kJ/mol
# GULP energy per Si atom -12400.244602 kJ/mol
# Density = 1.807998 g / cm^3
# Si number density = 18.121226 Si / 1000 Ang^3
#
#
#
# Elastic Constant Matrix: (Units=GPa)
#
#
# Indices 1 2 3 4 5 6 
#
# 1 88.7405 28.7971 34.8860 0.0000 18.3394 0.0000
# 2 28.7971 49.8010 33.1607 0.0001 10.7934 -0.0001
# 3 34.8860 33.1607 91.9944 0.0000 20.8689 0.0000
# 4 0.0000 0.0001 0.0000 24.2795 0.0000 3.1748
# 5 18.3394 10.7934 20.8689 0.0000 32.9472 0.0000
# 6 0.0000 -0.0001 0.0000 3.1748 0.0000 23.1454
#
#
#
# Elastic Compliance Matrix: (Units=1/GPa)
#
#
# Indices 1 2 3 4 5 6 
#
# 1 0.015234 -0.006104 -0.002460 0.000000 -0.004922 0.000000
# 2 -0.006104 0.029135 -0.007933 0.000000 -0.001122 0.000000
# 3 -0.002460 -0.007933 0.016072 0.000000 -0.006212 0.000000
# 4 0.000000 0.000000 0.000000 0.041939 0.000000 -0.005753
# 5 -0.004922 -0.001122 -0.006212 0.000000 0.037393 0.000000
# 6 0.000000 0.000000 0.000000 -0.005753 0.000000 0.043994
#
#
# Mechanical properties :
#
#
# Convention : Reuss Voigt Hill
#
# Bulk Modulus (GPa) = 36.43446 47.13594 41.78520
# Shear Modulus (GPa) = 22.13270 24.98724 23.55997
#
# Velocity S-wave (km/s) = 3.49860 3.71737 3.60964
# Velocity P-wave (km/s) = 6.03903 6.67031 6.36251
#
# Compressibility (1/GPa) = 0.02744654
#
# Stress axis : x y z
#
# Youngs Moduli (GPa) = 65.64291 34.32314 62.22091
#
# Poissons Ratio (x) = 0.20951 0.15308
# Poissons Ratio (y) = 0.40069 0.49358
# Poissons Ratio (z) = 0.16149 0.27228
#
# Static dielectric constant tensor:
#      x y z
#    x 4.072560 0.000000 -0.239470 
#    y 0.000000 3.246220 0.000000 
#    z -0.239470 0.000000 3.833980 
# 
# 
# High freq. dielectric constant tensor:
#      x y z
#    x 1.690380 0.000000 0.000150 
#    y 0.000000 1.681070 0.000000 
#    z 0.000150 0.000000 1.710020 
# 
# From -- ./inp_files/342205.got.cif
#   From: 2010.06.25/outbox.cif.g09.slc.cpg/sg12_172_cif.got.tgz:342205.got - 2010.06.28 00:19:55.
