data_PCOD8089995
_publ_section_title
;
Structure prediction by ZEFSAII (Michael W. Deem and Ramdas Pophale) SiO2 
 PCOD8089995
Probable space group: C 2/M
;
_chemical_formula_sum "Si O2"
_cell_formula_units_Z 64
_cell_length_a 15.542366
_cell_length_b 8.934554
_cell_length_c 24.079408
_cell_angle_alpha 90.000000
_cell_angle_beta 100.141202
_cell_angle_gamma 90.000000
_cell_volume 3291.525261
_symmetry_space_group_name_H-M "C 2/M"
_symmetry_group_IT_number 12
_symmetry_cell_setting 'monoclinic'
loop_
_space_group_symop_operation_xyz
x,y,z
-x,y,-z
-x,-y,-z
x,-y,z
1/2+x,1/2+y,z
1/2-x,1/2+y,-z
1/2-x,1/2-y,-z
1/2+x,1/2-y,z
loop_
_atom_site_type_symbol
_atom_site_label
_atom_site_fract_x
_atom_site_fract_y
_atom_site_fract_z
Si Si1 0.275034 0.671961 0.445917
Si Si2 0.666848 0.828195 0.326419
Si Si3 0.548692 0.176022 0.562057
Si Si4 0.316572 0.322443 0.261825
Si Si5 0.706159 0.678166 0.865715
Si Si6 0.997553 0.822845 0.333363
Si Si7 0.617390 0.822841 0.058789
Si Si8 0.572464 0.822742 0.931458
O O1 0.298153 0.500000 0.460775
O O2 0.250000 0.750000 0.500000
O O3 0.195706 0.685071 0.393801
O O4 0.356464 0.751141 0.426607
O O5 0.741120 0.762250 0.294090
O O6 0.580503 0.729513 0.306680
O O7 0.646126 0.000000 0.308890
O O8 0.500000 0.217049 0.500000
O O9 0.493296 0.246056 0.605617
O O10 0.557508 0.000000 0.571458
O O11 0.317344 0.500000 0.263880
O O12 0.298443 0.263566 0.197856
O O13 0.410418 0.263178 0.293079
O O14 0.703992 0.500000 0.868533
O O15 0.795983 0.743298 0.902239
O O16 0.621998 0.740325 0.887765
O O17 0.997375 0.000000 0.340486
O O18 0.529523 0.772527 0.081340
O O19 0.620394 0.000000 0.059893
O O20 0.614208 0.768910 0.994604
O O21 0.581702 0.000000 0.925035
#
# Coordination Sequence:
#
# PCOD8089995 Si02
#       8
#     8   8   8   8   8   8   8   8
#     4  11  22  37  58  84 116 147 181 225 278 335
#     4  10  21  40  60  80 109 147 183 224 277 336
#     4  11  23  38  57  84 115 145 181 226 275 333
#     4   9  20  39  57  76 110 149 184 227 278 333
#     4  10  19  33  55  79 105 145 190 226 273 332
#     4  11  22  39  60  83 109 144 184 230 283 332
#     4   8  16  31  52  77 109 149 184 219 275 336
#     4   9  17  32  52  78 112 144 181 231 276 322
#
# _framework density 19.443873
#
# number of rings (size 3 to 8) (size 9 to 14) (size 15 to 20)
#    0.000    2.125    1.250    3.000    0.000    6.000 
#    0.000    5.000    0.000    0.000    0.000    0.000 
#    0.000    0.000    0.000    0.000    0.000    0.000 
#
# Total GULP energy -396842.638571 kJ/mol
# GULP energy per Si atom -12401.332455 kJ/mol
# Density = 1.939962 g / cm^3
# Si number density = 19.443873 Si / 1000 Ang^3
#
#
#
# Elastic Constant Matrix: (Units=GPa)
#
#
# Indices 1 2 3 4 5 6 
#
# 1 140.7042 34.2349 60.0496 0.0000 -11.3385 0.0000
# 2 34.2349 48.5388 32.2847 0.0000 1.5268 0.0000
# 3 60.0496 32.2847 122.2146 0.0000 -12.8218 0.0000
# 4 0.0000 0.0000 0.0000 20.2601 0.0000 -7.6907
# 5 -11.3385 1.5268 -12.8218 0.0000 27.6520 0.0000
# 6 0.0000 0.0000 0.0000 -7.6907 0.0000 34.0177
#
#
#
# Elastic Compliance Matrix: (Units=1/GPa)
#
#
# Indices 1 2 3 4 5 6 
#
# 1 0.009931 -0.004906 -0.003288 0.000000 0.002819 0.000000
# 2 -0.004906 0.028004 -0.005634 0.000000 -0.006171 0.000000
# 3 -0.003288 -0.005634 0.011749 0.000000 0.004411 0.000000
# 4 0.000000 0.000000 0.000000 0.053991 0.000000 0.012206
# 5 0.002819 -0.006171 0.004411 0.000000 0.039705 0.000000
# 6 0.000000 0.000000 0.000000 0.012206 0.000000 0.032156
#
#
# Mechanical properties :
#
#
# Convention : Reuss Voigt Hill
#
# Bulk Modulus (GPa) = 45.39838 62.73288 54.06563
# Shear Modulus (GPa) = 23.74880 28.71186 26.23033
#
# Velocity S-wave (km/s) = 3.49865 3.84689 3.67690
# Velocity P-wave (km/s) = 6.30237 7.21561 6.77440
#
# Compressibility (1/GPa) = 0.02202722
#
# Stress axis : x y z
#
# Youngs Moduli (GPa) = 100.69265 35.70881 85.11401
#
# Poissons Ratio (x) = 0.17520 0.27984
# Poissons Ratio (y) = 0.49404 0.47956
# Poissons Ratio (z) = 0.33106 0.20120
#
# Static dielectric constant tensor:
#      x y z
#    x 3.777830 0.000000 0.088480 
#    y 0.000000 3.241000 0.000000 
#    z 0.088480 0.000000 3.634280 
# 
# 
# High freq. dielectric constant tensor:
#      x y z
#    x 1.772210 0.000000 -0.003460 
#    y 0.000000 1.729490 0.000000 
#    z -0.003460 0.000000 1.754890 
# 
# From -- ./inp_files/338790.got.cif
#   From: 2010.06.25/outbox.cif.g09.slc.cpg/sg12_170_cif.got.tgz:338790.got - 2010.06.28 00:19:55.
