data_PCOD8089932
_publ_section_title
;
Structure prediction by ZEFSAII (Michael W. Deem and Ramdas Pophale) SiO2 
 PCOD8089932
Probable space group: C 2/M
;
_chemical_formula_sum "Si O2"
_cell_formula_units_Z 48
_cell_length_a 21.692853
_cell_length_b 12.804081
_cell_length_c 11.398858
_cell_angle_alpha 90.000000
_cell_angle_beta 60.770332
_cell_angle_gamma 90.000000
_cell_volume 2762.969875
_symmetry_space_group_name_H-M "C 2/M"
_symmetry_group_IT_number 12
_symmetry_cell_setting 'monoclinic'
loop_
_space_group_symop_operation_xyz
x,y,z
-x,y,-z
-x,-y,-z
x,-y,z
1/2+x,1/2+y,z
1/2-x,1/2+y,-z
1/2-x,1/2-y,-z
1/2+x,1/2-y,z
loop_
_atom_site_type_symbol
_atom_site_label
_atom_site_fract_x
_atom_site_fract_y
_atom_site_fract_z
Si Si1 0.781515 0.382739 0.873144
Si Si2 0.290730 0.619854 0.551298
Si Si3 0.920096 0.879116 0.038742
Si Si4 0.291566 0.690554 0.290932
Si Si5 0.644098 0.683354 0.131905
Si Si6 0.922448 0.881416 0.569261
O O1 0.810835 0.500000 0.855107
O O2 0.756806 0.361408 0.763519
O O3 0.845136 0.305440 0.848033
O O4 0.717620 0.368311 0.024017
O O5 0.280051 0.500000 0.601206
O O6 0.282961 0.627005 0.419029
O O7 0.230315 0.688763 0.670348
O O8 0.367824 0.663623 0.522188
O O9 0.913098 0.828021 0.917463
O O10 0.895267 0.000000 0.059583
O O11 0.872857 0.815087 0.175199
O O12 0.000000 0.867533 0.000000
O O13 0.614794 0.622917 0.270658
O O14 0.000000 0.824318 0.500000
O O15 0.936489 0.000000 0.519470
#
# Coordination Sequence:
#
# PCOD8089932 Si02
#       6
#     8   8   8   8   8   8
#     4  10  19  33  55  76 101 135 171 215 256 299
#     4  10  20  33  53  78 106 139 173 210 257 307
#     4  10  21  35  55  79 105 135 167 213 264 309
#     4  10  19  35  52  77 106 136 175 213 254 304
#     4  10  19  34  51  78 103 131 171 212 256 307
#     4  10  20  32  50  78 108 135 164 208 264 311
#
# _framework density 17.372610999999999
#
# number of rings (size 3 to 8) (size 9 to 14) (size 15 to 20)
#    0.000    2.000    1.667    4.000    2.333    0.000 
#    0.000    0.000    0.000    2.500    0.000    0.000 
#    0.000    0.000    0.000    0.000    0.000    0.000 
#
# Total GULP energy -297545.570448 kJ/mol
# GULP energy per Si atom -12397.732102 kJ/mol
# Density = 1.733307 g / cm^3
# Si number density = 17.372611 Si / 1000 Ang^3
#
#
#
# Elastic Constant Matrix: (Units=GPa)
#
#
# Indices 1 2 3 4 5 6 
#
# 1 101.0323 50.8059 48.4855 0.0000 -1.4388 0.0000
# 2 50.8059 95.6465 29.5124 0.0000 -2.8365 0.0000
# 3 48.4855 29.5124 81.7137 0.0000 8.9477 0.0000
# 4 0.0000 0.0000 0.0000 20.6675 0.0000 -0.3590
# 5 -1.4388 -2.8365 8.9477 0.0000 19.4453 0.0000
# 6 0.0000 0.0000 0.0000 -0.3590 0.0000 24.9635
#
#
#
# Elastic Compliance Matrix: (Units=1/GPa)
#
#
# Indices 1 2 3 4 5 6 
#
# 1 0.017194 -0.006438 -0.008333 0.000000 0.004167 0.000000
# 2 -0.006438 0.014460 -0.001665 0.000000 0.002399 0.000000
# 3 -0.008333 -0.001665 0.018826 0.000000 -0.009522 0.000000
# 4 0.000000 0.000000 0.000000 0.048397 0.000000 0.000696
# 5 0.004167 0.002399 -0.009522 0.000000 0.056466 0.000000
# 6 0.000000 0.000000 0.000000 0.000696 0.000000 0.040068
#
#
# Mechanical properties :
#
#
# Convention : Reuss Voigt Hill
#
# Bulk Modulus (GPa) = 56.79414 59.55555 58.17484
# Shear Modulus (GPa) = 21.35346 22.98785 22.17065
#
# Velocity S-wave (km/s) = 3.50972 3.64156 3.57625
# Velocity P-wave (km/s) = 7.01334 7.21367 7.11421
#
# Compressibility (1/GPa) = 0.01760745
#
# Stress axis : x y z
#
# Youngs Moduli (GPa) = 58.16030 69.15654 53.11684
#
# Poissons Ratio (x) = 0.44525 0.44263
# Poissons Ratio (y) = 0.37445 0.08844
# Poissons Ratio (z) = 0.48466 0.11514
#
# Static dielectric constant tensor:
#      x y z
#    x 3.407540 0.000000 0.113120 
#    y 0.000000 3.210700 0.000000 
#    z 0.113120 0.000000 3.233340 
# 
# 
# High freq. dielectric constant tensor:
#      x y z
#    x 1.671410 0.000000 0.018280 
#    y 0.000000 1.652830 0.000000 
#    z 0.018280 0.000000 1.670650 
# 
# From -- ./inp_files/164002.got.cif
#   From: 2010.06.25/outbox.cif.g09.slc.cpg/sg12_83_cif.got.tgz:164002.got - 2010.06.28 00:19:55.
