data_PCOD8089755
_publ_section_title
;
Structure prediction by ZEFSAII (Michael W. Deem and Ramdas Pophale) SiO2 
 PCOD8089755
Probable space group: C 2/M
;
_chemical_formula_sum "Si O2"
_cell_formula_units_Z 64
_cell_length_a 30.131961
_cell_length_b 9.133078
_cell_length_c 19.271574
_cell_angle_alpha 90.000000
_cell_angle_beta 140.504229
_cell_angle_gamma 90.000000
_cell_volume 3373.132388
_symmetry_space_group_name_H-M "C 2/M"
_symmetry_group_IT_number 12
_symmetry_cell_setting 'monoclinic'
loop_
_space_group_symop_operation_xyz
x,y,z
-x,y,-z
-x,-y,-z
x,-y,z
1/2+x,1/2+y,z
1/2-x,1/2+y,-z
1/2-x,1/2-y,-z
1/2+x,1/2-y,z
loop_
_atom_site_type_symbol
_atom_site_label
_atom_site_fract_x
_atom_site_fract_y
_atom_site_fract_z
Si Si1 0.431286 0.328194 0.120918
Si Si2 0.382488 0.830814 0.455803
Si Si3 0.690032 0.669755 0.512093
Si Si4 0.531487 0.831950 0.701405
Si Si5 0.650557 0.829616 0.330037
Si Si6 0.025669 0.172113 0.107065
Si Si7 0.859192 0.329879 0.275280
Si Si8 0.723108 0.669748 0.035099
O O1 0.434779 0.500000 0.136578
O O2 0.475818 0.254423 0.235586
O O3 0.464516 0.284936 0.087210
O O4 0.351487 0.270674 0.028417
O O5 0.331275 0.733993 0.439951
O O6 0.461386 0.812907 0.574165
O O7 0.377111 0.764093 0.371927
O O8 0.357974 0.000000 0.429518
O O9 0.670350 0.500000 0.482527
O O10 0.646336 0.753593 0.400068
O O11 0.772450 0.695708 0.606718
O O12 0.593446 0.761599 0.729181
O O13 0.547112 0.000000 0.738865
O O14 0.596203 0.757666 0.211226
O O15 0.632617 0.000000 0.317791
O O16 0.042434 0.000000 0.129238
O O17 0.000000 0.221019 0.000000
O O18 0.878887 0.500000 0.300841
O O19 0.777757 0.301442 0.162774
O O20 0.718504 0.500000 0.010448
O O21 0.750000 0.750000 0.000000
#
# Coordination Sequence:
#
# PCOD8089755 Si02
#       8
#     8   8   8   8   8   8   8   8
#     4  10  21  35  54  81 109 140 182 227 271 323
#     4  10  20  33  53  81 110 141 181 225 272 330
#     4  10  21  37  57  82 112 144 181 230 283 335
#     4  10  19  33  54  79 107 141 183 224 268 323
#     4  10  21  38  60  83 108 143 188 232 277 332
#     4  10  22  39  58  83 116 151 186 229 283 339
#     4   9  18  33  53  77 107 142 179 224 271 316
#     4  10  19  34  55  77 104 139 180 224 268 317
#
# _framework density 18.973461
#
# number of rings (size 3 to 8) (size 9 to 14) (size 15 to 20)
#    0.000    2.125    1.250    1.875    0.000    7.250 
#    0.000    3.750    0.000    1.500    0.000    0.000 
#    0.000    0.000    0.000    0.000    0.000    0.000 
#
# Total GULP energy -396870.363051 kJ/mol
# GULP energy per Si atom -12402.198845 kJ/mol
# Density = 1.893028 g / cm^3
# Si number density = 18.973461 Si / 1000 Ang^3
#
#
#
# Elastic Constant Matrix: (Units=GPa)
#
#
# Indices 1 2 3 4 5 6 
#
# 1 107.1325 41.2566 61.1633 0.0000 -20.0418 0.0000
# 2 41.2566 57.0573 48.0190 0.0000 -3.5347 0.0000
# 3 61.1633 48.0190 132.3296 0.0000 -15.9528 0.0000
# 4 0.0000 0.0000 0.0000 27.5791 0.0000 -0.6862
# 5 -20.0418 -3.5347 -15.9528 0.0000 34.1933 0.0000
# 6 0.0000 0.0000 0.0000 -0.6862 0.0000 29.3079
#
#
#
# Elastic Compliance Matrix: (Units=1/GPa)
#
#
# Indices 1 2 3 4 5 6 
#
# 1 0.015672 -0.007919 -0.003562 0.000000 0.006705 0.000000
# 2 -0.007919 0.029334 -0.007606 0.000000 -0.005158 0.000000
# 3 -0.003562 -0.007606 0.012309 0.000000 0.002869 0.000000
# 4 0.000000 0.000000 0.000000 0.036281 0.000000 0.000849
# 5 0.006705 -0.005158 0.002869 0.000000 0.033981 0.000000
# 6 0.000000 0.000000 0.000000 0.000849 0.000000 0.034140
#
#
# Mechanical properties :
#
#
# Convention : Reuss Voigt Hill
#
# Bulk Modulus (GPa) = 52.24320 66.37747 59.31033
# Shear Modulus (GPa) = 24.24006 27.95475 26.09741
#
# Velocity S-wave (km/s) = 3.57820 3.84260 3.71276
# Velocity P-wave (km/s) = 6.68326 7.39917 7.05031
#
# Compressibility (1/GPa) = 0.01914125
#
# Stress axis : x y z
#
# Youngs Moduli (GPa) = 63.81002 34.09015 81.24147
#
# Poissons Ratio (x) = 0.26996 0.28934
# Poissons Ratio (y) = 0.50531 0.61794
# Poissons Ratio (z) = 0.22726 0.25930
#
# Static dielectric constant tensor:
#      x y z
#    x 3.660450 0.000000 0.016190 
#    y 0.000000 3.333060 0.000000 
#    z 0.016190 0.000000 3.569900 
# 
# 
# High freq. dielectric constant tensor:
#      x y z
#    x 1.745310 0.000000 0.004210 
#    y 0.000000 1.717530 0.000000 
#    z 0.004210 0.000000 1.743540 
# 
# From -- ./inp_files/295862.got.cif
#   From: 2010.06.25/outbox.cif.g09.slc.cpg/sg12_148_cif.got.tgz:295862.got - 2010.06.28 00:19:55.
