data_PCOD8089190
_publ_section_title
;
Structure prediction by ZEFSAII (Michael W. Deem and Ramdas Pophale) SiO2 
 PCOD8089190
Probable space group: C 2/M
;
_chemical_formula_sum "Si O2"
_cell_formula_units_Z 48
_cell_length_a 15.529909
_cell_length_b 8.550486
_cell_length_c 29.922879
_cell_angle_alpha 90.000000
_cell_angle_beta 38.996420
_cell_angle_gamma 90.000000
_cell_volume 2500.353302
_symmetry_space_group_name_H-M "C 2/M"
_symmetry_group_IT_number 12
_symmetry_cell_setting 'monoclinic'
loop_
_space_group_symop_operation_xyz
x,y,z
-x,y,-z
-x,-y,-z
x,-y,z
1/2+x,1/2+y,z
1/2-x,1/2+y,-z
1/2-x,1/2-y,-z
1/2+x,1/2-y,z
loop_
_atom_site_type_symbol
_atom_site_label
_atom_site_fract_x
_atom_site_fract_y
_atom_site_fract_z
Si Si1 0.244803 0.813280 0.170501
Si Si2 0.996697 0.185633 0.669878
Si Si3 0.720076 0.314806 0.080234
Si Si4 0.960463 0.314790 0.919371
Si Si5 0.792920 0.315297 0.580271
Si Si6 0.516036 0.684660 0.426355
O O1 0.124662 0.746399 0.250425
O O2 0.222158 0.748838 0.129635
O O3 0.389290 0.748880 0.130346
O O4 0.245150 0.000000 0.170278
O O5 0.141000 0.246594 0.630805
O O6 0.973576 0.244018 0.628668
O O7 0.994798 0.000000 0.671562
O O8 0.714428 0.500000 0.082570
O O9 0.585065 0.250117 0.110353
O O10 0.856008 0.255192 0.999776
O O11 0.961617 0.500000 0.917097
O O12 0.796507 0.500000 0.586719
O O13 0.888896 0.273128 0.499883
O O14 0.844212 0.229616 0.604495
O O15 0.490974 0.500000 0.439754
#
# Coordination Sequence:
#
# PCOD8089190 Si02
#       6
#     8   8   8   8   8   8
#     4   9  17  31  49  69  96 129 161 191 230 283
#     4   9  19  32  48  71  98 127 157 193 236 281
#     4   9  17  30  50  73  95 123 160 198 234 275
#     4   9  17  30  50  73  95 123 160 198 234 275
#     4  10  19  33  52  73  95 122 158 196 236 279
#     4  10  19  33  52  73  95 122 158 196 236 279
#
# _framework density 19.197285999999998
#
# number of rings (size 3 to 8) (size 9 to 14) (size 15 to 20)
#    0.000    2.667    0.000    3.000    0.000    3.333 
#    0.000    3.333    0.000   10.000    0.000    0.000 
#    0.000    0.000    0.000    0.000    0.000    0.000 
#
# Total GULP energy -297599.506766 kJ/mol
# GULP energy per Si atom -12399.979449 kJ/mol
# Density = 1.915359 g / cm^3
# Si number density = 19.197286 Si / 1000 Ang^3
#
#
#
# Elastic Constant Matrix: (Units=GPa)
#
#
# Indices 1 2 3 4 5 6 
#
# 1 194.8159 8.3735 108.2009 0.0000 -6.9708 0.0008
# 2 8.3735 14.8809 5.0491 0.0003 -1.4137 0.0017
# 3 108.2009 5.0491 130.7593 -0.0001 -4.9429 0.0002
# 4 0.0000 0.0003 -0.0001 15.6785 -0.0001 0.1801
# 5 -6.9708 -1.4137 -4.9429 -0.0001 21.4747 0.0000
# 6 0.0008 0.0017 0.0002 0.1801 0.0000 27.0329
#
#
#
# Elastic Compliance Matrix: (Units=1/GPa)
#
#
# Indices 1 2 3 4 5 6 
#
# 1 0.009636 -0.002657 -0.007827 0.000000 0.001151 0.000000
# 2 -0.002657 0.069152 -0.000335 -0.000001 0.003613 -0.000004
# 3 -0.007827 -0.000335 0.014164 0.000000 0.000697 0.000000
# 4 0.000000 -0.000001 0.000000 0.063787 0.000000 -0.000425
# 5 0.001151 0.003613 0.000697 0.000000 0.047339 0.000000
# 6 0.000000 -0.000004 0.000000 -0.000425 0.000000 0.036995
#
#
# Mechanical properties :
#
#
# Convention : Reuss Voigt Hill
#
# Bulk Modulus (GPa) = 14.02267 64.85592 39.43929
# Shear Modulus (GPa) = 17.45316 27.42605 22.43961
#
# Velocity S-wave (km/s) = 3.01848 3.78384 3.42262
# Velocity P-wave (km/s) = 4.41233 7.27648 6.01730
#
# Compressibility (1/GPa) = 0.07131308
#
# Stress axis : x y z
#
# Youngs Moduli (GPa) = 103.78058 14.46089 70.60221
#
# Poissons Ratio (x) = 0.03842 0.55262
# Poissons Ratio (y) = 0.27573 0.02366
# Poissons Ratio (z) = 0.81232 0.00485
#
# Static dielectric constant tensor:
#      x y z
#    x 3.796950 0.000000 -0.015360 
#    y 0.000000 3.116930 0.000000 
#    z -0.015360 0.000000 3.658830 
# 
# 
# High freq. dielectric constant tensor:
#      x y z
#    x 1.763570 0.000000 -0.000670 
#    y 0.000000 1.711610 0.000000 
#    z -0.000670 0.000000 1.740700 
# 
# From -- ./inp_files/374908.got.cif
#   From: 2010.06.25/outbox.cif.g09.slc.cpg/sg12_188_cif.got.tgz:374908.got - 2010.06.28 00:19:55.
