data_PCOD8089131
_publ_section_title
;
Structure prediction by ZEFSAII (Michael W. Deem and Ramdas Pophale) SiO2 
 PCOD8089131
Probable space group: C 2/M
;
_chemical_formula_sum "Si O2"
_cell_formula_units_Z 56
_cell_length_a 23.044831
_cell_length_b 22.268641
_cell_length_c 6.289885
_cell_angle_alpha 90.000000
_cell_angle_beta 66.715080
_cell_angle_gamma 90.000000
_cell_volume 2964.919890
_symmetry_space_group_name_H-M "C 2/M"
_symmetry_group_IT_number 12
_symmetry_cell_setting 'monoclinic'
loop_
_space_group_symop_operation_xyz
x,y,z
-x,y,-z
-x,-y,-z
x,-y,z
1/2+x,1/2+y,z
1/2-x,1/2+y,-z
1/2-x,1/2-y,-z
1/2+x,1/2-y,z
loop_
_atom_site_type_symbol
_atom_site_label
_atom_site_fract_x
_atom_site_fract_y
_atom_site_fract_z
Si Si1 0.210553 0.068776 0.342757
Si Si2 0.253837 0.862305 0.669980
Si Si3 0.168739 0.568185 0.114532
Si Si4 0.435518 0.838749 0.689252
Si Si5 0.435665 0.729114 0.988969
Si Si6 0.657549 0.666917 0.158621
Si Si7 0.351218 0.233591 0.492566
O O1 0.209647 0.102270 0.569593
O O2 0.159370 0.100480 0.261190
O O3 0.189364 0.000000 0.399500
O O4 0.281406 0.074437 0.148902
O O5 0.299787 0.910995 0.711215
O O6 0.294135 0.809510 0.499563
O O7 0.211585 0.828579 0.904285
O O8 0.146104 0.500000 0.174165
O O9 0.107372 0.608252 0.151751
O O10 0.500000 0.866090 0.500000
O O11 0.402131 0.805310 0.544165
O O12 0.450532 0.792627 0.857334
O O13 0.381525 0.736213 0.242835
O O14 0.500000 0.703767 0.000000
O O15 0.410534 0.681236 0.849658
O O16 0.675174 0.714670 0.315138
#
# Coordination Sequence:
#
# PCOD8089131 Si02
#       7
#     8   8   8   8   8   8   8
#     4  10  20  36  55  77 109 142 176 219 266 318
#     4  10  19  34  55  80 108 142 175 216 271 322
#     4   9  19  33  51  76 107 145 186 223 259 306
#     4  10  19  33  51  75 106 144 186 225 263 304
#     4  11  21  35  55  76 105 143 178 217 271 328
#     4  10  22  34  53  83 107 137 176 219 268 320
#     4  10  20  34  53  79 112 138 174 222 269 320
#
# _framework density 18.887525
#
# number of rings (size 3 to 8) (size 9 to 14) (size 15 to 20)
#    0.000    2.000    1.429    2.571    0.000    5.429 
#    0.000    0.000    0.000    0.857    0.000    4.000 
#    0.000    0.000    0.000    0.000    0.000    0.000 
#
# Total GULP energy -347205.432496 kJ/mol
# GULP energy per Si atom -12400.194018 kJ/mol
# Density = 1.884454 g / cm^3
# Si number density = 18.887525 Si / 1000 Ang^3
#
#
#
# Elastic Constant Matrix: (Units=GPa)
#
#
# Indices 1 2 3 4 5 6 
#
# 1 79.0682 55.6030 21.4090 0.0000 7.0176 0.0000
# 2 55.6030 113.5174 37.3048 0.0000 1.0220 0.0000
# 3 21.4090 37.3048 84.8889 0.0000 1.5486 0.0000
# 4 0.0000 0.0000 0.0000 28.0283 0.0000 -0.4638
# 5 7.0176 1.0220 1.5486 0.0000 23.6117 0.0000
# 6 0.0000 0.0000 0.0000 -0.4638 0.0000 19.3086
#
#
#
# Elastic Compliance Matrix: (Units=1/GPa)
#
#
# Indices 1 2 3 4 5 6 
#
# 1 0.020030 -0.009508 -0.000773 0.000000 -0.005491 0.000000
# 2 -0.009508 0.014810 -0.004155 0.000000 0.002457 0.000000
# 3 -0.000773 -0.004155 0.013810 0.000000 -0.000496 0.000000
# 4 0.000000 0.000000 0.000000 0.035692 0.000000 0.000857
# 5 -0.005491 0.002457 -0.000496 0.000000 0.043910 0.000000
# 6 0.000000 0.000000 0.000000 0.000857 0.000000 0.051811
#
#
# Mechanical properties :
#
#
# Convention : Reuss Voigt Hill
#
# Bulk Modulus (GPa) = 50.56169 56.23423 53.39796
# Shear Modulus (GPa) = 23.19888 25.06689 24.13289
#
# Velocity S-wave (km/s) = 3.50846 3.64698 3.57839
# Velocity P-wave (km/s) = 6.57574 6.89723 6.73841
#
# Compressibility (1/GPa) = 0.01977782
#
# Stress axis : x y z
#
# Youngs Moduli (GPa) = 49.92511 67.52391 72.41036
#
# Poissons Ratio (x) = 0.64199 0.05599
# Poissons Ratio (y) = 0.47466 0.30088
# Poissons Ratio (z) = 0.03861 0.28057
#
# Static dielectric constant tensor:
#      x y z
#    x 3.376410 0.000000 0.108590 
#    y 0.000000 3.468100 0.000000 
#    z 0.108590 0.000000 3.451200 
# 
# 
# High freq. dielectric constant tensor:
#      x y z
#    x 1.718010 0.000000 0.011350 
#    y 0.000000 1.722440 0.000000 
#    z 0.011350 0.000000 1.738440 
# 
# From -- ./inp_files/21604.got.cif
#   From: 2010.06.25/outbox.cif.g09.slc.cpg/sg12_11_cif.got.tgz:21604.got - 2010.06.28 00:19:55.
