data_PCOD8089428
_publ_section_title
;
Structure prediction by ZEFSAII (Michael W. Deem and Ramdas Pophale) SiO2 
 PCOD8089428
Probable space group: C 2/M
;
_chemical_formula_sum "Si O2"
_cell_formula_units_Z 64
_cell_length_a 13.041649
_cell_length_b 29.518252
_cell_length_c 15.857691
_cell_angle_alpha 90.000000
_cell_angle_beta 145.326928
_cell_angle_gamma 90.000000
_cell_volume 3472.911658
_symmetry_space_group_name_H-M "C 2/M"
_symmetry_group_IT_number 12
_symmetry_cell_setting 'monoclinic'
loop_
_space_group_symop_operation_xyz
x,y,z
-x,y,-z
-x,-y,-z
x,-y,z
1/2+x,1/2+y,z
1/2-x,1/2+y,-z
1/2-x,1/2-y,-z
1/2+x,1/2-y,z
loop_
_atom_site_type_symbol
_atom_site_label
_atom_site_fract_x
_atom_site_fract_y
_atom_site_fract_z
Si Si1 0.061361 0.050661 0.175879
Si Si2 0.790393 0.449339 0.175880
Si Si3 0.825268 0.253128 0.825265
Si Si4 0.952475 0.375915 0.175817
Si Si5 0.326148 0.144829 0.826145
Si Si6 0.657593 0.707739 0.337753
Si Si7 0.100845 0.124085 0.824182
Si Si8 0.017909 0.292261 0.337757
O O1 0.226287 0.067121 0.226290
O O2 0.031183 0.083215 0.236068
O O3 0.102778 0.000000 0.237525
O O4 0.881583 0.049806 0.999999
O O5 0.872267 0.500000 0.237526
O O6 0.940948 0.416784 0.236070
O O7 0.756042 0.304183 0.756039
O O8 0.868113 0.223129 0.774160
O O9 0.680204 0.223129 0.774141
O O10 0.000000 0.256079 0.000000
O O11 0.115796 0.383321 0.218584
O O12 0.001743 0.330913 0.257804
O O13 0.763202 0.369781 0.999999
O O14 0.178636 0.116678 0.781417
O O15 0.500000 0.152222 0.000000
O O16 0.513859 0.669086 0.257809
O O17 0.861274 0.691294 0.499995
O O18 0.618826 0.750000 0.368830
#
# Coordination Sequence:
#
# PCOD8089428 Si02
#       8
#     8   8   8   8   8   8   8   8
#     4   8  15  29  50  77 105 130 165 218 272 317
#     4   8  15  29  50  77 105 130 165 218 272 317
#     4  11  21  35  53  72 102 142 180 220 262 311
#     4  10  19  33  53  76 102 138 181 218 261 316
#     4   9  18  31  48  73 104 134 174 223 257 302
#     4  11  23  36  50  74 108 141 176 219 264 310
#     4  10  19  33  53  76 102 138 181 218 261 316
#     4  11  23  36  50  74 108 141 176 219 264 310
#
# _framework density 18.428341
#
# number of rings (size 3 to 8) (size 9 to 14) (size 15 to 20)
#    0.000    2.250    2.500    1.875    1.750    1.000 
#    0.000    1.250    0.000    4.500    0.000    1.750 
#    0.000    2.000    0.000    0.000    0.000    0.000 
#
# Total GULP energy -396458.049804 kJ/mol
# GULP energy per Si atom -12389.314056 kJ/mol
# Density = 1.838640 g / cm^3
# Si number density = 18.428341 Si / 1000 Ang^3
#
#
#
# Elastic Constant Matrix: (Units=GPa)
#
#
# Indices 1 2 3 4 5 6 
#
# 1 168.1951 77.9604 27.9967 0.0000 -3.3614 0.0000
# 2 77.9604 102.0948 19.2930 0.0000 -1.6656 0.0000
# 3 27.9967 19.2930 45.0137 0.0001 -0.1336 0.0000
# 4 0.0000 0.0000 0.0001 25.7722 0.0001 -0.2698
# 5 -3.3614 -1.6656 -0.1336 0.0001 10.9866 0.0000
# 6 0.0000 0.0000 0.0000 -0.2698 0.0000 35.3291
#
#
#
# Elastic Compliance Matrix: (Units=1/GPa)
#
#
# Indices 1 2 3 4 5 6 
#
# 1 0.009616 -0.006728 -0.003092 0.000000 0.001885 0.000000
# 2 -0.006728 0.015392 -0.002412 0.000000 0.000246 0.000000
# 3 -0.003092 -0.002412 0.025169 0.000000 -0.001006 0.000000
# 4 0.000000 0.000000 0.000000 0.038805 0.000000 0.000296
# 5 0.001885 0.000246 -0.001006 0.000000 0.091622 0.000000
# 6 0.000000 0.000000 0.000000 0.000296 0.000000 0.028308
#
#
# Mechanical properties :
#
#
# Convention : Reuss Voigt Hill
#
# Bulk Modulus (GPa) = 38.88869 62.86708 50.87788
# Shear Modulus (GPa) = 20.66576 27.08783 23.87679
#
# Velocity S-wave (km/s) = 3.35238 3.83809 3.60343
# Velocity P-wave (km/s) = 6.01108 7.33687 6.70681
#
# Compressibility (1/GPa) = 0.02571442
#
# Stress axis : x y z
#
# Youngs Moduli (GPa) = 103.98989 64.96790 39.73131
#
# Poissons Ratio (x) = 0.43711 0.12284
# Poissons Ratio (y) = 0.69966 0.09582
# Poissons Ratio (z) = 0.32150 0.15669
#
# Static dielectric constant tensor:
#      x y z
#    x 3.746700 0.000000 -0.019150 
#    y 0.000000 8.033240 0.000000 
#    z -0.019150 0.000000 3.072740 
# 
# 
# High freq. dielectric constant tensor:
#      x y z
#    x 1.728080 0.000000 -0.001370 
#    y 0.000000 1.698100 0.000000 
#    z -0.001370 0.000000 1.679870 
# 
# From -- ./inp_files/209884.got.cif
#   From: 2010.06.25/outbox.cif.g09.slc.cpg/sg12_105_cif.got.tgz:209884.got - 2010.06.28 00:19:55.
