data_PCOD8089989
_publ_section_title
;
Structure prediction by ZEFSAII (Michael W. Deem and Ramdas Pophale) SiO2 
 PCOD8089989
Probable space group: C 2/M
;
_chemical_formula_sum "Si O2"
_cell_formula_units_Z 64
_cell_length_a 20.390706
_cell_length_b 9.535239
_cell_length_c 22.025863
_cell_angle_alpha 90.000000
_cell_angle_beta 124.118843
_cell_angle_gamma 90.000000
_cell_volume 3545.373756
_symmetry_space_group_name_H-M "C 2/M"
_symmetry_group_IT_number 12
_symmetry_cell_setting 'monoclinic'
loop_
_space_group_symop_operation_xyz
x,y,z
-x,y,-z
-x,-y,-z
x,-y,z
1/2+x,1/2+y,z
1/2-x,1/2+y,-z
1/2-x,1/2-y,-z
1/2+x,1/2-y,z
loop_
_atom_site_type_symbol
_atom_site_label
_atom_site_fract_x
_atom_site_fract_y
_atom_site_fract_z
Si Si1 0.364263 0.838387 0.162209
Si Si2 0.777722 0.839416 0.458108
Si Si3 0.498465 0.160955 0.675578
Si Si4 0.541892 0.336039 0.460248
Si Si5 0.918000 0.162045 0.077079
Si Si6 0.134723 0.662140 0.299252
Si Si7 0.686089 0.666268 0.088192
Si Si8 0.899368 0.162220 0.836378
O O1 0.415695 0.820739 0.249582
O O2 0.404068 0.749396 0.130228
O O3 0.276419 0.781561 0.130592
O O4 0.362145 0.000000 0.140048
O O5 0.750000 0.750000 0.500000
O O6 0.866063 0.796601 0.485253
O O7 0.721910 0.812441 0.371401
O O8 0.772846 0.000000 0.476479
O O9 0.498247 0.254026 0.615617
O O10 0.430464 0.214252 0.686165
O O11 0.481978 0.000000 0.649055
O O12 0.500000 0.286924 0.500000
O O13 0.528918 0.500000 0.441407
O O14 0.007920 0.181560 0.102357
O O15 0.898785 0.000000 0.081087
O O16 0.861896 0.222955 0.994943
O O17 0.119178 0.500000 0.274911
O O18 0.128853 0.752197 0.236075
O O19 0.679813 0.500000 0.086111
O O20 0.647269 0.724214 0.129807
O O21 0.878471 0.000000 0.813807
#
# Coordination Sequence:
#
# PCOD8089989 Si02
#       8
#     8   8   8   8   8   8   8   8
#     4  10  20  35  55  77 106 141 177 215 259 311
#     4  10  20  35  56  78 103 136 173 212 255 304
#     4  10  20  35  55  78 106 141 175 211 257 311
#     4  10  22  38  56  81 110 137 169 214 265 311
#     4  10  19  33  55  79 104 137 178 220 262 308
#     4  10  20  35  54  78 108 138 173 216 261 307
#     4   9  19  35  53  76 107 140 175 219 263 307
#     4  10  20  34  54  79 105 137 178 218 261 311
#
# _framework density 18.051694000000001
#
# number of rings (size 3 to 8) (size 9 to 14) (size 15 to 20)
#    0.000    2.125    2.500    0.750    0.000    4.250 
#    0.000    1.250    0.000    1.500    0.000    0.000 
#    0.000    0.000    0.000    0.000    0.000    0.000 
#
# Total GULP energy -396911.559821 kJ/mol
# GULP energy per Si atom -12403.486244 kJ/mol
# Density = 1.801061 g / cm^3
# Si number density = 18.051694 Si / 1000 Ang^3
#
#
#
# Elastic Constant Matrix: (Units=GPa)
#
#
# Indices 1 2 3 4 5 6 
#
# 1 109.0249 36.1850 44.9199 0.0000 -2.0677 0.0000
# 2 36.1850 50.0717 43.5396 0.0000 -7.1221 0.0000
# 3 44.9199 43.5396 109.8720 0.0000 -1.3317 0.0000
# 4 0.0000 0.0000 0.0000 28.4051 0.0000 -0.1101
# 5 -2.0677 -7.1221 -1.3317 0.0000 33.6714 0.0000
# 6 0.0000 0.0000 0.0000 -0.1101 0.0000 17.5266
#
#
#
# Elastic Compliance Matrix: (Units=1/GPa)
#
#
# Indices 1 2 3 4 5 6 
#
# 1 0.012466 -0.007152 -0.002273 0.000000 -0.000837 0.000000
# 2 -0.007152 0.035823 -0.011191 0.000000 0.006695 0.000000
# 3 -0.002273 -0.011191 0.014442 0.000000 -0.001935 0.000000
# 4 0.000000 0.000000 0.000000 0.035206 0.000000 0.000221
# 5 -0.000837 0.006695 -0.001935 0.000000 0.030987 0.000000
# 6 0.000000 0.000000 0.000000 0.000221 0.000000 0.057057
#
#
# Mechanical properties :
#
#
# Convention : Reuss Voigt Hill
#
# Bulk Modulus (GPa) = 46.51036 57.58418 52.04727
# Shear Modulus (GPa) = 21.33301 25.54223 23.43762
#
# Velocity S-wave (km/s) = 3.44142 3.76566 3.60719
# Velocity P-wave (km/s) = 6.45075 7.13273 6.80029
#
# Compressibility (1/GPa) = 0.02150059
#
# Stress axis : x y z
#
# Youngs Moduli (GPa) = 80.21536 27.91521 69.24336
#
# Poissons Ratio (x) = 0.19964 0.15738
# Poissons Ratio (y) = 0.57368 0.77487
# Poissons Ratio (z) = 0.18232 0.31239
#
# Static dielectric constant tensor:
#      x y z
#    x 3.471500 0.000000 0.143970 
#    y 0.000000 3.185690 0.000000 
#    z 0.143970 0.000000 3.381030 
# 
# 
# High freq. dielectric constant tensor:
#      x y z
#    x 1.705660 0.000000 0.009190 
#    y 0.000000 1.681060 0.000000 
#    z 0.009190 0.000000 1.707570 
# 
# From -- ./inp_files/320043.got.cif
#   From: 2010.06.25/outbox.cif.g09.slc.cpg/sg12_161_cif.got.tgz:320043.got - 2010.06.28 00:19:55.
