data_PCOD8089829
_publ_section_title
;
Structure prediction by ZEFSAII (Michael W. Deem and Ramdas Pophale) SiO2 
 PCOD8089829
Probable space group: C 2/M
;
_chemical_formula_sum "Si O2"
_cell_formula_units_Z 56
_cell_length_a 15.467172
_cell_length_b 8.635038
_cell_length_c 26.593197
_cell_angle_alpha 90.000000
_cell_angle_beta 126.361290
_cell_angle_gamma 90.000000
_cell_volume 2860.226803
_symmetry_space_group_name_H-M "C 2/M"
_symmetry_group_IT_number 12
_symmetry_cell_setting 'monoclinic'
loop_
_space_group_symop_operation_xyz
x,y,z
-x,y,-z
-x,-y,-z
x,-y,z
1/2+x,1/2+y,z
1/2-x,1/2+y,-z
1/2-x,1/2-y,-z
1/2+x,1/2-y,z
loop_
_atom_site_type_symbol
_atom_site_label
_atom_site_fract_x
_atom_site_fract_y
_atom_site_fract_z
Si Si1 0.984927 0.683556 0.070285
Si Si2 0.949105 0.317256 0.365891
Si Si3 0.279940 0.317497 0.374898
Si Si4 0.654699 0.817813 0.499607
Si Si5 0.537073 0.815732 0.289908
Si Si6 0.904309 0.316237 0.150116
Si Si7 0.660467 0.316486 0.064518
O O1 0.000449 0.500000 0.072965
O O2 0.957208 0.742173 0.116601
O O3 0.094887 0.766763 0.091522
O O4 0.887660 0.731973 0.000640
O O5 0.929668 0.500000 0.360126
O O6 0.840207 0.231160 0.344631
O O7 0.042976 0.267076 0.436287
O O8 0.979033 0.258483 0.320542
O O9 0.279515 0.500000 0.381689
O O10 0.343163 0.242947 0.443093
O O11 0.158687 0.252487 0.330673
O O12 0.750000 0.750000 0.500000
O O13 0.666715 0.000000 0.503605
O O14 0.472552 0.747409 0.220023
O O15 0.538967 0.000000 0.288872
O O16 0.905798 0.500000 0.152219
O O17 0.782125 0.258069 0.112621
O O18 0.652298 0.500000 0.053982
#
# Coordination Sequence:
#
# PCOD8089829 Si02
#       7
#     8   8   8   8   8   8   8
#     4  10  19  33  54  81 109 140 176 219 273 319
#     4  10  21  38  58  80 108 145 181 221 275 327
#     4  11  22  37  58  84 110 144 183 225 275 324
#     4  11  21  36  59  85 112 143 180 225 278 328
#     4   9  19  38  56  75 109 147 182 219 270 327
#     4   9  19  34  55  78 105 145 184 218 264 323
#     4  10  19  33  54  81 108 139 178 220 268 317
#
# _framework density 19.578866000000001
#
# number of rings (size 3 to 8) (size 9 to 14) (size 15 to 20)
#    0.000    2.000    1.429    3.429    0.000    4.000 
#    0.000    2.143    0.000    8.571    0.000    0.000 
#    0.000    0.000    0.000    0.000    0.000    0.000 
#
# Total GULP energy -347264.917875 kJ/mol
# GULP energy per Si atom -12402.318496 kJ/mol
# Density = 1.953430 g / cm^3
# Si number density = 19.578866 Si / 1000 Ang^3
#
#
#
# Elastic Constant Matrix: (Units=GPa)
#
#
# Indices 1 2 3 4 5 6 
#
# 1 153.6105 10.7469 78.3108 0.0000 -19.4834 0.0000
# 2 10.7469 25.6384 10.4832 0.0000 -2.4398 0.0000
# 3 78.3108 10.4832 138.3800 0.0000 -15.7312 0.0000
# 4 0.0000 0.0000 0.0000 19.6949 0.0000 -1.8362
# 5 -19.4834 -2.4398 -15.7312 0.0000 21.2882 0.0000
# 6 0.0000 0.0000 0.0000 -1.8362 0.0000 31.1834
#
#
#
# Elastic Compliance Matrix: (Units=1/GPa)
#
#
# Indices 1 2 3 4 5 6 
#
# 1 0.009722 -0.001624 -0.004791 0.000000 0.005171 0.000000
# 2 -0.001624 0.040652 -0.001965 0.000000 0.001720 0.000000
# 3 -0.004791 -0.001965 0.010439 0.000000 0.003105 0.000000
# 4 0.000000 0.000000 0.000000 0.051055 0.000000 0.003006
# 5 0.005171 0.001720 0.003105 0.000000 0.054199 0.000000
# 6 0.000000 0.000000 0.000000 0.003006 0.000000 0.032245
#
#
# Mechanical properties :
#
#
# Convention : Reuss Voigt Hill
#
# Bulk Modulus (GPa) = 22.69969 57.41231 40.05600
# Shear Modulus (GPa) = 21.76219 28.97251 25.36735
#
# Velocity S-wave (km/s) = 3.33756 3.85097 3.60342
# Velocity P-wave (km/s) = 5.14505 7.01146 6.14948
#
# Compressibility (1/GPa) = 0.04405346
#
# Stress axis : x y z
#
# Youngs Moduli (GPa) = 102.86100 24.59908 95.79068
#
# Poissons Ratio (x) = 0.03995 0.45891
# Poissons Ratio (y) = 0.16706 0.18822
# Poissons Ratio (z) = 0.49279 0.04834
#
# Static dielectric constant tensor:
#      x y z
#    x 3.792690 0.000000 -0.025200 
#    y 0.000000 3.317250 0.000000 
#    z -0.025200 0.000000 3.766150 
# 
# 
# High freq. dielectric constant tensor:
#      x y z
#    x 1.780790 0.000000 -0.002980 
#    y 0.000000 1.739790 0.000000 
#    z -0.002980 0.000000 1.759460 
# 
# From -- ./inp_files/360014.got.cif
#   From: 2010.06.25/outbox.cif.g09.slc.cpg/sg12_181_cif.got.tgz:360014.got - 2010.06.28 00:19:55.
