data_PCOD8089525
_publ_section_title
;
Structure prediction by ZEFSAII (Michael W. Deem and Ramdas Pophale) SiO2 
 PCOD8089525
Probable space group: C 2/M
;
_chemical_formula_sum "Si O2"
_cell_formula_units_Z 40
_cell_length_a 20.278908
_cell_length_b 9.186660
_cell_length_c 23.461991
_cell_angle_alpha 90.000000
_cell_angle_beta 150.743136
_cell_angle_gamma 90.000000
_cell_volume 2136.152752
_symmetry_space_group_name_H-M "C 2/M"
_symmetry_group_IT_number 12
_symmetry_cell_setting 'monoclinic'
loop_
_space_group_symop_operation_xyz
x,y,z
-x,y,-z
-x,-y,-z
x,-y,z
1/2+x,1/2+y,z
1/2-x,1/2+y,-z
1/2-x,1/2-y,-z
1/2+x,1/2-y,z
loop_
_atom_site_type_symbol
_atom_site_label
_atom_site_fract_x
_atom_site_fract_y
_atom_site_fract_z
Si Si1 0.139793 0.173600 0.631812
Si Si2 0.351515 0.666800 0.235674
Si Si3 0.688835 0.831616 0.007603
Si Si4 0.105956 0.332454 0.249541
Si Si5 0.626431 0.332909 0.379948
O O1 0.161476 0.240087 0.711666
O O2 0.264947 0.225686 0.687757
O O3 0.000000 0.234317 0.500000
O O4 0.133053 0.000000 0.629927
O O5 0.308601 0.500000 0.209384
O O6 0.505258 0.683550 0.332656
O O7 0.251457 0.737066 0.112967
O O8 0.527431 0.815335 0.889638
O O9 0.732749 0.000000 0.034791
O O10 0.750000 0.750000 0.000000
O O11 0.127670 0.500000 0.284320
O O12 0.083697 0.236005 0.288152
O O13 0.665637 0.500000 0.399657
O O14 0.750000 0.250000 0.500000
#
# Coordination Sequence:
#
# PCOD8089525 Si02
#       5
#     8   8   8   8   8
#     4   9  17  31  51  76 108 141 177 222 267 314
#     4   9  18  32  52  77 105 141 178 218 269 314
#     4  10  19  33  53  79 109 138 177 224 267 317
#     4  10  20  33  54  81 106 138 178 222 269 317
#     4  11  21  34  54  78 106 140 180 222 265 317
#
# _framework density 18.725252000000001
#
# number of rings (size 3 to 8) (size 9 to 14) (size 15 to 20)
#    0.000    2.200    2.000    1.800    0.000    4.000 
#    0.000    4.000    0.000    7.800    0.000    2.800 
#    0.000    0.000    0.000    0.000    0.000    0.000 
#
# Total GULP energy -247977.396366 kJ/mol
# GULP energy per Si atom -12398.869818 kJ/mol
# Density = 1.868263 g / cm^3
# Si number density = 18.725252 Si / 1000 Ang^3
#
#
#
# Elastic Constant Matrix: (Units=GPa)
#
#
# Indices 1 2 3 4 5 6 
#
# 1 91.2046 18.1201 24.2469 0.0003 -10.7683 0.0001
# 2 18.1201 46.8164 20.0935 0.0009 -0.4692 0.0003
# 3 24.2469 20.0935 112.4398 0.0016 -8.1989 0.0007
# 4 0.0003 0.0009 0.0016 22.1565 0.0006 -0.9941
# 5 -10.7683 -0.4692 -8.1989 0.0006 38.8241 0.0002
# 6 0.0001 0.0003 0.0007 -0.9941 0.0002 19.8140
#
#
#
# Elastic Compliance Matrix: (Units=1/GPa)
#
#
# Indices 1 2 3 4 5 6 
#
# 1 0.012609 -0.004093 -0.001763 0.000000 0.003075 0.000000
# 2 -0.004093 0.024477 -0.003608 -0.000001 -0.001601 0.000000
# 3 -0.001763 -0.003608 0.010034 -0.000001 0.001586 0.000000
# 4 0.000000 -0.000001 -0.000001 0.045235 -0.000001 0.002270
# 5 0.003075 -0.001601 0.001586 -0.000001 0.026926 0.000000
# 6 0.000000 0.000000 0.000000 0.002270 0.000000 0.050583
#
#
# Mechanical properties :
#
#
# Convention : Reuss Voigt Hill
#
# Bulk Modulus (GPa) = 35.47160 41.70909 38.59034
# Shear Modulus (GPa) = 25.22814 28.69226 26.96020
#
# Velocity S-wave (km/s) = 3.67451 3.91868 3.79856
# Velocity P-wave (km/s) = 6.08170 6.54197 6.31602
#
# Compressibility (1/GPa) = 0.02819157
#
# Stress axis : x y z
#
# Youngs Moduli (GPa) = 79.30579 40.85511 99.65692
#
# Poissons Ratio (x) = 0.16721 0.17574
# Poissons Ratio (y) = 0.32458 0.35959
# Poissons Ratio (z) = 0.13986 0.14742
#
# Static dielectric constant tensor:
#      x y z
#    x 3.582310 0.000000 -0.179130 
#    y 0.000000 3.136760 0.000000 
#    z -0.179130 0.000000 3.805410 
# 
# 
# High freq. dielectric constant tensor:
#      x y z
#    x 1.729160 0.000000 -0.003490 
#    y 0.000000 1.678100 0.000000 
#    z -0.003490 0.000000 1.749330 
# 
# From -- ./inp_files/94128.got.cif
#   From: 2010.06.25/outbox.cif.g09.slc.cpg/sg12_48_cif.got.tgz:94128.got - 2010.06.28 00:19:55.
