data_PCOD8089229
_publ_section_title
;
Structure prediction by ZEFSAII (Michael W. Deem and Ramdas Pophale) SiO2 
 PCOD8089229
Probable space group: C 2/M
;
_chemical_formula_sum "Si O2"
_cell_formula_units_Z 56
_cell_length_a 10.055012
_cell_length_b 25.082679
_cell_length_c 15.963332
_cell_angle_alpha 90.000000
_cell_angle_beta 54.032404
_cell_angle_gamma 90.000000
_cell_volume 3258.487430
_symmetry_space_group_name_H-M "C 2/M"
_symmetry_group_IT_number 12
_symmetry_cell_setting 'monoclinic'
loop_
_space_group_symop_operation_xyz
x,y,z
-x,y,-z
-x,-y,-z
x,-y,z
1/2+x,1/2+y,z
1/2-x,1/2+y,-z
1/2-x,1/2-y,-z
1/2+x,1/2-y,z
loop_
_atom_site_type_symbol
_atom_site_label
_atom_site_fract_x
_atom_site_fract_y
_atom_site_fract_z
Si Si1 0.257907 0.333334 0.782335
Si Si2 0.380425 0.941527 0.915246
Si Si3 0.586739 0.824482 0.551523
Si Si4 0.553148 0.844336 0.220124
Si Si5 0.559020 0.301352 0.567427
Si Si6 0.264727 0.941294 0.134205
Si Si7 0.188017 0.758234 0.930177
O O1 0.422521 0.308139 0.687608
O O2 0.319433 0.392287 0.786832
O O3 0.193422 0.299559 0.884773
O O4 0.112962 0.330374 0.767888
O O5 0.367719 0.898639 0.845605
O O6 0.551739 0.940151 0.899342
O O7 0.349187 0.000000 0.886796
O O8 0.252075 0.930808 0.038568
O O9 0.500000 0.846178 0.500000
O O10 0.497302 0.851600 0.664154
O O11 0.586652 0.761252 0.557801
O O12 0.780573 0.837359 0.472471
O O13 0.692542 0.799179 0.161912
O O14 0.500000 0.322425 0.500000
O O15 0.187078 0.000000 0.183245
O O16 0.250000 0.750000 0.000000
O O17 0.000000 0.779473 0.000000
#
# Coordination Sequence:
#
# PCOD8089229 Si02
#       7
#     8   8   8   8   8   8   8
#     4  11  20  32  54  76 108 143 173 213 267 314
#     4   8  15  29  51  75 100 135 178 213 250 310
#     4  10  21  33  51  73 104 136 180 219 254 310
#     4  11  20  34  53  76 106 142 173 215 267 313
#     4  10  19  33  52  74  99 137 180 219 256 306
#     4   8  15  28  48  76 105 134 171 215 259 305
#     4  12  24  34  49  78 114 142 172 209 261 318
#
# _framework density 17.185887999999998
#
# number of rings (size 3 to 8) (size 9 to 14) (size 15 to 20)
#    0.000    2.000    4.286    1.714    2.000    1.143 
#    0.000    0.000    0.000    2.143    0.000    2.000 
#    0.000    0.000    0.000    0.000    0.000    0.000 
#
# Total GULP energy -346960.061258 kJ/mol
# GULP energy per Si atom -12391.430759 kJ/mol
# Density = 1.714677 g / cm^3
# Si number density = 17.185888 Si / 1000 Ang^3
#
#
#
# Elastic Constant Matrix: (Units=GPa)
#
#
# Indices 1 2 3 4 5 6 
#
# 1 85.5762 26.0020 43.8858 0.0000 4.7546 0.0000
# 2 26.0020 69.2726 23.8538 0.0000 8.0981 0.0000
# 3 43.8858 23.8538 88.7935 0.0000 8.2093 0.0000
# 4 0.0000 0.0000 0.0000 21.2969 0.0000 4.3297
# 5 4.7546 8.0981 8.2093 0.0000 33.9863 0.0000
# 6 0.0000 0.0000 0.0000 4.3297 0.0000 8.6057
#
#
#
# Elastic Compliance Matrix: (Units=1/GPa)
#
#
# Indices 1 2 3 4 5 6 
#
# 1 0.016485 -0.003757 -0.007168 0.000000 0.000320 0.000000
# 2 -0.003757 0.017032 -0.002447 0.000000 -0.002942 0.000000
# 3 -0.007168 -0.002447 0.015665 0.000000 -0.002198 0.000000
# 4 0.000000 0.000000 0.000000 0.052305 0.000000 -0.026316
# 5 0.000320 -0.002942 -0.002198 0.000000 0.030611 0.000000
# 6 0.000000 0.000000 0.000000 -0.026316 0.000000 0.129442
#
#
# Mechanical properties :
#
#
# Convention : Reuss Voigt Hill
#
# Bulk Modulus (GPa) = 44.56466 47.90283 46.23374
# Shear Modulus (GPa) = 16.90535 22.77116 19.83826
#
# Velocity S-wave (km/s) = 3.13976 3.64399 3.40124
# Velocity P-wave (km/s) = 6.25551 6.75565 6.51038
#
# Compressibility (1/GPa) = 0.02243931
#
# Stress axis : x y z
#
# Youngs Moduli (GPa) = 60.66043 58.71170 63.83489
#
# Poissons Ratio (x) = 0.22058 0.45757
# Poissons Ratio (y) = 0.22790 0.15619
# Poissons Ratio (z) = 0.43482 0.14366
#
# Static dielectric constant tensor:
#      x y z
#    x 3.127080 0.000000 0.059320 
#    y 0.000000 3.419230 0.000000 
#    z 0.059320 0.000000 3.281630 
# 
# 
# High freq. dielectric constant tensor:
#      x y z
#    x 1.644490 0.000000 0.005740 
#    y 0.000000 1.642460 0.000000 
#    z 0.005740 0.000000 1.664130 
# 
# From -- ./inp_files/199671.got.cif
#   From: 2010.06.25/outbox.cif.g09.slc.cpg/sg12_100_cif.got.tgz:199671.got - 2010.06.28 00:19:55.
