data_PCOD8089769
_publ_section_title
;
Structure prediction by ZEFSAII (Michael W. Deem and Ramdas Pophale) SiO2 
 PCOD8089769
Probable space group: C 2/M
;
_chemical_formula_sum "Si O2"
_cell_formula_units_Z 64
_cell_length_a 29.598673
_cell_length_b 8.998509
_cell_length_c 15.048896
_cell_angle_alpha 90.000000
_cell_angle_beta 120.418838
_cell_angle_gamma 90.000000
_cell_volume 3456.444739
_symmetry_space_group_name_H-M "C 2/M"
_symmetry_group_IT_number 12
_symmetry_cell_setting 'monoclinic'
loop_
_space_group_symop_operation_xyz
x,y,z
-x,y,-z
-x,-y,-z
x,-y,z
1/2+x,1/2+y,z
1/2-x,1/2+y,-z
1/2-x,1/2-y,-z
1/2+x,1/2-y,z
loop_
_atom_site_type_symbol
_atom_site_label
_atom_site_fract_x
_atom_site_fract_y
_atom_site_fract_z
Si Si1 0.660608 0.673834 0.162674
Si Si2 0.699414 0.175478 0.908049
Si Si3 0.888135 0.826220 0.696507
Si Si4 0.642874 0.177598 0.507840
Si Si5 0.108351 0.323942 0.947549
Si Si6 0.495795 0.827775 0.772421
Si Si7 0.221657 0.324189 0.734100
Si Si8 0.969291 0.671623 0.550559
O O1 0.658993 0.500000 0.139335
O O2 0.640504 0.709740 0.240433
O O3 0.719382 0.738331 0.211726
O O4 0.623542 0.756243 0.056663
O O5 0.647761 0.230181 0.908953
O O6 0.694574 0.223890 0.799918
O O7 0.706865 0.000000 0.923529
O O8 0.750000 0.250000 0.000000
O O9 0.852801 0.748137 0.585674
O O10 0.947097 0.764424 0.761626
O O11 0.890780 0.000000 0.679199
O O12 0.688932 0.237694 0.617543
O O13 0.588763 0.238066 0.496443
O O14 0.642934 0.000000 0.497396
O O15 0.109885 0.500000 0.955670
O O16 0.049612 0.268502 0.868412
O O17 0.502037 0.805532 0.673044
O O18 0.485459 0.000000 0.784829
O O19 0.222838 0.500000 0.727151
O O20 0.962196 0.500000 0.519382
O O21 0.000000 0.751503 0.500000
#
# Coordination Sequence:
#
# PCOD8089769 Si02
#       8
#     8   8   8   8   8   8   8   8
#     4  10  21  37  55  75 103 142 181 217 263 317
#     4  10  19  33  54  79 110 143 173 213 260 310
#     4  10  21  37  55  75 103 138 178 222 266 315
#     4   9  18  33  54  78 103 136 174 214 263 312
#     4  10  21  34  53  83 110 135 175 222 263 306
#     4   9  19  35  53  77 107 136 172 218 267 311
#     4   9  18  33  54  79 106 138 176 212 254 314
#     4   8  14  25  46  74  99 125 162 206 249 299
#
# _framework density 18.516135999999999
#
# number of rings (size 3 to 8) (size 9 to 14) (size 15 to 20)
#    0.000    2.625    1.250    1.125    1.750    2.500 
#    0.000    3.750    0.000    6.000    0.000    0.000 
#    0.000    0.000    0.000    0.000    0.000    0.000 
#
# Total GULP energy -396738.228778 kJ/mol
# GULP energy per Si atom -12398.069649 kJ/mol
# Density = 1.847399 g / cm^3
# Si number density = 18.516136 Si / 1000 Ang^3
#
#
#
# Elastic Constant Matrix: (Units=GPa)
#
#
# Indices 1 2 3 4 5 6 
#
# 1 64.9473 21.5081 46.2884 0.0000 -6.8262 0.0000
# 2 21.5081 28.8374 28.4637 0.0000 -3.2180 0.0000
# 3 46.2884 28.4637 140.2504 0.0000 12.9156 0.0000
# 4 0.0000 0.0000 0.0000 23.1987 0.0000 1.3708
# 5 -6.8262 -3.2180 12.9156 0.0000 32.6536 0.0000
# 6 0.0000 0.0000 0.0000 1.3708 0.0000 22.0626
#
#
#
# Elastic Compliance Matrix: (Units=1/GPa)
#
#
# Indices 1 2 3 4 5 6 
#
# 1 0.024295 -0.011117 -0.006361 0.000000 0.006499 0.000000
# 2 -0.011117 0.050589 -0.007102 0.000000 0.005471 0.000000
# 3 -0.006361 -0.007102 0.011268 0.000000 -0.006486 0.000000
# 4 0.000000 0.000000 0.000000 0.043265 0.000000 -0.002688
# 5 0.006499 0.005471 -0.006486 0.000000 0.035088 0.000000
# 6 0.000000 0.000000 0.000000 -0.002688 0.000000 0.045493
#
#
# Mechanical properties :
#
#
# Convention : Reuss Voigt Hill
#
# Bulk Modulus (GPa) = 27.03184 47.39506 37.21345
# Shear Modulus (GPa) = 18.41713 24.76796 21.59254
#
# Velocity S-wave (km/s) = 3.15723 3.66135 3.41859
# Velocity P-wave (km/s) = 5.28409 6.59743 5.97694
#
# Compressibility (1/GPa) = 0.03699341
#
# Stress axis : x y z
#
# Youngs Moduli (GPa) = 41.16076 19.76726 88.74656
#
# Poissons Ratio (x) = 0.21975 0.56449
# Poissons Ratio (y) = 0.45757 0.63026
# Poissons Ratio (z) = 0.26181 0.14038
#
# Static dielectric constant tensor:
#      x y z
#    x 3.630700 0.000000 0.015560 
#    y 0.000000 3.081020 0.000000 
#    z 0.015560 0.000000 3.576100 
# 
# 
# High freq. dielectric constant tensor:
#      x y z
#    x 1.724730 0.000000 -0.001610 
#    y 0.000000 1.681990 0.000000 
#    z -0.001610 0.000000 1.727810 
# 
# From -- ./inp_files/249200.got.cif
#   From: 2010.06.25/outbox.cif.g09.slc.cpg/sg12_125_cif.got.tgz:249200.got - 2010.06.28 00:19:55.
