data_PCOD8089670
_publ_section_title
;
Structure prediction by ZEFSAII (Michael W. Deem and Ramdas Pophale) SiO2 
 PCOD8089670
Probable space group: C 2/M
;
_chemical_formula_sum "Si O2"
_cell_formula_units_Z 64
_cell_length_a 25.864237
_cell_length_b 9.583117
_cell_length_c 19.714811
_cell_angle_alpha 90.000000
_cell_angle_beta 134.052967
_cell_angle_gamma 90.000000
_cell_volume 3511.923954
_symmetry_space_group_name_H-M "C 2/M"
_symmetry_group_IT_number 12
_symmetry_cell_setting 'monoclinic'
loop_
_space_group_symop_operation_xyz
x,y,z
-x,y,-z
-x,-y,-z
x,-y,z
1/2+x,1/2+y,z
1/2-x,1/2+y,-z
1/2-x,1/2-y,-z
1/2+x,1/2-y,z
loop_
_atom_site_type_symbol
_atom_site_label
_atom_site_fract_x
_atom_site_fract_y
_atom_site_fract_z
Si Si1 0.951778 0.833950 0.601478
Si Si2 0.929198 0.841898 0.079187
Si Si3 0.390787 0.333763 0.290873
Si Si4 0.160722 0.834238 0.611434
Si Si5 0.813757 0.840340 0.087455
Si Si6 0.419576 0.162302 0.945391
Si Si7 0.918303 0.835812 0.722334
Si Si8 0.677887 0.835754 0.270744
O O1 0.893564 0.775902 0.494887
O O2 0.929299 0.783202 0.655594
O O3 0.029820 0.773184 0.652266
O O4 0.954512 0.000000 0.602559
O O5 0.884682 0.823530 0.107100
O O6 0.010889 0.799319 0.169878
O O7 0.925349 0.000000 0.049164
O O8 0.895662 0.744258 0.990729
O O9 0.395083 0.500000 0.295887
O O10 0.362719 0.273613 0.336808
O O11 0.334781 0.286496 0.181623
O O12 0.240815 0.785038 0.666494
O O13 0.157517 0.000000 0.611330
O O14 0.787611 0.000000 0.065556
O O15 0.750000 0.750000 0.000000
O O16 0.366360 0.203842 0.836694
O O17 0.414901 0.000000 0.958470
O O18 0.500000 0.208195 0.000000
O O19 0.852236 0.749325 0.692860
O O20 0.900828 0.000000 0.708955
O O21 0.672358 0.000000 0.281527
#
# Coordination Sequence:
#
# PCOD8089670 Si02
#       8
#     8   8   8   8   8   8   8   8
#     4   9  16  30  52  77 101 129 171 217 259 306
#     4  10  20  34  51  74 103 135 174 214 253 302
#     4   9  16  30  52  76 103 134 170 213 257 303
#     4   9  18  30  49  76 104 134 168 213 264 305
#     4  10  21  35  52  78 109 138 169 210 258 309
#     4  10  20  33  50  72 100 136 173 208 251 305
#     4  10  19  33  54  77 103 136 172 212 255 301
#     4  10  21  35  49  75 109 136 171 214 255 306
#
# _framework density 18.223628999999999
#
# number of rings (size 3 to 8) (size 9 to 14) (size 15 to 20)
#    0.000    2.375    2.500    0.375    1.750    3.250 
#    0.000    0.000    0.000    0.000    0.000    0.000 
#    0.000    3.000    0.000    0.000    0.000    0.000 
#
# Total GULP energy -396835.766447 kJ/mol
# GULP energy per Si atom -12401.117701 kJ/mol
# Density = 1.818215 g / cm^3
# Si number density = 18.223629 Si / 1000 Ang^3
#
#
#
# Elastic Constant Matrix: (Units=GPa)
#
#
# Indices 1 2 3 4 5 6 
#
# 1 141.2192 38.4802 77.7152 0.0000 -4.5556 0.0000
# 2 38.4802 32.3405 35.5319 0.0000 -3.7148 0.0000
# 3 77.7152 35.5319 139.9112 0.0000 1.6850 0.0000
# 4 0.0000 0.0000 0.0000 15.4053 0.0000 0.2454
# 5 -4.5556 -3.7148 1.6850 0.0000 35.4300 0.0000
# 6 0.0000 0.0000 0.0000 0.2454 0.0000 24.6172
#
#
#
# Elastic Compliance Matrix: (Units=1/GPa)
#
#
# Indices 1 2 3 4 5 6 
#
# 1 0.012070 -0.009569 -0.004283 0.000000 0.000752 0.000000
# 2 -0.009569 0.051384 -0.007789 0.000000 0.004528 0.000000
# 3 -0.004283 -0.007789 0.011528 0.000000 -0.001916 0.000000
# 4 0.000000 0.000000 0.000000 0.064923 0.000000 -0.000647
# 5 0.000752 0.004528 -0.001916 0.000000 0.028887 0.000000
# 6 0.000000 0.000000 0.000000 -0.000647 0.000000 0.040628
#
#
# Mechanical properties :
#
#
# Convention : Reuss Voigt Hill
#
# Bulk Modulus (GPa) = 31.54620 68.54729 50.04674
# Shear Modulus (GPa) = 18.99190 25.87339 22.43264
#
# Velocity S-wave (km/s) = 3.23175 3.77207 3.51232
# Velocity P-wave (km/s) = 5.59230 7.52779 6.63104
#
# Compressibility (1/GPa) = 0.03169954
#
# Stress axis : x y z
#
# Youngs Moduli (GPa) = 82.84923 19.46121 86.74717
#
# Poissons Ratio (x) = 0.18623 0.37157
# Poissons Ratio (y) = 0.79279 0.67566
# Poissons Ratio (z) = 0.35487 0.15158
#
# Static dielectric constant tensor:
#      x y z
#    x 3.482290 0.000000 -0.013760 
#    y 0.000000 2.914970 0.000000 
#    z -0.013760 0.000000 3.523280 
# 
# 
# High freq. dielectric constant tensor:
#      x y z
#    x 1.716890 0.000000 -0.003850 
#    y 0.000000 1.653900 0.000000 
#    z -0.003850 0.000000 1.715880 
# 
# From -- ./inp_files/324299.got.cif
#   From: 2010.06.25/outbox.cif.g09.slc.cpg/sg12_163_cif.got.tgz:324299.got - 2010.06.28 00:19:55.
