data_PCOD8089180
_publ_section_title
;
Structure prediction by ZEFSAII (Michael W. Deem and Ramdas Pophale) SiO2 
 PCOD8089180
Probable space group: C 2/M
;
_chemical_formula_sum "Si O2"
_cell_formula_units_Z 64
_cell_length_a 24.777642
_cell_length_b 8.838043
_cell_length_c 23.487216
_cell_angle_alpha 90.000000
_cell_angle_beta 139.121959
_cell_angle_gamma 90.000000
_cell_volume 3366.082951
_symmetry_space_group_name_H-M "C 2/M"
_symmetry_group_IT_number 12
_symmetry_cell_setting 'monoclinic'
loop_
_space_group_symop_operation_xyz
x,y,z
-x,y,-z
-x,-y,-z
x,-y,z
1/2+x,1/2+y,z
1/2-x,1/2+y,-z
1/2-x,1/2-y,-z
1/2+x,1/2-y,z
loop_
_atom_site_type_symbol
_atom_site_label
_atom_site_fract_x
_atom_site_fract_y
_atom_site_fract_z
Si Si1 0.864586 0.825811 0.534025
Si Si2 0.550627 0.820960 0.210661
Si Si3 0.013420 0.178943 0.733044
Si Si4 0.773383 0.177642 0.638862
Si Si5 0.470486 0.166574 0.536012
Si Si6 0.944179 0.821475 0.902816
Si Si7 0.742914 0.322355 0.246496
Si Si8 0.626483 0.833214 0.737730
O O1 0.927035 0.770953 0.633352
O O2 0.780839 0.728063 0.459451
O O3 0.910755 0.795942 0.511424
O O4 0.840680 0.000000 0.521916
O O5 0.485357 0.758285 0.204639
O O6 0.640260 0.760675 0.298675
O O7 0.522107 0.762069 0.126216
O O8 0.550070 0.000000 0.210907
O O9 0.096965 0.229058 0.766837
O O10 0.015731 0.000000 0.740996
O O11 0.733870 0.221604 0.669366
O O12 0.790734 0.000000 0.648670
O O13 0.500000 0.230191 0.500000
O O14 0.548284 0.141894 0.636826
O O15 0.425809 0.000000 0.494769
O O16 0.850462 0.770261 0.840733
O O17 0.948742 0.000000 0.895302
O O18 0.000000 0.770281 0.000000
O O19 0.752966 0.500000 0.247813
O O20 0.802926 0.252084 0.245498
O O21 0.655133 0.000000 0.782984
#
# Coordination Sequence:
#
# PCOD8089180 Si02
#       8
#     8   8   8   8   8   8   8   8
#     4  10  20  31  44  66  96 131 174 222 264 301
#     4  11  22  36  55  78 103 132 169 213 258 303
#     4  10  21  36  50  68  99 139 180 216 255 304
#     4  10  19  33  52  73 101 137 175 216 262 311
#     4   9  16  26  41  61  88 128 174 215 258 306
#     4   9  18  35  60  87 112 137 163 195 245 310
#     4   8  15  29  51  78 104 132 167 206 251 302
#     4   9  16  28  47  70  97 130 170 212 250 294
#
# _framework density 19.013197999999999
#
# number of rings (size 3 to 8) (size 9 to 14) (size 15 to 20)
#    0.000    2.500    0.000    3.750    0.000    4.500 
#    0.000    5.625    0.000    0.750    0.000    0.000 
#    0.000    0.000    0.000    0.000    0.000    0.000 
#
# Total GULP energy -396515.207609 kJ/mol
# GULP energy per Si atom -12391.100238 kJ/mol
# Density = 1.896992 g / cm^3
# Si number density = 19.013198 Si / 1000 Ang^3
#
#
#
# Elastic Constant Matrix: (Units=GPa)
#
#
# Indices 1 2 3 4 5 6 
#
# 1 108.7807 37.8524 24.6076 0.0000 -23.4936 0.0000
# 2 37.8524 71.7855 25.8857 0.0000 -11.5609 -0.0002
# 3 24.6076 25.8857 63.7015 0.0000 -8.9799 0.0000
# 4 0.0000 0.0000 0.0000 20.7170 0.0000 -3.4285
# 5 -23.4936 -11.5609 -8.9799 0.0000 18.7805 0.0000
# 6 0.0000 -0.0002 0.0000 -3.4285 0.0000 29.9485
#
#
#
# Elastic Compliance Matrix: (Units=1/GPa)
#
#
# Indices 1 2 3 4 5 6 
#
# 1 0.014235 -0.004640 -0.001614 0.000000 0.014179 0.000000
# 2 -0.004640 0.018846 -0.005413 0.000000 0.003208 0.000000
# 3 -0.001614 -0.005413 0.019051 0.000000 0.003757 0.000000
# 4 0.000000 0.000000 0.000000 0.049202 0.000000 0.005633
# 5 0.014179 0.003208 0.003757 0.000000 0.074755 0.000000
# 6 0.000000 0.000000 0.000000 0.005633 0.000000 0.034035
#
#
# Mechanical properties :
#
#
# Convention : Reuss Voigt Hill
#
# Bulk Modulus (GPa) = 34.72752 46.77326 40.75039
# Shear Modulus (GPa) = 20.57106 24.28399 22.42753
#
# Velocity S-wave (km/s) = 3.29285 3.57770 3.43822
# Velocity P-wave (km/s) = 5.72379 6.45913 6.10254
#
# Compressibility (1/GPa) = 0.02879561
#
# Stress axis : x y z
#
# Youngs Moduli (GPa) = 70.24941 53.06165 52.48963
#
# Poissons Ratio (x) = 0.24623 0.08474
# Poissons Ratio (y) = 0.32599 0.28415
# Poissons Ratio (z) = 0.11341 0.28725
#
# Static dielectric constant tensor:
#      x y z
#    x 3.499690 0.000000 -0.056940 
#    y 0.000000 3.316110 0.000000 
#    z -0.056940 0.000000 3.305350 
# 
# 
# High freq. dielectric constant tensor:
#      x y z
#    x 1.745800 0.000000 -0.008680 
#    y 0.000000 1.721060 0.000000 
#    z -0.008680 0.000000 1.703060 
# 
# From -- ./inp_files/348583.got.cif
#   From: 2010.06.25/outbox.cif.g09.slc.cpg/sg12_175_cif.got.tgz:348583.got - 2010.06.28 00:19:55.
