data_PCOD8089371
_publ_section_title
;
Structure prediction by ZEFSAII (Michael W. Deem and Ramdas Pophale) SiO2 
 PCOD8089371
Probable space group: C 2/M
;
_chemical_formula_sum "Si O2"
_cell_formula_units_Z 64
_cell_length_a 14.326266
_cell_length_b 9.350526
_cell_length_c 26.242646
_cell_angle_alpha 90.000000
_cell_angle_beta 77.199519
_cell_angle_gamma 90.000000
_cell_volume 3428.048707
_symmetry_space_group_name_H-M "C 2/M"
_symmetry_group_IT_number 12
_symmetry_cell_setting 'monoclinic'
loop_
_space_group_symop_operation_xyz
x,y,z
-x,y,-z
-x,-y,-z
x,-y,z
1/2+x,1/2+y,z
1/2-x,1/2+y,-z
1/2-x,1/2-y,-z
1/2+x,1/2-y,z
loop_
_atom_site_type_symbol
_atom_site_label
_atom_site_fract_x
_atom_site_fract_y
_atom_site_fract_z
Si Si1 0.838065 0.334630 0.789556
Si Si2 0.825701 0.335012 0.140779
Si Si3 0.441145 0.830506 0.675514
Si Si4 0.609681 0.662078 0.619124
Si Si5 0.954412 0.333733 0.875738
Si Si6 0.107502 0.161239 0.505312
Si Si7 0.289065 0.332384 0.946885
Si Si8 0.676829 0.161538 0.406215
O O1 0.810249 0.500000 0.789577
O O2 0.739832 0.251591 0.811951
O O3 0.881190 0.277694 0.731365
O O4 0.918776 0.307782 0.822546
O O5 0.817132 0.500000 0.157093
O O6 0.788396 0.307659 0.088221
O O7 0.935536 0.283844 0.132340
O O8 0.545045 0.757921 0.663997
O O9 0.390137 0.775619 0.630070
O O10 0.453293 0.000000 0.675541
O O11 0.569528 0.500000 0.622919
O O12 0.611715 0.725857 0.561522
O O13 0.716089 0.667141 0.628944
O O14 0.942788 0.500000 0.893021
O O15 0.891578 0.235626 0.920645
O O16 0.172586 0.251389 0.459115
O O17 0.000000 0.167963 0.500000
O O18 0.148018 0.000000 0.500828
O O19 0.303070 0.500000 0.956987
O O20 0.250000 0.250000 0.000000
O O21 0.646144 0.000000 0.422783
#
# Coordination Sequence:
#
# PCOD8089371 Si02
#       8
#     8   8   8   8   8   8   8   8
#     4   9  19  35  54  75 102 133 168 212 257 300
#     4   9  19  35  55  78 103 135 176 215 252 297
#     4  10  21  36  52  75 104 132 164 206 254 304
#     4  10  21  36  52  73 100 131 165 204 250 302
#     4   9  18  35  56  76 102 138 176 213 254 299
#     4  10  19  33  53  74  98 127 164 207 248 295
#     4  10  20  34  52  78 111 142 174 212 253 298
#     4  10  21  35  52  74 101 131 164 201 249 306
#
# _framework density 18.669513999999999
#
# number of rings (size 3 to 8) (size 9 to 14) (size 15 to 20)
#    0.000    2.375    1.250    0.750    0.000    4.250 
#    0.000    2.500    0.000    0.000    0.000    0.000 
#    0.000    0.000    0.000    0.000    0.000    0.000 
#
# Total GULP energy -396849.915911 kJ/mol
# GULP energy per Si atom -12401.559872 kJ/mol
# Density = 1.862702 g / cm^3
# Si number density = 18.669514 Si / 1000 Ang^3
#
#
#
# Elastic Constant Matrix: (Units=GPa)
#
#
# Indices 1 2 3 4 5 6 
#
# 1 105.6438 40.8191 38.8159 0.0000 -23.3310 0.0000
# 2 40.8191 71.0383 58.6568 0.0000 -18.0819 0.0000
# 3 38.8159 58.6568 119.9662 0.0000 -26.6535 0.0000
# 4 0.0000 0.0000 0.0000 32.7680 0.0000 -9.1195
# 5 -23.3310 -18.0819 -26.6535 0.0000 23.4466 0.0000
# 6 0.0000 0.0000 0.0000 -9.1195 0.0000 28.9852
#
#
#
# Elastic Compliance Matrix: (Units=1/GPa)
#
#
# Indices 1 2 3 4 5 6 
#
# 1 0.013667 -0.005882 0.000625 0.000000 0.009775 0.000000
# 2 -0.005882 0.026979 -0.010658 0.000000 0.002838 0.000000
# 3 0.000625 -0.010658 0.015595 0.000000 0.010132 0.000000
# 4 0.000000 0.000000 0.000000 0.033446 0.000000 0.010523
# 5 0.009775 0.002838 0.010132 0.000000 0.066083 0.000000
# 6 0.000000 0.000000 0.000000 0.010523 0.000000 0.037811
#
#
# Mechanical properties :
#
#
# Convention : Reuss Voigt Hill
#
# Bulk Modulus (GPa) = 40.96032 63.69243 52.32637
# Shear Modulus (GPa) = 21.40890 27.59706 24.50298
#
# Velocity S-wave (km/s) = 3.39001 3.84889 3.62672
# Velocity P-wave (km/s) = 6.10821 7.34451 6.75470
#
# Compressibility (1/GPa) = 0.02441387
#
# Stress axis : x y z
#
# Youngs Moduli (GPa) = 73.16716 37.06581 64.12183
#
# Poissons Ratio (x) = 0.21801 -0.04010
# Poissons Ratio (y) = 0.43034 0.68339
# Poissons Ratio (z) = -0.04576 0.39504
#
# Static dielectric constant tensor:
#      x y z
#    x 3.471400 0.000000 0.013500 
#    y 0.000000 3.421390 0.000000 
#    z 0.013500 0.000000 3.383000 
# 
# 
# High freq. dielectric constant tensor:
#      x y z
#    x 1.729500 0.000000 -0.002850 
#    y 0.000000 1.717870 0.000000 
#    z -0.002850 0.000000 1.718640 
# 
# From -- ./inp_files/359707.got.cif
#   From: 2010.06.25/outbox.cif.g09.slc.cpg/sg12_180_cif.got.tgz:359707.got - 2010.06.28 00:19:55.
