data_PCOD8089420
_publ_section_title
;
Structure prediction by ZEFSAII (Michael W. Deem and Ramdas Pophale) SiO2 
 PCOD8089420
Probable space group: C 2/M
;
_chemical_formula_sum "Si O2"
_cell_formula_units_Z 48
_cell_length_a 30.627420
_cell_length_b 8.701485
_cell_length_c 23.829381
_cell_angle_alpha 90.000000
_cell_angle_beta 25.506629
_cell_angle_gamma 90.000000
_cell_volume 2734.678213
_symmetry_space_group_name_H-M "C 2/M"
_symmetry_group_IT_number 12
_symmetry_cell_setting 'monoclinic'
loop_
_space_group_symop_operation_xyz
x,y,z
-x,y,-z
-x,-y,-z
x,-y,z
1/2+x,1/2+y,z
1/2-x,1/2+y,-z
1/2-x,1/2-y,-z
1/2+x,1/2-y,z
loop_
_atom_site_type_symbol
_atom_site_label
_atom_site_fract_x
_atom_site_fract_y
_atom_site_fract_z
Si Si1 0.358097 0.317825 0.393905
Si Si2 0.201923 0.821729 0.844227
Si Si3 0.007291 0.182645 0.124418
Si Si4 0.358190 0.678047 0.207305
Si Si5 0.861124 0.682284 0.508083
Si Si6 0.093145 0.820264 0.430627
O O1 0.346995 0.500000 0.405939
O O2 0.250000 0.250000 0.500000
O O3 0.448814 0.261231 0.247681
O O4 0.397732 0.259703 0.408099
O O5 0.131155 0.796001 0.871355
O O6 0.304207 0.724223 0.721774
O O7 0.234204 0.000000 0.811722
O O8 0.126744 0.766637 0.982154
O O9 0.948303 0.253806 0.138779
O O10 0.007744 0.000000 0.120577
O O11 0.355432 0.500000 0.225484
O O12 0.251881 0.746685 0.351607
O O13 0.869307 0.500000 0.493167
O O14 0.923638 0.735046 0.490412
O O15 0.000000 0.770002 0.500000
O O16 0.094385 0.000000 0.441037
#
# Coordination Sequence:
#
# PCOD8089420 Si02
#       6
#     8   8   8   8   8   8
#     4  11  20  31  48  72 108 147 181 210 242 293
#     4   9  17  29  50  75  99 130 170 211 247 296
#     4   9  16  27  45  71 103 140 173 201 243 295
#     4   8  13  24  44  69  97 129 165 201 240 290
#     4  10  19  33  53  76 101 133 176 217 251 294
#     4  10  21  37  56  77 102 129 158 206 271 321
#
# _framework density 17.552339
#
# number of rings (size 3 to 8) (size 9 to 14) (size 15 to 20)
#    0.000    2.500    1.667    3.000    0.000    3.333 
#    0.000    1.667    0.000    3.000    0.000    0.000 
#    0.000    0.000    0.000    0.000    0.000    0.000 
#
# Total GULP energy -297342.858309 kJ/mol
# GULP energy per Si atom -12389.285763 kJ/mol
# Density = 1.751239 g / cm^3
# Si number density = 17.552339 Si / 1000 Ang^3
#
#
#
# Elastic Constant Matrix: (Units=GPa)
#
#
# Indices 1 2 3 4 5 6 
#
# 1 97.6447 28.1288 58.2136 -0.0091 0.1395 0.0045
# 2 28.1288 46.8032 26.8020 -0.0249 3.1153 0.0117
# 3 58.2136 26.8020 112.5697 -0.0136 11.9102 0.0101
# 4 -0.0091 -0.0249 -0.0136 21.1816 0.0069 1.9342
# 5 0.1395 3.1153 11.9102 0.0069 18.3042 -0.0027
# 6 0.0045 0.0117 0.0101 1.9342 -0.0027 23.5849
#
#
#
# Elastic Compliance Matrix: (Units=1/GPa)
#
#
# Indices 1 2 3 4 5 6 
#
# 1 0.016582 -0.005894 -0.007801 -0.000007 0.005953 0.000004
# 2 -0.005894 0.026837 -0.003075 0.000029 -0.002522 -0.000014
# 3 -0.007801 -0.003075 0.014593 0.000006 -0.008913 -0.000005
# 4 -0.000007 0.000029 0.000006 0.047567 -0.000027 -0.003901
# 5 0.005953 -0.002522 -0.008913 -0.000027 0.060815 0.000013
# 6 0.000004 -0.000014 -0.000005 -0.003901 0.000013 0.042720
#
#
# Mechanical properties :
#
#
# Convention : Reuss Voigt Hill
#
# Bulk Modulus (GPa) = 40.86516 53.70069 47.28292
# Shear Modulus (GPa) = 19.93525 22.20570 21.07048
#
# Velocity S-wave (km/s) = 3.37376 3.56070 3.46849
# Velocity P-wave (km/s) = 6.20554 6.89680 6.56028
#
# Compressibility (1/GPa) = 0.02447072
#
# Stress axis : x y z
#
# Youngs Moduli (GPa) = 60.30724 37.26165 68.52694
#
# Poissons Ratio (x) = 0.21964 0.53461
# Poissons Ratio (y) = 0.35548 0.21070
# Poissons Ratio (z) = 0.47048 0.11457
#
# Static dielectric constant tensor:
#      x y z
#    x 3.217060 -0.000010 0.163580 
#    y -0.000010 2.992080 0.000030 
#    z 0.163580 0.000030 3.541000 
# 
# 
# High freq. dielectric constant tensor:
#      x y z
#    x 1.652960 0.000000 0.010960 
#    y 0.000000 1.653090 0.000000 
#    z 0.010960 0.000000 1.682090 
# 
# From -- ./inp_files/329009.got.cif
#   From: 2010.06.25/outbox.cif.g09.slc.cpg/sg12_165_cif.got.tgz:329009.got - 2010.06.28 00:19:55.
