data_PCOD8089437
_publ_section_title
;
Structure prediction by ZEFSAII (Michael W. Deem and Ramdas Pophale) SiO2 
 PCOD8089437
Probable space group: C 2/M
;
_chemical_formula_sum "Si O2"
_cell_formula_units_Z 64
_cell_length_a 19.313465
_cell_length_b 8.962753
_cell_length_c 20.670511
_cell_angle_alpha 90.000000
_cell_angle_beta 96.236137
_cell_angle_gamma 90.000000
_cell_volume 3556.930112
_symmetry_space_group_name_H-M "C 2/M"
_symmetry_group_IT_number 12
_symmetry_cell_setting 'monoclinic'
loop_
_space_group_symop_operation_xyz
x,y,z
-x,y,-z
-x,-y,-z
x,-y,z
1/2+x,1/2+y,z
1/2-x,1/2+y,-z
1/2-x,1/2-y,-z
1/2+x,1/2-y,z
loop_
_atom_site_type_symbol
_atom_site_label
_atom_site_fract_x
_atom_site_fract_y
_atom_site_fract_z
Si Si1 0.280579 0.324130 0.706161
Si Si2 0.968610 0.669101 0.228208
Si Si3 0.492710 0.326550 0.424144
Si Si4 0.682882 0.175187 0.023998
Si Si5 0.773863 0.176269 0.852757
Si Si6 0.585841 0.178081 0.330757
Si Si7 0.374280 0.824574 0.111644
Si Si8 0.374372 0.169625 0.340653
O O1 0.292056 0.500000 0.701265
O O2 0.289198 0.272808 0.781380
O O3 0.336497 0.238250 0.668481
O O4 0.205504 0.277383 0.670858
O O5 0.989326 0.500000 0.215762
O O6 0.940340 0.744878 0.158260
O O7 0.904995 0.680174 0.271869
O O8 0.037833 0.742945 0.266532
O O9 0.500000 0.291631 0.500000
O O10 0.501832 0.500000 0.409293
O O11 0.553416 0.235806 0.394292
O O12 0.416051 0.275023 0.393939
O O13 0.668916 0.248040 0.093050
O O14 0.695092 0.000000 0.033127
O O15 0.750000 0.250000 0.000000
O O16 0.620609 0.206734 0.965301
O O17 0.698043 0.237779 0.866255
O O18 0.779346 0.000000 0.861384
O O19 0.584898 0.000000 0.332539
O O20 0.374281 0.000000 0.126068
O O21 0.379875 0.000000 0.366541
#
# Coordination Sequence:
#
# PCOD8089437 Si02
#       8
#     8   8   8   8   8   8   8   8
#     4  10  19  33  53  76 106 140 171 208 259 310
#     4   8  13  26  47  70  94 123 166 211 251 296
#     4  10  21  38  59  81 107 137 166 201 247 299
#     4   9  16  24  38  62  93 126 162 210 259 307
#     4   9  16  27  45  66  93 131 167 204 254 308
#     4  10  21  34  53  79 106 135 170 212 251 298
#     4   8  12  22  42  65  89 120 163 208 251 299
#     4   9  17  31  55  81 102 132 172 211 249 296
#
# _framework density 17.993044000000001
#
# number of rings (size 3 to 8) (size 9 to 14) (size 15 to 20)
#    0.000    2.875    1.250    2.625    0.000    2.000 
#    0.000    0.625    0.000    3.000    0.000    5.250 
#    0.000    0.000    0.000    0.000    0.000    0.000 
#
# Total GULP energy -396495.898855 kJ/mol
# GULP energy per Si atom -12390.496839 kJ/mol
# Density = 1.795209 g / cm^3
# Si number density = 17.993044 Si / 1000 Ang^3
#
#
#
# Elastic Constant Matrix: (Units=GPa)
#
#
# Indices 1 2 3 4 5 6 
#
# 1 94.4005 30.5352 43.0516 0.0000 1.7872 0.0000
# 2 30.5352 52.3828 43.0831 0.0000 3.0539 0.0000
# 3 43.0516 43.0831 111.6641 0.0000 16.1222 0.0000
# 4 0.0000 0.0000 0.0000 27.4829 0.0000 1.2315
# 5 1.7872 3.0539 16.1222 0.0000 20.6919 0.0000
# 6 0.0000 0.0000 0.0000 1.2315 0.0000 22.5002
#
#
#
# Elastic Compliance Matrix: (Units=1/GPa)
#
#
# Indices 1 2 3 4 5 6 
#
# 1 0.013925 -0.005204 -0.003716 0.000000 0.002461 0.000000
# 2 -0.005204 0.030343 -0.010275 0.000000 0.003977 0.000000
# 3 -0.003716 -0.010275 0.015873 0.000000 -0.010530 0.000000
# 4 0.000000 0.000000 0.000000 0.036476 0.000000 -0.001996
# 5 0.002461 0.003977 -0.010530 0.000000 0.055733 0.000000
# 6 0.000000 0.000000 0.000000 -0.001996 0.000000 0.044553
#
#
# Mechanical properties :
#
#
# Convention : Reuss Voigt Hill
#
# Bulk Modulus (GPa) = 45.97665 54.64304 50.30985
# Shear Modulus (GPa) = 20.61498 23.58683 22.10090
#
# Velocity S-wave (km/s) = 3.38852 3.62454 3.50852
# Velocity P-wave (km/s) = 6.39667 6.92469 6.66591
#
# Compressibility (1/GPa) = 0.02175017
#
# Stress axis : x y z
#
# Youngs Moduli (GPa) = 71.81523 32.95685 63.00128
#
# Poissons Ratio (x) = 0.17152 0.23411
# Poissons Ratio (y) = 0.37374 0.64732
# Poissons Ratio (z) = 0.26686 0.33862
#
# Static dielectric constant tensor:
#      x y z
#    x 3.239270 0.000000 0.320980 
#    y 0.000000 3.125880 0.000000 
#    z 0.320980 0.000000 3.547120 
# 
# 
# High freq. dielectric constant tensor:
#      x y z
#    x 1.670160 0.000000 0.023320 
#    y 0.000000 1.672580 0.000000 
#    z 0.023320 0.000000 1.697400 
# 
# From -- ./inp_files/314129.got.cif
#   From: 2010.06.25/outbox.cif.g09.slc.cpg/sg12_158_cif.got.tgz:314129.got - 2010.06.28 00:19:55.
