data_PCOD8089606
_publ_section_title
;
Structure prediction by ZEFSAII (Michael W. Deem and Ramdas Pophale) SiO2 
 PCOD8089606
Probable space group: C 2/M
;
_chemical_formula_sum "Si O2"
_cell_formula_units_Z 56
_cell_length_a 18.770665
_cell_length_b 8.792524
_cell_length_c 20.636587
_cell_angle_alpha 90.000000
_cell_angle_beta 61.484151
_cell_angle_gamma 90.000000
_cell_volume 2992.708041
_symmetry_space_group_name_H-M "C 2/M"
_symmetry_group_IT_number 12
_symmetry_cell_setting 'monoclinic'
loop_
_space_group_symop_operation_xyz
x,y,z
-x,y,-z
-x,-y,-z
x,-y,z
1/2+x,1/2+y,z
1/2-x,1/2+y,-z
1/2-x,1/2-y,-z
1/2+x,1/2-y,z
loop_
_atom_site_type_symbol
_atom_site_label
_atom_site_fract_x
_atom_site_fract_y
_atom_site_fract_z
Si Si1 0.404841 0.819973 0.341369
Si Si2 0.667163 0.321651 0.512415
Si Si3 0.544865 0.180161 0.079253
Si Si4 0.619529 0.179872 0.913827
Si Si5 0.283895 0.681458 0.781244
Si Si6 0.262287 0.678268 0.647635
Si Si7 0.060166 0.179651 0.208291
O O1 0.405689 0.755407 0.415168
O O2 0.324195 0.757784 0.340036
O O3 0.481159 0.761109 0.269328
O O4 0.407121 0.000000 0.343748
O O5 0.666496 0.500000 0.526530
O O6 0.750000 0.250000 0.500000
O O7 0.664965 0.288262 0.435693
O O8 0.453203 0.231825 0.101894
O O9 0.575244 0.272407 0.127964
O O10 0.549364 0.000000 0.090458
O O11 0.603161 0.230809 0.994792
O O12 0.704342 0.248440 0.851807
O O13 0.621942 0.000000 0.911181
O O14 0.281169 0.500000 0.782446
O O15 0.285625 0.748207 0.707200
O O16 0.363418 0.739233 0.783616
O O17 0.250340 0.500000 0.661278
O O18 0.049580 0.000000 0.218447
#
# Coordination Sequence:
#
# PCOD8089606 Si02
#       7
#     8   8   8   8   8   8   8
#     4  10  19  33  54  74  95 128 169 211 249 289
#     4   9  16  28  49  78 105 127 160 206 253 296
#     4   9  17  32  55  77  96 123 164 208 244 286
#     4   8  15  30  54  78  95 123 168 207 237 281
#     4   9  17  30  47  70 100 130 164 201 237 288
#     4   8  15  29  52  76  94 122 164 204 239 281
#     4  11  22  32  46  71 102 133 161 198 250 299
#
# _framework density 18.712149
#
# number of rings (size 3 to 8) (size 9 to 14) (size 15 to 20)
#    0.000    2.857    0.000    3.857    0.000    2.857 
#    0.000    2.143    0.000   20.571    0.000    0.000 
#    0.000    0.000    0.000    0.000    0.000    0.000 
#
# Total GULP energy -347015.645320 kJ/mol
# GULP energy per Si atom -12393.415904 kJ/mol
# Density = 1.866956 g / cm^3
# Si number density = 18.712149 Si / 1000 Ang^3
#
#
#
# Elastic Constant Matrix: (Units=GPa)
#
#
# Indices 1 2 3 4 5 6 
#
# 1 94.2588 21.4527 64.5034 -0.0001 22.6668 0.0000
# 2 21.4527 47.9995 30.0340 -0.0004 6.1618 -0.0002
# 3 64.5034 30.0340 149.3389 0.0000 26.3304 0.0000
# 4 -0.0001 -0.0004 0.0000 29.8089 0.0000 1.5823
# 5 22.6668 6.1618 26.3304 0.0000 15.1816 -0.0002
# 6 0.0000 -0.0002 0.0000 1.5823 -0.0002 16.1628
#
#
#
# Elastic Compliance Matrix: (Units=1/GPa)
#
#
# Indices 1 2 3 4 5 6 
#
# 1 0.018892 -0.003406 -0.003955 0.000000 -0.019965 0.000000
# 2 -0.003406 0.024487 -0.003742 0.000000 0.001637 0.000000
# 3 -0.003955 -0.003742 0.011305 0.000000 -0.012184 0.000000
# 4 0.000000 0.000000 0.000000 0.033722 0.000000 -0.003301
# 5 -0.019965 0.001637 -0.012184 0.000000 0.116144 0.000001
# 6 0.000000 0.000000 0.000000 -0.003301 0.000001 0.062194
#
#
# Mechanical properties :
#
#
# Convention : Reuss Voigt Hill
#
# Bulk Modulus (GPa) = 30.78983 58.17527 44.48255
# Shear Modulus (GPa) = 16.67916 23.93780 20.30848
#
# Velocity S-wave (km/s) = 2.98880 3.58056 3.29798
# Velocity P-wave (km/s) = 5.32923 6.94629 6.19079
#
# Compressibility (1/GPa) = 0.03247825
#
# Stress axis : x y z
#
# Youngs Moduli (GPa) = 52.93365 40.83766 88.45576
#
# Poissons Ratio (x) = 0.13909 0.34982
# Poissons Ratio (y) = 0.18028 0.33102
# Poissons Ratio (z) = 0.20934 0.15282
#
# Static dielectric constant tensor:
#      x y z
#    x 3.431070 0.000000 0.051720 
#    y 0.000000 3.122270 0.000000 
#    z 0.051720 0.000000 4.075890 
# 
# 
# High freq. dielectric constant tensor:
#      x y z
#    x 1.700460 0.000000 0.003570 
#    y 0.000000 1.688700 0.000000 
#    z 0.003570 0.000000 1.751300 
# 
# From -- ./inp_files/319033.got.cif
#   From: 2010.06.25/outbox.cif.g09.slc.cpg/sg12_160_cif.got.tgz:319033.got - 2010.06.28 00:19:55.
