data_PCOD8089435
_publ_section_title
;
Structure prediction by ZEFSAII (Michael W. Deem and Ramdas Pophale) SiO2 
 PCOD8089435
Probable space group: C 2/M
;
_chemical_formula_sum "Si O2"
_cell_formula_units_Z 64
_cell_length_a 16.235547
_cell_length_b 9.256981
_cell_length_c 23.650026
_cell_angle_alpha 90.000000
_cell_angle_beta 110.606452
_cell_angle_gamma 90.000000
_cell_volume 3327.001575
_symmetry_space_group_name_H-M "C 2/M"
_symmetry_group_IT_number 12
_symmetry_cell_setting 'monoclinic'
loop_
_space_group_symop_operation_xyz
x,y,z
-x,y,-z
-x,-y,-z
x,-y,z
1/2+x,1/2+y,z
1/2-x,1/2+y,-z
1/2-x,1/2-y,-z
1/2+x,1/2-y,z
loop_
_atom_site_type_symbol
_atom_site_label
_atom_site_fract_x
_atom_site_fract_y
_atom_site_fract_z
Si Si1 0.396672 0.327532 0.133314
Si Si2 0.768992 0.170709 0.864241
Si Si3 0.665008 0.328751 0.499941
Si Si4 0.659438 0.669337 0.627368
Si Si5 0.222272 0.834609 0.260651
Si Si6 0.034916 0.167547 0.254898
Si Si7 0.031254 0.171013 0.068830
Si Si8 0.973358 0.171269 0.623636
O O1 0.383092 0.500000 0.127501
O O2 0.300519 0.251644 0.111228
O O3 0.447999 0.274983 0.202241
O O4 0.457624 0.273271 0.095733
O O5 0.742160 0.206463 0.792827
O O6 0.868796 0.229054 0.897964
O O7 0.763855 0.000000 0.875360
O O8 0.675692 0.500000 0.497345
O O9 0.750000 0.250000 0.500000
O O10 0.649290 0.280537 0.560372
O O11 0.587310 0.267802 0.441257
O O12 0.674586 0.500000 0.634663
O O13 0.739831 0.741614 0.679158
O O14 0.572261 0.721698 0.637478
O O15 0.117659 0.806225 0.234158
O O16 0.243137 0.000000 0.280058
O O17 0.051371 0.237817 0.320843
O O18 0.019433 0.000000 0.262312
O O19 0.035035 0.000000 0.075086
O O20 0.000000 0.223857 0.000000
O O21 0.964552 0.000000 0.619615
#
# Coordination Sequence:
#
# PCOD8089435 Si02
#       8
#     8   8   8   8   8   8   8   8
#     4  10  19  34  57  83 109 144 189 227 265 323
#     4  10  20  35  55  82 114 145 181 228 277 321
#     4  10  20  34  51  71  97 130 169 212 262 318
#     4  10  20  33  50  75 102 129 168 220 267 312
#     4  10  19  33  53  76 104 138 175 215 264 321
#     4   9  16  29  51  75  99 133 178 218 252 311
#     4   9  18  35  58  82 112 150 187 222 266 326
#     4   9  17  30  49  71  96 128 166 209 258 308
#
# _framework density 19.236540999999999
#
# number of rings (size 3 to 8) (size 9 to 14) (size 15 to 20)
#    0.000    2.375    1.250    1.875    0.000    5.000 
#    0.000    1.875    0.000    6.750    0.000    0.000 
#    0.000    0.000    0.000    0.000    0.000    0.000 
#
# Total GULP energy -396601.737075 kJ/mol
# GULP energy per Si atom -12393.804284 kJ/mol
# Density = 1.919276 g / cm^3
# Si number density = 19.236541 Si / 1000 Ang^3
#
#
#
# Elastic Constant Matrix: (Units=GPa)
#
#
# Indices 1 2 3 4 5 6 
#
# 1 123.8605 28.8123 60.8592 0.0000 -9.2869 0.0000
# 2 28.8123 23.6029 26.3905 0.0000 -1.4410 0.0000
# 3 60.8592 26.3905 126.4061 0.0000 -3.2159 0.0000
# 4 0.0000 0.0000 0.0000 17.0341 0.0000 -0.1897
# 5 -9.2869 -1.4410 -3.2159 0.0000 30.4170 0.0000
# 6 0.0000 0.0000 0.0000 -0.1897 0.0000 30.0926
#
#
#
# Elastic Compliance Matrix: (Units=1/GPa)
#
#
# Indices 1 2 3 4 5 6 
#
# 1 0.012726 -0.011203 -0.003713 0.000000 0.002962 0.000000
# 2 -0.011203 0.065191 -0.008247 0.000000 -0.001204 0.000000
# 3 -0.003713 -0.008247 0.011412 0.000000 -0.000318 0.000000
# 4 0.000000 0.000000 0.000000 0.058710 0.000000 0.000370
# 5 0.002962 -0.001204 -0.000318 0.000000 0.033690 0.000000
# 6 0.000000 0.000000 0.000000 0.000370 0.000000 0.033233
#
#
# Mechanical properties :
#
#
# Convention : Reuss Voigt Hill
#
# Bulk Modulus (GPa) = 23.25388 56.22150 39.73769
# Shear Modulus (GPa) = 18.14080 26.02925 22.08502
#
# Velocity S-wave (km/s) = 3.07423 3.68246 3.39200
# Velocity P-wave (km/s) = 4.97150 6.88263 6.00360
#
# Compressibility (1/GPa) = 0.04300357
#
# Stress axis : x y z
#
# Youngs Moduli (GPa) = 78.57974 15.33963 87.62448
#
# Poissons Ratio (x) = 0.17184 0.32533
# Poissons Ratio (y) = 0.88029 0.72267
# Poissons Ratio (z) = 0.29175 0.12651
#
# Static dielectric constant tensor:
#      x y z
#    x 3.607170 0.000000 0.009490 
#    y 0.000000 2.994330 0.000000 
#    z 0.009490 0.000000 3.862580 
# 
# 
# High freq. dielectric constant tensor:
#      x y z
#    x 1.760590 0.000000 -0.003040 
#    y 0.000000 1.690990 0.000000 
#    z -0.003040 0.000000 1.761500 
# 
# From -- ./inp_files/309956.got.cif
#   From: 2010.06.25/outbox.cif.g09.slc.cpg/sg12_155_cif.got.tgz:309956.got - 2010.06.28 00:19:55.
