data_PCOD8089868
_publ_section_title
;
Structure prediction by ZEFSAII (Michael W. Deem and Ramdas Pophale) SiO2 
 PCOD8089868
Probable space group: C 2/M
;
_chemical_formula_sum "Si O2"
_cell_formula_units_Z 36
_cell_length_a 25.904365
_cell_length_b 7.563166
_cell_length_c 14.917828
_cell_angle_alpha 90.000000
_cell_angle_beta 46.191855
_cell_angle_gamma 90.000000
_cell_volume 2109.191016
_symmetry_space_group_name_H-M "C 2/M"
_symmetry_group_IT_number 12
_symmetry_cell_setting 'monoclinic'
loop_
_space_group_symop_operation_xyz
x,y,z
-x,y,-z
-x,-y,-z
x,-y,z
1/2+x,1/2+y,z
1/2-x,1/2+y,-z
1/2-x,1/2-y,-z
1/2+x,1/2-y,z
loop_
_atom_site_type_symbol
_atom_site_label
_atom_site_fract_x
_atom_site_fract_y
_atom_site_fract_z
Si Si1 0.428057 0.000000 0.526585
Si Si2 0.373543 0.698487 0.846031
Si Si3 0.556600 0.000000 0.010267
Si Si4 0.177108 0.798305 0.285124
Si Si5 0.166452 0.201990 0.909488
Si Si6 0.519287 0.000000 0.256145
O O1 0.500000 0.000000 0.500000
O O2 0.382296 0.824755 0.599245
O O3 0.444714 0.000000 0.399714
O O4 0.404403 0.500000 0.810157
O O5 0.322360 0.729523 0.822786
O O6 0.440633 0.826215 0.757872
O O7 0.328962 0.738926 0.989479
O O8 0.512225 0.000000 0.156994
O O9 0.500000 0.000000 0.000000
O O10 0.605722 0.173495 0.940495
O O11 0.256156 0.747385 0.224928
O O12 0.159304 0.000000 0.332952
O O13 0.145901 0.000000 0.912068
#
# Coordination Sequence:
#
# PCOD8089868 Si02
#       6
#     4   8   4   8   8   4
#     4  12  22  34  50  76 119 155 181 205 251 328
#     4   9  18  29  48  77 112 144 177 213 257 315
#     4  10  22  40  62  82 103 132 177 240 284 313
#     4  11  20  31  50  79 112 153 179 213 253 311
#     4  10  19  33  54  82 109 136 178 224 275 324
#     4  10  20  36  52  76 112 147 175 214 270 315
#
# _framework density 17.068155000000001
#
# number of rings (size 3 to 8) (size 9 to 14) (size 15 to 20)
#    0.000    1.778    4.444    0.667    0.000    1.778 
#    0.000    0.000    0.000    1.333    0.000    0.000 
#    0.000    0.000    0.000    0.000    0.000    0.000 
#
# Total GULP energy -223170.190614 kJ/mol
# GULP energy per Si atom -12398.343923 kJ/mol
# Density = 1.702931 g / cm^3
# Si number density = 17.068155 Si / 1000 Ang^3
#
#
#
# Elastic Constant Matrix: (Units=GPa)
#
#
# Indices 1 2 3 4 5 6 
#
# 1 92.0314 48.9952 46.1082 0.0005 -12.3070 0.0005
# 2 48.9952 133.1098 61.3985 0.0004 -13.0192 0.0014
# 3 46.1082 61.3985 113.5425 0.0016 -16.0970 0.0007
# 4 0.0005 0.0004 0.0016 16.5469 -0.0007 -11.2648
# 5 -12.3070 -13.0192 -16.0970 -0.0007 15.0359 -0.0003
# 6 0.0005 0.0014 0.0007 -11.2648 -0.0003 13.5674
#
#
#
# Elastic Compliance Matrix: (Units=1/GPa)
#
#
# Indices 1 2 3 4 5 6 
#
# 1 0.015213 -0.003417 -0.003518 0.000001 0.005727 0.000001
# 2 -0.003417 0.010925 -0.004215 0.000000 0.002150 -0.000001
# 3 -0.003518 -0.004215 0.013664 -0.000002 0.008098 -0.000001
# 4 0.000001 0.000000 -0.000002 0.139007 0.000007 0.115416
# 5 0.005727 0.002150 0.008098 0.000007 0.081727 0.000007
# 6 0.000001 -0.000001 -0.000001 0.115416 0.000007 0.169534
#
#
# Mechanical properties :
#
#
# Convention : Reuss Voigt Hill
#
# Bulk Modulus (GPa) = 57.13985 72.40974 64.77479
# Shear Modulus (GPa) = 10.91216 21.17548 16.04382
#
# Velocity S-wave (km/s) = 2.53124 3.52610 3.06924
# Velocity P-wave (km/s) = 6.48791 7.68725 7.11290
#
# Compressibility (1/GPa) = 0.01750092
#
# Stress axis : x y z
#
# Youngs Moduli (GPa) = 65.73127 91.53390 73.18701
#
# Poissons Ratio (x) = 0.31274 0.25751
# Poissons Ratio (y) = 0.22458 0.30851
# Poissons Ratio (z) = 0.23127 0.38585
#
# Static dielectric constant tensor:
#      x y z
#    x 2.744050 0.000000 0.017560 
#    y 0.000000 3.452770 0.000000 
#    z 0.017560 0.000000 3.118790 
# 
# 
# High freq. dielectric constant tensor:
#      x y z
#    x 1.606970 0.000000 -0.008290 
#    y 0.000000 1.682940 0.000000 
#    z -0.008290 0.000000 1.650030 
# 
# From -- ./inp_files/171842.got.cif
#   From: 2010.06.25/outbox.cif.g09.slc.cpg/sg12_86_cif.got.tgz:171842.got - 2010.06.28 00:19:55.
