data_PCOD8089930
_publ_section_title
;
Structure prediction by ZEFSAII (Michael W. Deem and Ramdas Pophale) SiO2 
 PCOD8089930
Probable space group: C 2/M
;
_chemical_formula_sum "Si O2"
_cell_formula_units_Z 56
_cell_length_a 14.581423
_cell_length_b 15.061242
_cell_length_c 17.811940
_cell_angle_alpha 90.000000
_cell_angle_beta 44.213654
_cell_angle_gamma 90.000000
_cell_volume 2727.809016
_symmetry_space_group_name_H-M "C 2/M"
_symmetry_group_IT_number 12
_symmetry_cell_setting 'monoclinic'
loop_
_space_group_symop_operation_xyz
x,y,z
-x,y,-z
-x,-y,-z
x,-y,z
1/2+x,1/2+y,z
1/2-x,1/2+y,-z
1/2-x,1/2-y,-z
1/2+x,1/2-y,z
loop_
_atom_site_type_symbol
_atom_site_label
_atom_site_fract_x
_atom_site_fract_y
_atom_site_fract_z
Si Si1 0.117102 0.717658 0.115537
Si Si2 0.839322 0.765289 0.277406
Si Si3 0.122833 0.400239 0.981400
Si Si4 0.369293 0.103282 0.532562
Si Si5 0.312909 0.099620 0.400996
Si Si6 0.313213 0.279427 0.779111
Si Si7 0.012733 0.099672 0.578434
O O1 0.137084 0.700593 0.193647
O O2 0.994714 0.788147 0.178694
O O3 0.250000 0.750000 0.000000
O O4 0.080296 0.629115 0.090711
O O5 0.757644 0.840195 0.368363
O O6 0.837418 0.670229 0.321212
O O7 0.782622 0.758468 0.227120
O O8 0.171453 0.500000 0.957599
O O9 0.243515 0.346549 0.876733
O O10 0.000000 0.386985 0.000000
O O11 0.500000 0.135373 0.500000
O O12 0.395828 0.119402 0.428312
O O13 0.339570 0.000000 0.567038
O O14 0.162479 0.103621 0.516447
O O15 0.344200 0.000000 0.351880
O O16 0.436794 0.328983 0.671656
O O17 0.000000 0.130075 0.500000
O O18 0.954322 0.000000 0.622463
#
# Coordination Sequence:
#
# PCOD8089930 Si02
#       7
#     8   8   8   8   8   8   8
#     4  10  24  42  59  90 122 157 208 257 315 371
#     4  12  23  37  65  91 122 167 213 259 316 377
#     4  10  20  39  63  88 121 156 198 257 320 369
#     4  10  24  43  61  87 126 174 223 261 303 371
#     4  10  22  38  59  90 130 163 204 259 309 375
#     4  11  22  36  61  90 123 163 202 251 307 377
#     4  10  19  33  54  91 130 160 195 243 303 374
#
# _framework density 20.529295999999999
#
# number of rings (size 3 to 8) (size 9 to 14) (size 15 to 20)
#    0.000    1.571    2.857    1.714    4.000    1.143 
#    0.000    3.571    0.000    0.000    0.000    6.000 
#    0.000    0.000    0.000    0.000    0.000    0.000 
#
# Total GULP energy -347036.912645 kJ/mol
# GULP energy per Si atom -12394.175452 kJ/mol
# Density = 2.048257 g / cm^3
# Si number density = 20.529296 Si / 1000 Ang^3
#
#
#
# Elastic Constant Matrix: (Units=GPa)
#
#
# Indices 1 2 3 4 5 6 
#
# 1 127.2041 31.5208 35.4956 0.0000 27.4032 0.0000
# 2 31.5208 73.2995 38.9520 0.0000 14.7632 0.0000
# 3 35.4956 38.9520 92.9248 -0.0001 7.9280 0.0000
# 4 0.0000 0.0000 -0.0001 23.8299 0.0000 0.1208
# 5 27.4032 14.7632 7.9280 0.0000 47.0936 0.0000
# 6 0.0000 0.0000 0.0000 0.1208 0.0000 2.4756
#
#
#
# Elastic Compliance Matrix: (Units=1/GPa)
#
#
# Indices 1 2 3 4 5 6 
#
# 1 0.010126 -0.001989 -0.002623 0.000000 -0.004827 0.000000
# 2 -0.001989 0.018857 -0.006837 0.000000 -0.003603 0.000000
# 3 -0.002623 -0.006837 0.014525 0.000000 0.001224 0.000000
# 4 0.000000 0.000000 0.000000 0.041974 0.000000 -0.002049
# 5 -0.004827 -0.003603 0.001224 0.000000 0.024967 0.000000
# 6 0.000000 0.000000 0.000000 -0.002049 0.000000 0.404042
#
#
# Mechanical properties :
#
#
# Convention : Reuss Voigt Hill
#
# Bulk Modulus (GPa) = 48.51844 56.15167 52.33506
# Shear Modulus (GPa) = 9.18681 27.17716 18.18199
#
# Velocity S-wave (km/s) = 2.11771 3.64239 2.97923
# Velocity P-wave (km/s) = 5.44653 6.71570 6.11414
#
# Compressibility (1/GPa) = 0.02061072
#
# Stress axis : x y z
#
# Youngs Moduli (GPa) = 98.75726 53.03076 68.84780
#
# Poissons Ratio (x) = 0.10545 0.18055
# Poissons Ratio (y) = 0.19638 0.47074
# Poissons Ratio (z) = 0.25899 0.36259
#
# Static dielectric constant tensor:
#      x y z
#    x 4.478540 0.000000 -0.147620 
#    y 0.000000 3.681900 0.000000 
#    z -0.147620 0.000000 4.277910 
# 
# 
# High freq. dielectric constant tensor:
#      x y z
#    x 1.826720 0.000000 0.003580 
#    y 0.000000 1.778550 0.000000 
#    z 0.003580 0.000000 1.804350 
# 
# From -- ./inp_files/270216.got.cif
#   From: 2010.06.25/outbox.cif.g09.slc.cpg/sg12_136_cif.got.tgz:270216.got - 2010.06.28 00:19:55.
