data_PCOD8089319
_publ_section_title
;
Structure prediction by ZEFSAII (Michael W. Deem and Ramdas Pophale) SiO2 
 PCOD8089319
Probable space group: C 2/M
;
_chemical_formula_sum "Si O2"
_cell_formula_units_Z 56
_cell_length_a 20.296495
_cell_length_b 17.843693
_cell_length_c 17.152761
_cell_angle_alpha 90.000000
_cell_angle_beta 30.570544
_cell_angle_gamma 90.000000
_cell_volume 3159.476927
_symmetry_space_group_name_H-M "C 2/M"
_symmetry_group_IT_number 12
_symmetry_cell_setting 'monoclinic'
loop_
_space_group_symop_operation_xyz
x,y,z
-x,y,-z
-x,-y,-z
x,-y,z
1/2+x,1/2+y,z
1/2-x,1/2+y,-z
1/2-x,1/2-y,-z
1/2+x,1/2-y,z
loop_
_atom_site_type_symbol
_atom_site_label
_atom_site_fract_x
_atom_site_fract_y
_atom_site_fract_z
Si Si1 0.221666 0.706489 0.646661
Si Si2 0.515655 0.916221 0.892448
Si Si3 0.558319 0.293252 0.692832
Si Si4 0.231930 0.083236 0.168165
Si Si5 0.650070 0.584606 0.080270
Si Si6 0.164537 0.295717 0.147314
Si Si7 0.646250 0.725168 0.331673
O O1 0.131603 0.634766 0.746386
O O2 0.348646 0.677989 0.471162
O O3 0.144714 0.769636 0.678031
O O4 0.261351 0.743664 0.689056
O O5 0.546795 0.000000 0.831579
O O6 0.500000 0.912007 0.000000
O O7 0.377446 0.888334 0.998880
O O8 0.469219 0.360179 0.817797
O O9 0.481466 0.221940 0.732765
O O10 0.150023 0.082297 0.173321
O O11 0.159375 0.136186 0.303363
O O12 0.240456 0.000000 0.197065
O O13 0.631188 0.500000 0.066039
O O14 0.786650 0.617883 0.907488
O O15 0.190655 0.269474 0.209350
O O16 0.250000 0.250000 0.000000
O O17 0.500000 0.747336 0.500000
#
# Coordination Sequence:
#
# PCOD8089319 Si02
#       7
#     8   8   8   8   8   8   8
#     4  11  22  33  55  79 111 151 184 223 282 316
#     4  10  20  31  46  74 113 148 179 213 256 328
#     4  10  21  37  53  83 111 143 187 231 268 331
#     4  10  19  33  52  81 116 148 182 215 264 338
#     4  10  20  36  59  81 108 146 182 224 279 328
#     4  10  19  36  58  79 112 141 180 233 264 322
#     4  12  21  35  55  84 110 145 187 230 278 329
#
# _framework density 17.724453
#
# number of rings (size 3 to 8) (size 9 to 14) (size 15 to 20)
#    0.000    1.571    5.714    0.857    2.000    0.857 
#    0.000    0.000    0.000    3.000    0.000    0.000 
#    0.000    0.000    0.000    0.000    0.000    0.000 
#
# Total GULP energy -347047.815832 kJ/mol
# GULP energy per Si atom -12394.564851 kJ/mol
# Density = 1.768411 g / cm^3
# Si number density = 17.724453 Si / 1000 Ang^3
#
#
#
# Elastic Constant Matrix: (Units=GPa)
#
#
# Indices 1 2 3 4 5 6 
#
# 1 96.0436 22.0441 20.5744 -0.0004 6.0019 0.0002
# 2 22.0441 87.7187 37.8202 -0.0001 -0.0165 0.0003
# 3 20.5744 37.8202 85.7540 -0.0007 0.5989 0.0004
# 4 -0.0004 -0.0001 -0.0007 9.9592 0.0005 -5.0694
# 5 6.0019 -0.0165 0.5989 0.0005 27.3301 -0.0001
# 6 0.0002 0.0003 0.0004 -5.0694 -0.0001 19.1468
#
#
#
# Elastic Compliance Matrix: (Units=1/GPa)
#
#
# Indices 1 2 3 4 5 6 
#
# 1 0.011434 -0.002097 -0.001801 0.000000 -0.002473 0.000000
# 2 -0.002097 0.014462 -0.005879 -0.000001 0.000598 0.000000
# 3 -0.001801 -0.005879 0.014686 0.000001 0.000070 0.000000
# 4 0.000000 -0.000001 0.000001 0.116050 -0.000002 0.030726
# 5 -0.002473 0.000598 0.000070 -0.000002 0.037131 0.000000
# 6 0.000000 0.000000 0.000000 0.030726 0.000000 0.060363
#
#
# Mechanical properties :
#
#
# Convention : Reuss Voigt Hill
#
# Bulk Modulus (GPa) = 47.55889 47.82152 47.69020
# Shear Modulus (GPa) = 17.81328 23.89241 20.85285
#
# Velocity S-wave (km/s) = 3.17363 3.67548 3.43374
# Velocity P-wave (km/s) = 6.34979 6.71203 6.53342
#
# Compressibility (1/GPa) = 0.02102657
#
# Stress axis : x y z
#
# Youngs Moduli (GPa) = 87.46124 69.14631 68.09307
#
# Poissons Ratio (x) = 0.14502 0.12263
# Poissons Ratio (y) = 0.18343 0.40033
# Poissons Ratio (z) = 0.15751 0.40653
#
# Static dielectric constant tensor:
#      x y z
#    x 3.463940 0.000000 -0.301740 
#    y 0.000000 3.604410 0.000000 
#    z -0.301740 0.000000 3.853620 
# 
# 
# High freq. dielectric constant tensor:
#      x y z
#    x 1.687500 0.000000 -0.012780 
#    y 0.000000 1.660880 0.000000 
#    z -0.012780 0.000000 1.684130 
# 
# From -- ./inp_files/284980.got.cif
#   From: 2010.06.25/outbox.cif.g09.slc.cpg/sg12_143_cif.got.tgz:284980.got - 2010.06.28 00:19:55.
