data_PCOD8089876
_publ_section_title
;
Structure prediction by ZEFSAII (Michael W. Deem and Ramdas Pophale) SiO2 
 PCOD8089876
Probable space group: C 2/M
;
_chemical_formula_sum "Si O2"
_cell_formula_units_Z 52
_cell_length_a 21.743356
_cell_length_b 10.818780
_cell_length_c 18.355486
_cell_angle_alpha 90.000000
_cell_angle_beta 44.055117
_cell_angle_gamma 90.000000
_cell_volume 3002.439289
_symmetry_space_group_name_H-M "C 2/M"
_symmetry_group_IT_number 12
_symmetry_cell_setting 'monoclinic'
loop_
_space_group_symop_operation_xyz
x,y,z
-x,y,-z
-x,-y,-z
x,-y,z
1/2+x,1/2+y,z
1/2-x,1/2+y,-z
1/2-x,1/2-y,-z
1/2+x,1/2-y,z
loop_
_atom_site_type_symbol
_atom_site_label
_atom_site_fract_x
_atom_site_fract_y
_atom_site_fract_z
Si Si1 0.859793 0.134351 0.873387
Si Si2 0.836132 0.500000 0.571632
Si Si3 0.674602 0.000000 0.250740
Si Si4 0.512201 0.000000 0.668060
Si Si5 0.279699 0.703273 0.087950
Si Si6 0.553904 0.855257 0.023390
Si Si7 0.286576 0.640913 0.417539
Si Si8 0.031495 0.730346 0.754845
O O1 0.801633 0.225179 0.876600
O O2 0.960459 0.176429 0.782370
O O3 0.852549 0.000000 0.843936
O O4 0.827853 0.125552 0.984090
O O5 0.856289 0.500000 0.639868
O O6 0.780609 0.622588 0.593736
O O7 0.932249 0.500000 0.453131
O O8 0.591742 0.000000 0.264835
O O9 0.737656 0.882826 0.185076
O O10 0.541607 0.881803 0.689904
O O11 0.349829 0.794917 0.064105
O O12 0.500257 0.821921 0.141142
O O13 0.569966 0.000000 0.007129
O O14 0.500000 0.806897 0.000000
O O15 0.294974 0.500000 0.446550
O O16 0.250000 0.750000 0.500000
O O17 0.380098 0.690161 0.308862
#
# Coordination Sequence:
#
# PCOD8089876 Si02
#       8
#     8   4   4   4   8   8   8   8
#     4  10  19  33  54  82 111 149 196 240 285 352
#     4  10  25  40  63  87 121 153 203 254 306 375
#     4  12  23  40  58  91 120 162 194 254 310 357
#     4  12  21  40  63  87 110 161 205 251 300 359
#     4  10  21  34  55  80 117 152 196 241 294 352
#     4  10  22  36  54  83 122 162 197 240 296 373
#     4  10  21  39  63  90 116 150 205 259 306 357
#     4  11  20  35  58  86 117 151 201 248 300 353
#
# _framework density 17.319251999999999
#
# number of rings (size 3 to 8) (size 9 to 14) (size 15 to 20)
#    0.462    1.077    4.615    1.154    2.154    0.000 
#    0.000    0.385    0.000    0.000    0.000    2.154 
#    0.000    0.000    0.000    0.000    0.000    0.000 
#
# Total GULP energy -322246.929875 kJ/mol
# GULP energy per Si atom -12394.112687 kJ/mol
# Density = 1.727983 g / cm^3
# Si number density = 17.319252 Si / 1000 Ang^3
#
#
#
# Elastic Constant Matrix: (Units=GPa)
#
#
# Indices 1 2 3 4 5 6 
#
# 1 63.7281 6.0001 24.4505 0.0000 -5.7612 0.0000
# 2 6.0001 71.0343 25.6284 0.0001 -0.0204 0.0001
# 3 24.4505 25.6284 89.1324 0.0000 -5.8475 0.0000
# 4 0.0000 0.0001 0.0000 31.9489 0.0000 -9.5565
# 5 -5.7612 -0.0204 -5.8475 0.0000 32.9028 0.0000
# 6 0.0000 0.0001 0.0000 -9.5565 0.0000 63.4558
#
#
#
# Elastic Compliance Matrix: (Units=1/GPa)
#
#
# Indices 1 2 3 4 5 6 
#
# 1 0.017706 0.000228 -0.004775 0.000000 0.002252 0.000000
# 2 0.000228 0.015731 -0.004636 0.000000 -0.000774 0.000000
# 3 -0.004775 -0.004636 0.013970 0.000000 0.001644 0.000000
# 4 0.000000 0.000000 0.000000 0.032776 0.000000 0.004936
# 5 0.002252 -0.000774 0.001644 0.000000 0.031079 0.000000
# 6 0.000000 0.000000 0.000000 0.004936 0.000000 0.016502
#
#
# Mechanical properties :
#
#
# Convention : Reuss Voigt Hill
#
# Bulk Modulus (GPa) = 34.43536 37.33918 35.88727
# Shear Modulus (GPa) = 32.09019 36.84923 34.46971
#
# Velocity S-wave (km/s) = 4.30916 4.61765 4.46607
# Velocity P-wave (km/s) = 6.68463 7.07364 6.88188
#
# Compressibility (1/GPa) = 0.02903992
#
# Stress axis : x y z
#
# Youngs Moduli (GPa) = 56.47898 63.56871 71.58186
#
# Poissons Ratio (x) = -0.01448 0.34178
# Poissons Ratio (y) = -0.01286 0.33188
# Poissons Ratio (z) = 0.26967 0.29473
#
# Static dielectric constant tensor:
#      x y z
#    x 3.206580 0.000000 -0.178100 
#    y 0.000000 3.276200 0.000000 
#    z -0.178100 0.000000 3.161280 
# 
# 
# High freq. dielectric constant tensor:
#      x y z
#    x 1.662880 0.000000 -0.020580 
#    y 0.000000 1.676870 0.000000 
#    z -0.020580 0.000000 1.666060 
# 
# From -- ./inp_files/232633.got.cif
#   From: 2010.06.25/outbox.cif.g09.slc.cpg/sg12_117_cif.got.tgz:232633.got - 2010.06.28 00:19:55.
