data_PCOD8089642
_publ_section_title
;
Structure prediction by ZEFSAII (Michael W. Deem and Ramdas Pophale) SiO2 
 PCOD8089642
Probable space group: C 2/M
;
_chemical_formula_sum "Si O2"
_cell_formula_units_Z 64
_cell_length_a 14.752196
_cell_length_b 8.619342
_cell_length_c 29.864806
_cell_angle_alpha 90.000000
_cell_angle_beta 61.219126
_cell_angle_gamma 90.000000
_cell_volume 3328.329199
_symmetry_space_group_name_H-M "C 2/M"
_symmetry_group_IT_number 12
_symmetry_cell_setting 'monoclinic'
loop_
_space_group_symop_operation_xyz
x,y,z
-x,y,-z
-x,-y,-z
x,-y,z
1/2+x,1/2+y,z
1/2-x,1/2+y,-z
1/2-x,1/2-y,-z
1/2+x,1/2-y,z
loop_
_atom_site_type_symbol
_atom_site_label
_atom_site_fract_x
_atom_site_fract_y
_atom_site_fract_z
Si Si1 0.499859 0.182652 0.363251
Si Si2 0.924600 0.817497 0.077395
Si Si3 0.371606 0.817850 0.269948
Si Si4 0.566051 0.182809 0.443633
Si Si5 0.193511 0.679877 0.812127
Si Si6 0.573162 0.319914 0.257615
Si Si7 0.797453 0.818838 0.375646
Si Si8 0.649330 0.316453 0.999861
O O1 0.527832 0.250319 0.405320
O O2 0.571043 0.270701 0.310201
O O3 0.379484 0.217048 0.383289
O O4 0.521068 0.000000 0.354327
O O5 0.869195 0.770450 0.135829
O O6 0.859890 0.756793 0.049551
O O7 0.928772 0.000000 0.072545
O O8 0.043716 0.757836 0.049317
O O9 0.341105 0.758736 0.228133
O O10 0.492421 0.782193 0.248838
O O11 0.301622 0.724813 0.322153
O O12 0.350668 0.000000 0.280712
O O13 0.500000 0.257362 0.500000
O O14 0.685993 0.223643 0.422287
O O15 0.548060 0.000000 0.446866
O O16 0.166988 0.500000 0.823254
O O17 0.314808 0.712159 0.789760
O O18 0.542797 0.500000 0.261418
O O19 0.822658 0.000000 0.375065
O O20 0.658995 0.500000 0.999670
O O21 0.750000 0.250000 0.000000
#
# Coordination Sequence:
#
# PCOD8089642 Si02
#       8
#     8   8   8   8   8   8   8   8
#     4  10  19  33  54  76  99 131 170 209 250 301
#     4   9  20  37  55  77 108 140 173 211 254 306
#     4  10  20  35  53  75 104 136 170 209 252 302
#     4   9  19  34  51  73 101 132 166 205 253 308
#     4  10  22  36  52  77 109 139 169 211 258 299
#     4  10  20  35  53  75 104 136 170 209 252 302
#     4  10  19  33  54  76  99 131 170 209 250 301
#     4   9  19  37  58  80 104 137 177 215 256 300
#
# _framework density 19.228867000000001
#
# number of rings (size 3 to 8) (size 9 to 14) (size 15 to 20)
#    0.000    2.375    0.000    4.500    0.000    4.500 
#    0.000    8.125    0.000    5.250    0.000    0.000 
#    0.000    0.000    0.000    0.000    0.000    0.000 
#
# Total GULP energy -396760.405466 kJ/mol
# GULP energy per Si atom -12398.762671 kJ/mol
# Density = 1.918510 g / cm^3
# Si number density = 19.228867 Si / 1000 Ang^3
#
#
#
# Elastic Constant Matrix: (Units=GPa)
#
#
# Indices 1 2 3 4 5 6 
#
# 1 77.2219 10.6039 34.0557 0.0000 -8.3239 0.0000
# 2 10.6039 33.1442 14.4260 0.0000 -3.5736 0.0000
# 3 34.0557 14.4260 94.1764 0.0000 -16.4305 0.0000
# 4 0.0000 0.0000 0.0000 26.3086 0.0000 -1.0767
# 5 -8.3239 -3.5736 -16.4305 0.0000 25.8946 0.0000
# 6 0.0000 0.0000 0.0000 -1.0767 0.0000 26.0973
#
#
#
# Elastic Compliance Matrix: (Units=1/GPa)
#
#
# Indices 1 2 3 4 5 6 
#
# 1 0.015684 -0.002680 -0.004999 0.000000 0.001500 0.000000
# 2 -0.002680 0.032835 -0.003846 0.000000 0.001229 0.000000
# 3 -0.004999 -0.003846 0.014216 0.000000 0.006882 0.000000
# 4 0.000000 0.000000 0.000000 0.038075 0.000000 0.001571
# 5 0.001500 0.001229 0.006882 0.000000 0.043637 0.000000
# 6 0.000000 0.000000 0.000000 0.001571 0.000000 0.038383
#
#
# Mechanical properties :
#
#
# Convention : Reuss Voigt Hill
#
# Bulk Modulus (GPa) = 25.19892 35.85707 30.52799
# Shear Modulus (GPa) = 22.81965 25.35724 24.08845
#
# Velocity S-wave (km/s) = 3.44865 3.63534 3.54322
# Velocity P-wave (km/s) = 5.38430 6.02569 5.71400
#
# Compressibility (1/GPa) = 0.03968424
#
# Stress axis : x y z
#
# Youngs Moduli (GPa) = 63.75835 30.45509 70.34251
#
# Poissons Ratio (x) = 0.08163 0.35168
# Poissons Ratio (y) = 0.17089 0.27054
# Poissons Ratio (z) = 0.31876 0.11713
#
# Static dielectric constant tensor:
#      x y z
#    x 3.639550 0.000000 0.058440 
#    y 0.000000 3.311340 0.000000 
#    z 0.058440 0.000000 3.647990 
# 
# 
# High freq. dielectric constant tensor:
#      x y z
#    x 1.756940 0.000000 -0.003060 
#    y 0.000000 1.734370 0.000000 
#    z -0.003060 0.000000 1.746310 
# 
# From -- ./inp_files/375029.got.cif
#   From: 2010.06.25/outbox.cif.g09.slc.cpg/sg12_188_cif.got.tgz:375029.got - 2010.06.28 00:19:55.
