data_PCOD8089166
_publ_section_title
;
Structure prediction by ZEFSAII (Michael W. Deem and Ramdas Pophale) SiO2 
 PCOD8089166
Probable space group: C 2/M
;
_chemical_formula_sum "Si O2"
_cell_formula_units_Z 64
_cell_length_a 20.259622
_cell_length_b 8.684981
_cell_length_c 23.251066
_cell_angle_alpha 90.000000
_cell_angle_beta 53.598493
_cell_angle_gamma 90.000000
_cell_volume 3292.859787
_symmetry_space_group_name_H-M "C 2/M"
_symmetry_group_IT_number 12
_symmetry_cell_setting 'monoclinic'
loop_
_space_group_symop_operation_xyz
x,y,z
-x,y,-z
-x,-y,-z
x,-y,z
1/2+x,1/2+y,z
1/2-x,1/2+y,-z
1/2-x,1/2-y,-z
1/2+x,1/2-y,z
loop_
_atom_site_type_symbol
_atom_site_label
_atom_site_fract_x
_atom_site_fract_y
_atom_site_fract_z
Si Si1 0.992820 0.677459 0.255746
Si Si2 0.260836 0.681248 0.875211
Si Si3 0.190955 0.171668 0.469170
Si Si4 0.074837 0.825664 0.427257
Si Si5 0.389187 0.317104 0.716885
Si Si6 0.580391 0.182658 0.993558
Si Si7 0.856367 0.827276 0.387365
Si Si8 0.399130 0.319253 0.891955
O O1 0.005798 0.500000 0.232936
O O2 0.039225 0.726008 0.289150
O O3 0.022217 0.782596 0.187910
O O4 0.898535 0.710918 0.320585
O O5 0.257233 0.500000 0.884285
O O6 0.303010 0.727168 0.792644
O O7 0.316889 0.741458 0.900481
O O8 0.167383 0.746185 0.922812
O O9 0.153347 0.182245 0.426168
O O10 0.122970 0.200730 0.555168
O O11 0.259146 0.302850 0.435099
O O12 0.228157 0.000000 0.459550
O O13 0.105329 0.754133 0.351078
O O14 0.000000 0.740455 0.500000
O O15 0.045974 0.000000 0.429260
O O16 0.403101 0.500000 0.715317
O O17 0.582713 0.232142 0.058449
O O18 0.577046 0.000000 0.991959
O O19 0.500000 0.247870 0.000000
O O20 0.879674 0.000000 0.356627
O O21 0.393370 0.500000 0.907036
#
# Coordination Sequence:
#
# PCOD8089166 Si02
#       8
#     8   8   8   8   8   8   8   8
#     4  11  21  34  54  79 105 133 173 222 271 321
#     4   8  16  32  54  78 105 142 182 222 266 318
#     4   9  18  32  50  75 103 138 183 224 264 316
#     4   9  16  28  49  76 104 137 179 223 265 313
#     4   9  17  32  53  76 103 137 177 219 266 318
#     4  10  20  35  54  81 116 146 178 221 270 323
#     4  10  19  33  52  72 103 141 178 222 270 318
#     4  10  20  36  58  81 106 138 184 225 267 326
#
# _framework density 19.435991999999999
#
# number of rings (size 3 to 8) (size 9 to 14) (size 15 to 20)
#    0.000    2.500    0.000    3.750    0.000    2.750 
#    2.250    3.125    0.000    1.500    0.000    0.000 
#    0.000    0.000    0.000    0.000    0.000    0.000 
#
# Total GULP energy -396437.051680 kJ/mol
# GULP energy per Si atom -12388.657865 kJ/mol
# Density = 1.939176 g / cm^3
# Si number density = 19.435992 Si / 1000 Ang^3
#
#
#
# Elastic Constant Matrix: (Units=GPa)
#
#
# Indices 1 2 3 4 5 6 
#
# 1 90.2972 11.1580 64.9079 -0.0001 4.7617 -0.0009
# 2 11.1580 25.2002 6.9498 -0.0001 -3.4263 -0.0029
# 3 64.9079 6.9498 138.6911 0.0001 3.0897 0.0000
# 4 -0.0001 -0.0001 0.0001 24.2029 0.0000 2.1850
# 5 4.7617 -3.4263 3.0897 0.0000 31.1739 0.0000
# 6 -0.0009 -0.0029 0.0000 2.1850 0.0000 15.5375
#
#
#
# Elastic Compliance Matrix: (Units=1/GPa)
#
#
# Indices 1 2 3 4 5 6 
#
# 1 0.017619 -0.005974 -0.007889 0.000000 -0.002566 0.000000
# 2 -0.005974 0.042943 0.000520 0.000000 0.005581 0.000008
# 3 -0.007889 0.000520 0.010872 0.000000 0.000185 0.000000
# 4 0.000000 0.000000 0.000000 0.041849 0.000000 -0.005885
# 5 -0.002566 0.005581 0.000185 0.000000 0.033065 0.000001
# 6 0.000000 0.000008 0.000000 -0.005885 0.000001 0.065188
#
#
# Mechanical properties :
#
#
# Convention : Reuss Voigt Hill
#
# Bulk Modulus (GPa) = 22.34800 46.69109 34.51954
# Shear Modulus (GPa) = 19.75196 25.59438 22.67317
#
# Velocity S-wave (km/s) = 3.19134 3.63279 3.41919
# Velocity P-wave (km/s) = 5.01026 6.45533 5.77815
#
# Compressibility (1/GPa) = 0.04474673
#
# Stress axis : x y z
#
# Youngs Moduli (GPa) = 56.75652 23.28669 91.97679
#
# Poissons Ratio (x) = 0.13912 0.72563
# Poissons Ratio (y) = 0.33909 -0.04781
# Poissons Ratio (z) = 0.44777 -0.01211
#
# Static dielectric constant tensor:
#      x y z
#    x 3.535650 0.000000 -0.092220 
#    y 0.000000 3.256260 0.000000 
#    z -0.092220 0.000000 3.965020 
# 
# 
# High freq. dielectric constant tensor:
#      x y z
#    x 1.738660 0.000000 0.000210 
#    y 0.000000 1.722420 0.000000 
#    z 0.000210 0.000000 1.773120 
# 
# From -- ./inp_files/345931.got.cif
#   From: 2010.06.25/outbox.cif.g09.slc.cpg/sg12_173_cif.got.tgz:345931.got - 2010.06.28 00:19:55.
