data_PCOD8089659
_publ_section_title
;
Structure prediction by ZEFSAII (Michael W. Deem and Ramdas Pophale) SiO2 
 PCOD8089659
Probable space group: C 2/M
;
_chemical_formula_sum "Si O2"
_cell_formula_units_Z 56
_cell_length_a 18.926313
_cell_length_b 9.505574
_cell_length_c 18.917006
_cell_angle_alpha 90.000000
_cell_angle_beta 119.221373
_cell_angle_gamma 90.000000
_cell_volume 2970.172436
_symmetry_space_group_name_H-M "C 2/M"
_symmetry_group_IT_number 12
_symmetry_cell_setting 'monoclinic'
loop_
_space_group_symop_operation_xyz
x,y,z
-x,y,-z
-x,-y,-z
x,-y,z
1/2+x,1/2+y,z
1/2-x,1/2+y,-z
1/2-x,1/2-y,-z
1/2+x,1/2-y,z
loop_
_atom_site_type_symbol
_atom_site_label
_atom_site_fract_x
_atom_site_fract_y
_atom_site_fract_z
Si Si1 0.570570 0.164718 0.587435
Si Si2 0.689611 0.843944 0.427543
Si Si3 0.516153 0.834032 0.315681
Si Si4 0.723961 0.343460 0.673484
Si Si5 0.653938 0.833095 0.151495
Si Si6 0.992044 0.332676 0.147308
Si Si7 0.677396 0.167432 0.002029
O O1 0.500000 0.216102 0.500000
O O2 0.551617 0.203245 0.659729
O O3 0.652623 0.245168 0.610032
O O4 0.585403 0.000000 0.583870
O O5 0.750000 0.750000 0.500000
O O6 0.600573 0.774827 0.387921
O O7 0.709902 0.852460 0.355186
O O8 0.690812 0.000000 0.462094
O O9 0.494944 0.770144 0.228611
O O10 0.526988 0.000000 0.312607
O O11 0.689890 0.500000 0.673624
O O12 0.770841 0.278756 0.764137
O O13 0.567627 0.773211 0.137998
O O14 0.671847 0.784254 0.080765
O O15 0.649558 0.000000 0.154542
O O16 0.995432 0.500000 0.149560
O O17 0.907146 0.283143 0.073311
O O18 0.691450 0.000000 0.001279
O O19 0.750000 0.250000 0.000000
#
# Coordination Sequence:
#
# PCOD8089659 Si02
#       7
#     8   8   8   8   8   8   8
#     4  10  21  35  51  74 106 142 177 215 260 311
#     4  10  19  33  54  77 102 133 172 218 261 303
#     4   9  17  31  51  74 101 135 174 214 254 301
#     4  10  20  34  54  78 105 138 173 215 266 312
#     4   9  17  33  54  79 107 135 174 220 259 301
#     4   9  16  31  55  79 101 133 178 216 250 301
#     4  10  21  34  55  84 110 137 170 212 260 311
#
# _framework density 18.854123999999999
#
# number of rings (size 3 to 8) (size 9 to 14) (size 15 to 20)
#    0.000    2.429    1.429    1.286    2.000    3.714 
#    0.000    0.714    0.000    3.429    0.000    0.000 
#    0.000    0.000    0.000    0.000    0.000    0.000 
#
# Total GULP energy -347106.570038 kJ/mol
# GULP energy per Si atom -12396.663216 kJ/mol
# Density = 1.881121 g / cm^3
# Si number density = 18.854124 Si / 1000 Ang^3
#
#
#
# Elastic Constant Matrix: (Units=GPa)
#
#
# Indices 1 2 3 4 5 6 
#
# 1 91.9715 21.9761 30.2965 0.0000 5.5134 0.0000
# 2 21.9761 31.8144 23.7888 0.0000 7.3993 0.0000
# 3 30.2965 23.7888 119.4466 0.0000 6.1721 0.0000
# 4 0.0000 0.0000 0.0000 18.3206 0.0000 1.6182
# 5 5.5134 7.3993 6.1721 0.0000 38.7661 0.0000
# 6 0.0000 0.0000 0.0000 1.6182 0.0000 25.5083
#
#
#
# Elastic Compliance Matrix: (Units=1/GPa)
#
#
# Indices 1 2 3 4 5 6 
#
# 1 0.013352 -0.007835 -0.001820 0.000000 -0.000114 0.000000
# 2 -0.007835 0.042932 -0.006248 0.000000 -0.006085 0.000000
# 3 -0.001820 -0.006248 0.010086 0.000000 -0.000154 0.000000
# 4 0.000000 0.000000 0.000000 0.054891 0.000000 -0.003482
# 5 -0.000114 -0.006085 -0.000154 0.000000 0.026998 0.000000
# 6 0.000000 0.000000 0.000000 -0.003482 0.000000 0.039424
#
#
# Mechanical properties :
#
#
# Convention : Reuss Voigt Hill
#
# Bulk Modulus (GPa) = 28.93371 43.92835 36.43103
# Shear Modulus (GPa) = 21.64400 27.66374 24.65387
#
# Velocity S-wave (km/s) = 3.39185 3.83463 3.62001
# Velocity P-wave (km/s) = 5.54247 6.55404 6.06937
#
# Compressibility (1/GPa) = 0.03456176
#
# Stress axis : x y z
#
# Youngs Moduli (GPa) = 74.89776 23.29259 99.14714
#
# Poissons Ratio (x) = 0.18250 0.18046
# Poissons Ratio (y) = 0.58685 0.61952
# Poissons Ratio (z) = 0.13633 0.14554
#
# Static dielectric constant tensor:
#      x y z
#    x 3.528650 0.000000 -0.084490 
#    y 0.000000 2.933370 0.000000 
#    z -0.084490 0.000000 3.696120 
# 
# 
# High freq. dielectric constant tensor:
#      x y z
#    x 1.742770 0.000000 -0.002440 
#    y 0.000000 1.670990 0.000000 
#    z -0.002440 0.000000 1.750230 
# 
# From -- ./inp_files/276670.got.cif
#   From: 2010.06.25/outbox.cif.g09.slc.cpg/sg12_139_cif.got.tgz:276670.got - 2010.06.28 00:19:55.
