data_PCOD8089523
_publ_section_title
;
Structure prediction by ZEFSAII (Michael W. Deem and Ramdas Pophale) SiO2 
 PCOD8089523
Probable space group: C 2/M
;
_chemical_formula_sum "Si O2"
_cell_formula_units_Z 64
_cell_length_a 24.068035
_cell_length_b 8.813588
_cell_length_c 19.194638
_cell_angle_alpha 90.000000
_cell_angle_beta 68.909612
_cell_angle_gamma 90.000000
_cell_volume 3798.931183
_symmetry_space_group_name_H-M "C 2/M"
_symmetry_group_IT_number 12
_symmetry_cell_setting 'monoclinic'
loop_
_space_group_symop_operation_xyz
x,y,z
-x,y,-z
-x,-y,-z
x,-y,z
1/2+x,1/2+y,z
1/2-x,1/2+y,-z
1/2-x,1/2-y,-z
1/2+x,1/2-y,z
loop_
_atom_site_type_symbol
_atom_site_label
_atom_site_fract_x
_atom_site_fract_y
_atom_site_fract_z
Si Si1 0.271651 0.322418 0.836314
Si Si2 0.495268 0.678495 0.203023
Si Si3 0.615857 0.172471 0.706182
Si Si4 0.878819 0.680216 0.868131
Si Si5 0.448998 0.678351 0.073276
Si Si6 0.348212 0.823915 0.036174
Si Si7 0.229448 0.672381 0.579361
Si Si8 0.777923 0.179926 0.279257
O O1 0.278742 0.500000 0.818793
O O2 0.332688 0.254458 0.836375
O O3 0.220819 0.289942 0.916838
O O4 0.257474 0.240779 0.770613
O O5 0.506406 0.500000 0.205543
O O6 0.445905 0.737843 0.280574
O O7 0.556622 0.766012 0.186213
O O8 0.466767 0.727071 0.142490
O O9 0.656801 0.176474 0.617693
O O10 0.654264 0.254215 0.750703
O O11 0.602111 0.000000 0.735040
O O12 0.873640 0.500000 0.866337
O O13 0.865204 0.741049 0.952346
O O14 0.444138 0.500000 0.067714
O O15 0.385780 0.745372 0.079911
O O16 0.500000 0.744684 0.000000
O O17 0.362929 0.000000 0.032086
O O18 0.252977 0.500000 0.570423
O O19 0.250000 0.750000 0.500000
O O20 0.255620 0.762110 0.634981
O O21 0.780456 0.000000 0.276284
#
# Coordination Sequence:
#
# PCOD8089523 Si02
#       8
#     8   8   8   8   8   8   8   8
#     4  11  22  37  53  72  99 133 177 224 267 312
#     4  11  21  34  51  72  99 134 173 215 262 313
#     4   9  19  33  51  77 108 137 166 205 251 302
#     4  11  23  37  51  70  96 133 179 225 272 316
#     4  10  20  33  49  70  96 127 166 213 264 314
#     4  10  22  36  52  72  95 130 173 222 274 319
#     4   9  18  32  53  82 115 143 169 203 249 302
#     4  10  19  33  53  79 108 139 172 206 254 309
#
# _framework density 16.846844999999998
#
# number of rings (size 3 to 8) (size 9 to 14) (size 15 to 20)
#    0.750    1.125    1.250    3.750    0.000    4.750 
#    0.000    0.000    0.000    0.000    0.000    0.875 
#    0.000    7.000    0.000    0.000    0.000    0.000 
#
# Total GULP energy -396704.310765 kJ/mol
# GULP energy per Si atom -12397.009711 kJ/mol
# Density = 1.680850 g / cm^3
# Si number density = 16.846845 Si / 1000 Ang^3
#
#
#
# Elastic Constant Matrix: (Units=GPa)
#
#
# Indices 1 2 3 4 5 6 
#
# 1 97.9881 34.2024 32.3107 0.0000 -1.6879 0.0000
# 2 34.2024 91.2527 31.6047 -0.0004 -0.8725 -0.0006
# 3 32.3107 31.6047 68.8548 0.0000 -7.5966 0.0000
# 4 0.0000 -0.0004 0.0000 25.1144 0.0000 0.3319
# 5 -1.6879 -0.8725 -7.5966 0.0000 14.9518 0.0000
# 6 0.0000 -0.0006 0.0000 0.3319 0.0000 30.9992
#
#
#
# Elastic Compliance Matrix: (Units=1/GPa)
#
#
# Indices 1 2 3 4 5 6 
#
# 1 0.012848 -0.003205 -0.004681 0.000000 -0.001115 0.000000
# 2 -0.003205 0.013912 -0.005119 0.000000 -0.002151 0.000000
# 3 -0.004681 -0.005119 0.020105 0.000000 0.009388 0.000000
# 4 0.000000 0.000000 0.000000 0.039823 0.000000 -0.000426
# 5 -0.001115 -0.002151 0.009388 0.000000 0.071400 0.000000
# 6 0.000000 0.000000 0.000000 -0.000426 0.000000 0.032263
#
#
# Mechanical properties :
#
#
# Convention : Reuss Voigt Hill
#
# Bulk Modulus (GPa) = 47.94888 50.48123 49.21505
# Shear Modulus (GPa) = 22.38986 24.87826 23.63406
#
# Velocity S-wave (km/s) = 3.64953 3.84700 3.74956
# Velocity P-wave (km/s) = 6.80310 7.05424 6.92981
#
# Compressibility (1/GPa) = 0.02085554
#
# Stress axis : x y z
#
# Youngs Moduli (GPa) = 77.83084 71.87894 49.73799
#
# Poissons Ratio (x) = 0.23038 0.23283
# Poissons Ratio (y) = 0.24946 0.25461
# Poissons Ratio (z) = 0.36433 0.36795
#
# Static dielectric constant tensor:
#      x y z
#    x 3.045830 0.000000 -0.121240 
#    y 0.000000 3.198500 0.000000 
#    z -0.121240 0.000000 2.999500 
# 
# 
# High freq. dielectric constant tensor:
#      x y z
#    x 1.635490 0.000000 -0.011890 
#    y 0.000000 1.664440 0.000000 
#    z -0.011890 0.000000 1.625200 
# 
# From -- ./inp_files/319140.got.cif
#   From: 2010.06.25/outbox.cif.g09.slc.cpg/sg12_160_cif.got.tgz:319140.got - 2010.06.28 00:19:55.
