data_PCOD8089561
_publ_section_title
;
Structure prediction by ZEFSAII (Michael W. Deem and Ramdas Pophale) SiO2 
 PCOD8089561
Probable space group: C 2/M
;
_chemical_formula_sum "Si O2"
_cell_formula_units_Z 48
_cell_length_a 25.059234
_cell_length_b 8.819698
_cell_length_c 12.590778
_cell_angle_alpha 90.000000
_cell_angle_beta 109.689610
_cell_angle_gamma 90.000000
_cell_volume 2620.046504
_symmetry_space_group_name_H-M "C 2/M"
_symmetry_group_IT_number 12
_symmetry_cell_setting 'monoclinic'
loop_
_space_group_symop_operation_xyz
x,y,z
-x,y,-z
-x,-y,-z
x,-y,z
1/2+x,1/2+y,z
1/2-x,1/2+y,-z
1/2-x,1/2-y,-z
1/2+x,1/2-y,z
loop_
_atom_site_type_symbol
_atom_site_label
_atom_site_fract_x
_atom_site_fract_y
_atom_site_fract_z
Si Si1 0.686452 0.179366 0.620846
Si Si2 0.809421 0.819944 0.005762
Si Si3 0.808889 0.820959 0.767311
Si Si4 0.376666 0.321432 0.613154
Si Si5 0.387986 0.821194 0.230197
Si Si6 0.499614 0.678254 0.623078
O O1 0.748446 0.245871 0.689238
O O2 0.666995 0.247791 0.497180
O O3 0.644121 0.232363 0.685273
O O4 0.686757 0.000000 0.610579
O O5 0.860476 0.760682 0.111346
O O6 0.804689 0.000000 0.010897
O O7 0.750000 0.750000 0.000000
O O8 0.823483 0.764939 0.895420
O O9 0.858411 0.770022 0.719442
O O10 0.802862 0.000000 0.763840
O O11 0.372109 0.500000 0.594518
O O12 0.440530 0.267329 0.634481
O O13 0.452853 0.770220 0.281936
O O14 0.383535 0.000000 0.210431
O O15 0.500000 0.724020 0.500000
O O16 0.510344 0.500000 0.644926
#
# Coordination Sequence:
#
# PCOD8089561 Si02
#       6
#     8   8   8   8   8   8
#     4  10  19  33  53  80 114 141 175 224 276 328
#     4  11  21  37  59  82 111 144 183 227 271 322
#     4   9  19  36  55  79 111 145 179 222 271 328
#     4  10  20  35  56  80 110 145 182 222 273 326
#     4  11  22  36  56  83 111 144 183 225 275 323
#     4  10  20  35  55  82 110 141 185 230 268 319
#
# _framework density 18.320284999999998
#
# number of rings (size 3 to 8) (size 9 to 14) (size 15 to 20)
#    0.000    1.833    3.333    1.500    0.000    1.667 
#    0.000    2.500    0.000    5.000    0.000    0.000 
#    0.000    0.000    0.000    0.000    0.000    0.000 
#
# Total GULP energy -297649.651659 kJ/mol
# GULP energy per Si atom -12402.068819 kJ/mol
# Density = 1.827859 g / cm^3
# Si number density = 18.320285 Si / 1000 Ang^3
#
#
#
# Elastic Constant Matrix: (Units=GPa)
#
#
# Indices 1 2 3 4 5 6 
#
# 1 134.9811 30.1080 76.9499 0.0000 -6.6006 0.0000
# 2 30.1080 41.8832 39.3068 0.0000 -0.9765 0.0000
# 3 76.9499 39.3068 155.8889 0.0000 -6.6082 0.0000
# 4 0.0000 0.0000 0.0000 30.0310 0.0000 6.8591
# 5 -6.6006 -0.9765 -6.6082 0.0000 35.8465 0.0000
# 6 0.0000 0.0000 0.0000 6.8591 0.0000 22.6730
#
#
#
# Elastic Compliance Matrix: (Units=1/GPa)
#
#
# Indices 1 2 3 4 5 6 
#
# 1 0.010746 -0.003622 -0.004346 0.000000 0.001079 0.000000
# 2 -0.003622 0.032511 -0.006451 0.000000 -0.000970 0.000000
# 3 -0.004346 -0.006451 0.010225 0.000000 0.000909 0.000000
# 4 0.000000 0.000000 0.000000 0.035771 0.000000 -0.010821
# 5 0.001079 -0.000970 0.000909 0.000000 0.028237 0.000000
# 6 0.000000 0.000000 0.000000 -0.010821 0.000000 0.047379
#
#
# Mechanical properties :
#
#
# Convention : Reuss Voigt Hill
#
# Bulk Modulus (GPa) = 40.57485 69.49807 55.03646
# Shear Modulus (GPa) = 24.76226 30.13600 27.44913
#
# Velocity S-wave (km/s) = 3.68044 4.06020 3.87498
# Velocity P-wave (km/s) = 6.34480 7.74582 7.08005
#
# Compressibility (1/GPa) = 0.02464581
#
# Stress axis : x y z
#
# Youngs Moduli (GPa) = 93.05420 30.75904 97.79862
#
# Poissons Ratio (x) = 0.11139 0.42501
# Poissons Ratio (y) = 0.33700 0.63089
# Poissons Ratio (z) = 0.40439 0.19842
#
# Static dielectric constant tensor:
#      x y z
#    x 3.603810 0.000000 -0.111140 
#    y 0.000000 3.192770 0.000000 
#    z -0.111140 0.000000 3.524200 
# 
# 
# High freq. dielectric constant tensor:
#      x y z
#    x 1.713870 0.000000 -0.000380 
#    y 0.000000 1.694140 0.000000 
#    z -0.000380 0.000000 1.713900 
# 
# From -- ./inp_files/172385.got.cif
#   From: 2010.06.25/outbox.cif.g09.slc.cpg/sg12_87_cif.got.tgz:172385.got - 2010.06.28 00:19:55.
