data_PCOD8089140
_publ_section_title
;
Structure prediction by ZEFSAII (Michael W. Deem and Ramdas Pophale) SiO2 
 PCOD8089140
Probable space group: C 2/M
;
_chemical_formula_sum "Si O2"
_cell_formula_units_Z 56
_cell_length_a 19.833244
_cell_length_b 8.464031
_cell_length_c 31.998536
_cell_angle_alpha 90.000000
_cell_angle_beta 147.350632
_cell_angle_gamma 90.000000
_cell_volume 2897.942186
_symmetry_space_group_name_H-M "C 2/M"
_symmetry_group_IT_number 12
_symmetry_cell_setting 'monoclinic'
loop_
_space_group_symop_operation_xyz
x,y,z
-x,y,-z
-x,-y,-z
x,-y,z
1/2+x,1/2+y,z
1/2-x,1/2+y,-z
1/2-x,1/2-y,-z
1/2+x,1/2-y,z
loop_
_atom_site_type_symbol
_atom_site_label
_atom_site_fract_x
_atom_site_fract_y
_atom_site_fract_z
Si Si1 0.986405 0.811783 0.946675
Si Si2 0.989752 0.816807 0.621279
Si Si3 0.779702 0.678181 0.214687
Si Si4 0.853170 0.687125 0.628208
Si Si5 0.760133 0.188000 0.959604
Si Si6 0.918121 0.323244 0.202215
Si Si7 0.083713 0.685113 0.504176
O O1 0.861203 0.752987 0.857229
O O2 0.978422 0.000000 0.944728
O O3 0.000000 0.740499 0.000000
O O4 0.105834 0.748036 0.984593
O O5 0.882954 0.758702 0.597960
O O6 0.983764 0.724008 0.574503
O O7 0.128566 0.790682 0.711481
O O8 0.965924 0.000000 0.599902
O O9 0.789729 0.500000 0.238176
O O10 0.815014 0.676421 0.184539
O O11 0.871079 0.500000 0.633026
O O12 0.716907 0.727513 0.574077
O O13 0.954056 0.758295 0.714256
O O14 0.647342 0.259809 0.872062
O O15 0.756229 0.000000 0.954543
O O16 0.750000 0.250000 0.000000
O O17 0.954533 0.500000 0.208047
O O18 0.108412 0.500000 0.520729
O O19 0.000000 0.743400 0.500000
#
# Coordination Sequence:
#
# PCOD8089140 Si02
#       7
#     8   8   8   8   8   8   8
#     4   9  15  28  56  82 101 136 189 235 268 314
#     4  11  22  37  59  86 116 148 185 228 274 332
#     4   9  16  31  56  84 107 135 184 239 279 314
#     4  10  20  37  63  89 111 144 187 231 277 329
#     4  10  19  33  51  76 109 145 183 223 271 324
#     4   8  15  30  54  79 105 139 180 223 267 318
#     4  11  24  42  61  83 114 148 182 226 277 331
#
# _framework density 19.324058000000001
#
# number of rings (size 3 to 8) (size 9 to 14) (size 15 to 20)
#    0.000    2.286    1.429    3.429    0.000    1.143 
#    2.571    4.286    0.000    0.857    0.000    0.000 
#    0.000    0.000    0.000    0.000    0.000    0.000 
#
# Total GULP energy -347031.807691 kJ/mol
# GULP energy per Si atom -12393.993132 kJ/mol
# Density = 1.928008 g / cm^3
# Si number density = 19.324058 Si / 1000 Ang^3
#
#
#
# Elastic Constant Matrix: (Units=GPa)
#
#
# Indices 1 2 3 4 5 6 
#
# 1 129.1936 11.0395 70.1875 0.0000 0.6475 0.0000
# 2 11.0395 32.4008 8.0063 0.0002 1.0772 -0.0001
# 3 70.1875 8.0063 138.2545 0.0000 2.7708 0.0000
# 4 0.0000 0.0002 0.0000 21.7264 -0.0001 -0.8493
# 5 0.6475 1.0772 2.7708 -0.0001 30.3210 0.0001
# 6 0.0000 -0.0001 0.0000 -0.8493 0.0001 23.8479
#
#
#
# Elastic Compliance Matrix: (Units=1/GPa)
#
#
# Indices 1 2 3 4 5 6 
#
# 1 0.010869 -0.002384 -0.005387 0.000000 0.000345 0.000000
# 2 -0.002384 0.031861 -0.000615 0.000000 -0.001025 0.000000
# 3 -0.005387 -0.000615 0.010019 0.000000 -0.000779 0.000000
# 4 0.000000 0.000000 0.000000 0.046091 0.000000 0.001641
# 5 0.000345 -0.001025 -0.000779 0.000000 0.033081 0.000000
# 6 0.000000 0.000000 0.000000 0.001641 0.000000 0.041991
#
#
# Mechanical properties :
#
#
# Convention : Reuss Voigt Hill
#
# Bulk Modulus (GPa) = 27.79343 53.14617 40.46980
# Shear Modulus (GPa) = 24.67015 29.22008 26.94512
#
# Velocity S-wave (km/s) = 3.57691 3.89280 3.73819
# Velocity P-wave (km/s) = 5.61009 6.91141 6.29446
#
# Compressibility (1/GPa) = 0.03597972
#
# Stress axis : x y z
#
# Youngs Moduli (GPa) = 92.00779 31.38585 99.81218
#
# Poissons Ratio (x) = 0.07481 0.53764
# Poissons Ratio (y) = 0.21931 0.06134
# Poissons Ratio (z) = 0.49560 0.01929
#
# Static dielectric constant tensor:
#      x y z
#    x 3.350130 0.000000 0.120450 
#    y 0.000000 3.178530 0.000000 
#    z 0.120450 0.000000 3.741150 
# 
# 
# High freq. dielectric constant tensor:
#      x y z
#    x 1.734130 0.000000 0.008670 
#    y 0.000000 1.718370 0.000000 
#    z 0.008670 0.000000 1.773240 
# 
# From -- ./inp_files/363182.got.cif
#   From: 2010.06.25/outbox.cif.g09.slc.cpg/sg12_182_cif.got.tgz:363182.got - 2010.06.28 00:19:55.
