data_PCOD8089501
_publ_section_title
;
Structure prediction by ZEFSAII (Michael W. Deem and Ramdas Pophale) SiO2 
 PCOD8089501
Probable space group: C 2/M
;
_chemical_formula_sum "Si O2"
_cell_formula_units_Z 48
_cell_length_a 22.224348
_cell_length_b 9.107970
_cell_length_c 12.508161
_cell_angle_alpha 90.000000
_cell_angle_beta 100.809518
_cell_angle_gamma 90.000000
_cell_volume 2486.960123
_symmetry_space_group_name_H-M "C 2/M"
_symmetry_group_IT_number 12
_symmetry_cell_setting 'monoclinic'
loop_
_space_group_symop_operation_xyz
x,y,z
-x,y,-z
-x,-y,-z
x,-y,z
1/2+x,1/2+y,z
1/2-x,1/2+y,-z
1/2-x,1/2-y,-z
1/2+x,1/2-y,z
loop_
_atom_site_type_symbol
_atom_site_label
_atom_site_fract_x
_atom_site_fract_y
_atom_site_fract_z
Si Si1 0.883535 0.828295 0.701096
Si Si2 0.432387 0.675482 0.491710
Si Si3 0.347596 0.662162 0.283811
Si Si4 0.683527 0.323389 0.957550
Si Si5 0.230837 0.662834 0.388648
Si Si6 0.433687 0.328362 0.942602
O O1 0.910570 0.766739 0.599268
O O2 0.820332 0.745064 0.696998
O O3 0.928337 0.793083 0.814731
O O4 0.869457 0.000000 0.690062
O O5 0.500000 0.734258 0.500000
O O6 0.427077 0.500000 0.487988
O O7 0.394085 0.745195 0.380202
O O8 0.374469 0.500000 0.270151
O O9 0.338786 0.737109 0.165782
O O10 0.284277 0.650719 0.322627
O O11 0.692370 0.500000 0.963809
O O12 0.750000 0.250000 0.000000
O O13 0.628373 0.269992 0.018626
O O14 0.209795 0.500000 0.417103
O O15 0.250000 0.750000 0.500000
O O16 0.436144 0.500000 0.967618
O O17 0.500000 0.259289 0.000000
#
# Coordination Sequence:
#
# PCOD8089501 Si02
#       6
#     8   8   8   8   8   8
#     4  10  19  33  53  78 107 135 171 215 261 313
#     4   9  17  28  47  75 101 130 170 212 251 298
#     4   9  18  31  49  75 102 130 168 209 251 304
#     4  10  20  35  55  77 106 140 177 218 261 312
#     4  11  20  33  52  77 106 135 170 212 260 312
#     4   9  19  33  53  83 111 138 176 226 272 308
#
# _framework density 19.300671999999999
#
# number of rings (size 3 to 8) (size 9 to 14) (size 15 to 20)
#    0.000    2.333    1.667    1.500    2.333    0.000 
#    0.000    0.833    0.000    2.500    0.000    0.000 
#    0.000    0.000    0.000    0.000    0.000    0.000 
#
# Total GULP energy -297342.873883 kJ/mol
# GULP energy per Si atom -12389.286412 kJ/mol
# Density = 1.925674 g / cm^3
# Si number density = 19.300672 Si / 1000 Ang^3
#
#
#
# Elastic Constant Matrix: (Units=GPa)
#
#
# Indices 1 2 3 4 5 6 
#
# 1 140.3421 21.8557 69.7655 0.0000 23.4773 0.0000
# 2 21.8557 35.1423 28.8106 0.0000 9.1064 0.0000
# 3 69.7655 28.8106 165.8820 0.0000 15.6400 0.0000
# 4 0.0000 0.0000 0.0000 6.2102 0.0000 -0.9282
# 5 23.4773 9.1064 15.6400 0.0000 34.3402 0.0000
# 6 0.0000 0.0000 0.0000 -0.9282 0.0000 18.4841
#
#
#
# Elastic Compliance Matrix: (Units=1/GPa)
#
#
# Indices 1 2 3 4 5 6 
#
# 1 0.009914 -0.002214 -0.003345 0.000000 -0.004667 0.000000
# 2 -0.002214 0.035101 -0.004629 0.000000 -0.005686 0.000000
# 3 -0.003345 -0.004629 0.008263 0.000000 -0.000249 0.000000
# 4 0.000000 0.000000 0.000000 0.162244 0.000000 0.008147
# 5 -0.004667 -0.005686 -0.000249 0.000000 0.033932 0.000000
# 6 0.000000 0.000000 0.000000 0.008147 0.000000 0.054510
#
#
# Mechanical properties :
#
#
# Convention : Reuss Voigt Hill
#
# Bulk Modulus (GPa) = 30.39365 64.69223 47.54294
# Shear Modulus (GPa) = 14.91173 26.53586 20.72380
#
# Velocity S-wave (km/s) = 2.78259 3.71194 3.28034
# Velocity P-wave (km/s) = 5.10934 7.20848 6.24770
#
# Compressibility (1/GPa) = 0.03290161
#
# Stress axis : x y z
#
# Youngs Moduli (GPa) = 100.86978 28.48902 121.02698
#
# Poissons Ratio (x) = 0.06307 0.40482
# Poissons Ratio (y) = 0.22332 0.56026
# Poissons Ratio (z) = 0.33740 0.13188
#
# Static dielectric constant tensor:
#      x y z
#    x 3.724850 0.000000 0.156370 
#    y 0.000000 2.738070 0.000000 
#    z 0.156370 0.000000 3.640610 
# 
# 
# High freq. dielectric constant tensor:
#      x y z
#    x 1.758520 0.000000 0.004810 
#    y 0.000000 1.686600 0.000000 
#    z 0.004810 0.000000 1.771820 
# 
# From -- ./inp_files/164253.got.cif
#   From: 2010.06.25/outbox.cif.g09.slc.cpg/sg12_83_cif.got.tgz:164253.got - 2010.06.28 00:19:55.
