data_PCOD8089219
_publ_section_title
;
Structure prediction by ZEFSAII (Michael W. Deem and Ramdas Pophale) SiO2 
 PCOD8089219
Probable space group: C 2/M
;
_chemical_formula_sum "Si O2"
_cell_formula_units_Z 52
_cell_length_a 12.622878
_cell_length_b 13.368551
_cell_length_c 19.484576
_cell_angle_alpha 90.000000
_cell_angle_beta 126.312883
_cell_angle_gamma 90.000000
_cell_volume 2649.465869
_symmetry_space_group_name_H-M "C 2/M"
_symmetry_group_IT_number 12
_symmetry_cell_setting 'monoclinic'
loop_
_space_group_symop_operation_xyz
x,y,z
-x,y,-z
-x,-y,-z
x,-y,z
1/2+x,1/2+y,z
1/2-x,1/2+y,-z
1/2-x,1/2-y,-z
1/2+x,1/2-y,z
loop_
_atom_site_type_symbol
_atom_site_label
_atom_site_fract_x
_atom_site_fract_y
_atom_site_fract_z
Si Si1 0.870822 0.115014 0.056193
Si Si2 0.000000 0.695783 0.500000
Si Si3 0.358041 0.207704 0.950493
Si Si4 0.460493 0.613545 0.750025
Si Si5 0.766637 0.715384 0.641513
Si Si6 0.817367 0.210455 0.244582
Si Si7 0.993170 0.385423 0.645862
O O1 0.731859 0.134576 0.039655
O O2 0.988483 0.141708 0.154179
O O3 0.877079 0.000000 0.035438
O O4 0.880332 0.183841 0.993405
O O5 0.872589 0.767307 0.448764
O O6 0.983814 0.626803 0.560480
O O7 0.300985 0.226400 0.853322
O O8 0.500000 0.154677 0.000000
O O9 0.413091 0.500000 0.728329
O O10 0.335762 0.678188 0.680873
O O11 0.579263 0.628835 0.742271
O O12 0.740506 0.667662 0.706416
O O13 0.855056 0.643365 0.628800
O O14 0.889266 0.317548 0.280223
O O15 0.024928 0.500000 0.675961
#
# Coordination Sequence:
#
# PCOD8089219 Si02
#       7
#     8   4   8   8   8   8   8
#     4   9  19  34  51  74 103 135 176 219 255 299
#     4  10  21  38  55  78 108 134 163 208 255 302
#     4  10  19  33  52  74 103 138 173 213 261 304
#     4   9  18  34  54  74 100 138 177 212 254 302
#     4  10  20  36  56  78 105 135 169 208 253 304
#     4   9  20  35  51  75 106 136 170 214 257 301
#     4  10  21  37  57  79 104 135 170 207 251 304
#
# _framework density 19.626597
#
# number of rings (size 3 to 8) (size 9 to 14) (size 15 to 20)
#    0.000    2.462    0.000    1.615    0.000    6.154 
#    0.000    0.385    0.000    0.000    0.000    0.000 
#    0.000    0.000    0.000    0.000    0.000    0.000 
#
# Total GULP energy -322410.163146 kJ/mol
# GULP energy per Si atom -12400.390890 kJ/mol
# Density = 1.958193 g / cm^3
# Si number density = 19.626597 Si / 1000 Ang^3
#
#
#
# Elastic Constant Matrix: (Units=GPa)
#
#
# Indices 1 2 3 4 5 6 
#
# 1 77.8462 -12.1470 25.4761 0.0000 9.1010 0.0000
# 2 -12.1470 35.3285 4.6229 0.0000 4.8492 0.0000
# 3 25.4761 4.6229 94.7567 0.0000 16.0581 0.0000
# 4 0.0000 0.0000 0.0000 19.0904 0.0000 -1.4729
# 5 9.1010 4.8492 16.0581 0.0000 28.6542 0.0000
# 6 0.0000 0.0000 0.0000 -1.4729 0.0000 12.3063
#
#
#
# Elastic Compliance Matrix: (Units=1/GPa)
#
#
# Indices 1 2 3 4 5 6 
#
# 1 0.015549 0.006379 -0.003836 0.000000 -0.003868 0.000000
# 2 0.006379 0.031632 -0.002218 0.000000 -0.006136 0.000000
# 3 -0.003836 -0.002218 0.012622 0.000000 -0.005479 0.000000
# 4 0.000000 0.000000 0.000000 0.052870 0.000000 0.006328
# 5 -0.003868 -0.006136 -0.005479 0.000000 0.040237 0.000000
# 6 0.000000 0.000000 0.000000 0.006328 0.000000 0.082017
#
#
# Mechanical properties :
#
#
# Convention : Reuss Voigt Hill
#
# Bulk Modulus (GPa) = 16.54230 27.09282 21.81756
# Shear Modulus (GPa) = 19.65198 24.67548 22.16373
#
# Velocity S-wave (km/s) = 3.16776 3.54961 3.36411
# Velocity P-wave (km/s) = 4.67187 5.53478 5.12153
#
# Compressibility (1/GPa) = 0.06045108
#
# Stress axis : x y z
#
# Youngs Moduli (GPa) = 64.31329 31.61396 79.22975
#
# Poissons Ratio (x) = -0.20167 0.30393
# Poissons Ratio (y) = -0.41026 0.17577
# Poissons Ratio (z) = 0.24671 0.07013
#
# Static dielectric constant tensor:
#      x y z
#    x 3.803730 0.000000 -0.040340 
#    y 0.000000 3.224620 0.000000 
#    z -0.040340 0.000000 3.629400 
# 
# 
# High freq. dielectric constant tensor:
#      x y z
#    x 1.782300 0.000000 -0.000820 
#    y 0.000000 1.738810 0.000000 
#    z -0.000820 0.000000 1.768650 
# 
# From -- ./inp_files/263023.got.cif
#   From: 2010.06.25/outbox.cif.g09.slc.cpg/sg12_132_cif.got.tgz:263023.got - 2010.06.28 00:19:55.
