data_PCOD8089513
_publ_section_title
;
Structure prediction by ZEFSAII (Michael W. Deem and Ramdas Pophale) SiO2 
 PCOD8089513
Probable space group: C 2/M
;
_chemical_formula_sum "Si O2"
_cell_formula_units_Z 56
_cell_length_a 7.609038
_cell_length_b 25.328387
_cell_length_c 21.802063
_cell_angle_alpha 90.000000
_cell_angle_beta 45.732637
_cell_angle_gamma 90.000000
_cell_volume 3008.865392
_symmetry_space_group_name_H-M "C 2/M"
_symmetry_group_IT_number 12
_symmetry_cell_setting 'monoclinic'
loop_
_space_group_symop_operation_xyz
x,y,z
-x,y,-z
-x,-y,-z
x,-y,z
1/2+x,1/2+y,z
1/2-x,1/2+y,-z
1/2-x,1/2-y,-z
1/2+x,1/2-y,z
loop_
_atom_site_type_symbol
_atom_site_label
_atom_site_fract_x
_atom_site_fract_y
_atom_site_fract_z
Si Si1 0.205422 0.688830 0.500000
Si Si2 0.109165 0.809876 0.844736
Si Si3 0.811869 0.617260 0.094063
Si Si4 0.850244 0.866083 0.673108
Si Si5 0.511904 0.190126 0.844735
Si Si6 0.960675 0.061716 0.269661
Si Si7 0.457330 0.133916 0.673108
O O1 0.250000 0.750000 0.500000
O O2 0.452988 0.661642 0.417769
O O3 0.000000 0.679280 0.500000
O O4 0.124062 0.661642 0.582232
O O5 0.258461 0.821014 0.870773
O O6 0.022098 0.750001 0.863952
O O7 0.274533 0.821686 0.744581
O O8 0.872994 0.847085 0.900651
O O9 0.975578 0.652917 0.099351
O O10 0.664304 0.573022 0.167846
O O11 0.000000 0.590132 0.000000
O O12 0.747151 0.821684 0.744579
O O13 0.631999 0.888909 0.684002
O O14 0.960626 0.914663 0.684107
O O15 0.697045 0.085335 0.315893
O O16 0.928606 0.000000 0.285697
#
# Coordination Sequence:
#
# PCOD8089513 Si02
#       7
#     8   8   8   8   8   8   8
#     4  12  22  34  56  90 125 159 188 226 272 327
#     4  10  19  33  53  78 112 156 188 221 273 341
#     4  10  22  37  55  83 114 142 184 236 285 345
#     4  10  21  37  57  83 117 149 194 238 278 331
#     4  10  19  33  53  78 112 156 188 221 273 341
#     4  10  22  42  64  82 107 147 194 244 292 337
#     4  10  21  37  57  83 117 149 194 238 278 331
#
# _framework density 18.611666
#
# number of rings (size 3 to 8) (size 9 to 14) (size 15 to 20)
#    0.000    1.714    2.857    2.143    0.000    4.286 
#    0.000    1.429    0.000    1.714    0.000    8.000 
#    0.000    0.000    0.000    0.000    0.000    0.000 
#
# Total GULP energy -347254.411855 kJ/mol
# GULP energy per Si atom -12401.943281 kJ/mol
# Density = 1.856930 g / cm^3
# Si number density = 18.611666 Si / 1000 Ang^3
#
#
#
# Elastic Constant Matrix: (Units=GPa)
#
#
# Indices 1 2 3 4 5 6 
#
# 1 136.9394 39.1800 24.3728 0.0000 -1.0230 0.0000
# 2 39.1800 106.7431 29.0061 0.0000 -0.1181 0.0000
# 3 24.3728 29.0061 114.0945 0.0000 0.7560 0.0000
# 4 0.0000 0.0000 0.0000 12.3759 0.0000 -0.0903
# 5 -1.0230 -0.1181 0.7560 0.0000 11.4132 0.0000
# 6 0.0000 0.0000 0.0000 -0.0903 0.0000 20.2914
#
#
#
# Elastic Compliance Matrix: (Units=1/GPa)
#
#
# Indices 1 2 3 4 5 6 
#
# 1 0.008286 -0.002748 -0.001077 0.000000 0.000786 0.000000
# 2 -0.002748 0.010976 -0.002203 0.000000 0.000013 0.000000
# 3 -0.001077 -0.002203 0.009560 0.000000 -0.000753 0.000000
# 4 0.000000 0.000000 0.000000 0.080805 0.000000 0.000359
# 5 0.000786 0.000013 -0.000753 0.000000 0.087739 0.000000
# 6 0.000000 0.000000 0.000000 0.000359 0.000000 0.049283
#
#
# Mechanical properties :
#
#
# Convention : Reuss Voigt Hill
#
# Bulk Modulus (GPa) = 59.64603 60.32162 59.98383
# Shear Modulus (GPa) = 18.91838 26.49731 22.70784
#
# Velocity S-wave (km/s) = 3.19169 3.77728 3.49676
# Velocity P-wave (km/s) = 6.76016 7.17668 6.97153
#
# Compressibility (1/GPa) = 0.01676558
#
# Stress axis : x y z
#
# Youngs Moduli (GPa) = 120.68198 91.11032 104.60448
#
# Poissons Ratio (x) = 0.25037 0.11263
# Poissons Ratio (y) = 0.33164 0.23049
# Poissons Ratio (z) = 0.12994 0.20075
#
# Static dielectric constant tensor:
#      x y z
#    x 3.790530 0.000000 -0.003550 
#    y 0.000000 3.021210 0.000000 
#    z -0.003550 0.000000 3.478360 
# 
# 
# High freq. dielectric constant tensor:
#      x y z
#    x 1.747340 0.000000 -0.000240 
#    y 0.000000 1.686570 0.000000 
#    z -0.000240 0.000000 1.726680 
# 
# From -- ./inp_files/333969.got.cif
#   From: 2010.06.25/outbox.cif.g09.slc.cpg/sg12_167_cif.got.tgz:333969.got - 2010.06.28 00:19:55.
