data_PCOD8089568
_publ_section_title
;
Structure prediction by ZEFSAII (Michael W. Deem and Ramdas Pophale) SiO2 
 PCOD8089568
Probable space group: C 2/M
;
_chemical_formula_sum "Si O2"
_cell_formula_units_Z 64
_cell_length_a 20.725199
_cell_length_b 18.269611
_cell_length_c 12.980210
_cell_angle_alpha 90.000000
_cell_angle_beta 137.629727
_cell_angle_gamma 90.000000
_cell_volume 3312.207475
_symmetry_space_group_name_H-M "C 2/M"
_symmetry_group_IT_number 12
_symmetry_cell_setting 'monoclinic'
loop_
_space_group_symop_operation_xyz
x,y,z
-x,y,-z
-x,-y,-z
x,-y,z
1/2+x,1/2+y,z
1/2-x,1/2+y,-z
1/2-x,1/2-y,-z
1/2+x,1/2-y,z
loop_
_atom_site_type_symbol
_atom_site_label
_atom_site_fract_x
_atom_site_fract_y
_atom_site_fract_z
Si Si1 0.392805 0.721511 0.220324
Si Si2 0.603161 0.692897 0.168626
Si Si3 0.161385 0.085678 0.420774
Si Si4 0.960087 0.344428 0.589604
Si Si5 0.674731 0.813209 0.383384
Si Si6 0.489884 0.420331 0.367075
Si Si7 0.224556 0.798966 0.111203
Si Si8 0.367216 0.914854 0.280722
O O1 0.492562 0.763357 0.360422
O O2 0.407422 0.635232 0.240181
O O3 0.314747 0.743438 0.214215
O O4 0.354662 0.734576 0.059124
O O5 0.626625 0.629138 0.278041
O O6 0.603877 0.775260 0.217260
O O7 0.684275 0.692472 0.177495
O O8 0.500000 0.675833 0.000000
O O9 0.263272 0.117293 0.581831
O O10 0.088920 0.100227 0.428435
O O11 0.171413 0.000000 0.405124
O O12 0.887958 0.345840 0.598636
O O13 0.900065 0.367450 0.418664
O O14 0.049412 0.401965 0.706891
O O15 0.750000 0.750000 0.500000
O O16 0.500000 0.418672 0.500000
O O17 0.456059 0.500000 0.288888
O O18 0.266810 0.878924 0.125736
O O19 0.354109 0.000000 0.290694
#
# Coordination Sequence:
#
# PCOD8089568 Si02
#       8
#     8   8   8   8   8   8   8   8
#     4  10  21  37  58  81 116 141 192 232 271 331
#     4  11  22  37  58  83 116 149 183 225 281 339
#     4  10  22  38  56  85 115 145 186 230 280 337
#     4  10  19  33  53  81 110 149 182 224 271 326
#     4  10  20  33  54  79 113 148 186 222 268 326
#     4  10  22  37  58  81 106 146 190 234 279 319
#     4  10  22  36  56  87 111 150 182 226 283 329
#     4  10  21  35  56  86 115 142 183 229 283 339
#
# _framework density 19.32246
#
# number of rings (size 3 to 8) (size 9 to 14) (size 15 to 20)
#    0.000    1.875    0.000    5.250    5.250    3.250 
#    0.000    0.000    0.000    0.375    0.000    0.000 
#    0.000    0.000    0.000    0.000    0.000    0.000 
#
# Total GULP energy -396511.115156 kJ/mol
# GULP energy per Si atom -12390.972349 kJ/mol
# Density = 1.927848 g / cm^3
# Si number density = 19.322460 Si / 1000 Ang^3
#
#
#
# Elastic Constant Matrix: (Units=GPa)
#
#
# Indices 1 2 3 4 5 6 
#
# 1 150.4707 63.4105 26.3585 0.0000 -10.0427 0.0000
# 2 63.4105 140.2642 46.1146 0.0000 5.9475 0.0000
# 3 26.3585 46.1146 49.7243 0.0000 3.8369 0.0000
# 4 0.0000 0.0000 0.0000 29.8850 0.0000 -10.7626
# 5 -10.0427 5.9475 3.8369 0.0000 23.5664 0.0000
# 6 0.0000 0.0000 0.0000 -10.7626 0.0000 46.5855
#
#
#
# Elastic Compliance Matrix: (Units=1/GPa)
#
#
# Indices 1 2 3 4 5 6 
#
# 1 0.008802 -0.003639 -0.001672 0.000000 0.004942 0.000000
# 2 -0.003639 0.011787 -0.008763 0.000000 -0.003099 0.000000
# 3 -0.001672 -0.008763 0.029378 0.000000 -0.003284 0.000000
# 4 0.000000 0.000000 0.000000 0.036498 0.000000 0.008432
# 5 0.004942 -0.003099 -0.003284 0.000000 0.045856 0.000000
# 6 0.000000 0.000000 0.000000 0.008432 0.000000 0.023414
#
#
# Mechanical properties :
#
#
# Convention : Reuss Voigt Hill
#
# Bulk Modulus (GPa) = 45.83427 68.02516 56.92972
# Shear Modulus (GPa) = 26.15650 33.64575 29.90113
#
# Velocity S-wave (km/s) = 3.68324 4.17739 3.93807
# Velocity P-wave (km/s) = 6.46997 7.65174 7.08553
#
# Compressibility (1/GPa) = 0.02181773
#
# Stress axis : x y z
#
# Youngs Moduli (GPa) = 113.60937 84.83958 34.03912
#
# Poissons Ratio (x) = 0.30872 0.05693
# Poissons Ratio (y) = 0.41341 0.29829
# Poissons Ratio (z) = 0.19001 0.74347
#
# Static dielectric constant tensor:
#      x y z
#    x 3.776610 0.000000 0.175990 
#    y 0.000000 3.814490 0.000000 
#    z 0.175990 0.000000 3.616290 
# 
# 
# High freq. dielectric constant tensor:
#      x y z
#    x 1.767230 0.000000 0.010030 
#    y 0.000000 1.748700 0.000000 
#    z 0.010030 0.000000 1.730930 
# 
# From -- ./inp_files/168816.got.cif
#   From: 2010.06.25/outbox.cif.g09.slc.cpg/sg12_85_cif.got.tgz:168816.got - 2010.06.28 00:19:55.
