data_PCOD8089800
_publ_section_title
;
Structure prediction by ZEFSAII (Michael W. Deem and Ramdas Pophale) SiO2 
 PCOD8089800
Probable space group: C 2/M
;
_chemical_formula_sum "Si O2"
_cell_formula_units_Z 56
_cell_length_a 28.323024
_cell_length_b 8.888577
_cell_length_c 17.263318
_cell_angle_alpha 90.000000
_cell_angle_beta 43.810427
_cell_angle_gamma 90.000000
_cell_volume 3008.669422
_symmetry_space_group_name_H-M "C 2/M"
_symmetry_group_IT_number 12
_symmetry_cell_setting 'monoclinic'
loop_
_space_group_symop_operation_xyz
x,y,z
-x,y,-z
-x,-y,-z
x,-y,z
1/2+x,1/2+y,z
1/2-x,1/2+y,-z
1/2-x,1/2-y,-z
1/2+x,1/2-y,z
loop_
_atom_site_type_symbol
_atom_site_label
_atom_site_fract_x
_atom_site_fract_y
_atom_site_fract_z
Si Si1 0.771514 0.671416 0.285221
Si Si2 0.180364 0.673935 0.608252
Si Si3 0.659082 0.824355 0.228727
Si Si4 0.062239 0.822143 0.651381
Si Si5 0.700710 0.824653 0.919107
Si Si6 0.579679 0.822799 0.170555
Si Si7 0.366738 0.176415 0.568759
O O1 0.743761 0.500000 0.313975
O O2 0.825081 0.688921 0.291819
O O3 0.808368 0.715046 0.161089
O O4 0.707361 0.779813 0.376918
O O5 0.179684 0.500000 0.582908
O O6 0.250000 0.750000 0.500000
O O7 0.116604 0.758004 0.647380
O O8 0.731342 0.747903 0.126355
O O9 0.605922 0.780848 0.225211
O O10 0.627688 0.771906 0.348277
O O11 0.674057 0.000000 0.212796
O O12 0.075693 0.761173 0.548730
O O13 0.988386 0.768718 0.766466
O O14 0.066791 0.000000 0.646245
O O15 0.708043 0.000000 0.925586
O O16 0.634749 0.765011 0.042731
O O17 0.565149 0.000000 0.179938
O O18 0.378590 0.000000 0.544856
#
# Coordination Sequence:
#
# PCOD8089800 Si02
#       7
#     8   8   8   8   8   8   8
#     4   9  18  33  55  84 111 136 174 222 267 318
#     4  11  21  35  58  84 111 141 178 220 270 326
#     4   9  19  34  56  84 110 141 181 224 270 322
#     4  12  25  38  53  77 110 145 185 228 274 325
#     4   9  18  34  58  84 110 142 180 222 266 317
#     4  10  21  38  56  77 110 149 185 221 267 323
#     4  10  19  33  54  80 110 142 177 221 274 325
#
# _framework density 18.612880000000001
#
# number of rings (size 3 to 8) (size 9 to 14) (size 15 to 20)
#    0.000    2.000    1.429    2.571    0.000    2.857 
#    0.000    3.571    0.000    4.286    0.000    0.000 
#    0.000    0.000    0.000    0.000    0.000    0.000 
#
# Total GULP energy -347245.818091 kJ/mol
# GULP energy per Si atom -12401.636360 kJ/mol
# Density = 1.857052 g / cm^3
# Si number density = 18.612880 Si / 1000 Ang^3
#
#
#
# Elastic Constant Matrix: (Units=GPa)
#
#
# Indices 1 2 3 4 5 6 
#
# 1 98.1401 38.2852 42.6625 -0.0086 -8.4322 0.0036
# 2 38.2852 84.6496 36.4091 -0.0191 -9.1612 0.0076
# 3 42.6625 36.4091 84.1500 -0.0029 -11.4532 0.0107
# 4 -0.0086 -0.0191 -0.0029 29.8382 0.0051 -5.4545
# 5 -8.4322 -9.1612 -11.4532 0.0051 26.6293 0.0018
# 6 0.0036 0.0076 0.0107 -5.4545 0.0018 26.2255
#
#
#
# Elastic Compliance Matrix: (Units=1/GPa)
#
#
# Indices 1 2 3 4 5 6 
#
# 1 0.014139 -0.004020 -0.005319 0.000001 0.000806 0.000002
# 2 -0.004020 0.015807 -0.004498 0.000008 0.002231 -0.000001
# 3 -0.005319 -0.004498 0.017087 -0.000005 0.004117 -0.000006
# 4 0.000001 0.000008 -0.000005 0.034839 -0.000006 0.007246
# 5 0.000806 0.002231 0.004117 -0.000006 0.040346 -0.000006
# 6 0.000002 -0.000001 -0.000006 0.007246 -0.000006 0.039638
#
#
# Mechanical properties :
#
#
# Convention : Reuss Voigt Hill
#
# Bulk Modulus (GPa) = 51.65370 55.73927 53.69648
# Shear Modulus (GPa) = 25.51237 26.51082 26.01160
#
# Velocity S-wave (km/s) = 3.70629 3.77812 3.74238
# Velocity P-wave (km/s) = 6.79171 7.00313 6.89823
#
# Compressibility (1/GPa) = 0.01935970
#
# Stress axis : x y z
#
# Youngs Moduli (GPa) = 70.72474 63.26139 58.52454
#
# Poissons Ratio (x) = 0.25429 0.31132
# Poissons Ratio (y) = 0.28429 0.26323
# Poissons Ratio (z) = 0.37622 0.28454
#
# Static dielectric constant tensor:
#      x y z
#    x 3.149140 0.000110 0.256450 
#    y 0.000110 3.421950 0.000040 
#    z 0.256450 0.000040 3.539110 
# 
# 
# High freq. dielectric constant tensor:
#      x y z
#    x 1.720730 0.000000 0.017040 
#    y 0.000000 1.722420 0.000000 
#    z 0.017040 0.000000 1.717190 
# 
# From -- ./inp_files/288146.got.cif
#   From: 2010.06.25/outbox.cif.g09.slc.cpg/sg12_145_cif.got.tgz:288146.got - 2010.06.28 00:19:55.
