data_PCOD8089599
_publ_section_title
;
Structure prediction by ZEFSAII (Michael W. Deem and Ramdas Pophale) SiO2 
 PCOD8089599
Probable space group: C 2/M
;
_chemical_formula_sum "Si O2"
_cell_formula_units_Z 64
_cell_length_a 20.002896
_cell_length_b 8.985053
_cell_length_c 20.847466
_cell_angle_alpha 90.000000
_cell_angle_beta 115.427455
_cell_angle_gamma 90.000000
_cell_volume 3383.895134
_symmetry_space_group_name_H-M "C 2/M"
_symmetry_group_IT_number 12
_symmetry_cell_setting 'monoclinic'
loop_
_space_group_symop_operation_xyz
x,y,z
-x,y,-z
-x,-y,-z
x,-y,z
1/2+x,1/2+y,z
1/2-x,1/2+y,-z
1/2-x,1/2-y,-z
1/2+x,1/2-y,z
loop_
_atom_site_type_symbol
_atom_site_label
_atom_site_fract_x
_atom_site_fract_y
_atom_site_fract_z
Si Si1 0.144252 0.825971 0.294566
Si Si2 0.321952 0.172799 0.557901
Si Si3 0.775532 0.672146 0.911731
Si Si4 0.982864 0.823901 0.195519
Si Si5 0.085263 0.824276 0.701345
Si Si6 0.022633 0.329913 0.437027
Si Si7 0.738579 0.826036 0.766093
Si Si8 0.361101 0.327490 0.052109
O O1 0.158025 0.737292 0.364864
O O2 0.067585 0.769624 0.230632
O O3 0.208239 0.790541 0.271071
O O4 0.139640 0.000000 0.309884
O O5 0.250000 0.250000 0.500000
O O6 0.390057 0.199317 0.537090
O O7 0.304200 0.000000 0.558529
O O8 0.788360 0.500000 0.902731
O O9 0.773667 0.757171 0.844146
O O10 0.699525 0.701220 0.917882
O O11 0.844161 0.732440 0.981898
O O12 0.940685 0.761878 0.240544
O O13 0.939753 0.771614 0.113465
O O14 0.978662 0.000000 0.196741
O O15 0.161223 0.745358 0.714223
O O16 0.022509 0.784251 0.624770
O O17 0.098232 0.000000 0.707231
O O18 0.002710 0.500000 0.410268
O O19 0.000000 0.295277 0.500000
O O20 0.728400 0.000000 0.773290
O O21 0.362601 0.500000 0.032814
#
# Coordination Sequence:
#
# PCOD8089599 Si02
#       8
#     8   8   8   8   8   8   8   8
#     4  10  22  41  62  83 114 155 196 238 286 343
#     4  11  24  41  62  87 118 156 194 235 285 343
#     4  10  19  33  53  83 117 149 190 239 289 340
#     4   9  17  35  60  84 109 145 192 238 282 336
#     4  11  21  37  62  88 115 148 193 245 289 336
#     4  10  23  42  61  86 120 154 190 235 288 343
#     4  11  23  37  57  85 118 155 193 237 292 348
#     4   9  17  32  55  82 112 147 188 236 290 341
#
# _framework density 18.913115000000001
#
# number of rings (size 3 to 8) (size 9 to 14) (size 15 to 20)
#    0.000    1.875    2.500    1.500    1.750    2.250 
#    0.000    1.250    0.000    3.750    0.000    0.000 
#    0.000    0.000    0.000    0.000    0.000    0.000 
#
# Total GULP energy -396857.103712 kJ/mol
# GULP energy per Si atom -12401.784491 kJ/mol
# Density = 1.887007 g / cm^3
# Si number density = 18.913115 Si / 1000 Ang^3
#
#
#
# Elastic Constant Matrix: (Units=GPa)
#
#
# Indices 1 2 3 4 5 6 
#
# 1 110.5814 50.4650 49.9427 0.0000 16.1304 0.0000
# 2 50.4650 73.3472 38.6473 0.0000 0.0054 0.0000
# 3 49.9427 38.6473 104.1783 0.0000 19.0220 0.0000
# 4 0.0000 0.0000 0.0000 37.9281 0.0000 0.6244
# 5 16.1304 0.0054 19.0220 0.0000 34.2732 0.0000
# 6 0.0000 0.0000 0.0000 0.6244 0.0000 18.5234
#
#
#
# Elastic Compliance Matrix: (Units=1/GPa)
#
#
# Indices 1 2 3 4 5 6 
#
# 1 0.015281 -0.008930 -0.003004 0.000000 -0.005523 0.000000
# 2 -0.008930 0.022642 -0.005436 0.000000 0.007217 0.000000
# 3 -0.003004 -0.005436 0.014241 0.000000 -0.006489 0.000000
# 4 0.000000 0.000000 0.000000 0.026380 0.000000 -0.000889
# 5 -0.005523 0.007217 -0.006489 0.000000 0.035377 0.000000
# 6 0.000000 0.000000 0.000000 -0.000889 0.000000 0.054016
#
#
# Mechanical properties :
#
#
# Convention : Reuss Voigt Hill
#
# Bulk Modulus (GPa) = 57.39808 62.91300 60.15554
# Shear Modulus (GPa) = 23.98247 28.08172 26.03210
#
# Velocity S-wave (km/s) = 3.56481 3.85746 3.71402
# Velocity P-wave (km/s) = 6.88172 7.29222 7.08994
#
# Compressibility (1/GPa) = 0.01742218
#
# Stress axis : x y z
#
# Youngs Moduli (GPa) = 65.44023 44.16587 70.22184
#
# Poissons Ratio (x) = 0.39442 0.21097
# Poissons Ratio (y) = 0.58441 0.38172
# Poissons Ratio (z) = 0.19660 0.24008
#
# Static dielectric constant tensor:
#      x y z
#    x 3.711530 0.000000 0.242420 
#    y 0.000000 3.413010 0.000000 
#    z 0.242420 0.000000 3.658540 
# 
# 
# High freq. dielectric constant tensor:
#      x y z
#    x 1.729470 0.000000 0.009630 
#    y 0.000000 1.728360 0.000000 
#    z 0.009630 0.000000 1.745810 
# 
# From -- ./inp_files/320053.got.cif
#   From: 2010.06.25/outbox.cif.g09.slc.cpg/sg12_161_cif.got.tgz:320053.got - 2010.06.28 00:19:55.
