data_PCOD8089276
_publ_section_title
;
Structure prediction by ZEFSAII (Michael W. Deem and Ramdas Pophale) SiO2 
 PCOD8089276
Probable space group: C 2/M
;
_chemical_formula_sum "Si O2"
_cell_formula_units_Z 64
_cell_length_a 23.660015
_cell_length_b 8.883111
_cell_length_c 20.039678
_cell_angle_alpha 90.000000
_cell_angle_beta 122.481997
_cell_angle_gamma 90.000000
_cell_volume 3552.932364
_symmetry_space_group_name_H-M "C 2/M"
_symmetry_group_IT_number 12
_symmetry_cell_setting 'monoclinic'
loop_
_space_group_symop_operation_xyz
x,y,z
-x,y,-z
-x,-y,-z
x,-y,z
1/2+x,1/2+y,z
1/2-x,1/2+y,-z
1/2-x,1/2-y,-z
1/2+x,1/2-y,z
loop_
_atom_site_type_symbol
_atom_site_label
_atom_site_fract_x
_atom_site_fract_y
_atom_site_fract_z
Si Si1 0.040522 0.823018 0.232119
Si Si2 0.639439 0.678887 0.040340
Si Si3 0.904133 0.321173 0.121834
Si Si4 0.714402 0.323126 0.573935
Si Si5 0.778409 0.826973 0.276930
Si Si6 0.121763 0.324656 0.165463
Si Si7 0.208532 0.676637 0.848385
Si Si8 0.656949 0.674845 0.401894
O O1 0.077961 0.766533 0.190184
O O2 0.084381 0.787187 0.325968
O O3 0.972440 0.731256 0.200011
O O4 0.026057 0.000000 0.215745
O O5 0.632466 0.500000 0.041428
O O6 0.605334 0.756349 0.082532
O O7 0.717109 0.730398 0.084174
O O8 0.600271 0.739377 0.951739
O O9 0.902916 0.500000 0.111363
O O10 0.843114 0.263026 0.129194
O O11 0.724629 0.500000 0.583838
O O12 0.690641 0.269292 0.632615
O O13 0.660822 0.276238 0.482727
O O14 0.787315 0.259356 0.604890
O O15 0.699217 0.798091 0.230968
O O16 0.811799 0.737216 0.237428
O O17 0.794952 0.000000 0.274106
O O18 0.101985 0.500000 0.154676
O O19 0.204320 0.500000 0.841315
O O20 0.673554 0.500000 0.405349
#
# Coordination Sequence:
#
# PCOD8089276 Si02
#       8
#     8   8   8   8   8   8   8   8
#     4  11  22  35  51  74 105 141 175 210 251 302
#     4  10  20  36  57  80 103 128 162 214 263 305
#     4  11  23  38  54  74  99 135 175 212 254 305
#     4   9  16  29  49  77 107 134 167 205 250 301
#     4   9  17  29  51  79 106 133 165 207 254 301
#     4  10  19  33  52  77 106 138 169 205 253 306
#     4   9  20  36  55  77 102 130 167 213 259 301
#     4   9  18  30  48  74 106 138 168 206 249 298
#
# _framework density 18.013289
#
# number of rings (size 3 to 8) (size 9 to 14) (size 15 to 20)
#    0.000    2.250    1.250    1.875    0.000    3.500 
#    0.000    2.500    0.000    0.750    0.000    5.250 
#    0.000    0.000    0.000    0.000    0.000    0.000 
#
# Total GULP energy -396767.337263 kJ/mol
# GULP energy per Si atom -12398.979289 kJ/mol
# Density = 1.797229 g / cm^3
# Si number density = 18.013289 Si / 1000 Ang^3
#
#
#
# Elastic Constant Matrix: (Units=GPa)
#
#
# Indices 1 2 3 4 5 6 
#
# 1 36.6199 13.9376 24.8854 0.0000 -1.9934 0.0000
# 2 13.9376 33.7967 22.2736 0.0000 -2.7580 0.0000
# 3 24.8854 22.2736 112.1347 0.0000 -14.3764 0.0000
# 4 0.0000 0.0000 0.0000 25.7240 0.0000 -2.6911
# 5 -1.9934 -2.7580 -14.3764 0.0000 20.8496 0.0000
# 6 0.0000 0.0000 0.0000 -2.6911 0.0000 27.2892
#
#
#
# Elastic Compliance Matrix: (Units=1/GPa)
#
#
# Indices 1 2 3 4 5 6 
#
# 1 0.035372 -0.010824 -0.005978 0.000000 -0.002172 0.000000
# 2 -0.010824 0.037359 -0.004956 0.000000 0.000490 0.000000
# 3 -0.005978 -0.004956 0.012145 0.000000 0.007147 0.000000
# 4 0.000000 0.000000 0.000000 0.039279 0.000000 0.003874
# 5 -0.002172 0.000490 0.007147 0.000000 0.052748 0.000000
# 6 0.000000 0.000000 0.000000 0.003874 0.000000 0.037026
#
#
# Mechanical properties :
#
#
# Convention : Reuss Voigt Hill
#
# Bulk Modulus (GPa) = 24.17858 33.86050 29.01954
# Shear Modulus (GPa) = 18.43438 22.86956 20.65197
#
# Velocity S-wave (km/s) = 3.20250 3.56700 3.38965
# Velocity P-wave (km/s) = 5.20830 5.98356 5.60934
#
# Compressibility (1/GPa) = 0.04135893
#
# Stress axis : x y z
#
# Youngs Moduli (GPa) = 28.27118 26.76761 82.33679
#
# Poissons Ratio (x) = 0.28974 0.49223
# Poissons Ratio (y) = 0.30602 0.40803
# Poissons Ratio (z) = 0.16901 0.13265
#
# Static dielectric constant tensor:
#      x y z
#    x 3.286960 0.000000 -0.175000 
#    y 0.000000 3.335280 0.000000 
#    z -0.175000 0.000000 3.650680 
# 
# 
# High freq. dielectric constant tensor:
#      x y z
#    x 1.672530 0.000000 -0.018570 
#    y 0.000000 1.701200 0.000000 
#    z -0.018570 0.000000 1.703560 
# 
# From -- ./inp_files/324076.got.cif
#   From: 2010.06.25/outbox.cif.g09.slc.cpg/sg12_163_cif.got.tgz:324076.got - 2010.06.28 00:19:55.
