data_PCOD8089639
_publ_section_title
;
Structure prediction by ZEFSAII (Michael W. Deem and Ramdas Pophale) SiO2 
 PCOD8089639
Probable space group: C 2/M
;
_chemical_formula_sum "Si O2"
_cell_formula_units_Z 64
_cell_length_a 25.500960
_cell_length_b 9.476503
_cell_length_c 17.120610
_cell_angle_alpha 90.000000
_cell_angle_beta 58.798708
_cell_angle_gamma 90.000000
_cell_volume 3538.906087
_symmetry_space_group_name_H-M "C 2/M"
_symmetry_group_IT_number 12
_symmetry_cell_setting 'monoclinic'
loop_
_space_group_symop_operation_xyz
x,y,z
-x,y,-z
-x,-y,-z
x,-y,z
1/2+x,1/2+y,z
1/2-x,1/2+y,-z
1/2-x,1/2-y,-z
1/2+x,1/2-y,z
loop_
_atom_site_type_symbol
_atom_site_label
_atom_site_fract_x
_atom_site_fract_y
_atom_site_fract_z
Si Si1 0.876909 0.332599 0.385796
Si Si2 0.403114 0.658740 0.659937
Si Si3 0.882721 0.335523 0.906385
Si Si4 0.982873 0.334617 0.707901
Si Si5 0.200988 0.839756 0.133266
Si Si6 0.172676 0.665670 0.897319
Si Si7 0.191809 0.333269 0.713581
Si Si8 0.670860 0.334041 0.432164
O O1 0.868747 0.500000 0.402174
O O2 0.848436 0.274653 0.326958
O O3 0.840786 0.255520 0.481933
O O4 0.947802 0.287440 0.331870
O O5 0.429515 0.500000 0.638546
O O6 0.456692 0.759319 0.650763
O O7 0.343397 0.668272 0.758756
O O8 0.381939 0.704886 0.589749
O O9 0.871084 0.500000 0.901393
O O10 0.945241 0.288083 0.814966
O O11 0.824199 0.255664 0.916995
O O12 0.884095 0.302159 0.999166
O O13 0.977060 0.500000 0.697463
O O14 0.265572 0.775132 0.110709
O O15 0.206894 0.000000 0.098150
O O16 0.182308 0.500000 0.878817
O O17 0.164168 0.729673 0.816681
O O18 0.185564 0.500000 0.717819
O O19 0.262669 0.288566 0.651410
O O20 0.669759 0.500000 0.452631
#
# Coordination Sequence:
#
# PCOD8089639 Si02
#       8
#     8   8   8   8   8   8   8   8
#     4  10  21  35  51  69  94 131 166 194 235 286
#     4   9  17  30  50  74  96 123 157 197 240 284
#     4   9  17  28  45  69  97 127 157 189 228 276
#     4   9  19  34  47  67 102 134 159 191 231 279
#     4   9  15  26  45  69  97 124 152 188 235 286
#     4   9  15  26  47  72  95 122 155 192 236 281
#     4   9  17  32  52  73  97 124 156 199 244 283
#     4  10  19  33  54  76  96 117 155 206 248 284
#
# _framework density 18.084683999999999
#
# number of rings (size 3 to 8) (size 9 to 14) (size 15 to 20)
#    0.000    2.750    1.250    0.750    0.000    1.500 
#    0.000    3.125    0.000    6.000    0.000    0.000 
#    0.000    5.000    0.000    0.000    0.000    0.000 
#
# Total GULP energy -396619.572222 kJ/mol
# GULP energy per Si atom -12394.361632 kJ/mol
# Density = 1.804352 g / cm^3
# Si number density = 18.084684 Si / 1000 Ang^3
#
#
#
# Elastic Constant Matrix: (Units=GPa)
#
#
# Indices 1 2 3 4 5 6 
#
# 1 91.5459 23.0997 39.3680 0.0000 15.0842 0.0000
# 2 23.0997 24.3722 18.5307 0.0000 7.4939 0.0000
# 3 39.3680 18.5307 95.5202 0.0000 29.7916 0.0000
# 4 0.0000 0.0000 0.0000 21.9732 0.0000 1.3350
# 5 15.0842 7.4939 29.7916 0.0000 23.3642 0.0000
# 6 0.0000 0.0000 0.0000 1.3350 0.0000 17.3403
#
#
#
# Elastic Compliance Matrix: (Units=1/GPa)
#
#
# Indices 1 2 3 4 5 6 
#
# 1 0.015712 -0.011550 -0.003697 0.000000 -0.001726 0.000000
# 2 -0.011550 0.057109 -0.004867 0.000000 -0.004654 0.000000
# 3 -0.003697 -0.004867 0.019434 0.000000 -0.020833 0.000000
# 4 0.000000 0.000000 0.000000 0.045724 0.000000 -0.003520
# 5 -0.001726 -0.004654 -0.020833 0.000000 0.071972 0.000000
# 6 0.000000 0.000000 0.000000 -0.003520 0.000000 0.057940
#
#
# Mechanical properties :
#
#
# Convention : Reuss Voigt Hill
#
# Bulk Modulus (GPa) = 19.22063 41.49279 30.35671
# Shear Modulus (GPa) = 15.36278 21.23152 18.29715
#
# Velocity S-wave (km/s) = 2.91777 3.43009 3.18425
# Velocity P-wave (km/s) = 4.69066 6.21939 5.50832
#
# Compressibility (1/GPa) = 0.05202743
#
# Stress axis : x y z
#
# Youngs Moduli (GPa) = 63.64556 17.51032 51.45541
#
# Poissons Ratio (x) = 0.20225 0.19021
# Poissons Ratio (y) = 0.73513 0.25043
# Poissons Ratio (z) = 0.23528 0.08522
#
# Static dielectric constant tensor:
#      x y z
#    x 3.343070 0.000000 0.124610 
#    y 0.000000 3.090610 0.000000 
#    z 0.124610 0.000000 3.597810 
# 
# 
# High freq. dielectric constant tensor:
#      x y z
#    x 1.686080 0.000000 0.003520 
#    y 0.000000 1.664550 0.000000 
#    z 0.003520 0.000000 1.713910 
# 
# From -- ./inp_files/232460.got.cif
#   From: 2010.06.25/outbox.cif.g09.slc.cpg/sg12_117_cif.got.tgz:232460.got - 2010.06.28 00:19:55.
