data_PCOD8089943
_publ_section_title
;
Structure prediction by ZEFSAII (Michael W. Deem and Ramdas Pophale) SiO2 
 PCOD8089943
Probable space group: C 2/M
;
_chemical_formula_sum "Si O2"
_cell_formula_units_Z 64
_cell_length_a 24.598315
_cell_length_b 11.297656
_cell_length_c 25.419882
_cell_angle_alpha 90.000000
_cell_angle_beta 150.597445
_cell_angle_gamma 90.000000
_cell_volume 3468.150672
_symmetry_space_group_name_H-M "C 2/M"
_symmetry_group_IT_number 12
_symmetry_cell_setting 'monoclinic'
loop_
_space_group_symop_operation_xyz
x,y,z
-x,y,-z
-x,-y,-z
x,-y,z
1/2+x,1/2+y,z
1/2-x,1/2+y,-z
1/2-x,1/2-y,-z
1/2+x,1/2-y,z
loop_
_atom_site_type_symbol
_atom_site_label
_atom_site_fract_x
_atom_site_fract_y
_atom_site_fract_z
Si Si1 0.140750 0.635436 0.519783
Si Si2 0.250905 0.130066 0.941509
Si Si3 0.496686 0.871260 0.306698
Si Si4 0.618764 0.364886 0.238407
Si Si5 0.566907 0.743090 0.847721
Si Si6 0.120238 0.860006 0.121266
Si Si7 0.180745 0.252954 0.777451
Si Si8 0.494064 0.634430 0.557179
O O1 0.108661 0.500000 0.514704
O O2 0.114932 0.637931 0.435696
O O3 0.270756 0.653976 0.635321
O O4 0.084065 0.751691 0.497647
O O5 0.155013 0.143718 0.904700
O O6 0.234942 0.209791 0.877194
O O7 0.249367 0.000000 0.917563
O O8 0.367171 0.151632 0.068482
O O9 0.495536 0.780176 0.258139
O O10 0.406302 0.852074 0.276953
O O11 0.477011 0.000000 0.265555
O O12 0.582704 0.500000 0.203953
O O13 0.519986 0.299699 0.183514
O O14 0.634658 0.314893 0.193072
O O15 0.219629 0.803614 0.172528
O O16 0.131742 0.000000 0.125611
O O17 0.000000 0.816817 0.000000
O O18 0.113044 0.155947 0.685992
O O19 0.500000 0.631086 0.500000
O O20 0.453983 0.500000 0.541611
#
# Coordination Sequence:
#
# PCOD8089943 Si02
#       8
#     8   8   8   8   8   8   8   8
#     4   9  19  35  55  79 106 138 177 220 265 316
#     4  10  20  34  52  75 101 132 175 219 259 309
#     4   9  18  33  53  78 105 133 173 222 265 308
#     4  10  20  35  54  77 107 138 172 215 263 318
#     4  10  20  33  53  76 102 137 171 213 266 314
#     4  10  20  33  52  79 108 138 175 221 269 316
#     4  10  19  33  55  77 103 139 176 216 265 315
#     4  10  20  34  53  78 109 142 178 221 267 316
#
# _framework density 18.453638999999999
#
# number of rings (size 3 to 8) (size 9 to 14) (size 15 to 20)
#    0.000    2.250    0.000    3.000    0.000    1.250 
#    0.000    5.625    0.000    9.750    0.000    0.000 
#    0.000    0.000    0.000    0.000    0.000    0.000 
#
# Total GULP energy -396419.868355 kJ/mol
# GULP energy per Si atom -12388.120886 kJ/mol
# Density = 1.841164 g / cm^3
# Si number density = 18.453639 Si / 1000 Ang^3
#
#
#
# Elastic Constant Matrix: (Units=GPa)
#
#
# Indices 1 2 3 4 5 6 
#
# 1 98.3268 29.1952 30.5943 -0.0001 4.5786 0.0000
# 2 29.1952 91.7202 24.6445 -0.0001 7.0878 -0.0001
# 3 30.5943 24.6445 102.9859 -0.0003 -4.8460 -0.0001
# 4 -0.0001 -0.0001 -0.0003 15.9125 -0.0001 -0.7752
# 5 4.5786 7.0878 -4.8460 -0.0001 26.6562 -0.0001
# 6 0.0000 -0.0001 -0.0001 -0.7752 -0.0001 12.9569
#
#
#
# Elastic Compliance Matrix: (Units=1/GPa)
#
#
# Indices 1 2 3 4 5 6 
#
# 1 0.012039 -0.002892 -0.002971 0.000000 -0.001839 0.000000
# 2 -0.002892 0.012707 -0.002337 0.000000 -0.003307 0.000000
# 3 -0.002971 -0.002337 0.011302 0.000000 0.003186 0.000000
# 4 0.000000 0.000000 0.000000 0.063027 0.000000 0.003771
# 5 -0.001839 -0.003307 0.003186 0.000000 0.039289 0.000000
# 6 0.000000 0.000000 0.000000 0.003771 0.000000 0.077405
#
#
# Mechanical properties :
#
#
# Convention : Reuss Voigt Hill
#
# Bulk Modulus (GPa) = 50.89674 51.32232 51.10953
# Shear Modulus (GPa) = 20.94526 25.01172 22.97849
#
# Velocity S-wave (km/s) = 3.37266 3.68554 3.53257
# Velocity P-wave (km/s) = 6.54272 6.78107 6.66296
#
# Compressibility (1/GPa) = 0.01964762
#
# Stress axis : x y z
#
# Youngs Moduli (GPa) = 83.06469 78.69858 88.48058
#
# Poissons Ratio (x) = 0.22757 0.26287
# Poissons Ratio (y) = 0.24019 0.20680
# Poissons Ratio (z) = 0.24678 0.18394
#
# Static dielectric constant tensor:
#      x y z
#    x 3.205140 0.000000 -0.167730 
#    y 0.000000 3.490630 0.000000 
#    z -0.167730 0.000000 3.647110 
# 
# 
# High freq. dielectric constant tensor:
#      x y z
#    x 1.698180 0.000000 -0.017330 
#    y 0.000000 1.708250 0.000000 
#    z -0.017330 0.000000 1.736330 
# 
# From -- ./inp_files/349397.got.cif
#   From: 2010.06.25/outbox.cif.g09.slc.cpg/sg12_175_cif.got.tgz:349397.got - 2010.06.28 00:19:55.
