data_PCOD8089694
_publ_section_title
;
Structure prediction by ZEFSAII (Michael W. Deem and Ramdas Pophale) SiO2 
 PCOD8089694
Probable space group: C 2/M
;
_chemical_formula_sum "Si O2"
_cell_formula_units_Z 56
_cell_length_a 19.112468
_cell_length_b 9.233047
_cell_length_c 26.447464
_cell_angle_alpha 90.000000
_cell_angle_beta 140.821835
_cell_angle_gamma 90.000000
_cell_volume 2948.356915
_symmetry_space_group_name_H-M "C 2/M"
_symmetry_group_IT_number 12
_symmetry_cell_setting 'monoclinic'
loop_
_space_group_symop_operation_xyz
x,y,z
-x,y,-z
-x,-y,-z
x,-y,z
1/2+x,1/2+y,z
1/2-x,1/2+y,-z
1/2-x,1/2-y,-z
1/2+x,1/2-y,z
loop_
_atom_site_type_symbol
_atom_site_label
_atom_site_fract_x
_atom_site_fract_y
_atom_site_fract_z
Si Si1 0.151547 0.834885 0.919657
Si Si2 0.408709 0.335772 0.801885
Si Si3 0.309857 0.338711 0.491963
Si Si4 0.693893 0.168010 0.737133
Si Si5 0.619539 0.834588 0.312392
Si Si6 0.461067 0.329480 0.422693
Si Si7 0.586150 0.671623 0.769615
O O1 0.136973 0.789807 0.852867
O O2 0.037762 0.805105 0.887306
O O3 0.186766 0.000000 0.942704
O O4 0.250000 0.750000 0.000000
O O5 0.400471 0.500000 0.775359
O O6 0.327433 0.318276 0.804534
O O7 0.371200 0.223178 0.738814
O O8 0.304560 0.500000 0.509266
O O9 0.250000 0.250000 0.500000
O O10 0.244638 0.323033 0.402669
O O11 0.436714 0.293181 0.556881
O O12 0.638916 0.234474 0.655535
O O13 0.662130 0.257346 0.769111
O O14 0.659041 0.000000 0.723555
O O15 0.536820 0.739691 0.301010
O O16 0.576887 0.000000 0.288407
O O17 0.500000 0.279630 0.500000
O O18 0.429838 0.500000 0.405202
O O19 0.578740 0.500000 0.755915
#
# Coordination Sequence:
#
# PCOD8089694 Si02
#       7
#     8   8   8   8   8   8   8
#     4   9  19  37  60  84 109 138 172 212 261 319
#     4   9  20  37  55  78 109 141 172 212 264 316
#     4  10  21  33  47  70  99 132 172 221 271 315
#     4  11  22  36  55  80 109 143 186 229 267 315
#     4  10  19  33  54  78 101 133 183 228 263 317
#     4  10  21  37  54  73 103 144 185 227 278 325
#     4  10  21  37  56  80 112 146 177 217 272 323
#
# _framework density 18.99363
#
# number of rings (size 3 to 8) (size 9 to 14) (size 15 to 20)
#    0.000    2.143    0.000    3.857    0.000    9.429 
#    0.000    0.714    0.000    4.286    0.000    0.000 
#    0.000    0.000    0.000    0.000    0.000    0.000 
#
# Total GULP energy -347120.361902 kJ/mol
# GULP energy per Si atom -12397.155782 kJ/mol
# Density = 1.895040 g / cm^3
# Si number density = 18.993630 Si / 1000 Ang^3
#
#
#
# Elastic Constant Matrix: (Units=GPa)
#
#
# Indices 1 2 3 4 5 6 
#
# 1 88.4326 46.0423 26.0610 0.0000 11.6163 0.0000
# 2 46.0423 94.0844 38.6100 0.0000 7.7151 0.0000
# 3 26.0610 38.6100 75.2787 0.0000 13.8950 0.0000
# 4 0.0000 0.0000 0.0000 32.6976 0.0000 -2.0706
# 5 11.6163 7.7151 13.8950 0.0000 23.5691 0.0000
# 6 0.0000 0.0000 0.0000 -2.0706 0.0000 32.7811
#
#
#
# Elastic Compliance Matrix: (Units=1/GPa)
#
#
# Indices 1 2 3 4 5 6 
#
# 1 0.015874 -0.006944 -0.001021 0.000000 -0.004949 0.000000
# 2 -0.006944 0.016503 -0.006390 0.000000 0.001788 0.000000
# 3 -0.001021 -0.006390 0.018443 0.000000 -0.008278 0.000000
# 4 0.000000 0.000000 0.000000 0.030706 0.000000 0.001940
# 5 -0.004949 0.001788 -0.008278 0.000000 0.049163 0.000000
# 6 0.000000 0.000000 0.000000 0.001940 0.000000 0.030628
#
#
# Mechanical properties :
#
#
# Convention : Reuss Voigt Hill
#
# Bulk Modulus (GPa) = 45.22745 53.24695 49.23720
# Shear Modulus (GPa) = 25.32987 27.61506 26.47247
#
# Velocity S-wave (km/s) = 3.65581 3.81716 3.73735
# Velocity P-wave (km/s) = 6.45628 6.89366 6.67855
#
# Compressibility (1/GPa) = 0.02211046
#
# Stress axis : x y z
#
# Youngs Moduli (GPa) = 62.99553 60.59650 54.22180
#
# Poissons Ratio (x) = 0.42076 0.05534
# Poissons Ratio (y) = 0.43742 0.34649
# Poissons Ratio (z) = 0.06430 0.38722
#
# Static dielectric constant tensor:
#      x y z
#    x -0.703290 0.000000 5.379830 
#    y 0.000000 3.549330 0.000000 
#    z 5.379830 0.000000 -2.990350 
# 
# 
# High freq. dielectric constant tensor:
#      x y z
#    x 1.743870 0.000000 0.013400 
#    y 0.000000 1.744240 0.000000 
#    z 0.013400 0.000000 1.720180 
# 
# From -- ./inp_files/342317.got.cif
#   From: 2010.06.25/outbox.cif.g09.slc.cpg/sg12_172_cif.got.tgz:342317.got - 2010.06.28 00:19:55.
