data_PCOD8089414
_publ_section_title
;
Structure prediction by ZEFSAII (Michael W. Deem and Ramdas Pophale) SiO2 
 PCOD8089414
Probable space group: C 2/M
;
_chemical_formula_sum "Si O2"
_cell_formula_units_Z 56
_cell_length_a 15.867664
_cell_length_b 16.772784
_cell_length_c 12.830859
_cell_angle_alpha 90.000000
_cell_angle_beta 113.034287
_cell_angle_gamma 90.000000
_cell_volume 3142.603255
_symmetry_space_group_name_H-M "C 2/M"
_symmetry_group_IT_number 12
_symmetry_cell_setting 'monoclinic'
loop_
_space_group_symop_operation_xyz
x,y,z
-x,y,-z
-x,-y,-z
x,-y,z
1/2+x,1/2+y,z
1/2-x,1/2+y,-z
1/2-x,1/2-y,-z
1/2+x,1/2-y,z
loop_
_atom_site_type_symbol
_atom_site_label
_atom_site_fract_x
_atom_site_fract_y
_atom_site_fract_z
Si Si1 0.585407 0.710815 0.809683
Si Si2 0.737787 0.408427 0.832189
Si Si3 0.102933 0.703346 0.031779
Si Si4 0.731076 0.907599 0.598444
Si Si5 0.099740 0.720543 0.593340
Si Si6 0.747969 0.841090 0.382711
Si Si7 0.878236 0.208198 0.751741
O O1 0.646056 0.631385 0.833221
O O2 0.604060 0.765514 0.718651
O O3 0.479562 0.685709 0.763544
O O4 0.615888 0.760922 0.924017
O O5 0.735338 0.500000 0.863273
O O6 0.828205 0.370147 0.925882
O O7 0.740781 0.399865 0.709077
O O8 0.125403 0.772168 0.126945
O O9 0.000000 0.671029 0.000000
O O10 0.635506 0.868715 0.589373
O O11 0.742479 0.896253 0.480602
O O12 0.814928 0.868012 0.701367
O O13 0.728620 0.000000 0.625475
O O14 0.165331 0.782403 0.564756
O O15 0.000000 0.733154 0.500000
O O16 0.657255 0.786197 0.328023
#
# Coordination Sequence:
#
# PCOD8089414 Si02
#       7
#     8   8   8   8   8   8   8
#     4  10  19  34  55  75  98 129 166 206 243 288
#     4  10  20  32  50  78 105 126 157 207 257 290
#     4   9  19  36  56  73  94 131 172 203 235 290
#     4  11  21  32  49  74 105 134 162 201 248 297
#     4  10  19  33  53  75  99 129 168 206 243 289
#     4   9  18  34  53  71  96 134 173 203 237 289
#     4   9  18  35  55  72  94 131 175 204 235 289
#
# _framework density 17.819621000000001
#
# number of rings (size 3 to 8) (size 9 to 14) (size 15 to 20)
#    0.000    2.286    0.000    5.143    0.000    1.143 
#    0.000    2.857    0.000    8.143    0.000    0.000 
#    0.000    0.000    0.000    0.000    0.000    0.000 
#
# Total GULP energy -347273.978758 kJ/mol
# GULP energy per Si atom -12402.642098 kJ/mol
# Density = 1.777906 g / cm^3
# Si number density = 17.819621 Si / 1000 Ang^3
#
#
#
# Elastic Constant Matrix: (Units=GPa)
#
#
# Indices 1 2 3 4 5 6 
#
# 1 96.6648 48.6242 57.4001 0.0000 10.7187 0.0000
# 2 48.6242 116.3109 41.6342 0.0000 3.3332 0.0000
# 3 57.4001 41.6342 83.1469 0.0000 6.7035 0.0000
# 4 0.0000 0.0000 0.0000 17.9020 0.0000 -1.2805
# 5 10.7187 3.3332 6.7035 0.0000 34.1881 0.0000
# 6 0.0000 0.0000 0.0000 -1.2805 0.0000 13.1011
#
#
#
# Elastic Compliance Matrix: (Units=1/GPa)
#
#
# Indices 1 2 3 4 5 6 
#
# 1 0.019307 -0.004022 -0.011033 0.000000 -0.003498 0.000000
# 2 -0.004022 0.011313 -0.002948 0.000000 0.000736 0.000000
# 3 -0.011033 -0.002948 0.021152 0.000000 -0.000401 0.000000
# 4 0.000000 0.000000 0.000000 0.056253 0.000000 0.005498
# 5 -0.003498 0.000736 -0.000401 0.000000 0.030353 0.000000
# 6 0.000000 0.000000 0.000000 0.005498 0.000000 0.076867
#
#
# Mechanical properties :
#
#
# Convention : Reuss Voigt Hill
#
# Bulk Modulus (GPa) = 63.42238 65.71550 64.56894
# Shear Modulus (GPa) = 19.49272 22.93585 21.21428
#
# Velocity S-wave (km/s) = 3.31099 3.59153 3.45411
# Velocity P-wave (km/s) = 7.09122 7.35914 7.22643
#
# Compressibility (1/GPa) = 0.01576731
#
# Stress axis : x y z
#
# Youngs Moduli (GPa) = 51.79364 88.39326 47.27770
#
# Poissons Ratio (x) = 0.35552 0.52161
# Poissons Ratio (y) = 0.20832 0.13935
# Poissons Ratio (z) = 0.57143 0.26054
#
# Static dielectric constant tensor:
#      x y z
#    x 3.521050 0.000000 0.089990 
#    y 0.000000 2.984010 0.000000 
#    z 0.089990 0.000000 3.452370 
# 
# 
# High freq. dielectric constant tensor:
#      x y z
#    x 1.700640 0.000000 0.002630 
#    y 0.000000 1.660070 0.000000 
#    z 0.002630 0.000000 1.703630 
# 
# From -- ./inp_files/145681.got.cif
#   From: 2010.06.25/outbox.cif.g09.slc.cpg/sg12_73_cif.got.tgz:145681.got - 2010.06.28 00:19:55.
