data_PCOD8089508
_publ_section_title
;
Structure prediction by ZEFSAII (Michael W. Deem and Ramdas Pophale) SiO2 
 PCOD8089508
Probable space group: C 2/M
;
_chemical_formula_sum "Si O2"
_cell_formula_units_Z 64
_cell_length_a 16.103472
_cell_length_b 17.206939
_cell_length_c 11.777146
_cell_angle_alpha 90.000000
_cell_angle_beta 107.894077
_cell_angle_gamma 90.000000
_cell_volume 3105.486018
_symmetry_space_group_name_H-M "C 2/M"
_symmetry_group_IT_number 12
_symmetry_cell_setting 'monoclinic'
loop_
_space_group_symop_operation_xyz
x,y,z
-x,y,-z
-x,-y,-z
x,-y,z
1/2+x,1/2+y,z
1/2-x,1/2+y,-z
1/2-x,1/2-y,-z
1/2+x,1/2-y,z
loop_
_atom_site_type_symbol
_atom_site_label
_atom_site_fract_x
_atom_site_fract_y
_atom_site_fract_z
Si Si1 0.653989 0.585478 0.734650
Si Si2 0.833078 0.586823 0.928017
Si Si3 0.768028 0.679002 0.090720
Si Si4 0.900857 0.293310 0.784116
Si Si5 0.083543 0.138988 0.101224
Si Si6 0.543169 0.585902 0.318823
Si Si7 0.572245 0.747925 0.439142
Si Si8 0.293170 0.742806 0.331688
O O1 0.661892 0.500000 0.678532
O O2 0.729992 0.592444 0.860347
O O3 0.559810 0.594695 0.753197
O O4 0.667102 0.655528 0.652896
O O5 0.869866 0.500000 0.947629
O O6 0.889630 0.628488 0.852478
O O7 0.839690 0.624899 0.056145
O O8 0.676100 0.634447 0.074652
O O9 0.814529 0.709000 0.225380
O O10 0.750000 0.750000 0.000000
O O11 0.942900 0.228606 0.882560
O O12 0.950542 0.299369 0.683861
O O13 0.809903 0.257683 0.700337
O O14 0.094979 0.091014 0.222188
O O15 0.000000 0.103837 0.000000
O O16 0.561790 0.500000 0.380854
O O17 0.573214 0.654943 0.414515
O O18 0.500000 0.768569 0.500000
O O19 0.662681 0.777517 0.536153
#
# Coordination Sequence:
#
# PCOD8089508 Si02
#       8
#     8   8   8   8   8   8   8   8
#     4   9  16  28  49  77 111 147 176 208 253 314
#     4  10  19  34  58  82 107 140 182 223 275 329
#     4  11  19  34  56  84 109 141 177 229 274 319
#     4   9  20  36  52  79 107 139 181 232 267 312
#     4  10  20  31  54  80 112 149 186 218 267 326
#     4  10  21  33  46  76 122 156 180 214 259 317
#     4  11  21  34  54  79 104 148 192 223 261 319
#     4  10  19  33  53  78 109 142 185 224 267 306
#
# _framework density 20.608691
#
# number of rings (size 3 to 8) (size 9 to 14) (size 15 to 20)
#    0.000    2.000    5.000    1.125    0.000    1.500 
#    0.000    0.000    0.000    1.500    0.000    0.000 
#    0.000    0.000    0.000    0.000    0.000    0.000 
#
# Total GULP energy -396428.584410 kJ/mol
# GULP energy per Si atom -12388.393263 kJ/mol
# Density = 2.056178 g / cm^3
# Si number density = 20.608691 Si / 1000 Ang^3
#
#
#
# Elastic Constant Matrix: (Units=GPa)
#
#
# Indices 1 2 3 4 5 6 
#
# 1 46.9334 12.6321 17.2100 0.0000 -17.6008 0.0000
# 2 12.6321 91.2655 30.7718 0.0000 -13.7766 0.0000
# 3 17.2100 30.7718 88.3618 0.0000 -18.5401 0.0000
# 4 0.0000 0.0000 0.0000 17.8665 0.0000 -4.4120
# 5 -17.6008 -13.7766 -18.5401 0.0000 36.9998 0.0000
# 6 0.0000 0.0000 0.0000 -4.4120 0.0000 21.4707
#
#
#
# Elastic Compliance Matrix: (Units=1/GPa)
#
#
# Indices 1 2 3 4 5 6 
#
# 1 0.026659 -0.001198 -0.002467 0.000000 0.010999 0.000000
# 2 -0.001198 0.012723 -0.003714 0.000000 0.002307 0.000000
# 3 -0.002467 -0.003714 0.014030 0.000000 0.004474 0.000000
# 4 0.000000 0.000000 0.000000 0.058963 0.000000 0.012116
# 5 0.010999 0.002307 0.004474 0.000000 0.035360 0.000000
# 6 0.000000 0.000000 0.000000 0.012116 0.000000 0.049065
#
#
# Mechanical properties :
#
#
# Convention : Reuss Voigt Hill
#
# Bulk Modulus (GPa) = 25.87017 38.64316 32.25666
# Shear Modulus (GPa) = 22.27761 26.33054 24.30408
#
# Velocity S-wave (km/s) = 3.29140 3.57829 3.43784
# Velocity P-wave (km/s) = 5.19853 5.98864 5.60752
#
# Compressibility (1/GPa) = 0.03865456
#
# Stress axis : x y z
#
# Youngs Moduli (GPa) = 37.51113 78.59712 71.27812
#
# Poissons Ratio (x) = 0.09413 0.17587
# Poissons Ratio (y) = 0.04492 0.26469
# Poissons Ratio (z) = 0.09255 0.29187
#
# Static dielectric constant tensor:
#      x y z
#    x 3.650030 0.000000 -0.115570 
#    y 0.000000 3.715670 0.000000 
#    z -0.115570 0.000000 3.857950 
# 
# 
# High freq. dielectric constant tensor:
#      x y z
#    x 1.791070 0.000000 -0.011380 
#    y 0.000000 1.776800 0.000000 
#    z -0.011380 0.000000 1.805340 
# 
# From -- ./inp_files/157881.got.cif
#   From: 2010.06.25/outbox.cif.g09.slc.cpg/sg12_79_cif.got.tgz:157881.got - 2010.06.28 00:19:55.
