data_PCOD8089442
_publ_section_title
;
Structure prediction by ZEFSAII (Michael W. Deem and Ramdas Pophale) SiO2 
 PCOD8089442
Probable space group: C 2/M
;
_chemical_formula_sum "Si O2"
_cell_formula_units_Z 56
_cell_length_a 20.546437
_cell_length_b 8.968534
_cell_length_c 31.220024
_cell_angle_alpha 90.000000
_cell_angle_beta 149.920654
_cell_angle_gamma 90.000000
_cell_volume 2883.375904
_symmetry_space_group_name_H-M "C 2/M"
_symmetry_group_IT_number 12
_symmetry_cell_setting 'monoclinic'
loop_
_space_group_symop_operation_xyz
x,y,z
-x,y,-z
-x,-y,-z
x,-y,z
1/2+x,1/2+y,z
1/2-x,1/2+y,-z
1/2-x,1/2-y,-z
1/2+x,1/2-y,z
loop_
_atom_site_type_symbol
_atom_site_label
_atom_site_fract_x
_atom_site_fract_y
_atom_site_fract_z
Si Si1 0.616933 0.823161 0.625644
Si Si2 0.701098 0.174271 0.204302
Si Si3 0.156085 0.825980 0.412768
Si Si4 0.812331 0.824555 0.098195
Si Si5 0.338530 0.172690 0.442408
Si Si6 0.936343 0.174990 0.080655
Si Si7 0.380044 0.324965 0.230391
O O1 0.683963 0.726180 0.699845
O O2 0.680310 0.769600 0.616652
O O3 0.467291 0.767600 0.539849
O O4 0.635389 0.000000 0.645252
O O5 0.571756 0.263251 0.141029
O O6 0.750925 0.210184 0.184403
O O7 0.673926 0.000000 0.194800
O O8 0.250000 0.750000 0.500000
O O9 0.210840 0.791473 0.396568
O O10 0.009455 0.759583 0.327716
O O11 0.158689 0.000000 0.425011
O O12 0.915430 0.787089 0.119187
O O13 0.864544 0.761369 0.173340
O O14 0.785166 0.000000 0.085192
O O15 0.676369 0.746115 0.011736
O O16 0.368000 0.000000 0.454163
O O17 0.934730 0.000000 0.072172
O O18 0.404659 0.500000 0.240719
#
# Coordination Sequence:
#
# PCOD8089442 Si02
#       7
#     8   8   8   8   8   8   8
#     4   9  17  32  52  77 105 138 184 229 274 324
#     4  11  22  35  52  79 113 147 180 222 271 324
#     4  10  19  33  53  76 106 144 186 226 268 317
#     4   9  19  39  63  84 107 140 183 225 268 325
#     4   8  16  30  52  76 101 138 183 230 273 323
#     4  10  21  37  61  87 110 140 177 225 278 325
#     4   9  20  36  56  80 108 148 189 221 264 329
#
# _framework density 19.421678
#
# number of rings (size 3 to 8) (size 9 to 14) (size 15 to 20)
#    0.000    2.571    0.000    2.571    2.000    1.143 
#    0.000    7.857    0.000    0.000    0.000    0.000 
#    0.000    0.000    0.000    0.000    0.000    0.000 
#
# Total GULP energy -347049.374217 kJ/mol
# GULP energy per Si atom -12394.620508 kJ/mol
# Density = 1.937747 g / cm^3
# Si number density = 19.421678 Si / 1000 Ang^3
#
#
#
# Elastic Constant Matrix: (Units=GPa)
#
#
# Indices 1 2 3 4 5 6 
#
# 1 100.4890 22.4025 59.5979 0.0000 1.0651 0.0001
# 2 22.4025 24.5689 23.3666 0.0002 -3.5721 0.0000
# 3 59.5979 23.3666 110.3091 -0.0001 -10.3843 0.0000
# 4 0.0000 0.0002 -0.0001 32.2451 -0.0001 2.6605
# 5 1.0651 -3.5721 -10.3843 -0.0001 33.6915 0.0001
# 6 0.0001 0.0000 0.0000 2.6605 0.0001 20.4533
#
#
#
# Elastic Compliance Matrix: (Units=1/GPa)
#
#
# Indices 1 2 3 4 5 6 
#
# 1 0.016193 -0.008326 -0.007329 0.000000 -0.003654 0.000000
# 2 -0.008326 0.055402 -0.006859 0.000000 0.004023 0.000000
# 3 -0.007329 -0.006859 0.014863 0.000000 0.004085 0.000000
# 4 0.000000 0.000000 0.000000 0.031349 0.000000 -0.004078
# 5 -0.003654 0.004023 0.004085 0.000000 0.031482 0.000000
# 6 0.000000 0.000000 0.000000 -0.004078 0.000000 0.049422
#
#
# Mechanical properties :
#
#
# Convention : Reuss Voigt Hill
#
# Bulk Modulus (GPa) = 24.13703 49.56679 36.85191
# Shear Modulus (GPa) = 19.41389 25.94463 22.67926
#
# Velocity S-wave (km/s) = 3.16507 3.65891 3.42091
# Velocity P-wave (km/s) = 5.08053 6.58991 5.88382
#
# Compressibility (1/GPa) = 0.04143013
#
# Stress axis : x y z
#
# Youngs Moduli (GPa) = 61.75561 18.05001 67.28306
#
# Poissons Ratio (x) = 0.15028 0.49312
# Poissons Ratio (y) = 0.51417 0.46147
# Poissons Ratio (z) = 0.45261 0.12380
#
# Static dielectric constant tensor:
#      x y z
#    x 3.165240 0.000000 0.062700 
#    y 0.000000 3.255960 0.000000 
#    z 0.062700 0.000000 3.591750 
# 
# 
# High freq. dielectric constant tensor:
#      x y z
#    x 1.770810 0.000000 0.000890 
#    y 0.000000 1.722210 0.000000 
#    z 0.000890 0.000000 1.757190 
# 
# From -- ./inp_files/380731.got.cif
#   From: 2010.06.25/outbox.cif.g09.slc.cpg/sg12_191_cif.got.tgz:380731.got - 2010.06.28 00:19:55.
