data_PCOD8089615
_publ_section_title
;
Structure prediction by ZEFSAII (Michael W. Deem and Ramdas Pophale) SiO2 
 PCOD8089615
Probable space group: C 2/M
;
_chemical_formula_sum "Si O2"
_cell_formula_units_Z 56
_cell_length_a 15.834928
_cell_length_b 9.438440
_cell_length_c 23.103993
_cell_angle_alpha 90.000000
_cell_angle_beta 57.944971
_cell_angle_gamma 90.000000
_cell_volume 2926.596984
_symmetry_space_group_name_H-M "C 2/M"
_symmetry_group_IT_number 12
_symmetry_cell_setting 'monoclinic'
loop_
_space_group_symop_operation_xyz
x,y,z
-x,y,-z
-x,-y,-z
x,-y,z
1/2+x,1/2+y,z
1/2-x,1/2+y,-z
1/2-x,1/2-y,-z
1/2+x,1/2-y,z
loop_
_atom_site_type_symbol
_atom_site_label
_atom_site_fract_x
_atom_site_fract_y
_atom_site_fract_z
Si Si1 0.055307 0.331935 0.422825
Si Si2 0.282841 0.667277 0.343471
Si Si3 0.323944 0.160416 0.934733
Si Si4 0.627873 0.837711 0.206181
Si Si5 0.446892 0.830575 0.345760
Si Si6 0.026868 0.659837 0.927884
Si Si7 0.324112 0.660432 0.200078
O O1 0.058493 0.500000 0.419883
O O2 0.169147 0.276332 0.382601
O O3 0.000000 0.274661 0.500000
O O4 0.992313 0.278532 0.390388
O O5 0.286380 0.500000 0.355841
O O6 0.342092 0.752435 0.371813
O O7 0.335832 0.702124 0.262886
O O8 0.333510 0.233321 0.867609
O O9 0.432563 0.164549 0.921549
O O10 0.282140 0.000000 0.946993
O O11 0.250000 0.250000 0.000000
O O12 0.523788 0.777445 0.268063
O O13 0.707709 0.821803 0.228106
O O14 0.609264 0.000000 0.196337
O O15 0.431523 0.000000 0.350599
O O16 0.065278 0.500000 0.923800
O O17 0.114798 0.742748 0.865294
O O18 0.000000 0.728356 0.000000
O O19 0.359496 0.500000 0.176679
#
# Coordination Sequence:
#
# PCOD8089615 Si02
#       7
#     8   8   8   8   8   8   8
#     4   9  18  35  59  84 113 151 190 226 271 334
#     4  10  20  35  55  83 115 143 182 236 282 321
#     4  10  20  33  49  69  96 131 171 215 264 317
#     4   9  17  32  53  74  98 134 180 222 259 315
#     4  10  19  35  59  83 109 147 191 225 270 337
#     4  10  21  35  49  72 106 138 170 219 281 332
#     4  10  19  33  54  76 100 136 181 227 270 320
#
# _framework density 19.134851999999999
#
# number of rings (size 3 to 8) (size 9 to 14) (size 15 to 20)
#    0.000    2.286    1.429    1.714    0.000    3.143 
#    0.000    2.143    0.000    0.857    0.000    0.000 
#    0.000    0.000    0.000    0.000    0.000    0.000 
#
# Total GULP energy -347123.309437 kJ/mol
# GULP energy per Si atom -12397.261051 kJ/mol
# Density = 1.909130 g / cm^3
# Si number density = 19.134852 Si / 1000 Ang^3
#
#
#
# Elastic Constant Matrix: (Units=GPa)
#
#
# Indices 1 2 3 4 5 6 
#
# 1 119.6017 33.2806 55.1115 0.0000 10.2966 0.0000
# 2 33.2806 43.6274 36.7933 0.0000 -2.3389 0.0001
# 3 55.1115 36.7933 128.4872 0.0000 5.7506 0.0000
# 4 0.0000 0.0000 0.0000 16.7654 0.0000 2.2348
# 5 10.2966 -2.3389 5.7506 0.0000 29.8908 0.0000
# 6 0.0000 0.0001 0.0000 2.2348 0.0000 20.8611
#
#
#
# Elastic Compliance Matrix: (Units=1/GPa)
#
#
# Indices 1 2 3 4 5 6 
#
# 1 0.012002 -0.006839 -0.003006 0.000000 -0.004091 0.000000
# 2 -0.006839 0.034614 -0.007268 0.000000 0.006463 0.000000
# 3 -0.003006 -0.007268 0.011229 0.000000 -0.001693 0.000000
# 4 0.000000 0.000000 0.000000 0.060511 0.000000 -0.006482
# 5 -0.004091 0.006463 -0.001693 0.000000 0.035696 0.000000
# 6 0.000000 0.000000 0.000000 -0.006482 0.000000 0.048630
#
#
# Mechanical properties :
#
#
# Convention : Reuss Voigt Hill
#
# Bulk Modulus (GPa) = 42.33927 60.23189 51.28558
# Shear Modulus (GPa) = 20.42633 24.60552 22.51593
#
# Velocity S-wave (km/s) = 3.27080 3.58984 3.43402
# Velocity P-wave (km/s) = 6.03647 6.98058 6.52562
#
# Compressibility (1/GPa) = 0.02361873
#
# Stress axis : x y z
#
# Youngs Moduli (GPa) = 83.32175 28.88964 89.05271
#
# Poissons Ratio (x) = 0.19759 0.26771
# Poissons Ratio (y) = 0.56987 0.64722
# Poissons Ratio (z) = 0.25048 0.20996
#
# Static dielectric constant tensor:
#      x y z
#    x 3.256700 0.000000 0.273380 
#    y 0.000000 3.182850 0.000000 
#    z 0.273380 0.000000 3.560700 
# 
# 
# High freq. dielectric constant tensor:
#      x y z
#    x 1.754210 0.000000 0.007260 
#    y 0.000000 1.698930 0.000000 
#    z 0.007260 0.000000 1.753440 
# 
# From -- ./inp_files/338543.got.cif
#   From: 2010.06.25/outbox.cif.g09.slc.cpg/sg12_170_cif.got.tgz:338543.got - 2010.06.28 00:19:55.
