data_PCOD8089187
_publ_section_title
;
Structure prediction by ZEFSAII (Michael W. Deem and Ramdas Pophale) SiO2 
 PCOD8089187
Probable space group: C 2/M
;
_chemical_formula_sum "Si O2"
_cell_formula_units_Z 40
_cell_length_a 16.537377
_cell_length_b 9.547860
_cell_length_c 31.164100
_cell_angle_alpha 90.000000
_cell_angle_beta 27.819532
_cell_angle_gamma 90.000000
_cell_volume 2296.434411
_symmetry_space_group_name_H-M "C 2/M"
_symmetry_group_IT_number 12
_symmetry_cell_setting 'monoclinic'
loop_
_space_group_symop_operation_xyz
x,y,z
-x,y,-z
-x,-y,-z
x,-y,z
1/2+x,1/2+y,z
1/2-x,1/2+y,-z
1/2-x,1/2-y,-z
1/2+x,1/2-y,z
loop_
_atom_site_type_symbol
_atom_site_label
_atom_site_fract_x
_atom_site_fract_y
_atom_site_fract_z
Si Si1 0.959108 0.000000 0.237239
Si Si2 0.262764 0.232793 0.695782
Si Si3 0.995559 0.500000 0.695781
Si Si4 0.534639 0.000000 0.579215
Si Si5 0.607463 0.500000 0.635522
Si Si6 0.177345 0.218240 0.237241
Si Si7 0.319314 0.000000 0.108412
Si Si8 0.185409 0.000000 0.388756
O O1 0.905114 0.142040 0.238359
O O2 0.166135 0.000000 0.145219
O O3 0.860023 0.000000 0.329052
O O4 0.227440 0.274592 0.761638
O O5 0.293788 0.364630 0.650800
O O6 0.433580 0.138159 0.612218
O O7 0.869479 0.367450 0.761638
O O8 0.071740 0.500000 0.612218
O O9 0.158424 0.500000 0.650796
O O10 0.713848 0.000000 0.471689
O O11 0.502645 0.637336 0.670946
O O12 0.303879 0.137748 0.145222
O O13 0.500000 0.000000 0.000000
O O14 0.000000 0.000000 0.500000
#
# Coordination Sequence:
#
# PCOD8089187 Si02
#       8
#     4   8   4   4   4   8   4   4
#     4   9  20  37  58  74 106 143 177 216 272 320
#     4  10  21  36  50  77 108 147 176 222 266 310
#     4  10  21  36  50  77 108 147 176 222 266 310
#     4   9  22  34  54  67 104 157 201 210 249 312
#     4  10  19  33  52  73 105 154 193 222 246 300
#     4   9  20  37  58  74 106 143 177 216 272 320
#     4  10  20  40  66  84  96 132 180 214 263 349
#     4  12  24  27  45  78 112 134 187 235 260 274
#
# _framework density 17.418306999999999
#
# number of rings (size 3 to 8) (size 9 to 14) (size 15 to 20)
#    0.000    2.400    0.000    4.200    8.400    2.400 
#    0.000    1.500    0.000    0.000    0.000    0.000 
#    0.000    0.000    0.000    0.000    0.000    0.000 
#
# Total GULP energy -247981.506567 kJ/mol
# GULP energy per Si atom -12399.075328 kJ/mol
# Density = 1.737866 g / cm^3
# Si number density = 17.418307 Si / 1000 Ang^3
#
#
#
# Elastic Constant Matrix: (Units=GPa)
#
#
# Indices 1 2 3 4 5 6 
#
# 1 148.4739 74.9112 57.0049 -0.0022 1.9185 0.0173
# 2 74.9112 148.0175 57.5082 0.0011 -5.5465 0.0149
# 3 57.0049 57.5082 141.8774 -0.0011 2.7815 -0.0001
# 4 -0.0022 0.0011 -0.0011 2.9330 -0.0016 -6.0907
# 5 1.9185 -5.5465 2.7815 -0.0016 2.4089 -0.0007
# 6 0.0173 0.0149 -0.0001 -6.0907 -0.0007 35.9781
#
#
#
# Elastic Compliance Matrix: (Units=1/GPa)
#
#
# Indices 1 2 3 4 5 6 
#
# 1 0.010240 -0.005234 -0.001633 -0.000011 -0.018321 -0.000005
# 2 -0.005234 0.012128 -0.003522 0.000009 0.036161 0.000000
# 3 -0.001633 -0.003522 0.009480 -0.000003 -0.017755 0.000001
# 4 -0.000011 0.000009 -0.000003 0.525787 0.000404 0.089010
# 5 -0.018321 0.036161 -0.017755 0.000404 0.533483 0.000072
# 6 -0.000005 0.000000 0.000001 0.089010 0.000072 0.042863
#
#
# Mechanical properties :
#
#
# Convention : Reuss Voigt Hill
#
# Bulk Modulus (GPa) = 90.34029 90.80193 90.57111
# Shear Modulus (GPa) = 4.31611 24.86030 14.58820
#
# Velocity S-wave (km/s) = 1.57585 3.78200 2.89714
# Velocity P-wave (km/s) = 7.43564 8.44480 7.95624
#
# Compressibility (1/GPa) = 0.01106926
#
# Stress axis : x y z
#
# Youngs Moduli (GPa) = 97.65603 82.45105 105.48190
#
# Poissons Ratio (x) = 0.43158 0.17230
# Poissons Ratio (y) = 0.51116 0.37150
# Poissons Ratio (z) = 0.15952 0.29039
#
# Static dielectric constant tensor:
#      x y z
#    x 3.511620 -0.000020 -0.027130 
#    y -0.000020 3.512560 0.000000 
#    z -0.027130 0.000000 2.732960 
# 
# 
# High freq. dielectric constant tensor:
#      x y z
#    x 1.694280 0.000000 -0.002410 
#    y 0.000000 1.694360 0.000000 
#    z -0.002410 0.000000 1.625120 
# 
# From -- ./inp_files/249562.got.cif
#   From: 2010.06.25/outbox.cif.g09.slc.cpg/sg12_125_cif.got.tgz:249562.got - 2010.06.28 00:19:55.
