data_PCOD8089897
_publ_section_title
;
Structure prediction by ZEFSAII (Michael W. Deem and Ramdas Pophale) SiO2 
 PCOD8089897
Probable space group: C 2/M
;
_chemical_formula_sum "Si O2"
_cell_formula_units_Z 56
_cell_length_a 23.758910
_cell_length_b 8.879539
_cell_length_c 13.499092
_cell_angle_alpha 90.000000
_cell_angle_beta 76.259470
_cell_angle_gamma 90.000000
_cell_volume 2766.376241
_symmetry_space_group_name_H-M "C 2/M"
_symmetry_group_IT_number 12
_symmetry_cell_setting 'monoclinic'
loop_
_space_group_symop_operation_xyz
x,y,z
-x,y,-z
-x,-y,-z
x,-y,z
1/2+x,1/2+y,z
1/2-x,1/2+y,-z
1/2-x,1/2-y,-z
1/2+x,1/2-y,z
loop_
_atom_site_type_symbol
_atom_site_label
_atom_site_fract_x
_atom_site_fract_y
_atom_site_fract_z
Si Si1 0.601150 0.676112 0.151561
Si Si2 0.009877 0.678198 0.883033
Si Si3 0.800647 0.175531 0.038797
Si Si4 0.345780 0.177711 0.678448
Si Si5 0.560636 0.823679 0.522560
Si Si6 0.402248 0.678017 0.292560
Si Si7 0.216312 0.177660 0.736085
O O1 0.587896 0.500000 0.169993
O O2 0.541686 0.766341 0.166397
O O3 0.637958 0.710124 0.037600
O O4 0.636080 0.733866 0.231555
O O5 0.014781 0.500000 0.873484
O O6 0.068424 0.752345 0.817523
O O7 0.000000 0.732007 0.000000
O O8 0.787383 0.000000 0.045713
O O9 0.750000 0.250000 0.000000
O O10 0.800081 0.244487 0.149349
O O11 0.387424 0.224154 0.571409
O O12 0.280532 0.230136 0.675843
O O13 0.349391 0.000000 0.698899
O O14 0.500000 0.773867 0.500000
O O15 0.567342 0.737052 0.621958
O O16 0.561236 0.000000 0.545394
O O17 0.409326 0.500000 0.284339
O O18 0.334118 0.727754 0.319566
O O19 0.215918 0.000000 0.744540
#
# Coordination Sequence:
#
# PCOD8089897 Si02
#       7
#     8   8   8   8   8   8   8
#     4  11  22  35  57  90 122 154 196 249 301 348
#     4  11  24  41  61  86 117 156 199 241 290 357
#     4  10  19  33  54  82 119 157 195 236 283 343
#     4  10  20  37  61  84 116 162 203 243 292 353
#     4  10  22  40  61  86 116 153 201 251 301 356
#     4  11  23  40  63  88 119 156 194 247 305 355
#     4   9  19  36  57  84 119 159 198 238 295 355
#
# _framework density 20.243088
#
# number of rings (size 3 to 8) (size 9 to 14) (size 15 to 20)
#    0.000    1.714    1.429    3.000    0.000    5.429 
#    0.000    2.857    0.000    0.000    0.000    0.000 
#    0.000    0.000    0.000    0.000    0.000    0.000 
#
# Total GULP energy -347233.585722 kJ/mol
# GULP energy per Si atom -12401.199490 kJ/mol
# Density = 2.019701 g / cm^3
# Si number density = 20.243088 Si / 1000 Ang^3
#
#
#
# Elastic Constant Matrix: (Units=GPa)
#
#
# Indices 1 2 3 4 5 6 
#
# 1 158.3540 37.7318 61.0695 0.0000 -5.5684 0.0000
# 2 37.7318 54.9463 39.4711 0.0000 -0.9100 0.0000
# 3 61.0695 39.4711 123.3609 0.0000 -8.4466 0.0000
# 4 0.0000 0.0000 0.0000 29.3223 0.0000 0.5543
# 5 -5.5684 -0.9100 -8.4466 0.0000 35.1811 0.0000
# 6 0.0000 0.0000 0.0000 0.5543 0.0000 18.1992
#
#
#
# Elastic Compliance Matrix: (Units=1/GPa)
#
#
# Indices 1 2 3 4 5 6 
#
# 1 0.008322 -0.003600 -0.002932 0.000000 0.000520 0.000000
# 2 -0.003600 0.025240 -0.006393 0.000000 -0.001452 0.000000
# 3 -0.002932 -0.006393 0.011754 0.000000 0.002192 0.000000
# 4 0.000000 0.000000 0.000000 0.034123 0.000000 -0.001039
# 5 0.000520 -0.001452 0.002192 0.000000 0.028996 0.000000
# 6 0.000000 0.000000 0.000000 -0.001039 0.000000 0.054979
#
#
# Mechanical properties :
#
#
# Convention : Reuss Voigt Hill
#
# Bulk Modulus (GPa) = 51.37412 68.13400 59.75406
# Shear Modulus (GPa) = 25.54247 29.76644 27.65445
#
# Velocity S-wave (km/s) = 3.55602 3.83880 3.70011
# Velocity P-wave (km/s) = 6.50339 7.30613 6.91641
#
# Compressibility (1/GPa) = 0.01946505
#
# Stress axis : x y z
#
# Youngs Moduli (GPa) = 120.16636 39.61955 85.07943
#
# Poissons Ratio (x) = 0.14261 0.24948
# Poissons Ratio (y) = 0.43254 0.54395
# Poissons Ratio (z) = 0.35237 0.25330
#
# Static dielectric constant tensor:
#      x y z
#    x 4.003920 0.000000 -0.201780 
#    y 0.000000 3.481870 0.000000 
#    z -0.201780 0.000000 3.799190 
# 
# 
# High freq. dielectric constant tensor:
#      x y z
#    x 1.807730 0.000000 -0.006480 
#    y 0.000000 1.773280 0.000000 
#    z -0.006480 0.000000 1.791980 
# 
# From -- ./inp_files/237490.got.cif
#   From: 2010.06.25/outbox.cif.g09.slc.cpg/sg12_119_cif.got.tgz:237490.got - 2010.06.28 00:19:55.
