data_PCOD8089540
_publ_section_title
;
Structure prediction by ZEFSAII (Michael W. Deem and Ramdas Pophale) SiO2 
 PCOD8089540
Probable space group: C 2/M
;
_chemical_formula_sum "Si O2"
_cell_formula_units_Z 48
_cell_length_a 13.266325
_cell_length_b 14.023478
_cell_length_c 23.410098
_cell_angle_alpha 90.000000
_cell_angle_beta 35.073295
_cell_angle_gamma 90.000000
_cell_volume 2502.610460
_symmetry_space_group_name_H-M "C 2/M"
_symmetry_group_IT_number 12
_symmetry_cell_setting 'monoclinic'
loop_
_space_group_symop_operation_xyz
x,y,z
-x,y,-z
-x,-y,-z
x,-y,z
1/2+x,1/2+y,z
1/2-x,1/2+y,-z
1/2-x,1/2-y,-z
1/2+x,1/2-y,z
loop_
_atom_site_type_symbol
_atom_site_label
_atom_site_fract_x
_atom_site_fract_y
_atom_site_fract_z
Si Si1 0.464483 0.612305 0.730799
Si Si2 0.806256 0.110114 0.110062
Si Si3 0.828320 0.609538 0.617046
Si Si4 0.332909 0.895834 0.051324
Si Si5 0.615898 0.825816 0.087856
Si Si6 0.735536 0.757356 0.249059
O O1 0.445395 0.500000 0.725530
O O2 0.663745 0.637314 0.653493
O O3 0.349204 0.647956 0.840125
O O4 0.399591 0.673116 0.706189
O O5 0.668315 0.134488 0.124625
O O6 0.760884 0.169778 0.186245
O O7 0.790483 0.000000 0.134108
O O8 0.000000 0.136404 0.000000
O O9 0.807755 0.500000 0.648517
O O10 0.844897 0.682453 0.661690
O O11 0.000000 0.621879 0.500000
O O12 0.334768 0.000000 0.078620
O O13 0.500000 0.837214 0.000000
O O14 0.357690 0.907551 0.972123
O O15 0.418530 0.788823 0.183057
O O16 0.750000 0.750000 0.000000
#
# Coordination Sequence:
#
# PCOD8089540 Si02
#       6
#     8   8   8   8   8   8
#     4  10  22  38  60  91 120 153 202 250 290 348
#     4  11  24  37  51  81 122 162 198 237 290 350
#     4  10  23  44  66  87 113 152 202 254 306 354
#     4  10  19  33  53  79 115 157 195 225 271 335
#     4  12  22  33  52  79 119 158 197 234 279 345
#     4  12  22  38  63  86 118 155 197 249 295 353
#
# _framework density 19.179973
#
# number of rings (size 3 to 8) (size 9 to 14) (size 15 to 20)
#    0.000    1.167    3.333    4.000    0.000    1.333 
#    0.000    0.000    0.000    0.500    0.000    0.000 
#    0.000    0.000    0.000    0.000    0.000    0.000 
#
# Total GULP energy -297447.899794 kJ/mol
# GULP energy per Si atom -12393.662491 kJ/mol
# Density = 1.913632 g / cm^3
# Si number density = 19.179973 Si / 1000 Ang^3
#
#
#
# Elastic Constant Matrix: (Units=GPa)
#
#
# Indices 1 2 3 4 5 6 
#
# 1 141.7638 52.0539 63.0958 0.0002 -7.9345 -0.0001
# 2 52.0539 89.9370 41.9298 -0.0002 5.3169 0.0000
# 3 63.0958 41.9298 102.7183 -0.0001 -16.1350 -0.0007
# 4 0.0002 -0.0002 -0.0001 25.2656 -0.0002 8.0146
# 5 -7.9345 5.3169 -16.1350 -0.0002 29.3216 0.0002
# 6 -0.0001 0.0000 -0.0007 8.0146 0.0002 33.5808
#
#
#
# Elastic Compliance Matrix: (Units=1/GPa)
#
#
# Indices 1 2 3 4 5 6 
#
# 1 0.010719 -0.004035 -0.004780 0.000000 0.001002 0.000000
# 2 -0.004035 0.016327 -0.005279 0.000000 -0.006957 0.000000
# 3 -0.004780 -0.005279 0.016171 0.000000 0.008563 0.000000
# 4 0.000000 0.000000 0.000000 0.042821 0.000000 -0.010220
# 5 0.001002 -0.006957 0.008563 0.000000 0.040349 0.000000
# 6 0.000000 0.000000 0.000000 -0.010220 0.000000 0.032218
#
#
# Mechanical properties :
#
#
# Convention : Reuss Voigt Hill
#
# Bulk Modulus (GPa) = 66.53506 72.06426 69.29966
# Shear Modulus (GPa) = 26.06846 29.45622 27.76234
#
# Velocity S-wave (km/s) = 3.69066 3.92315 3.80868
# Velocity P-wave (km/s) = 7.27506 7.62730 7.45326
#
# Compressibility (1/GPa) = 0.01502967
#
# Stress axis : x y z
#
# Youngs Moduli (GPa) = 93.29235 61.24981 61.83772
#
# Poissons Ratio (x) = 0.24713 0.29558
# Poissons Ratio (y) = 0.37641 0.32644
# Poissons Ratio (z) = 0.44593 0.32334
#
# Static dielectric constant tensor:
#      x y z
#    x 4.004900 0.000020 0.273250 
#    y 0.000020 3.653960 0.000020 
#    z 0.273250 0.000020 3.682530 
# 
# 
# High freq. dielectric constant tensor:
#      x y z
#    x 1.755600 0.000000 -0.009720 
#    y 0.000000 1.758160 0.000000 
#    z -0.009720 0.000000 1.718640 
# 
# From -- ./inp_files/204568.got.cif
#   From: 2010.06.25/outbox.cif.g09.slc.cpg/sg12_103_cif.got.tgz:204568.got - 2010.06.28 00:19:55.
