data_PCOD8089734
_publ_section_title
;
Structure prediction by ZEFSAII (Michael W. Deem and Ramdas Pophale) SiO2 
 PCOD8089734
Probable space group: C 2/M
;
_chemical_formula_sum "Si O2"
_cell_formula_units_Z 64
_cell_length_a 20.005781
_cell_length_b 9.324937
_cell_length_c 24.276671
_cell_angle_alpha 90.000000
_cell_angle_beta 128.340395
_cell_angle_gamma 90.000000
_cell_volume 3552.176026
_symmetry_space_group_name_H-M "C 2/M"
_symmetry_group_IT_number 12
_symmetry_cell_setting 'monoclinic'
loop_
_space_group_symop_operation_xyz
x,y,z
-x,y,-z
-x,-y,-z
x,-y,z
1/2+x,1/2+y,z
1/2-x,1/2+y,-z
1/2-x,1/2-y,-z
1/2+x,1/2-y,z
loop_
_atom_site_type_symbol
_atom_site_label
_atom_site_fract_x
_atom_site_fract_y
_atom_site_fract_z
Si Si1 0.558968 0.834052 0.305019
Si Si2 0.184275 0.663234 0.930705
Si Si3 0.504549 0.332375 0.439645
Si Si4 0.401634 0.835836 0.301763
Si Si5 0.743198 0.337647 0.151908
Si Si6 0.837503 0.169546 0.555551
Si Si7 0.926220 0.669782 0.921107
Si Si8 0.504415 0.829975 0.159131
O O1 0.466297 0.813644 0.284280
O O2 0.626664 0.731181 0.368972
O O3 0.554115 0.780128 0.239351
O O4 0.588800 0.000000 0.324772
O O5 0.187018 0.500000 0.953085
O O6 0.204245 0.673704 0.876943
O O7 0.091107 0.732579 0.892163
O O8 0.250000 0.750000 0.000000
O O9 0.500000 0.276442 0.500000
O O10 0.486591 0.500000 0.427548
O O11 0.427953 0.258533 0.367418
O O12 0.596370 0.294707 0.460043
O O13 0.307302 0.789877 0.233589
O O14 0.402275 0.000000 0.321365
O O15 0.711517 0.500000 0.145565
O O16 0.663134 0.234272 0.106530
O O17 0.750000 0.250000 0.500000
O O18 0.822020 0.000000 0.553167
O O19 0.918466 0.500000 0.920312
O O20 0.945614 0.723422 0.869191
O O21 0.000000 0.724336 0.000000
O O22 0.496284 0.000000 0.156992
#
# Coordination Sequence:
#
# PCOD8089734 Si02
#       8
#     8   8   8   8   8   8   8   8
#     4   9  16  32  57  78 100 136 177 216 258 305
#     4  10  19  33  54  79 103 132 172 218 260 305
#     4   9  19  36  56  79 107 138 173 213 255 301
#     4   9  17  32  55  80 104 135 173 213 259 310
#     4  10  20  35  54  77 107 138 171 213 266 317
#     4  10  20  35  55  80 109 139 171 211 257 307
#     4  10  21  36  53  75 104 140 179 217 259 311
#     4   9  17  33  55  75 100 136 177 215 257 308
#
# _framework density 18.017126000000001
#
# number of rings (size 3 to 8) (size 9 to 14) (size 15 to 20)
#    0.000    2.500    1.250    1.125    0.000    3.000 
#    2.250    1.875    0.000    0.000    0.000    0.000 
#    0.000    0.000    0.000    0.000    0.000    0.000 
#
# Total GULP energy -396793.222580 kJ/mol
# GULP energy per Si atom -12399.788206 kJ/mol
# Density = 1.797612 g / cm^3
# Si number density = 18.017126 Si / 1000 Ang^3
#
#
#
# Elastic Constant Matrix: (Units=GPa)
#
#
# Indices 1 2 3 4 5 6 
#
# 1 47.3754 24.4618 34.0709 0.0000 6.2906 0.0000
# 2 24.4618 53.1796 48.4716 0.0000 6.3530 0.0000
# 3 34.0709 48.4716 133.1172 0.0000 2.3546 0.0000
# 4 0.0000 0.0000 0.0000 32.7312 0.0000 2.5564
# 5 6.2906 6.3530 2.3546 0.0000 36.2914 0.0000
# 6 0.0000 0.0000 0.0000 2.5564 0.0000 24.2645
#
#
#
# Elastic Compliance Matrix: (Units=1/GPa)
#
#
# Indices 1 2 3 4 5 6 
#
# 1 0.029281 -0.009446 -0.003999 0.000000 -0.003162 0.000000
# 2 -0.009446 0.031869 -0.009127 0.000000 -0.003349 0.000000
# 3 -0.003999 -0.009127 0.011832 0.000000 0.001523 0.000000
# 4 0.000000 0.000000 0.000000 0.030805 0.000000 -0.003245
# 5 -0.003162 -0.003349 0.001523 0.000000 0.028590 0.000000
# 6 0.000000 0.000000 0.000000 -0.003245 0.000000 0.041554
#
#
# Mechanical properties :
#
#
# Convention : Reuss Voigt Hill
#
# Bulk Modulus (GPa) = 35.92302 49.74231 42.83266
# Shear Modulus (GPa) = 21.89564 27.10197 24.49881
#
# Velocity S-wave (km/s) = 3.48985 3.88265 3.69148
# Velocity P-wave (km/s) = 6.01833 6.91146 6.48030
#
# Compressibility (1/GPa) = 0.02783731
#
# Stress axis : x y z
#
# Youngs Moduli (GPa) = 34.15159 31.37882 84.51516
#
# Poissons Ratio (x) = 0.29641 0.33796
# Poissons Ratio (y) = 0.32261 0.77139
# Poissons Ratio (z) = 0.13657 0.28640
#
# Static dielectric constant tensor:
#      x y z
#    x 3.174500 0.000000 0.179590 
#    y 0.000000 3.240410 0.000000 
#    z 0.179590 0.000000 2.962770 
# 
# 
# High freq. dielectric constant tensor:
#      x y z
#    x 1.688950 0.000000 -0.000830 
#    y 0.000000 1.679400 0.000000 
#    z -0.000830 0.000000 1.709750 
# 
# From -- ./inp_files/346311.got.cif
#   From: 2010.06.25/outbox.cif.g09.slc.cpg/sg12_174_cif.got.tgz:346311.got - 2010.06.28 00:19:55.
