data_PCOD8089811
_publ_section_title
;
Structure prediction by ZEFSAII (Michael W. Deem and Ramdas Pophale) SiO2 
 PCOD8089811
Probable space group: C 2/M
;
_chemical_formula_sum "Si O2"
_cell_formula_units_Z 64
_cell_length_a 32.703214
_cell_length_b 9.112195
_cell_length_c 25.593707
_cell_angle_alpha 90.000000
_cell_angle_beta 154.537129
_cell_angle_gamma 90.000000
_cell_volume 3278.992750
_symmetry_space_group_name_H-M "C 2/M"
_symmetry_group_IT_number 12
_symmetry_cell_setting 'monoclinic'
loop_
_space_group_symop_operation_xyz
x,y,z
-x,y,-z
-x,-y,-z
x,-y,z
1/2+x,1/2+y,z
1/2-x,1/2+y,-z
1/2-x,1/2-y,-z
1/2+x,1/2-y,z
loop_
_atom_site_type_symbol
_atom_site_label
_atom_site_fract_x
_atom_site_fract_y
_atom_site_fract_z
Si Si1 0.476372 0.327205 0.032294
Si Si2 0.260312 0.663091 0.794972
Si Si3 0.760894 0.164923 0.436730
Si Si4 0.585016 0.673501 0.637407
Si Si5 0.945330 0.330567 0.779282
Si Si6 0.469611 0.325721 0.706594
Si Si7 0.986385 0.674487 0.346109
Si Si8 0.303119 0.839802 0.393764
O O1 0.497725 0.500000 0.062017
O O2 0.540276 0.238005 0.146885
O O3 0.500000 0.276273 0.000000
O O4 0.369289 0.289550 0.927755
O O5 0.240356 0.500000 0.795743
O O6 0.188045 0.782933 0.734017
O O7 0.248745 0.654986 0.720211
O O8 0.667744 0.182725 0.365158
O O9 0.858895 0.222775 0.574843
O O10 0.737774 0.245287 0.356029
O O11 0.779855 0.000000 0.442509
O O12 0.500000 0.724702 0.500000
O O13 0.580383 0.500000 0.640597
O O14 0.582402 0.755107 0.690129
O O15 0.977960 0.500000 0.816779
O O16 0.002820 0.241620 0.800683
O O17 0.487097 0.500000 0.726426
O O18 0.529628 0.249595 0.729127
O O19 0.969090 0.500000 0.322414
O O20 0.089918 0.721524 0.486889
O O21 0.310459 0.000000 0.427832
#
# Coordination Sequence:
#
# PCOD8089811 Si02
#       8
#     8   8   8   8   8   8   8   8
#     4  10  22  40  61  83 111 149 194 238 281 329
#     4  10  20  35  55  80 110 148 192 234 279 331
#     4   9  19  32  49  76 109 144 182 228 278 331
#     4  11  22  34  53  83 118 153 186 227 280 337
#     4  11  22  36  54  78 109 145 189 234 281 334
#     4  10  20  35  55  79 110 145 185 231 282 337
#     4  10  19  33  54  80 112 146 181 223 276 335
#     4   9  17  29  49  76 106 142 181 223 271 328
#
# _framework density 19.518189
#
# number of rings (size 3 to 8) (size 9 to 14) (size 15 to 20)
#    0.000    2.000    1.250    2.625    0.000    4.750 
#    0.000    0.000    0.000    0.750    0.000    0.000 
#    0.000    0.000    0.000    0.000    0.000    0.000 
#
# Total GULP energy -396593.523905 kJ/mol
# GULP energy per Si atom -12393.547622 kJ/mol
# Density = 1.947376 g / cm^3
# Si number density = 19.518189 Si / 1000 Ang^3
#
#
#
# Elastic Constant Matrix: (Units=GPa)
#
#
# Indices 1 2 3 4 5 6 
#
# 1 121.1623 68.4915 25.2341 0.0000 -14.7811 0.0000
# 2 68.4915 88.8610 19.9652 0.0000 -4.9050 0.0000
# 3 25.2341 19.9652 38.5491 0.0000 0.9815 0.0000
# 4 0.0000 0.0000 0.0000 19.1309 0.0000 -1.1876
# 5 -14.7811 -4.9050 0.9815 0.0000 26.6760 0.0000
# 6 0.0000 0.0000 0.0000 -1.1876 0.0000 37.0846
#
#
#
# Elastic Compliance Matrix: (Units=1/GPa)
#
#
# Indices 1 2 3 4 5 6 
#
# 1 0.016556 -0.011182 -0.005232 0.000000 0.007310 0.000000
# 2 -0.011182 0.020468 -0.003223 0.000000 -0.002314 0.000000
# 3 -0.005232 -0.003223 0.031153 0.000000 -0.004638 0.000000
# 4 0.000000 0.000000 0.000000 0.052376 0.000000 0.001677
# 5 0.007310 -0.002314 -0.004638 0.000000 0.041283 0.000000
# 6 0.000000 0.000000 0.000000 0.001677 0.000000 0.027019
#
#
# Mechanical properties :
#
#
# Convention : Reuss Voigt Hill
#
# Bulk Modulus (GPa) = 34.59701 52.88378 43.74039
# Shear Modulus (GPa) = 21.02946 25.57042 23.29994
#
# Velocity S-wave (km/s) = 3.28598 3.62343 3.45882
# Velocity P-wave (km/s) = 5.67106 6.68275 6.19758
#
# Compressibility (1/GPa) = 0.02890424
#
# Stress axis : x y z
#
# Youngs Moduli (GPa) = 60.40229 48.85607 32.09958
#
# Poissons Ratio (x) = 0.54629 0.16795
# Poissons Ratio (y) = 0.67539 0.10344
# Poissons Ratio (z) = 0.31604 0.15744
#
# Static dielectric constant tensor:
#      x y z
#    x 3.564810 0.000000 0.012280 
#    y 0.000000 3.555200 0.000000 
#    z 0.012280 0.000000 3.266770 
# 
# 
# High freq. dielectric constant tensor:
#      x y z
#    x 1.763340 0.000000 -0.004440 
#    y 0.000000 1.762870 0.000000 
#    z -0.004440 0.000000 1.725290 
# 
# From -- ./inp_files/353514.got.cif
#   From: 2010.06.25/outbox.cif.g09.slc.cpg/sg12_177_cif.got.tgz:353514.got - 2010.06.28 00:19:55.
