data_PCOD8089622
_publ_section_title
;
Structure prediction by ZEFSAII (Michael W. Deem and Ramdas Pophale) SiO2 
 PCOD8089622
Probable space group: C 2/M
;
_chemical_formula_sum "Si O2"
_cell_formula_units_Z 64
_cell_length_a 9.447494
_cell_length_b 17.557496
_cell_length_c 24.153919
_cell_angle_alpha 90.000000
_cell_angle_beta 123.539340
_cell_angle_gamma 90.000000
_cell_volume 3339.457203
_symmetry_space_group_name_H-M "C 2/M"
_symmetry_group_IT_number 12
_symmetry_cell_setting 'monoclinic'
loop_
_space_group_symop_operation_xyz
x,y,z
-x,y,-z
-x,-y,-z
x,-y,z
1/2+x,1/2+y,z
1/2-x,1/2+y,-z
1/2-x,1/2-y,-z
1/2+x,1/2-y,z
loop_
_atom_site_type_symbol
_atom_site_label
_atom_site_fract_x
_atom_site_fract_y
_atom_site_fract_z
Si Si1 0.867767 0.588788 0.924659
Si Si2 0.589081 0.311139 0.730001
Si Si3 0.151349 0.360357 0.765374
Si Si4 0.467771 0.914256 0.372432
Si Si5 0.329945 0.588800 0.614191
Si Si6 0.823379 0.087811 0.483370
Si Si7 0.963761 0.656330 0.829814
Si Si8 0.528933 0.326647 0.840519
O O1 0.829116 0.500000 0.917486
O O2 0.691381 0.630635 0.900888
O O3 0.949784 0.609706 0.883331
O O4 0.000000 0.613656 0.000000
O O5 0.574240 0.219787 0.726709
O O6 0.486408 0.354898 0.660519
O O7 0.523802 0.342466 0.774205
O O8 0.783484 0.331474 0.762323
O O9 0.104525 0.416862 0.705691
O O10 0.070550 0.388034 0.805988
O O11 0.350642 0.358569 0.823909
O O12 0.329609 0.878826 0.384889
O O13 0.654948 0.874851 0.417983
O O14 0.493234 0.000000 0.398756
O O15 0.372249 0.500000 0.638119
O O16 0.294394 0.598156 0.542114
O O17 0.000000 0.126909 0.500000
O O18 0.834668 0.000000 0.468081
O O19 0.051196 0.737919 0.860839
#
# Coordination Sequence:
#
# PCOD8089622 Si02
#       8
#     8   8   8   8   8   8   8   8
#     4  10  22  40  61  87 120 154 189 234 283 330
#     4   9  18  33  53  80 109 144 181 221 280 333
#     4  10  19  34  55  81 113 142 179 234 278 324
#     4  10  20  33  51  76 103 139 183 226 276 335
#     4  10  19  33  54  76 101 138 185 227 279 342
#     4   9  19  34  49  70 105 141 179 231 281 332
#     4   9  20  35  57  83 114 151 188 229 275 335
#     4   9  18  37  58  82 114 152 190 221 274 346
#
# _framework density 19.164791000000001
#
# number of rings (size 3 to 8) (size 9 to 14) (size 15 to 20)
#    0.000    2.500    1.250    1.125    1.750    5.000 
#    0.000    1.250    0.000    1.500    0.000    0.000 
#    0.000    0.000    0.000    0.000    0.000    0.000 
#
# Total GULP energy -396626.302588 kJ/mol
# GULP energy per Si atom -12394.571956 kJ/mol
# Density = 1.912117 g / cm^3
# Si number density = 19.164791 Si / 1000 Ang^3
#
#
#
# Elastic Constant Matrix: (Units=GPa)
#
#
# Indices 1 2 3 4 5 6 
#
# 1 135.7522 16.3414 44.5092 0.0000 7.8074 0.0000
# 2 16.3414 37.7583 28.8481 0.0000 14.2666 0.0000
# 3 44.5092 28.8481 98.1394 0.0000 14.5909 0.0000
# 4 0.0000 0.0000 0.0000 21.6579 0.0000 6.4910
# 5 7.8074 14.2666 14.5909 0.0000 25.0905 0.0000
# 6 0.0000 0.0000 0.0000 6.4910 0.0000 20.8451
#
#
#
# Elastic Compliance Matrix: (Units=1/GPa)
#
#
# Indices 1 2 3 4 5 6 
#
# 1 0.008680 -0.000954 -0.003651 0.000000 -0.000035 0.000000
# 2 -0.000954 0.040209 -0.008792 0.000000 -0.017453 0.000000
# 3 -0.003651 -0.008792 0.014797 0.000000 -0.002470 0.000000
# 4 0.000000 0.000000 0.000000 0.050925 0.000000 -0.015858
# 5 -0.000035 -0.017453 -0.002470 0.000000 0.051227 0.000000
# 6 0.000000 0.000000 0.000000 -0.015858 0.000000 0.052911
#
#
# Mechanical properties :
#
#
# Convention : Reuss Voigt Hill
#
# Bulk Modulus (GPa) = 27.10580 50.11639 38.61109
# Shear Modulus (GPa) = 19.39182 25.64878 22.52030
#
# Velocity S-wave (km/s) = 3.18440 3.66229 3.43167
# Velocity P-wave (km/s) = 5.26259 6.64004 5.99103
#
# Compressibility (1/GPa) = 0.03689247
#
# Stress axis : x y z
#
# Youngs Moduli (GPa) = 115.20313 24.87011 67.58096
#
# Poissons Ratio (x) = 0.02372 0.24675
# Poissons Ratio (y) = 0.10988 0.59417
# Poissons Ratio (z) = 0.42062 0.21866
#
# Static dielectric constant tensor:
#      x y z
#    x 3.783490 0.000000 0.202500 
#    y 0.000000 3.219730 0.000000 
#    z 0.202500 0.000000 3.342230 
# 
# 
# High freq. dielectric constant tensor:
#      x y z
#    x 1.762620 0.000000 0.009330 
#    y 0.000000 1.713390 0.000000 
#    z 0.009330 0.000000 1.731230 
# 
# From -- ./inp_files/333764.got.cif
#   From: 2010.06.25/outbox.cif.g09.slc.cpg/sg12_167_cif.got.tgz:333764.got - 2010.06.28 00:19:55.
