data_PCOD8089157
_publ_section_title
;
Structure prediction by ZEFSAII (Michael W. Deem and Ramdas Pophale) SiO2 
 PCOD8089157
Probable space group: C 2/M
;
_chemical_formula_sum "Si O2"
_cell_formula_units_Z 64
_cell_length_a 15.082523
_cell_length_b 9.421540
_cell_length_c 28.073965
_cell_angle_alpha 90.000000
_cell_angle_beta 120.800252
_cell_angle_gamma 90.000000
_cell_volume 3426.663006
_symmetry_space_group_name_H-M "C 2/M"
_symmetry_group_IT_number 12
_symmetry_cell_setting 'monoclinic'
loop_
_space_group_symop_operation_xyz
x,y,z
-x,y,-z
-x,-y,-z
x,-y,z
1/2+x,1/2+y,z
1/2-x,1/2+y,-z
1/2-x,1/2-y,-z
1/2+x,1/2-y,z
loop_
_atom_site_type_symbol
_atom_site_label
_atom_site_fract_x
_atom_site_fract_y
_atom_site_fract_z
Si Si1 0.316222 0.833778 0.578540
Si Si2 0.634811 0.831998 0.224174
Si Si3 0.110572 0.334118 0.506453
Si Si4 0.734137 0.158796 0.885032
Si Si5 0.102909 0.841073 0.998752
Si Si6 0.309513 0.169767 0.230424
Si Si7 0.459922 0.842458 0.106747
Si Si8 0.458863 0.168020 0.702968
O O1 0.207176 0.752660 0.554320
O O2 0.382131 0.804435 0.548393
O O3 0.387513 0.775076 0.640703
O O4 0.291157 0.000000 0.576321
O O5 0.741237 0.746223 0.251345
O O6 0.567033 0.789402 0.159045
O O7 0.581796 0.776673 0.257648
O O8 0.654595 0.000000 0.230993
O O9 0.127029 0.500000 0.522158
O O10 0.000000 0.285930 0.500000
O O11 0.731099 0.228249 0.832012
O O12 0.617322 0.154957 0.870273
O O13 0.779473 0.000000 0.892417
O O14 0.809526 0.235616 0.944221
O O15 0.085726 0.757792 0.945758
O O16 0.138054 0.000000 0.993977
O O17 0.000000 0.843186 0.000000
O O18 0.425045 0.223443 0.272001
O O19 0.300814 0.000000 0.231048
O O20 0.472512 0.000000 0.088402
O O21 0.459305 0.000000 0.702650
#
# Coordination Sequence:
#
# PCOD8089157 Si02
#       8
#     8   8   8   8   8   8   8   8
#     4   9  18  33  54  79 106 142 183 215 250 306
#     4  10  20  35  53  75 103 134 170 217 265 305
#     4   9  18  33  53  79 113 145 173 215 265 302
#     4   9  17  32  52  71  95 130 168 204 254 316
#     4  10  20  32  47  71  99 124 159 212 261 306
#     4  10  19  35  58  78  99 136 179 213 256 318
#     4  10  19  33  52  70  93 130 169 205 254 316
#     4   9  18  35  56  76 104 142 180 212 252 313
#
# _framework density 18.677064000000001
#
# number of rings (size 3 to 8) (size 9 to 14) (size 15 to 20)
#    0.000    2.500    1.250    1.125    0.000    3.000 
#    0.000    4.375    0.000    0.000    0.000    0.000 
#    0.000    0.000    0.000    0.000    0.000    0.000 
#
# Total GULP energy -396594.777899 kJ/mol
# GULP energy per Si atom -12393.586809 kJ/mol
# Density = 1.863455 g / cm^3
# Si number density = 18.677064 Si / 1000 Ang^3
#
#
#
# Elastic Constant Matrix: (Units=GPa)
#
#
# Indices 1 2 3 4 5 6 
#
# 1 135.1030 34.2704 53.7275 0.0000 20.0432 0.0000
# 2 34.2704 37.2983 36.4560 0.0000 8.4306 0.0000
# 3 53.7275 36.4560 126.8839 0.0000 23.6267 0.0000
# 4 0.0000 0.0000 0.0000 18.0231 0.0000 4.9580
# 5 20.0432 8.4306 23.6267 0.0000 20.6758 0.0000
# 6 0.0000 0.0000 0.0000 4.9580 0.0000 39.0592
#
#
#
# Elastic Compliance Matrix: (Units=1/GPa)
#
#
# Indices 1 2 3 4 5 6 
#
# 1 0.010610 -0.007093 -0.001370 0.000000 -0.005828 0.000000
# 2 -0.007093 0.042253 -0.009158 0.000000 0.000111 0.000000
# 3 -0.001370 -0.009158 0.012893 0.000000 -0.009672 0.000000
# 4 0.000000 0.000000 0.000000 0.057492 0.000000 -0.007298
# 5 -0.005828 0.000111 -0.009672 0.000000 0.065022 0.000000
# 6 0.000000 0.000000 0.000000 -0.007298 0.000000 0.026529
#
#
# Mechanical properties :
#
#
# Convention : Reuss Voigt Hill
#
# Bulk Modulus (GPa) = 32.76861 60.91034 46.83948
# Shear Modulus (GPa) = 19.21511 27.20705 23.21108
#
# Velocity S-wave (km/s) = 3.21098 3.82083 3.52910
# Velocity P-wave (km/s) = 5.59733 7.22137 6.46058
#
# Compressibility (1/GPa) = 0.03051701
#
# Stress axis : x y z
#
# Youngs Moduli (GPa) = 94.24831 23.66670 77.56027
#
# Poissons Ratio (x) = 0.16786 0.10623
# Poissons Ratio (y) = 0.66849 0.71026
# Poissons Ratio (z) = 0.12908 0.21673
#
# Static dielectric constant tensor:
#      x y z
#    x 3.557290 0.000000 0.018940 
#    y 0.000000 3.157410 0.000000 
#    z 0.018940 0.000000 3.620110 
# 
# 
# High freq. dielectric constant tensor:
#      x y z
#    x 1.733190 0.000000 0.005220 
#    y 0.000000 1.687780 0.000000 
#    z 0.005220 0.000000 1.728970 
# 
# From -- ./inp_files/335659.got.cif
#   From: 2010.06.25/outbox.cif.g09.slc.cpg/sg12_168_cif.got.tgz:335659.got - 2010.06.28 00:19:55.
