data_PCOD8089984
_publ_section_title
;
Structure prediction by ZEFSAII (Michael W. Deem and Ramdas Pophale) SiO2 
 PCOD8089984
Probable space group: C 2/M
;
_chemical_formula_sum "Si O2"
_cell_formula_units_Z 40
_cell_length_a 24.980374
_cell_length_b 9.487349
_cell_length_c 12.397993
_cell_angle_alpha 90.000000
_cell_angle_beta 48.434731
_cell_angle_gamma 90.000000
_cell_volume 2198.432517
_symmetry_space_group_name_H-M "C 2/M"
_symmetry_group_IT_number 12
_symmetry_cell_setting 'monoclinic'
loop_
_space_group_symop_operation_xyz
x,y,z
-x,y,-z
-x,-y,-z
x,-y,z
1/2+x,1/2+y,z
1/2-x,1/2+y,-z
1/2-x,1/2-y,-z
1/2+x,1/2-y,z
loop_
_atom_site_type_symbol
_atom_site_label
_atom_site_fract_x
_atom_site_fract_y
_atom_site_fract_z
Si Si1 0.432768 0.163456 0.868035
Si Si2 0.833751 0.332768 0.191375
Si Si3 0.069397 0.161575 0.342939
Si Si4 0.403170 0.163284 0.318310
Si Si5 0.828290 0.838000 0.601250
O O1 0.417817 0.246574 0.779116
O O2 0.512416 0.186177 0.805822
O O3 0.417591 0.000000 0.864290
O O4 0.379549 0.225571 0.029860
O O5 0.839153 0.500000 0.183165
O O6 0.866115 0.275667 0.260224
O O7 0.752473 0.279613 0.288859
O O8 0.139655 0.177725 0.322309
O O9 0.000000 0.217773 0.500000
O O10 0.056492 0.000000 0.325451
O O11 0.375527 0.248448 0.457067
O O12 0.383899 0.000000 0.361859
O O13 0.830291 0.000000 0.560247
#
# Coordination Sequence:
#
# PCOD8089984 Si02
#       5
#     8   8   8   8   8
#     4  10  20  34  55  79 103 133 170 211 254 302
#     4   9  19  35  53  77 106 135 167 208 259 305
#     4  10  20  35  53  74 103 137 172 209 252 302
#     4  10  19  33  55  79 104 133 169 211 253 301
#     4  10  20  35  55  75 102 139 173 207 252 303
#
# _framework density 18.194782
#
# number of rings (size 3 to 8) (size 9 to 14) (size 15 to 20)
#    0.000    2.200    2.000    1.200    0.000    4.400 
#    0.000    2.000    0.000    2.400    0.000    0.000 
#    0.000    0.000    0.000    0.000    0.000    0.000 
#
# Total GULP energy -248061.825134 kJ/mol
# GULP energy per Si atom -12403.091257 kJ/mol
# Density = 1.815337 g / cm^3
# Si number density = 18.194782 Si / 1000 Ang^3
#
#
#
# Elastic Constant Matrix: (Units=GPa)
#
#
# Indices 1 2 3 4 5 6 
#
# 1 91.9994 25.6588 20.4918 0.0000 3.2281 0.0000
# 2 25.6588 44.0011 31.4438 0.0000 4.4841 0.0000
# 3 20.4918 31.4438 72.2522 0.0000 0.1151 0.0000
# 4 0.0000 0.0000 0.0000 10.3818 0.0000 -1.0764
# 5 3.2281 4.4841 0.1151 0.0000 32.4301 0.0000
# 6 0.0000 0.0000 0.0000 -1.0764 0.0000 20.6188
#
#
#
# Elastic Compliance Matrix: (Units=1/GPa)
#
#
# Indices 1 2 3 4 5 6 
#
# 1 0.013000 -0.007134 -0.000582 0.000000 -0.000306 0.000000
# 2 -0.007134 0.037573 -0.014321 0.000000 -0.004434 0.000000
# 3 -0.000582 -0.014321 0.020235 0.000000 0.001966 0.000000
# 4 0.000000 0.000000 0.000000 0.096847 0.000000 0.005056
# 5 -0.000306 -0.004434 0.001966 0.000000 0.031472 0.000000
# 6 0.000000 0.000000 0.000000 0.005056 0.000000 0.048763
#
#
# Mechanical properties :
#
#
# Convention : Reuss Voigt Hill
#
# Bulk Modulus (GPa) = 37.40600 40.38241 38.89421
# Shear Modulus (GPa) = 16.61828 21.39670 19.00749
#
# Velocity S-wave (km/s) = 3.02545 3.43298 3.23564
# Velocity P-wave (km/s) = 5.72781 6.16088 5.94829
#
# Compressibility (1/GPa) = 0.02673368
#
# Stress axis : x y z
#
# Youngs Moduli (GPa) = 76.92579 26.61521 49.41992
#
# Poissons Ratio (x) = 0.18986 0.02876
# Poissons Ratio (y) = 0.54876 0.70775
# Poissons Ratio (z) = 0.04476 0.38116
#
# Static dielectric constant tensor:
#      x y z
#    x 3.552880 0.000000 -0.083310 
#    y 0.000000 3.120850 0.000000 
#    z -0.083310 0.000000 3.379560 
# 
# 
# High freq. dielectric constant tensor:
#      x y z
#    x 1.721200 0.000000 -0.001670 
#    y 0.000000 1.677050 0.000000 
#    z -0.001670 0.000000 1.707830 
# 
# From -- ./inp_files/71330.got.cif
#   From: 2010.06.25/outbox.cif.g09.slc.cpg/sg12_36_cif.got.tgz:71330.got - 2010.06.28 00:19:55.
