data_PCOD8089522
_publ_section_title
;
Structure prediction by ZEFSAII (Michael W. Deem and Ramdas Pophale) SiO2 
 PCOD8089522
Probable space group: C 2/M
;
_chemical_formula_sum "Si O2"
_cell_formula_units_Z 64
_cell_length_a 17.194754
_cell_length_b 13.694070
_cell_length_c 16.560952
_cell_angle_alpha 90.000000
_cell_angle_beta 116.011951
_cell_angle_gamma 90.000000
_cell_volume 3504.530160
_symmetry_space_group_name_H-M "C 2/M"
_symmetry_group_IT_number 12
_symmetry_cell_setting 'monoclinic'
loop_
_space_group_symop_operation_xyz
x,y,z
-x,y,-z
-x,-y,-z
x,-y,z
1/2+x,1/2+y,z
1/2-x,1/2+y,-z
1/2-x,1/2-y,-z
1/2+x,1/2-y,z
loop_
_atom_site_type_symbol
_atom_site_label
_atom_site_fract_x
_atom_site_fract_y
_atom_site_fract_z
Si Si1 0.016685 0.391287 0.913685
Si Si2 0.899865 0.387534 0.299448
Si Si3 0.539179 0.689395 0.142663
Si Si4 0.694400 0.112205 0.579526
Si Si5 0.547523 0.235977 0.439034
Si Si6 0.392481 0.386245 0.658864
Si Si7 0.815568 0.387356 0.100498
Si Si8 0.375994 0.616142 0.977282
O O1 0.990558 0.500000 0.869812
O O2 0.958967 0.307628 0.844793
O O3 0.119377 0.373083 0.945105
O O4 0.000000 0.382270 0.000000
O O5 0.924245 0.500000 0.297215
O O6 0.831047 0.373534 0.339137
O O7 0.858865 0.339908 0.200108
O O8 0.989190 0.334681 0.358903
O O9 0.560690 0.639849 0.236554
O O10 0.606506 0.654600 0.105282
O O11 0.442204 0.661226 0.071563
O O12 0.637067 0.180100 0.496083
O O13 0.792950 0.145955 0.617278
O O14 0.680925 0.000000 0.546773
O O15 0.500000 0.265314 0.500000
O O16 0.563463 0.334189 0.396827
O O17 0.402839 0.500000 0.647991
O O18 0.800420 0.500000 0.114642
O O19 0.719418 0.345765 0.039282
O O20 0.386753 0.500000 0.982908
#
# Coordination Sequence:
#
# PCOD8089522 Si02
#       8
#     8   8   8   8   8   8   8   8
#     4  10  20  36  53  73 104 139 179 216 258 314
#     4   9  16  30  53  83 108 129 166 221 272 309
#     4  11  20  35  53  81 104 140 177 218 267 304
#     4   9  18  33  55  82 107 132 167 218 272 315
#     4  10  20  34  53  76 105 140 174 212 259 321
#     4  11  22  35  54  78 106 140 176 216 258 309
#     4   9  18  31  51  77 106 140 175 216 261 305
#     4  10  19  33  53  79 108 138 176 220 261 304
#
# _framework density 18.262077000000001
#
# number of rings (size 3 to 8) (size 9 to 14) (size 15 to 20)
#    0.000    2.125    1.250    3.750    0.000    4.250 
#    0.000    0.625    0.000    0.750    0.000    0.000 
#    0.000    0.000    0.000    0.000    0.000    0.000 
#
# Total GULP energy -396746.475598 kJ/mol
# GULP energy per Si atom -12398.327362 kJ/mol
# Density = 1.822051 g / cm^3
# Si number density = 18.262077 Si / 1000 Ang^3
#
#
#
# Elastic Constant Matrix: (Units=GPa)
#
#
# Indices 1 2 3 4 5 6 
#
# 1 109.6668 41.4902 63.7785 0.0000 -1.1404 0.0000
# 2 41.4902 89.1760 33.5771 0.0000 -1.0234 0.0000
# 3 63.7785 33.5771 107.2562 0.0000 5.6076 0.0000
# 4 0.0000 0.0000 0.0000 0.9839 0.0000 -2.8850
# 5 -1.1404 -1.0234 5.6076 0.0000 19.6539 0.0000
# 6 0.0000 0.0000 0.0000 -2.8850 0.0000 21.6595
#
#
#
# Elastic Compliance Matrix: (Units=1/GPa)
#
#
# Indices 1 2 3 4 5 6 
#
# 1 0.015352 -0.004096 -0.008002 0.000000 0.002960 0.000000
# 2 -0.004096 0.013870 -0.001961 0.000000 0.001044 0.000000
# 3 -0.008002 -0.001961 0.014948 0.000000 -0.004831 0.000000
# 4 0.000000 0.000000 0.000000 1.667576 0.000000 0.222117
# 5 0.002960 0.001044 -0.004831 0.000000 0.052485 0.000000
# 6 0.000000 0.000000 0.000000 0.222117 0.000000 0.075754
#
#
# Mechanical properties :
#
#
# Convention : Reuss Voigt Hill
#
# Bulk Modulus (GPa) = 62.29355 64.86562 63.57958
# Shear Modulus (GPa) = 2.66887 19.60968 11.13927
#
# Velocity S-wave (km/s) = 1.21021 3.28043 2.47243
# Velocity P-wave (km/s) = 6.01147 7.06716 6.56058
#
# Compressibility (1/GPa) = 0.01605303
#
# Stress axis : x y z
#
# Youngs Moduli (GPa) = 65.13605 72.09876 66.89859
#
# Poissons Ratio (x) = 0.29533 0.53530
# Poissons Ratio (y) = 0.26681 0.13118
# Poissons Ratio (z) = 0.52119 0.14138
#
# Static dielectric constant tensor:
#      x y z
#    x 3.473280 0.000000 0.071230 
#    y 0.000000 3.439250 0.000000 
#    z 0.071230 0.000000 3.297820 
# 
# 
# High freq. dielectric constant tensor:
#      x y z
#    x 1.713570 0.000000 -0.001100 
#    y 0.000000 1.703110 0.000000 
#    z -0.001100 0.000000 1.697310 
# 
# From -- ./inp_files/225309.got.cif
#   From: 2010.06.25/outbox.cif.g09.slc.cpg/sg12_113_cif.got.tgz:225309.got - 2010.06.28 00:19:55.
