data_PCOD8089879
_publ_section_title
;
Structure prediction by ZEFSAII (Michael W. Deem and Ramdas Pophale) SiO2 
 PCOD8089879
Probable space group: C 2/M
;
_chemical_formula_sum "Si O2"
_cell_formula_units_Z 64
_cell_length_a 15.456862
_cell_length_b 8.514640
_cell_length_c 24.084962
_cell_angle_alpha 90.000000
_cell_angle_beta 89.479900
_cell_angle_gamma 90.000000
_cell_volume 3169.681991
_symmetry_space_group_name_H-M "C 2/M"
_symmetry_group_IT_number 12
_symmetry_cell_setting 'monoclinic'
loop_
_space_group_symop_operation_xyz
x,y,z
-x,y,-z
-x,-y,-z
x,-y,z
1/2+x,1/2+y,z
1/2-x,1/2+y,-z
1/2-x,1/2-y,-z
1/2+x,1/2-y,z
loop_
_atom_site_type_symbol
_atom_site_label
_atom_site_fract_x
_atom_site_fract_y
_atom_site_fract_z
Si Si1 0.096484 0.813157 0.369556
Si Si2 0.100814 0.176820 0.247291
Si Si3 0.248615 0.185201 0.561515
Si Si4 0.157426 0.186313 0.865892
Si Si5 0.336953 0.313230 0.867534
Si Si6 0.400292 0.322399 0.251764
Si Si7 0.409124 0.182510 0.367908
Si Si8 0.503204 0.687250 0.062468
O O1 0.118657 0.745522 0.307497
O O2 0.159791 0.727970 0.411525
O O3 0.996455 0.775054 0.383929
O O4 0.108447 0.000000 0.373045
O O5 0.148589 0.258928 0.194857
O O6 0.999915 0.181087 0.233963
O O7 0.134463 0.000000 0.251732
O O8 0.250000 0.250000 0.500000
O O9 0.168785 0.264560 0.592909
O O10 0.235708 0.000000 0.561698
O O11 0.245128 0.255934 0.891023
O O12 0.150392 0.241964 0.801744
O O13 0.079048 0.253158 0.903222
O O14 0.158159 0.000000 0.868598
O O15 0.342376 0.500000 0.864832
O O16 0.409963 0.248779 0.908786
O O17 0.372503 0.500000 0.267456
O O18 0.380545 0.213354 0.304545
O O19 0.426878 0.000000 0.376545
O O20 0.502120 0.500000 0.062296
O O21 0.500000 0.753715 0.000000
#
# Coordination Sequence:
#
# PCOD8089879 Si02
#       8
#     8   8   8   8   8   8   8   8
#     4  10  21  40  64  92 124 161 201 250 305 360
#     4   8  15  31  56  81 111 149 189 232 286 351
#     4  12  26  45  66  92 124 162 207 252 298 358
#     4  10  20  34  54  82 113 147 192 243 296 350
#     4  10  19  33  54  82 112 148 191 238 292 353
#     4   9  17  34  57  81 113 154 194 241 296 356
#     4  11  23  40  62  92 125 162 203 249 301 360
#     4   9  18  35  58  79 107 153 202 240 283 351
#
# _framework density 20.191302
#
# number of rings (size 3 to 8) (size 9 to 14) (size 15 to 20)
#    0.000    2.125    1.250    3.375    1.750    1.500 
#    0.000    5.625    0.000    0.750    0.000    0.000 
#    0.000    0.000    0.000    0.000    0.000    0.000 
#
# Total GULP energy -396734.366364 kJ/mol
# GULP energy per Si atom -12397.948949 kJ/mol
# Density = 2.014535 g / cm^3
# Si number density = 20.191302 Si / 1000 Ang^3
#
#
#
# Elastic Constant Matrix: (Units=GPa)
#
#
# Indices 1 2 3 4 5 6 
#
# 1 130.4949 7.0004 76.7675 0.0000 6.2600 0.0000
# 2 7.0004 45.9272 21.9463 0.0000 -0.9351 0.0000
# 3 76.7675 21.9463 138.9453 0.0000 5.8923 0.0000
# 4 0.0000 0.0000 0.0000 16.7620 0.0000 1.5638
# 5 6.2600 -0.9351 5.8923 0.0000 26.6699 0.0000
# 6 0.0000 0.0000 0.0000 1.5638 0.0000 32.1666
#
#
#
# Elastic Compliance Matrix: (Units=1/GPa)
#
#
# Indices 1 2 3 4 5 6 
#
# 1 0.011472 0.001331 -0.006497 0.000000 -0.001211 0.000000
# 2 0.001331 0.023779 -0.004556 0.000000 0.001528 0.000000
# 3 -0.006497 -0.004556 0.011557 0.000000 -0.001188 0.000000
# 4 0.000000 0.000000 0.000000 0.059930 0.000000 -0.002914
# 5 -0.001211 0.001528 -0.001188 0.000000 0.038096 0.000000
# 6 0.000000 0.000000 0.000000 -0.002914 0.000000 0.031230
#
#
# Mechanical properties :
#
#
# Convention : Reuss Voigt Hill
#
# Bulk Modulus (GPa) = 36.54486 58.53288 47.53887
# Shear Modulus (GPa) = 24.43444 29.09657 26.76551
#
# Velocity S-wave (km/s) = 3.48249 3.80023 3.64482
# Velocity P-wave (km/s) = 5.85738 6.95038 6.42716
#
# Compressibility (1/GPa) = 0.02736363
#
# Stress axis : x y z
#
# Youngs Moduli (GPa) = 87.16888 42.05396 86.52862
#
# Poissons Ratio (x) = -0.05599 0.56220
# Poissons Ratio (y) = -0.11606 0.39425
# Poissons Ratio (z) = 0.56636 0.19161
#
# Static dielectric constant tensor:
#      x y z
#    x 3.731040 0.000000 0.018620 
#    y 0.000000 3.329600 0.000000 
#    z 0.018620 0.000000 3.883070 
# 
# 
# High freq. dielectric constant tensor:
#      x y z
#    x 1.795110 0.000000 0.001410 
#    y 0.000000 1.756690 0.000000 
#    z 0.001410 0.000000 1.792570 
# 
# From -- ./inp_files/338897.got.cif
#   From: 2010.06.25/outbox.cif.g09.slc.cpg/sg12_170_cif.got.tgz:338897.got - 2010.06.28 00:19:55.
