data_PCOD8089125
_publ_section_title
;
Structure prediction by ZEFSAII (Michael W. Deem and Ramdas Pophale) SiO2 
 PCOD8089125
Probable space group: C 2/M
;
_chemical_formula_sum "Si O2"
_cell_formula_units_Z 56
_cell_length_a 25.414634
_cell_length_b 9.153722
_cell_length_c 18.862929
_cell_angle_alpha 90.000000
_cell_angle_beta 131.793886
_cell_angle_gamma 90.000000
_cell_volume 3271.642233
_symmetry_space_group_name_H-M "C 2/M"
_symmetry_group_IT_number 12
_symmetry_cell_setting 'monoclinic'
loop_
_space_group_symop_operation_xyz
x,y,z
-x,y,-z
-x,-y,-z
x,-y,z
1/2+x,1/2+y,z
1/2-x,1/2+y,-z
1/2-x,1/2-y,-z
1/2+x,1/2-y,z
loop_
_atom_site_type_symbol
_atom_site_label
_atom_site_fract_x
_atom_site_fract_y
_atom_site_fract_z
Si Si1 0.002304 0.331214 0.786107
Si Si2 0.642952 0.671070 0.882256
Si Si3 0.946698 0.332294 0.888094
Si Si4 0.302581 0.327696 0.784637
Si Si5 0.353616 0.166971 0.587163
Si Si6 0.761043 0.830356 0.399155
Si Si7 0.756388 0.170058 0.899849
O O1 0.024870 0.500000 0.803656
O O2 0.064620 0.234064 0.811331
O O3 0.986112 0.284034 0.852005
O O4 0.934854 0.300848 0.676252
O O5 0.638873 0.500000 0.865663
O O6 0.686360 0.740878 0.856568
O O7 0.680144 0.711094 0.989986
O O8 0.920358 0.500000 0.858040
O O9 0.880677 0.229009 0.840581
O O10 0.000000 0.310446 0.000000
O O11 0.301466 0.500000 0.772076
O O12 0.246639 0.254103 0.681594
O O13 0.280355 0.282764 0.843576
O O14 0.309103 0.200520 0.618029
O O15 0.329618 0.270740 0.501699
O O16 0.341087 0.000000 0.552706
O O17 0.772325 0.000000 0.393645
O O18 0.737762 0.000000 0.887997
#
# Coordination Sequence:
#
# PCOD8089125 Si02
#       7
#     8   8   8   8   8   8   8
#     4  10  19  33  51  74 106 140 169 206 256 310
#     4  10  20  34  54  78 101 132 178 221 254 297
#     4  10  20  33  49  73 106 141 173 206 252 307
#     4  11  21  33  52  76 105 138 172 211 258 309
#     4   9  18  33  51  73 103 137 174 209 252 309
#     4  10  19  33  52  75 104 134 173 215 255 306
#     4   9  20  37  53  73 103 138 175 214 257 306
#
# _framework density 17.116786000000001
#
# number of rings (size 3 to 8) (size 9 to 14) (size 15 to 20)
#    0.000    2.143    1.429    2.143    0.000    3.714 
#    0.000    0.000    0.000    0.857    0.000    6.000 
#    0.000    0.000    0.000    0.000    0.000    0.000 
#
# Total GULP energy -347326.070083 kJ/mol
# GULP energy per Si atom -12404.502503 kJ/mol
# Density = 1.707783 g / cm^3
# Si number density = 17.116786 Si / 1000 Ang^3
#
#
#
# Elastic Constant Matrix: (Units=GPa)
#
#
# Indices 1 2 3 4 5 6 
#
# 1 73.6608 38.5847 36.5468 0.0000 17.4649 0.0000
# 2 38.5847 70.4543 40.1445 0.0000 5.2665 0.0000
# 3 36.5468 40.1445 77.3209 0.0000 4.5429 0.0000
# 4 0.0000 0.0000 0.0000 23.8758 0.0000 7.8485
# 5 17.4649 5.2665 4.5429 0.0000 19.8841 0.0000
# 6 0.0000 0.0000 0.0000 7.8485 0.0000 28.6292
#
#
#
# Elastic Compliance Matrix: (Units=1/GPa)
#
#
# Indices 1 2 3 4 5 6 
#
# 1 0.026101 -0.009202 -0.006442 0.000000 -0.019016 0.000000
# 2 -0.009202 0.023578 -0.008109 0.000000 0.003691 0.000000
# 3 -0.006442 -0.008109 0.019998 0.000000 0.003237 0.000000
# 4 0.000000 0.000000 0.000000 0.046032 0.000000 -0.012619
# 5 -0.019016 0.003691 0.003237 0.000000 0.065277 0.000000
# 6 0.000000 0.000000 0.000000 -0.012619 0.000000 0.038389
#
#
# Mechanical properties :
#
#
# Convention : Reuss Voigt Hill
#
# Bulk Modulus (GPa) = 45.10458 50.22089 47.66273
# Shear Modulus (GPa) = 18.23023 21.55516 19.89269
#
# Velocity S-wave (km/s) = 3.26705 3.55251 3.41277
# Velocity P-wave (km/s) = 6.37493 6.79933 6.59055
#
# Compressibility (1/GPa) = 0.02217070
#
# Stress axis : x y z
#
# Youngs Moduli (GPa) = 38.31276 42.41310 50.00566
#
# Poissons Ratio (x) = 0.39030 0.32213
# Poissons Ratio (y) = 0.35256 0.40548
# Poissons Ratio (z) = 0.24681 0.34391
#
# Static dielectric constant tensor:
#      x y z
#    x 3.046680 0.000000 -0.069310 
#    y 0.000000 3.217170 0.000000 
#    z -0.069310 0.000000 3.241740 
# 
# 
# High freq. dielectric constant tensor:
#      x y z
#    x 1.642530 0.000000 0.000190 
#    y 0.000000 1.666910 0.000000 
#    z 0.000190 0.000000 1.662250 
# 
# From -- ./inp_files/288158.got.cif
#   From: 2010.06.25/outbox.cif.g09.slc.cpg/sg12_145_cif.got.tgz:288158.got - 2010.06.28 00:19:55.
