data_PCOD8089217
_publ_section_title
;
Structure prediction by ZEFSAII (Michael W. Deem and Ramdas Pophale) SiO2 
 PCOD8089217
Probable space group: C 2/M
;
_chemical_formula_sum "Si O2"
_cell_formula_units_Z 64
_cell_length_a 28.376213
_cell_length_b 14.082247
_cell_length_c 9.080886
_cell_angle_alpha 90.000000
_cell_angle_beta 81.188276
_cell_angle_gamma 90.000000
_cell_volume 3585.899985
_symmetry_space_group_name_H-M "C 2/M"
_symmetry_group_IT_number 12
_symmetry_cell_setting 'monoclinic'
loop_
_space_group_symop_operation_xyz
x,y,z
-x,y,-z
-x,-y,-z
x,-y,z
1/2+x,1/2+y,z
1/2-x,1/2+y,-z
1/2-x,1/2-y,-z
1/2+x,1/2-y,z
loop_
_atom_site_type_symbol
_atom_site_label
_atom_site_fract_x
_atom_site_fract_y
_atom_site_fract_z
Si Si1 0.218663 0.302797 0.820673
Si Si2 0.763913 0.896527 0.542252
Si Si3 0.344065 0.724980 0.387001
Si Si4 0.076645 0.110444 0.798167
Si Si5 0.014091 0.888352 0.333795
Si Si6 0.829336 0.609266 0.583015
Si Si7 0.893669 0.112862 0.884997
Si Si8 0.818563 0.723902 0.865096
O O1 0.233123 0.389831 0.707665
O O2 0.184336 0.230328 0.751472
O O3 0.265808 0.247750 0.840655
O O4 0.187777 0.333603 0.978014
O O5 0.807716 0.823156 0.522147
O O6 0.727307 0.880589 0.424338
O O7 0.787077 0.000000 0.521074
O O8 0.390460 0.663581 0.336075
O O9 0.358169 0.827525 0.448783
O O10 0.023178 0.139642 0.777225
O O11 0.086282 0.000000 0.769528
O O12 0.086290 0.138211 0.962385
O O13 0.066325 0.856812 0.253560
O O14 0.000000 0.842545 0.500000
O O15 0.014221 0.000000 0.352848
O O16 0.846280 0.500000 0.564760
O O17 0.841714 0.650794 0.738325
O O18 0.848125 0.178104 0.870941
O O19 0.880625 0.000000 0.880638
#
# Coordination Sequence:
#
# PCOD8089217 Si02
#       8
#     8   8   8   8   8   8   8   8
#     4  10  20  33  49  71 107 137 181 228 261 301
#     4  10  19  33  52  74 102 142 180 220 274 324
#     4  11  18  36  52  78 107 142 187 225 261 324
#     4  10  20  34  55  82 113 150 178 209 265 330
#     4   9  19  34  53  82 115 142 176 217 261 324
#     4  10  21  35  52  70 100 143 181 225 277 311
#     4  10  21  36  54  79 114 151 179 213 267 326
#     4  11  20  35  52  73 105 142 182 231 264 314
#
# _framework density 17.847681000000001
#
# number of rings (size 3 to 8) (size 9 to 14) (size 15 to 20)
#    0.000    1.875    3.750    1.500    1.750    2.500 
#    0.000    1.875    0.000    0.000    0.000    1.750 
#    0.000    2.000    0.000    0.000    0.000    0.000 
#
# Total GULP energy -396540.034134 kJ/mol
# GULP energy per Si atom -12391.876067 kJ/mol
# Density = 1.780706 g / cm^3
# Si number density = 17.847681 Si / 1000 Ang^3
#
#
#
# Elastic Constant Matrix: (Units=GPa)
#
#
# Indices 1 2 3 4 5 6 
#
# 1 43.4101 20.0413 29.2599 0.0000 -2.8600 0.0000
# 2 20.0413 78.0911 38.4003 0.0000 2.0466 0.0000
# 3 29.2599 38.4003 118.5305 0.0000 -2.6009 0.0000
# 4 0.0000 0.0000 0.0000 22.5809 0.0000 -1.8508
# 5 -2.8600 2.0466 -2.6009 0.0000 22.1100 0.0000
# 6 0.0000 0.0000 0.0000 -1.8508 0.0000 17.4053
#
#
#
# Elastic Compliance Matrix: (Units=1/GPa)
#
#
# Indices 1 2 3 4 5 6 
#
# 1 0.029274 -0.004867 -0.005571 0.000000 0.003582 0.000000
# 2 -0.004867 0.016130 -0.004081 0.000000 -0.002603 0.000000
# 3 -0.005571 -0.004081 0.011155 0.000000 0.000969 0.000000
# 4 0.000000 0.000000 0.000000 0.044675 0.000000 0.004751
# 5 0.003582 -0.002603 0.000969 0.000000 0.046047 0.000000
# 6 0.000000 0.000000 0.000000 0.004751 0.000000 0.057959
#
#
# Mechanical properties :
#
#
# Convention : Reuss Voigt Hill
#
# Bulk Modulus (GPa) = 36.33675 46.15940 41.24807
# Shear Modulus (GPa) = 20.53793 22.57460 21.55627
#
# Velocity S-wave (km/s) = 3.39593 3.56033 3.47910
# Velocity P-wave (km/s) = 5.98164 6.54373 6.26899
#
# Compressibility (1/GPa) = 0.02752035
#
# Stress axis : x y z
#
# Youngs Moduli (GPa) = 34.15968 61.99720 89.64321
#
# Poissons Ratio (x) = 0.30176 0.49941
# Poissons Ratio (y) = 0.16627 0.36585
# Poissons Ratio (z) = 0.19031 0.25302
#
# Static dielectric constant tensor:
#      x y z
#    x 3.153890 0.000000 0.060330 
#    y 0.000000 3.065400 0.000000 
#    z 0.060330 0.000000 3.770150 
# 
# 
# High freq. dielectric constant tensor:
#      x y z
#    x 1.665180 0.000000 0.007720 
#    y 0.000000 1.655910 0.000000 
#    z 0.007720 0.000000 1.710000 
# 
# From -- ./inp_files/104551.got.cif
#   From: 2010.06.25/outbox.cif.g09.slc.cpg/sg12_53_cif.got.tgz:104551.got - 2010.06.28 00:19:55.
