data_PCOD8089334
_publ_section_title
;
Structure prediction by ZEFSAII (Michael W. Deem and Ramdas Pophale) SiO2 
 PCOD8089334
Probable space group: C 2/M
;
_chemical_formula_sum "Si O2"
_cell_formula_units_Z 64
_cell_length_a 29.226173
_cell_length_b 9.077808
_cell_length_c 15.474410
_cell_angle_alpha 90.000000
_cell_angle_beta 117.760168
_cell_angle_gamma 90.000000
_cell_volume 3632.985703
_symmetry_space_group_name_H-M "C 2/M"
_symmetry_group_IT_number 12
_symmetry_cell_setting 'monoclinic'
loop_
_space_group_symop_operation_xyz
x,y,z
-x,y,-z
-x,-y,-z
x,-y,z
1/2+x,1/2+y,z
1/2-x,1/2+y,-z
1/2-x,1/2-y,-z
1/2+x,1/2-y,z
loop_
_atom_site_type_symbol
_atom_site_label
_atom_site_fract_x
_atom_site_fract_y
_atom_site_fract_z
Si Si1 0.427113 0.331530 0.783833
Si Si2 0.958679 0.168675 0.138972
Si Si3 0.797272 0.327359 0.236403
Si Si4 0.138278 0.169580 0.841741
Si Si5 0.320428 0.670036 0.610103
Si Si6 0.906231 0.673943 0.939019
Si Si7 0.187502 0.829434 0.065781
Si Si8 0.770839 0.172574 0.386618
O O1 0.422218 0.500000 0.812038
O O2 0.481548 0.307865 0.781540
O O3 0.380700 0.292978 0.677490
O O4 0.426684 0.224170 0.864554
O O5 0.921282 0.207555 0.186571
O O6 0.947542 0.000000 0.101448
O O7 0.945867 0.269400 0.045958
O O8 0.802616 0.500000 0.256261
O O9 0.846248 0.270543 0.225219
O O10 0.746176 0.285363 0.137342
O O11 0.797210 0.248994 0.328462
O O12 0.144874 0.000000 0.820419
O O13 0.174858 0.208071 0.955443
O O14 0.307612 0.500000 0.617700
O O15 0.286570 0.764812 0.647327
O O16 0.307084 0.711106 0.500061
O O17 0.904327 0.500000 0.941141
O O18 0.848746 0.736107 0.902741
O O19 0.176836 0.000000 0.076355
O O20 0.766417 0.000000 0.365435
#
# Coordination Sequence:
#
# PCOD8089334 Si02
#       8
#     8   8   8   8   8   8   8   8
#     4  10  19  33  53  72  94 128 167 202 239 286
#     4   9  19  35  52  69  94 131 168 201 240 284
#     4  11  21  32  50  74  98 128 165 200 239 289
#     4   9  18  33  50  69  95 126 162 203 244 283
#     4   9  19  35  54  76 100 126 159 199 241 287
#     4  11  21  30  45  73 105 132 161 198 239 285
#     4   9  19  34  49  68  98 133 166 199 236 284
#     4  10  20  34  52  75 103 130 156 193 243 293
#
# _framework density 17.616364999999998
#
# number of rings (size 3 to 8) (size 9 to 14) (size 15 to 20)
#    0.000    2.250    0.000    4.125    0.000    9.000 
#    0.000    0.000    0.000    0.750    0.000    5.250 
#    0.000    0.000    0.000    0.000    0.000    0.000 
#
# Total GULP energy -396867.085028 kJ/mol
# GULP energy per Si atom -12402.096407 kJ/mol
# Density = 1.757627 g / cm^3
# Si number density = 17.616365 Si / 1000 Ang^3
#
#
#
# Elastic Constant Matrix: (Units=GPa)
#
#
# Indices 1 2 3 4 5 6 
#
# 1 138.3399 56.6012 67.5917 0.0000 -1.0945 0.0000
# 2 56.6012 83.4590 39.9227 0.0000 -6.4186 0.0000
# 3 67.5917 39.9227 71.5424 0.0000 -2.3364 0.0000
# 4 0.0000 0.0000 0.0000 20.8943 0.0000 -5.3529
# 5 -1.0945 -6.4186 -2.3364 0.0000 29.0238 0.0000
# 6 0.0000 0.0000 0.0000 -5.3529 0.0000 26.7767
#
#
#
# Elastic Compliance Matrix: (Units=1/GPa)
#
#
# Indices 1 2 3 4 5 6 
#
# 1 0.014620 -0.004628 -0.011275 0.000000 -0.001380 0.000000
# 2 -0.004628 0.018055 -0.005593 0.000000 0.003368 0.000000
# 3 -0.011275 -0.005593 0.027770 0.000000 0.000573 0.000000
# 4 0.000000 0.000000 0.000000 0.050443 0.000000 0.010084
# 5 -0.001380 0.003368 0.000573 0.000000 0.035193 0.000000
# 6 0.000000 0.000000 0.000000 0.010084 0.000000 0.039362
#
#
# Mechanical properties :
#
#
# Convention : Reuss Voigt Hill
#
# Bulk Modulus (GPa) = 57.29672 69.06361 63.18017
# Shear Modulus (GPa) = 21.34438 23.95401 22.64919
#
# Velocity S-wave (km/s) = 3.48461 3.69149 3.58954
# Velocity P-wave (km/s) = 6.98465 7.58016 7.28849
#
# Compressibility (1/GPa) = 0.01745301
#
# Stress axis : x y z
#
# Youngs Moduli (GPa) = 68.39864 55.38675 36.00976
#
# Poissons Ratio (x) = 0.25632 0.40603
# Poissons Ratio (y) = 0.31653 0.20140
# Poissons Ratio (z) = 0.77122 0.30977
#
# Static dielectric constant tensor:
#      x y z
#    x 3.343950 0.000000 0.109310 
#    y 0.000000 3.239890 0.000000 
#    z 0.109310 0.000000 3.139310 
# 
# 
# High freq. dielectric constant tensor:
#      x y z
#    x 1.681830 0.000000 0.002770 
#    y 0.000000 1.681780 0.000000 
#    z 0.002770 0.000000 1.656700 
# 
# From -- ./inp_files/243848.got.cif
#   From: 2010.06.25/outbox.cif.g09.slc.cpg/sg12_122_cif.got.tgz:243848.got - 2010.06.28 00:19:55.
