data_PCOD8089052
_publ_section_title
;
Structure prediction by ZEFSAII (Michael W. Deem and Ramdas Pophale) SiO2 
 PCOD8089052
Probable space group: C 2/M
;
_chemical_formula_sum "Si O2"
_cell_formula_units_Z 56
_cell_length_a 9.618870
_cell_length_b 20.273087
_cell_length_c 20.273827
_cell_angle_alpha 90.000000
_cell_angle_beta 131.787888
_cell_angle_gamma 90.000000
_cell_volume 2947.782318
_symmetry_space_group_name_H-M "C 2/M"
_symmetry_group_IT_number 12
_symmetry_cell_setting 'monoclinic'
loop_
_space_group_symop_operation_xyz
x,y,z
-x,y,-z
-x,-y,-z
x,-y,z
1/2+x,1/2+y,z
1/2-x,1/2+y,-z
1/2-x,1/2-y,-z
1/2+x,1/2-y,z
loop_
_atom_site_type_symbol
_atom_site_label
_atom_site_fract_x
_atom_site_fract_y
_atom_site_fract_z
Si Si1 0.555269 0.072569 0.867427
Si Si2 0.577936 0.242046 0.708232
Si Si3 0.682035 0.785633 0.596708
Si Si4 0.657330 0.579129 0.933939
Si Si5 0.760867 0.392204 0.203671
Si Si6 0.287025 0.427382 0.664261
Si Si7 0.812048 0.876820 0.198305
O O1 0.633610 0.065903 0.818344
O O2 0.361198 0.111629 0.807802
O O3 0.509731 0.000000 0.879926
O O4 0.710956 0.103554 0.964997
O O5 0.683170 0.240046 0.671951
O O6 0.358581 0.248241 0.620989
O O7 0.636120 0.177874 0.767002
O O8 0.631334 0.301355 0.773559
O O9 0.500000 0.762383 0.500000
O O10 0.695748 0.865886 0.596427
O O11 0.633100 0.500000 0.923542
O O12 0.457502 0.613268 0.882763
O O13 0.748304 0.607675 0.895719
O O14 0.781171 0.425615 0.281498
O O15 0.228968 0.500000 0.617421
O O16 0.510773 0.422654 0.728975
#
# Coordination Sequence:
#
# PCOD8089052 Si02
#       7
#     8   8   8   8   8   8   8
#     4  11  20  30  49  75  99 128 169 213 251 283
#     4  10  21  36  53  74 100 130 166 198 239 298
#     4  10  20  35  56  78 101 127 157 199 246 296
#     4  10  20  34  50  70  99 133 170 210 248 284
#     4  10  19  33  50  70  99 134 168 205 242 287
#     4   9  18  33  53  75 100 131 163 199 244 292
#     4  10  19  33  50  70  99 134 168 205 242 287
#
# _framework density 18.997333000000001
#
# number of rings (size 3 to 8) (size 9 to 14) (size 15 to 20)
#    0.000    2.000    0.000    6.429    0.000    2.571 
#    0.000    4.286    0.000    0.000    0.000    0.000 
#    0.000   26.286    0.000    0.000    0.000    0.000 
#
# Total GULP energy -347105.631082 kJ/mol
# GULP energy per Si atom -12396.629681 kJ/mol
# Density = 1.895409 g / cm^3
# Si number density = 18.997333 Si / 1000 Ang^3
#
#
#
# Elastic Constant Matrix: (Units=GPa)
#
#
# Indices 1 2 3 4 5 6 
#
# 1 88.3415 16.5089 11.8321 -0.0001 14.2168 -0.0001
# 2 16.5089 98.8948 23.6456 0.0000 11.6785 0.0000
# 3 11.8321 23.6456 60.4973 -0.0001 13.7872 -0.0001
# 4 -0.0001 0.0000 -0.0001 17.3075 -0.0001 1.5966
# 5 14.2168 11.6785 13.7872 -0.0001 26.7572 -0.0001
# 6 -0.0001 0.0000 -0.0001 1.5966 -0.0001 24.5916
#
#
#
# Elastic Compliance Matrix: (Units=1/GPa)
#
#
# Indices 1 2 3 4 5 6 
#
# 1 0.012575 -0.001260 -0.000645 0.000000 -0.005799 0.000000
# 2 -0.001260 0.011493 -0.003688 0.000000 -0.002446 0.000000
# 3 -0.000645 -0.003688 0.020001 0.000000 -0.008353 0.000000
# 4 0.000000 0.000000 0.000000 0.058127 0.000000 -0.003774
# 5 -0.005799 -0.002446 -0.008353 0.000000 0.045826 0.000000
# 6 0.000000 0.000000 0.000000 -0.003774 0.000000 0.040909
#
#
# Mechanical properties :
#
#
# Convention : Reuss Voigt Hill
#
# Bulk Modulus (GPa) = 30.41201 39.07855 34.74528
# Shear Modulus (GPa) = 23.68790 26.78106 25.23448
#
# Velocity S-wave (km/s) = 3.53499 3.75871 3.64856
# Velocity P-wave (km/s) = 5.71881 6.28111 6.00655
#
# Compressibility (1/GPa) = 0.03288174
#
# Stress axis : x y z
#
# Youngs Moduli (GPa) = 79.52393 87.01095 49.99726
#
# Poissons Ratio (x) = 0.10964 0.03227
# Poissons Ratio (y) = 0.10021 0.18439
# Poissons Ratio (z) = 0.05132 0.32090
#
# Static dielectric constant tensor:
#      x y z
#    x 3.515120 0.000000 0.102680 
#    y 0.000000 3.416020 0.000000 
#    z 0.102680 0.000000 3.266250 
# 
# 
# High freq. dielectric constant tensor:
#      x y z
#    x 1.747940 0.000000 0.008660 
#    y 0.000000 1.730180 0.000000 
#    z 0.008660 0.000000 1.718060 
# 
# From -- ./inp_files/257589.got.cif
#   From: 2010.06.25/outbox.cif.g09.slc.cpg/sg12_129_cif.got.tgz:257589.got - 2010.06.28 00:19:55.
