data_PCOD8089527
_publ_section_title
;
Structure prediction by ZEFSAII (Michael W. Deem and Ramdas Pophale) SiO2 
 PCOD8089527
Probable space group: C 2/M
;
_chemical_formula_sum "Si O2"
_cell_formula_units_Z 56
_cell_length_a 28.460313
_cell_length_b 8.791974
_cell_length_c 17.463595
_cell_angle_alpha 90.000000
_cell_angle_beta 137.236401
_cell_angle_gamma 90.000000
_cell_volume 2966.972439
_symmetry_space_group_name_H-M "C 2/M"
_symmetry_group_IT_number 12
_symmetry_cell_setting 'monoclinic'
loop_
_space_group_symop_operation_xyz
x,y,z
-x,y,-z
-x,-y,-z
x,-y,z
1/2+x,1/2+y,z
1/2-x,1/2+y,-z
1/2-x,1/2-y,-z
1/2+x,1/2-y,z
loop_
_atom_site_type_symbol
_atom_site_label
_atom_site_fract_x
_atom_site_fract_y
_atom_site_fract_z
Si Si1 0.786454 0.320214 0.732452
Si Si2 0.645022 0.679815 0.745471
Si Si3 0.642161 0.175090 0.585589
Si Si4 0.932339 0.672619 0.656100
Si Si5 0.301101 0.179495 0.919659
Si Si6 0.681857 0.678072 0.382023
Si Si7 0.911085 0.321413 0.172062
O O1 0.789651 0.500000 0.725231
O O2 0.707063 0.269104 0.631412
O O3 0.817247 0.269205 0.851748
O O4 0.830437 0.240799 0.718389
O O5 0.640736 0.500000 0.730301
O O6 0.614648 0.756559 0.632464
O O7 0.724507 0.734893 0.852208
O O8 0.599538 0.732831 0.761919
O O9 0.581413 0.192822 0.450828
O O10 0.663852 0.000000 0.622873
O O11 0.915142 0.500000 0.660605
O O12 0.886001 0.785414 0.650315
O O13 0.012247 0.711818 0.767137
O O14 0.304623 0.000000 0.928376
O O15 0.357936 0.247230 0.045591
O O16 0.693715 0.500000 0.392986
O O17 0.750000 0.750000 0.500000
O O18 0.899398 0.500000 0.172753
#
# Coordination Sequence:
#
# PCOD8089527 Si02
#       7
#     8   8   8   8   8   8   8
#     4  10  19  34  57  85 112 139 177 228 274 320
#     4  10  20  34  54  81 110 142 185 232 276 324
#     4  10  19  33  53  79 109 142 182 227 274 325
#     4  10  22  37  55  80 111 144 183 226 273 327
#     4   8  17  34  57  82 108 141 185 228 269 317
#     4  12  23  36  58  84 111 143 179 221 271 325
#     4  10  20  37  57  78 108 147 186 228 273 321
#
# _framework density 18.874459000000002
#
# number of rings (size 3 to 8) (size 9 to 14) (size 15 to 20)
#    0.000    2.000    1.429    3.857    0.000    1.714 
#    0.000    7.143    0.000    4.286    0.000    0.000 
#    0.000    0.000    0.000    0.000    0.000    0.000 
#
# Total GULP energy -347243.588202 kJ/mol
# GULP energy per Si atom -12401.556722 kJ/mol
# Density = 1.883150 g / cm^3
# Si number density = 18.874459 Si / 1000 Ang^3
#
#
#
# Elastic Constant Matrix: (Units=GPa)
#
#
# Indices 1 2 3 4 5 6 
#
# 1 101.8136 42.0317 28.3745 0.0000 -12.4775 0.0000
# 2 42.0317 90.4332 23.0668 0.0000 -4.8637 0.0000
# 3 28.3745 23.0668 54.0825 0.0000 -1.5960 0.0000
# 4 0.0000 0.0000 0.0000 19.9112 0.0000 -2.8340
# 5 -12.4775 -4.8637 -1.5960 0.0000 24.4135 0.0000
# 6 0.0000 0.0000 0.0000 -2.8340 0.0000 35.7371
#
#
#
# Elastic Compliance Matrix: (Units=1/GPa)
#
#
# Indices 1 2 3 4 5 6 
#
# 1 0.013967 -0.004884 -0.005072 0.000000 0.005834 0.000000
# 2 -0.004884 0.014227 -0.003502 0.000000 0.000109 0.000000
# 3 -0.005072 -0.003502 0.022592 0.000000 -0.001813 0.000000
# 4 0.000000 0.000000 0.000000 0.050796 0.000000 0.004028
# 5 0.005834 0.000109 -0.001813 0.000000 0.043846 0.000000
# 6 0.000000 0.000000 0.000000 0.004028 0.000000 0.028302
#
#
# Mechanical properties :
#
#
# Convention : Reuss Voigt Hill
#
# Bulk Modulus (GPa) = 41.89703 48.14170 45.01937
# Shear Modulus (GPa) = 23.96902 26.20279 25.08591
#
# Velocity S-wave (km/s) = 3.56746 3.72999 3.64963
# Velocity P-wave (km/s) = 6.26218 6.64169 6.45473
#
# Compressibility (1/GPa) = 0.02386804
#
# Stress axis : x y z
#
# Youngs Moduli (GPa) = 71.59914 70.28856 44.26371
#
# Poissons Ratio (x) = 0.34328 0.22453
# Poissons Ratio (y) = 0.34968 0.15503
# Poissons Ratio (z) = 0.36318 0.24618
#
# Static dielectric constant tensor:
#      x y z
#    x 3.453290 0.000000 -0.242680 
#    y 0.000000 3.393720 0.000000 
#    z -0.242680 0.000000 3.652160 
# 
# 
# High freq. dielectric constant tensor:
#      x y z
#    x 1.731310 0.000000 -0.016570 
#    y 0.000000 1.727670 0.000000 
#    z -0.016570 0.000000 1.724280 
# 
# From -- ./inp_files/288257.got.cif
#   From: 2010.06.25/outbox.cif.g09.slc.cpg/sg12_145_cif.got.tgz:288257.got - 2010.06.28 00:19:55.
