data_PCOD8089445
_publ_section_title
;
Structure prediction by ZEFSAII (Michael W. Deem and Ramdas Pophale) SiO2 
 PCOD8089445
Probable space group: C 2/M
;
_chemical_formula_sum "Si O2"
_cell_formula_units_Z 64
_cell_length_a 30.182782
_cell_length_b 12.179786
_cell_length_c 19.426563
_cell_angle_alpha 90.000000
_cell_angle_beta 27.376483
_cell_angle_gamma 90.000000
_cell_volume 3283.955351
_symmetry_space_group_name_H-M "C 2/M"
_symmetry_group_IT_number 12
_symmetry_cell_setting 'monoclinic'
loop_
_space_group_symop_operation_xyz
x,y,z
-x,y,-z
-x,-y,-z
x,-y,z
1/2+x,1/2+y,z
1/2-x,1/2+y,-z
1/2-x,1/2-y,-z
1/2+x,1/2-y,z
loop_
_atom_site_type_symbol
_atom_site_label
_atom_site_fract_x
_atom_site_fract_y
_atom_site_fract_z
Si Si1 0.984939 0.308547 0.913267
Si Si2 0.981522 0.373313 0.286036
Si Si3 0.144263 0.376380 0.790749
Si Si4 0.768968 0.626479 0.889590
Si Si5 0.661350 0.626309 0.900123
Si Si6 0.189370 0.738159 0.395992
Si Si7 0.608601 0.276508 0.198389
Si Si8 0.551481 0.625594 0.499455
O O1 0.014990 0.366563 0.801056
O O2 0.080842 0.300487 0.827457
O O3 0.902521 0.376650 0.067973
O O4 0.941202 0.187834 0.960757
O O5 0.987483 0.500000 0.300713
O O6 0.883730 0.321834 0.451825
O O7 0.073281 0.307978 0.188607
O O8 0.145128 0.500000 0.760971
O O9 0.253702 0.332596 0.640728
O O10 0.801866 0.500000 0.842628
O O11 0.719026 0.662313 0.888208
O O12 0.861151 0.703734 0.776638
O O13 0.695437 0.647374 0.053539
O O14 0.633529 0.500000 0.939515
O O15 0.730443 0.651777 0.740270
O O16 0.138736 0.793050 0.398830
O O17 0.525848 0.361896 0.332864
O O18 0.500000 0.661552 0.500000
O O19 0.588399 0.500000 0.444756
#
# Coordination Sequence:
#
# PCOD8089445 Si02
#       8
#     8   8   8   8   8   8   8   8
#     4  10  20  37  58  84 106 140 182 232 274 329
#     4  11  21  36  55  81 113 145 179 225 277 325
#     4  10  20  38  61  82 108 142 182 230 278 327
#     4  10  19  33  53  76 107 144 182 225 269 315
#     4  10  20  37  57  80 110 148 184 224 272 325
#     4  10  22  36  55  82 113 146 183 225 268 335
#     4  10  20  33  51  79 109 142 183 228 267 325
#     4  10  20  35  54  77 110 149 185 226 271 318
#
# _framework density 19.488693999999999
#
# number of rings (size 3 to 8) (size 9 to 14) (size 15 to 20)
#    0.000    1.875    1.250    3.750    0.000    0.500 
#    0.000    6.250    0.000    6.000    0.000    0.000 
#    0.000    0.000    0.000    0.000    0.000    0.000 
#
# Total GULP energy -396771.627442 kJ/mol
# GULP energy per Si atom -12399.113358 kJ/mol
# Density = 1.944434 g / cm^3
# Si number density = 19.488694 Si / 1000 Ang^3
#
#
#
# Elastic Constant Matrix: (Units=GPa)
#
#
# Indices 1 2 3 4 5 6 
#
# 1 101.8076 37.1471 16.8237 0.0000 -2.3152 0.0000
# 2 37.1471 78.7543 23.0700 0.0000 -1.5073 0.0000
# 3 16.8237 23.0700 52.7506 0.0000 -0.1360 0.0000
# 4 0.0000 0.0000 0.0000 18.5792 0.0000 -0.0207
# 5 -2.3152 -1.5073 -0.1360 0.0000 29.4316 0.0000
# 6 0.0000 0.0000 0.0000 -0.0207 0.0000 28.0792
#
#
#
# Elastic Compliance Matrix: (Units=1/GPa)
#
#
# Indices 1 2 3 4 5 6 
#
# 1 0.011987 -0.005186 -0.001553 0.000000 0.000670 0.000000
# 2 -0.005186 0.016822 -0.005702 0.000000 0.000427 0.000000
# 3 -0.001553 -0.005702 0.021945 0.000000 -0.000313 0.000000
# 4 0.000000 0.000000 0.000000 0.053824 0.000000 0.000040
# 5 0.000670 0.000427 -0.000313 0.000000 0.034050 0.000000
# 6 0.000000 0.000000 0.000000 0.000040 0.000000 0.035614
#
#
# Mechanical properties :
#
#
# Convention : Reuss Voigt Hill
#
# Bulk Modulus (GPa) = 38.65181 43.04380 40.84780
# Shear Modulus (GPa) = 24.06759 25.63612 24.85185
#
# Velocity S-wave (km/s) = 3.51800 3.63083 3.57486
# Velocity P-wave (km/s) = 6.03140 6.30172 6.16804
#
# Compressibility (1/GPa) = 0.02587201
#
# Stress axis : x y z
#
# Youngs Moduli (GPa) = 83.42640 59.44446 45.56773
#
# Poissons Ratio (x) = 0.30829 0.07077
# Poissons Ratio (y) = 0.43266 0.25983
# Poissons Ratio (z) = 0.12956 0.33895
#
# Static dielectric constant tensor:
#      x y z
#    x 3.612830 0.000000 -0.070260 
#    y 0.000000 3.454860 0.000000 
#    z -0.070260 0.000000 3.367010 
# 
# 
# High freq. dielectric constant tensor:
#      x y z
#    x 1.761430 0.000000 -0.003770 
#    y 0.000000 1.756790 0.000000 
#    z -0.003770 0.000000 1.748010 
# 
# From -- ./inp_files/296443.got.cif
#   From: 2010.06.25/outbox.cif.g09.slc.cpg/sg12_149_cif.got.tgz:296443.got - 2010.06.28 00:19:55.
