data_PCOD8089233
_publ_section_title
;
Structure prediction by ZEFSAII (Michael W. Deem and Ramdas Pophale) SiO2 
 PCOD8089233
Probable space group: C 2/M
;
_chemical_formula_sum "Si O2"
_cell_formula_units_Z 64
_cell_length_a 25.596323
_cell_length_b 12.788291
_cell_length_c 22.570860
_cell_angle_alpha 90.000000
_cell_angle_beta 150.889863
_cell_angle_gamma 90.000000
_cell_volume 3594.281476
_symmetry_space_group_name_H-M "C 2/M"
_symmetry_group_IT_number 12
_symmetry_cell_setting 'monoclinic'
loop_
_space_group_symop_operation_xyz
x,y,z
-x,y,-z
-x,-y,-z
x,-y,z
1/2+x,1/2+y,z
1/2-x,1/2+y,-z
1/2-x,1/2-y,-z
1/2+x,1/2-y,z
loop_
_atom_site_type_symbol
_atom_site_label
_atom_site_fract_x
_atom_site_fract_y
_atom_site_fract_z
Si Si1 0.215633 0.382609 0.340640
Si Si2 0.596028 0.231452 0.440110
Si Si3 0.144803 0.774008 0.932105
Si Si4 0.909897 0.882331 0.231448
Si Si5 0.041338 0.377886 0.604421
Si Si6 0.044480 0.380060 0.271754
Si Si7 0.376533 0.880263 0.880682
Si Si8 0.745010 0.745354 0.846504
O O1 0.265716 0.500000 0.399018
O O2 0.293986 0.287035 0.432988
O O3 0.113480 0.370435 0.281207
O O4 0.177064 0.368541 0.235921
O O5 0.508012 0.320780 0.356153
O O6 0.556250 0.143798 0.446976
O O7 0.607310 0.177660 0.387273
O O8 0.091115 0.868302 0.841295
O O9 0.069535 0.672050 0.854861
O O10 0.250000 0.750000 0.000000
O O11 0.172529 0.806947 0.027359
O O12 0.802256 0.845689 0.158379
O O13 0.930422 0.000000 0.268465
O O14 0.067419 0.500000 0.629691
O O15 0.152648 0.321109 0.731016
O O16 0.000000 0.337807 0.500000
O O17 0.023504 0.500000 0.268945
O O18 0.311524 0.804176 0.859250
O O19 0.370034 0.000000 0.897096
O O20 0.500000 0.843604 0.000000
#
# Coordination Sequence:
#
# PCOD8089233 Si02
#       8
#     8   8   8   8   8   8   8   8
#     4  10  20  33  51  75 103 135 168 207 253 300
#     4  10  19  33  52  75 102 132 168 207 250 301
#     4   9  19  31  47  73  99 128 165 204 250 295
#     4   9  18  31  48  72 102 131 160 201 253 306
#     4  10  21  36  54  76 101 132 172 215 255 296
#     4  10  20  34  52  75 104 135 169 208 249 299
#     4  10  20  33  51  76 104 135 171 209 253 304
#     4  10  19  33  52  75 101 133 169 208 252 300
#
# _framework density 17.806063000000002
#
# number of rings (size 3 to 8) (size 9 to 14) (size 15 to 20)
#    0.000    2.250    0.000    3.750    0.000    4.000 
#    0.000    0.000    0.000    7.125    0.000    0.000 
#    0.000    0.000    0.000    0.000    0.000    0.000 
#
# Total GULP energy -396640.527055 kJ/mol
# GULP energy per Si atom -12395.016470 kJ/mol
# Density = 1.776554 g / cm^3
# Si number density = 17.806063 Si / 1000 Ang^3
#
#
#
# Elastic Constant Matrix: (Units=GPa)
#
#
# Indices 1 2 3 4 5 6 
#
# 1 111.8395 37.9108 37.8516 0.0000 -6.7456 0.0000
# 2 37.9108 77.3932 39.0547 0.0000 0.8565 0.0000
# 3 37.8516 39.0547 99.1747 0.0000 -5.7626 0.0000
# 4 0.0000 0.0000 0.0000 20.6441 0.0000 3.8693
# 5 -6.7456 0.8565 -5.7626 0.0000 32.6412 0.0000
# 6 0.0000 0.0000 0.0000 3.8693 0.0000 25.3750
#
#
#
# Elastic Compliance Matrix: (Units=1/GPa)
#
#
# Indices 1 2 3 4 5 6 
#
# 1 0.011384 -0.004325 -0.002524 0.000000 0.002020 0.000000
# 2 -0.004325 0.017848 -0.005513 0.000000 -0.002335 0.000000
# 3 -0.002524 -0.005513 0.013333 0.000000 0.001977 0.000000
# 4 0.000000 0.000000 0.000000 0.049865 0.000000 -0.007604
# 5 0.002020 -0.002335 0.001977 0.000000 0.031464 0.000000
# 6 0.000000 0.000000 0.000000 -0.007604 0.000000 0.040568
#
#
# Mechanical properties :
#
#
# Convention : Reuss Voigt Hill
#
# Bulk Modulus (GPa) = 56.05709 57.56020 56.80865
# Shear Modulus (GPa) = 25.62363 27.30474 26.46419
#
# Velocity S-wave (km/s) = 3.79758 3.92018 3.85937
# Velocity P-wave (km/s) = 7.12595 7.27233 7.19951
#
# Compressibility (1/GPa) = 0.01783896
#
# Stress axis : x y z
#
# Youngs Moduli (GPa) = 87.84611 56.03011 75.00378
#
# Poissons Ratio (x) = 0.24232 0.18933
# Poissons Ratio (y) = 0.37991 0.41353
# Poissons Ratio (z) = 0.22174 0.30892
#
# Static dielectric constant tensor:
#      x y z
#    x 3.467430 0.000000 -0.209630 
#    y 0.000000 3.253490 0.000000 
#    z -0.209630 0.000000 3.409890 
# 
# 
# High freq. dielectric constant tensor:
#      x y z
#    x 1.695660 0.000000 -0.010560 
#    y 0.000000 1.675620 0.000000 
#    z -0.010560 0.000000 1.694680 
# 
# From -- ./inp_files/349382.got.cif
#   From: 2010.06.25/outbox.cif.g09.slc.cpg/sg12_175_cif.got.tgz:349382.got - 2010.06.28 00:19:55.
