data_PCOD8089912
_publ_section_title
;
Structure prediction by ZEFSAII (Michael W. Deem and Ramdas Pophale) SiO2 
 PCOD8089912
Probable space group: C 2/M
;
_chemical_formula_sum "Si O2"
_cell_formula_units_Z 64
_cell_length_a 30.655991
_cell_length_b 8.966670
_cell_length_c 14.768081
_cell_angle_alpha 90.000000
_cell_angle_beta 131.756327
_cell_angle_gamma 90.000000
_cell_volume 3028.307914
_symmetry_space_group_name_H-M "C 2/M"
_symmetry_group_IT_number 12
_symmetry_cell_setting 'monoclinic'
loop_
_space_group_symop_operation_xyz
x,y,z
-x,y,-z
-x,-y,-z
x,-y,z
1/2+x,1/2+y,z
1/2-x,1/2+y,-z
1/2-x,1/2-y,-z
1/2+x,1/2-y,z
loop_
_atom_site_type_symbol
_atom_site_label
_atom_site_fract_x
_atom_site_fract_y
_atom_site_fract_z
Si Si1 0.891872 0.325340 0.714597
Si Si2 0.551763 0.322923 0.639663
Si Si3 0.577959 0.172318 0.856215
Si Si4 0.671027 0.673282 0.721233
Si Si5 0.679848 0.330936 0.240106
Si Si6 0.993156 0.823936 0.095038
Si Si7 0.799134 0.670582 0.913003
Si Si8 0.310327 0.831053 0.438769
O O1 0.905399 0.500000 0.735316
O O2 0.866317 0.276398 0.775903
O O3 0.950126 0.233737 0.773143
O O4 0.846876 0.277893 0.575098
O O5 0.500000 0.271681 0.500000
O O6 0.551175 0.500000 0.650222
O O7 0.542830 0.251517 0.726350
O O8 0.614239 0.257235 0.691634
O O9 0.561655 0.246398 0.930673
O O10 0.559586 0.000000 0.832369
O O11 0.648871 0.190060 0.941432
O O12 0.658749 0.500000 0.700572
O O13 0.733197 0.708477 0.858517
O O14 0.673826 0.727359 0.622682
O O15 0.655621 0.500000 0.211287
O O16 0.686692 0.285401 0.146223
O O17 0.742845 0.317067 0.374817
O O18 0.986013 0.000000 0.093322
O O19 0.000000 0.772856 0.000000
O O20 0.798836 0.500000 0.875811
O O21 0.325540 0.000000 0.431836
#
# Coordination Sequence:
#
# PCOD8089912 Si02
#       8
#     8   8   8   8   8   8   8   8
#     4  11  22  35  54  81 115 155 198 247 300 356
#     4  10  23  42  63  90 124 161 203 252 302 358
#     4  11  24  41  63  91 121 159 202 251 308 363
#     4   9  19  37  61  87 117 157 199 244 298 354
#     4  10  19  33  54  83 118 157 198 242 296 353
#     4  11  25  43  62  86 117 156 202 250 302 361
#     4   9  19  37  60  86 118 154 197 246 301 361
#     4   9  20  35  53  82 118 153 195 245 296 355
#
# _framework density 21.133914999999998
#
# number of rings (size 3 to 8) (size 9 to 14) (size 15 to 20)
#    0.000    2.000    0.000    2.625    1.750    6.750 
#    0.000    0.000    0.000    0.000    0.000    0.000 
#    0.000    0.000    0.000    0.000    0.000    0.000 
#
# Total GULP energy -396720.957880 kJ/mol
# GULP energy per Si atom -12397.529934 kJ/mol
# Density = 2.108581 g / cm^3
# Si number density = 21.133915 Si / 1000 Ang^3
#
#
#
# Elastic Constant Matrix: (Units=GPa)
#
#
# Indices 1 2 3 4 5 6 
#
# 1 100.2728 30.5026 37.1998 0.0000 11.7704 0.0000
# 2 30.5026 50.6565 40.5985 0.0000 4.2874 0.0000
# 3 37.1998 40.5985 114.2565 0.0000 13.9201 0.0000
# 4 0.0000 0.0000 0.0000 25.7752 0.0000 -1.2802
# 5 11.7704 4.2874 13.9201 0.0000 31.2535 0.0000
# 6 0.0000 0.0000 0.0000 -1.2802 0.0000 29.0431
#
#
#
# Elastic Compliance Matrix: (Units=1/GPa)
#
#
# Indices 1 2 3 4 5 6 
#
# 1 0.012823 -0.006177 -0.001581 0.000000 -0.003278 0.000000
# 2 -0.006177 0.030588 -0.009125 0.000000 0.002194 0.000000
# 3 -0.001581 -0.009125 0.012989 0.000000 -0.003938 0.000000
# 4 0.000000 0.000000 0.000000 0.038882 0.000000 0.001714
# 5 -0.003278 0.002194 -0.003938 0.000000 0.034684 0.000000
# 6 0.000000 0.000000 0.000000 0.001714 0.000000 0.034507
#
#
# Mechanical properties :
#
#
# Convention : Reuss Voigt Hill
#
# Bulk Modulus (GPa) = 44.18046 53.53194 48.85620
# Shear Modulus (GPa) = 24.29743 27.67334 25.98539
#
# Velocity S-wave (km/s) = 3.39439 3.62253 3.51031
# Velocity P-wave (km/s) = 6.02602 6.54842 6.29264
#
# Compressibility (1/GPa) = 0.02263444
#
# Stress axis : x y z
#
# Youngs Moduli (GPa) = 77.98475 32.69288 76.98813
#
# Poissons Ratio (x) = 0.20195 0.12170
# Poissons Ratio (y) = 0.48172 0.70251
# Poissons Ratio (z) = 0.12327 0.29832
#
# Static dielectric constant tensor:
#      x y z
#    x 3.876280 0.000000 0.362420 
#    y 0.000000 3.684860 0.000000 
#    z 0.362420 0.000000 3.919390 
# 
# 
# High freq. dielectric constant tensor:
#      x y z
#    x 1.823190 0.000000 0.020500 
#    y 0.000000 1.823520 0.000000 
#    z 0.020500 0.000000 1.832540 
# 
# From -- ./inp_files/250038.got.cif
#   From: 2010.06.25/outbox.cif.g09.slc.cpg/sg12_126_cif.got.tgz:250038.got - 2010.06.28 00:19:55.
