data_PCOD8089788
_publ_section_title
;
Structure prediction by ZEFSAII (Michael W. Deem and Ramdas Pophale) SiO2 
 PCOD8089788
Probable space group: C 2/M
;
_chemical_formula_sum "Si O2"
_cell_formula_units_Z 56
_cell_length_a 28.657605
_cell_length_b 8.610336
_cell_length_c 19.508856
_cell_angle_alpha 90.000000
_cell_angle_beta 144.431949
_cell_angle_gamma 90.000000
_cell_volume 2800.064745
_symmetry_space_group_name_H-M "C 2/M"
_symmetry_group_IT_number 12
_symmetry_cell_setting 'monoclinic'
loop_
_space_group_symop_operation_xyz
x,y,z
-x,y,-z
-x,-y,-z
x,-y,z
1/2+x,1/2+y,z
1/2-x,1/2+y,-z
1/2-x,1/2-y,-z
1/2+x,1/2-y,z
loop_
_atom_site_type_symbol
_atom_site_label
_atom_site_fract_x
_atom_site_fract_y
_atom_site_fract_z
Si Si1 0.235333 0.183162 0.196292
Si Si2 0.865365 0.684280 0.455738
Si Si3 0.464693 0.182415 0.302201
Si Si4 0.789235 0.315386 0.114964
Si Si5 0.481177 0.819245 0.781813
Si Si6 0.824040 0.181432 0.549544
Si Si7 0.056087 0.817760 0.003586
O O1 0.308675 0.255455 0.328387
O O2 0.241775 0.244860 0.125653
O O3 0.246284 0.000000 0.207743
O O4 0.149649 0.225106 0.128561
O O5 0.866471 0.500000 0.451648
O O6 0.827261 0.729518 0.482039
O O7 0.957447 0.749799 0.563449
O O8 0.380889 0.248314 0.230889
O O9 0.469302 0.225081 0.227228
O O10 0.466111 0.000000 0.313984
O O11 0.788321 0.500000 0.108224
O O12 0.750000 0.250000 0.000000
O O13 0.401396 0.715810 0.688624
O O14 0.533095 0.779480 0.909748
O O15 0.457695 0.000000 0.753522
O O16 0.750000 0.250000 0.500000
O O17 0.814507 0.000000 0.525222
O O18 0.045491 0.000000 0.976212
O O19 0.000000 0.765753 0.000000
#
# Coordination Sequence:
#
# PCOD8089788 Si02
#       7
#     8   8   8   8   8   8   8
#     4   9  19  34  54  80 110 145 186 231 277 333
#     4   9  18  35  55  78 110 145 183 227 275 331
#     4   8  16  31  53  79 106 136 175 227 277 325
#     4  10  19  33  54  80 108 142 185 229 279 331
#     4  10  20  36  55  79 107 139 182 228 276 328
#     4  11  22  36  56  82 109 143 183 228 275 327
#     4  10  21  35  51  75 107 146 186 227 281 334
#
# _framework density 19.999538000000001
#
# number of rings (size 3 to 8) (size 9 to 14) (size 15 to 20)
#    0.000    2.429    0.000    3.429    2.000    0.857 
#    0.000    7.143    0.000    0.000    0.000    5.000 
#    0.000    0.000    0.000    0.000    0.000    0.000 
#
# Total GULP energy -347056.862444 kJ/mol
# GULP energy per Si atom -12394.887944 kJ/mol
# Density = 1.995402 g / cm^3
# Si number density = 19.999538 Si / 1000 Ang^3
#
#
#
# Elastic Constant Matrix: (Units=GPa)
#
#
# Indices 1 2 3 4 5 6 
#
# 1 133.0261 9.3330 73.5469 0.0000 22.6295 0.0000
# 2 9.3330 12.7589 12.5483 0.0000 2.7013 0.0000
# 3 73.5469 12.5483 153.7292 0.0000 0.5395 0.0000
# 4 0.0000 0.0000 0.0000 26.1282 0.0000 -4.3050
# 5 22.6295 2.7013 0.5395 0.0000 32.2197 0.0000
# 6 0.0000 0.0000 0.0000 -4.3050 0.0000 17.8675
#
#
#
# Elastic Compliance Matrix: (Units=1/GPa)
#
#
# Indices 1 2 3 4 5 6 
#
# 1 0.012178 -0.001570 -0.005669 0.000000 -0.008327 0.000000
# 2 -0.001570 0.087042 -0.006332 0.000000 -0.006089 0.000000
# 3 -0.005669 -0.006332 0.009719 0.000000 0.004350 0.000000
# 4 0.000000 0.000000 0.000000 0.039855 0.000000 0.009603
# 5 -0.008327 -0.006089 0.004350 0.000000 0.037323 0.000000
# 6 0.000000 0.000000 0.000000 0.009603 0.000000 0.058281
#
#
# Mechanical properties :
#
#
# Convention : Reuss Voigt Hill
#
# Bulk Modulus (GPa) = 12.22547 54.48559 33.35553
# Shear Modulus (GPa) = 16.73327 28.84882 22.79105
#
# Velocity S-wave (km/s) = 2.89569 3.80211 3.37943
# Velocity P-wave (km/s) = 4.16006 6.82476 5.65170
#
# Compressibility (1/GPa) = 0.08179648
#
# Stress axis : x y z
#
# Youngs Moduli (GPa) = 82.11433 11.48869 102.89478
#
# Poissons Ratio (x) = 0.01804 0.58330
# Poissons Ratio (y) = 0.12891 0.65158
# Poissons Ratio (z) = 0.46550 0.07275
#
# Static dielectric constant tensor:
#      x y z
#    x 3.850550 0.000000 0.178920 
#    y 0.000000 3.370800 0.000000 
#    z 0.178920 0.000000 5.075670 
# 
# 
# High freq. dielectric constant tensor:
#      x y z
#    x 1.784030 0.000000 0.009950 
#    y 0.000000 1.741500 0.000000 
#    z 0.009950 0.000000 1.792420 
# 
# From -- ./inp_files/288459.got.cif
#   From: 2010.06.25/outbox.cif.g09.slc.cpg/sg12_145_cif.got.tgz:288459.got - 2010.06.28 00:19:55.
