data_PCOD8089024
_publ_section_title
;
Structure prediction by ZEFSAII (Michael W. Deem and Ramdas Pophale) SiO2 
 PCOD8089024
Probable space group: C 2/M
;
_chemical_formula_sum "Si O2"
_cell_formula_units_Z 64
_cell_length_a 21.776389
_cell_length_b 32.704674
_cell_length_c 5.268197
_cell_angle_alpha 90.000000
_cell_angle_beta 99.148939
_cell_angle_gamma 90.000000
_cell_volume 3704.224615
_symmetry_space_group_name_H-M "C 2/M"
_symmetry_group_IT_number 12
_symmetry_cell_setting 'monoclinic'
loop_
_space_group_symop_operation_xyz
x,y,z
-x,y,-z
-x,-y,-z
x,-y,z
1/2+x,1/2+y,z
1/2-x,1/2+y,-z
1/2-x,1/2-y,-z
1/2+x,1/2-y,z
loop_
_atom_site_type_symbol
_atom_site_label
_atom_site_fract_x
_atom_site_fract_y
_atom_site_fract_z
Si Si1 0.067276 0.225414 0.061116
Si Si2 0.733905 0.409639 0.509131
Si Si3 0.733902 0.453448 0.010983
Si Si4 0.595631 0.320051 0.590623
Si Si5 0.771145 0.182645 0.461722
Si Si6 0.195690 0.748955 0.161554
Si Si7 0.914376 0.046438 0.065662
Si Si8 0.086739 0.089950 0.436319
O O1 0.065121 0.189683 0.844425
O O2 0.077051 0.211926 0.359232
O O3 0.124301 0.256035 0.018302
O O4 0.000000 0.247781 0.000000
O O5 0.761811 0.433650 0.285866
O O6 0.753982 0.362298 0.489965
O O7 0.660369 0.414915 0.465675
O O8 0.760933 0.428596 0.787209
O O9 0.756875 0.500000 0.005384
O O10 0.659811 0.451003 0.971395
O O11 0.670622 0.321076 0.696229
O O12 0.569445 0.363013 0.471350
O O13 0.802690 0.205722 0.718133
O O14 0.711666 0.210082 0.346980
O O15 0.250000 0.750000 0.000000
O O16 0.941277 0.064762 0.344987
O O17 0.936921 0.000000 0.049241
O O18 0.941490 0.072151 0.844531
#
# Coordination Sequence:
#
# PCOD8089024 Si02
#       8
#     8   8   8   8   8   8   8   8
#     4  11  22  35  51  71  95 123 154 194 238 282
#     4   9  17  25  40  59  84 114 157 193 224 276
#     4   9  16  25  36  54  84 122 153 184 228 279
#     4  10  19  33  49  67  93 119 155 196 237 284
#     4   9  19  30  47  72  92 126 163 203 243 276
#     4  10  19  33  51  69  99 127 163 201 238 287
#     4   9  15  23  35  56  85 112 140 178 227 282
#     4   9  16  25  39  58  81 113 142 182 230 274
#
# _framework density 17.277570000000001
#
# number of rings (size 3 to 8) (size 9 to 14) (size 15 to 20)
#    0.000    2.500    1.250    1.875    1.750    6.000 
#    0.000    0.000    0.000    0.000    0.000    0.000 
#    0.000   35.000    0.000    9.375    0.000   13.250 
#
# Total GULP energy -396484.464709 kJ/mol
# GULP energy per Si atom -12390.139522 kJ/mol
# Density = 1.723825 g / cm^3
# Si number density = 17.277570 Si / 1000 Ang^3
#
#
#
# Elastic Constant Matrix: (Units=GPa)
#
#
# Indices 1 2 3 4 5 6 
#
# 1 65.1777 25.5801 23.9650 0.0000 9.3829 0.0000
# 2 25.5801 94.0367 38.7345 0.0000 -5.0452 0.0000
# 3 23.9650 38.7345 106.7526 0.0000 -15.1321 0.0000
# 4 0.0000 0.0000 0.0000 19.2934 0.0000 -7.8879
# 5 9.3829 -5.0452 -15.1321 0.0000 20.2723 0.0000
# 6 0.0000 0.0000 0.0000 -7.8879 0.0000 1.5721
#
#
#
# Elastic Compliance Matrix: (Units=1/GPa)
#
#
# Indices 1 2 3 4 5 6 
#
# 1 0.021117 -0.004376 -0.005248 0.000000 -0.014780 0.000000
# 2 -0.004376 0.013411 -0.003493 0.000000 0.002755 0.000000
# 3 -0.005248 -0.003493 0.013458 0.000000 0.011605 0.000000
# 4 0.000000 0.000000 0.000000 -0.049303 0.000000 -0.247369
# 5 -0.014780 0.002755 0.011605 0.000000 0.065518 0.000000
# 6 0.000000 0.000000 0.000000 -0.247369 0.000000 -0.605053
#
#
# Mechanical properties :
#
#
# Convention : Reuss Voigt Hill
#
# Bulk Modulus (GPa) = 45.97141 49.16957 47.57049
# Shear Modulus (GPa) = -9.85480 20.07340 5.10930
#
# Velocity S-wave (km/s) = -2.39086 3.41224 1.72151
# Velocity P-wave (km/s) = 4.36391 6.63664 5.61643
#
# Compressibility (1/GPa) = 0.02175265
#
# Stress axis : x y z
#
# Youngs Moduli (GPa) = 47.35436 74.56476 74.30430
#
# Poissons Ratio (x) = 0.32627 0.38996
# Poissons Ratio (y) = 0.20721 0.25957
# Poissons Ratio (z) = 0.24852 0.26048
#
# Static dielectric constant tensor:
#      x y z
#    x 5.777740 0.000000 0.934820 
#    y 0.000000 4.018340 0.000000 
#    z 0.934820 0.000000 3.903450 
# 
# 
# High freq. dielectric constant tensor:
#      x y z
#    x 1.613290 0.000000 -0.023040 
#    y 0.000000 1.649050 0.000000 
#    z -0.023040 0.000000 1.678100 
# 
# From -- ./inp_files/22806.got.cif
#   From: 2010.06.25/outbox.cif.g09.slc.cpg/sg12_12_cif.got.tgz:22806.got - 2010.06.28 00:19:55.
