data_PCOD8089011
_publ_section_title
;
Structure prediction by ZEFSAII (Michael W. Deem and Ramdas Pophale) SiO2 
 PCOD8089011
Probable space group: C 2/M
;
_chemical_formula_sum "Si O2"
_cell_formula_units_Z 64
_cell_length_a 23.339225
_cell_length_b 24.193311
_cell_length_c 17.770144
_cell_angle_alpha 90.000000
_cell_angle_beta 160.010760
_cell_angle_gamma 90.000000
_cell_volume 3430.048199
_symmetry_space_group_name_H-M "C 2/M"
_symmetry_group_IT_number 12
_symmetry_cell_setting 'monoclinic'
loop_
_space_group_symop_operation_xyz
x,y,z
-x,y,-z
-x,-y,-z
x,-y,z
1/2+x,1/2+y,z
1/2-x,1/2+y,-z
1/2-x,1/2-y,-z
1/2+x,1/2-y,z
loop_
_atom_site_type_symbol
_atom_site_label
_atom_site_fract_x
_atom_site_fract_y
_atom_site_fract_z
Si Si1 0.993978 0.842005 0.404778
Si Si2 0.276056 0.237415 0.132452
Si Si3 0.538807 0.816094 0.254041
Si Si4 0.820040 0.203185 0.712652
Si Si5 0.844904 0.672868 0.764990
Si Si6 0.171873 0.436451 0.757640
Si Si7 0.295851 0.866057 0.054378
Si Si8 0.823956 0.158437 0.870800
O O1 0.936062 0.777890 0.328916
O O2 0.000000 0.860880 0.500000
O O3 0.172914 0.851128 0.586087
O O4 0.865015 0.879798 0.196788
O O5 0.270320 0.198633 0.050329
O O6 0.300525 0.194723 0.231348
O O7 0.105256 0.271026 0.939715
O O8 0.683023 0.787326 0.480257
O O9 0.627338 0.839702 0.288807
O O10 0.459557 0.867062 0.202875
O O11 0.853744 0.261978 0.792028
O O12 0.761909 0.162751 0.708175
O O13 0.986391 0.177737 0.881569
O O14 0.000000 0.644556 0.000000
O O15 0.222073 0.500000 0.827845
O O16 0.171021 0.410320 0.840094
O O17 0.313163 0.405393 0.883217
O O18 0.000000 0.428660 0.500000
#
# Coordination Sequence:
#
# PCOD8089011 Si02
#       8
#     8   8   8   8   8   8   8   8
#     4  11  22  33  52  77 117 154 187 226 263 320
#     4  10  19  33  46  76 109 154 193 220 258 312
#     4  11  20  30  50  73 109 148 186 216 258 320
#     4  11  19  30  46  74 110 149 185 214 261 313
#     4  12  21  32  46  73 114 155 187 218 252 310
#     4  10  22  40  62  81 102 135 184 242 295 336
#     4  10  21  36  54  80 108 144 192 231 280 333
#     4  10  20  33  49  74 108 144 185 223 264 325
#
# _framework density 18.658629999999999
#
# number of rings (size 3 to 8) (size 9 to 14) (size 15 to 20)
#    0.000    1.375    2.500    6.375    3.500    3.000 
#    0.000    1.250    0.000    1.125    0.000    0.000 
#    0.000    2.000    0.000    0.000    0.000    0.000 
#
# Total GULP energy -396642.510033 kJ/mol
# GULP energy per Si atom -12395.078439 kJ/mol
# Density = 1.861616 g / cm^3
# Si number density = 18.658630 Si / 1000 Ang^3
#
#
#
# Elastic Constant Matrix: (Units=GPa)
#
#
# Indices 1 2 3 4 5 6 
#
# 1 142.0396 23.1916 36.2570 0.0000 -1.4415 0.0000
# 2 23.1916 61.4355 6.4556 -0.0001 -3.0282 0.0000
# 3 36.2570 6.4556 90.0715 0.0000 -9.7661 0.0000
# 4 0.0000 -0.0001 0.0000 12.2283 0.0001 -4.1504
# 5 -1.4415 -3.0282 -9.7661 0.0001 34.9517 0.0000
# 6 0.0000 0.0000 0.0000 -4.1504 0.0000 15.5073
#
#
#
# Elastic Compliance Matrix: (Units=1/GPa)
#
#
# Indices 1 2 3 4 5 6 
#
# 1 0.008321 -0.002841 -0.003233 0.000000 -0.000806 0.000000
# 2 -0.002841 0.017414 0.000048 0.000000 0.001405 0.000000
# 3 -0.003233 0.000048 0.012773 0.000000 0.003440 0.000000
# 4 0.000000 0.000000 0.000000 0.089949 0.000000 0.024074
# 5 -0.000806 0.001405 0.003440 0.000000 0.029661 0.000000
# 6 0.000000 0.000000 0.000000 0.024074 0.000000 0.070929
#
#
# Mechanical properties :
#
#
# Convention : Reuss Voigt Hill
#
# Bulk Modulus (GPa) = 37.79969 47.26170 42.53069
# Shear Modulus (GPa) = 20.00648 27.71361 23.86004
#
# Velocity S-wave (km/s) = 3.27806 3.85814 3.57986
# Velocity P-wave (km/s) = 5.88473 6.72545 6.31909
#
# Compressibility (1/GPa) = 0.02645525
#
# Stress axis : x y z
#
# Youngs Moduli (GPa) = 120.17225 57.42499 78.28765
#
# Poissons Ratio (x) = 0.16316 0.25314
# Poissons Ratio (y) = 0.34144 -0.00375
# Poissons Ratio (z) = 0.38857 -0.00275
#
# Static dielectric constant tensor:
#      x y z
#    x 3.742110 0.000000 -0.025380 
#    y 0.000000 2.881130 0.000000 
#    z -0.025380 0.000000 3.479100 
# 
# 
# High freq. dielectric constant tensor:
#      x y z
#    x 1.750310 0.000000 -0.006500 
#    y 0.000000 1.643810 0.000000 
#    z -0.006500 0.000000 1.736570 
# 
# From -- ./inp_files/291112.got.cif
#   From: 2010.06.25/outbox.cif.g09.slc.cpg/sg12_146_cif.got.tgz:291112.got - 2010.06.28 00:19:55.
