data_PCOD8089246
_publ_section_title
;
Structure prediction by ZEFSAII (Michael W. Deem and Ramdas Pophale) SiO2 
 PCOD8089246
Probable space group: C 2/M
;
_chemical_formula_sum "Si O2"
_cell_formula_units_Z 64
_cell_length_a 24.347389
_cell_length_b 8.730397
_cell_length_c 16.617296
_cell_angle_alpha 90.000000
_cell_angle_beta 94.610819
_cell_angle_gamma 90.000000
_cell_volume 3520.780615
_symmetry_space_group_name_H-M "C 2/M"
_symmetry_group_IT_number 12
_symmetry_cell_setting 'monoclinic'
loop_
_space_group_symop_operation_xyz
x,y,z
-x,y,-z
-x,-y,-z
x,-y,z
1/2+x,1/2+y,z
1/2-x,1/2+y,-z
1/2-x,1/2-y,-z
1/2+x,1/2-y,z
loop_
_atom_site_type_symbol
_atom_site_label
_atom_site_fract_x
_atom_site_fract_y
_atom_site_fract_z
Si Si1 0.159358 0.180114 0.629315
Si Si2 0.442973 0.823585 0.679608
Si Si3 0.132028 0.178738 0.201580
Si Si4 0.274348 0.319344 0.666409
Si Si5 0.150350 0.677568 0.455322
Si Si6 0.445862 0.322493 0.281561
Si Si7 0.923709 0.320227 0.944968
Si Si8 0.964860 0.821223 0.101429
O O1 0.215153 0.245703 0.673718
O O2 0.145437 0.252691 0.542355
O O3 0.111249 0.226846 0.684962
O O4 0.164950 0.000000 0.619579
O O5 0.420076 0.718985 0.748728
O O6 0.408192 0.794716 0.594651
O O7 0.505793 0.775510 0.670880
O O8 0.438983 0.000000 0.706011
O O9 0.187910 0.228936 0.253270
O O10 0.127765 0.269029 0.116686
O O11 0.130589 0.000000 0.182919
O O12 0.268961 0.500000 0.658468
O O13 0.300375 0.258499 0.586841
O O14 0.165533 0.500000 0.463256
O O15 0.458879 0.500000 0.298414
O O16 0.440926 0.285255 0.186415
O O17 0.921950 0.500000 0.959831
O O18 0.979574 0.274309 0.905509
O O19 0.919956 0.234095 0.030410
O O20 0.977988 0.000000 0.091265
#
# Coordination Sequence:
#
# PCOD8089246 Si02
#       8
#     8   8   8   8   8   8   8   8
#     4  11  23  38  55  77 104 141 182 221 264 314
#     4  10  20  33  53  79 107 138 174 218 266 311
#     4  10  19  33  54  79 108 139 173 214 266 320
#     4  10  21  37  58  81 104 136 177 225 270 312
#     4  10  21  37  56  80 107 137 174 222 272 316
#     4  10  22  37  54  75 107 146 180 213 259 319
#     4  11  20  30  50  82 112 137 172 215 262 309
#     4  10  19  33  52  75 107 145 177 211 258 313
#
# _framework density 18.177785
#
# number of rings (size 3 to 8) (size 9 to 14) (size 15 to 20)
#    0.000    1.750    1.250    4.500    0.000    5.000 
#    0.000    2.500    0.000    0.750    0.000    0.000 
#    0.000    0.000    0.000    0.000    0.000    0.000 
#
# Total GULP energy -396913.111290 kJ/mol
# GULP energy per Si atom -12403.534728 kJ/mol
# Density = 1.813641 g / cm^3
# Si number density = 18.177785 Si / 1000 Ang^3
#
#
#
# Elastic Constant Matrix: (Units=GPa)
#
#
# Indices 1 2 3 4 5 6 
#
# 1 115.6553 39.4272 55.7189 0.0000 4.4444 0.0000
# 2 39.4272 70.8839 26.2498 0.0000 7.1532 0.0000
# 3 55.7189 26.2498 88.7097 0.0000 19.6776 0.0000
# 4 0.0000 0.0000 0.0000 27.4146 0.0000 6.7546
# 5 4.4444 7.1532 19.6776 0.0000 19.7872 0.0000
# 6 0.0000 0.0000 0.0000 6.7546 0.0000 26.4496
#
#
#
# Elastic Compliance Matrix: (Units=1/GPa)
#
#
# Indices 1 2 3 4 5 6 
#
# 1 0.014763 -0.005535 -0.009421 0.000000 0.008054 0.000000
# 2 -0.005535 0.017948 -0.000861 0.000000 -0.004389 0.000000
# 3 -0.009421 -0.000861 0.021691 0.000000 -0.019144 0.000000
# 4 0.000000 0.000000 0.000000 0.038926 0.000000 -0.009941
# 5 0.008054 -0.004389 -0.019144 0.000000 0.069353 0.000000
# 6 0.000000 0.000000 0.000000 -0.009941 0.000000 0.040346
#
#
# Mechanical properties :
#
#
# Convention : Reuss Voigt Hill
#
# Bulk Modulus (GPa) = 43.92120 57.56008 50.74064
# Shear Modulus (GPa) = 20.63974 24.98715 22.81344
#
# Velocity S-wave (km/s) = 3.37328 3.71158 3.54647
# Velocity P-wave (km/s) = 6.27587 7.07825 6.68910
#
# Compressibility (1/GPa) = 0.02276805
#
# Stress axis : x y z
#
# Youngs Moduli (GPa) = 67.73858 55.71631 46.10144
#
# Poissons Ratio (x) = 0.30840 0.43433
# Poissons Ratio (y) = 0.37495 0.03968
# Poissons Ratio (z) = 0.63817 0.04795
#
# Static dielectric constant tensor:
#      x y z
#    x 3.232550 0.000000 0.231060 
#    y 0.000000 3.440120 0.000000 
#    z 0.231060 0.000000 3.559400 
# 
# 
# High freq. dielectric constant tensor:
#      x y z
#    x 1.677590 0.000000 0.021870 
#    y 0.000000 1.719250 0.000000 
#    z 0.021870 0.000000 1.709620 
# 
# From -- ./inp_files/287761.got.cif
#   From: 2010.06.25/outbox.cif.g09.slc.cpg/sg12_144_cif.got.tgz:287761.got - 2010.06.28 00:19:55.
