data_PCOD8089460
_publ_section_title
;
Structure prediction by ZEFSAII (Michael W. Deem and Ramdas Pophale) SiO2 
 PCOD8089460
Probable space group: C 2/M
;
_chemical_formula_sum "Si O2"
_cell_formula_units_Z 56
_cell_length_a 13.523178
_cell_length_b 13.061317
_cell_length_c 18.101612
_cell_angle_alpha 90.000000
_cell_angle_beta 66.703682
_cell_angle_gamma 90.000000
_cell_volume 2936.627167
_symmetry_space_group_name_H-M "C 2/M"
_symmetry_group_IT_number 12
_symmetry_cell_setting 'monoclinic'
loop_
_space_group_symop_operation_xyz
x,y,z
-x,y,-z
-x,-y,-z
x,-y,z
1/2+x,1/2+y,z
1/2-x,1/2+y,-z
1/2-x,1/2-y,-z
1/2+x,1/2-y,z
loop_
_atom_site_type_symbol
_atom_site_label
_atom_site_fract_x
_atom_site_fract_y
_atom_site_fract_z
Si Si1 0.425660 0.193633 0.189643
Si Si2 0.236457 0.299618 0.894359
Si Si3 0.040975 0.885518 0.212703
Si Si4 0.008228 0.807751 0.381370
Si Si5 0.149407 0.382067 0.067957
Si Si6 0.897488 0.383673 0.357544
Si Si7 0.842921 0.882133 0.539860
O O1 0.327065 0.198651 0.163013
O O2 0.456029 0.309907 0.200187
O O3 0.525461 0.132761 0.125843
O O4 0.385978 0.133623 0.273534
O O5 0.341439 0.369660 0.856363
O O6 0.271719 0.183282 0.902518
O O7 0.161356 0.345610 0.980206
O O8 0.045743 0.869794 0.298977
O O9 0.002894 0.000000 0.205671
O O10 0.987912 0.689125 0.366304
O O11 0.898411 0.857892 0.445101
O O12 0.103263 0.811163 0.413294
O O13 0.182115 0.500000 0.067611
O O14 0.932953 0.500000 0.362769
O O15 0.783175 0.358649 0.429369
O O16 0.863447 0.000000 0.555716
#
# Coordination Sequence:
#
# PCOD8089460 Si02
#       7
#     8   8   8   8   8   8   8
#     4  10  21  35  53  76 103 133 169 208 249 301
#     4  10  21  36  53  77 104 132 169 210 250 299
#     4  10  20  34  53  77 103 132 167 209 254 298
#     4  10  19  33  53  77 104 131 169 214 250 295
#     4  10  21  36  54  76 103 134 168 208 253 299
#     4  10  21  35  52  75 104 136 169 207 252 299
#     4  10  19  33  55  78 100 134 173 209 253 300
#
# _framework density 19.069496000000001
#
# number of rings (size 3 to 8) (size 9 to 14) (size 15 to 20)
#    0.000    2.000    0.000    4.286    0.000    4.571 
#    0.000    1.429    0.000   15.429    0.000    0.000 
#    0.000    0.000    0.000    0.000    0.000    0.000 
#
# Total GULP energy -347306.086620 kJ/mol
# GULP energy per Si atom -12403.788808 kJ/mol
# Density = 1.902609 g / cm^3
# Si number density = 19.069496 Si / 1000 Ang^3
#
#
#
# Elastic Constant Matrix: (Units=GPa)
#
#
# Indices 1 2 3 4 5 6 
#
# 1 32.9513 25.4913 -3.7713 0.0000 4.1940 0.0000
# 2 25.4913 129.3712 9.1602 0.0000 2.2674 0.0000
# 3 -3.7713 9.1602 65.7069 0.0000 -8.0344 0.0000
# 4 0.0000 0.0000 0.0000 18.3869 0.0000 -5.6810
# 5 4.1940 2.2674 -8.0344 0.0000 31.5491 0.0000
# 6 0.0000 0.0000 0.0000 -5.6810 0.0000 16.9915
#
#
#
# Elastic Compliance Matrix: (Units=1/GPa)
#
#
# Indices 1 2 3 4 5 6 
#
# 1 0.036837 -0.007385 0.002694 0.000000 -0.003680 0.000000
# 2 -0.007385 0.009310 -0.001738 0.000000 -0.000130 0.000000
# 3 0.002694 -0.001738 0.016088 0.000000 0.003864 0.000000
# 4 0.000000 0.000000 0.000000 0.060652 0.000000 0.020279
# 5 -0.003680 -0.000130 0.003864 0.000000 0.033179 0.000000
# 6 0.000000 0.000000 0.000000 0.020279 0.000000 0.065633
#
#
# Mechanical properties :
#
#
# Convention : Reuss Voigt Hill
#
# Bulk Modulus (GPa) = 20.25162 32.19887 26.22525
# Shear Modulus (GPa) = 19.91900 26.52878 23.22389
#
# Velocity S-wave (km/s) = 3.23545 3.73388 3.49356
# Velocity P-wave (km/s) = 4.95989 5.95909 5.48230
#
# Compressibility (1/GPa) = 0.04937877
#
# Stress axis : x y z
#
# Youngs Moduli (GPa) = 27.14635 107.41040 62.15651
#
# Poissons Ratio (x) = 0.79319 -0.16743
# Poissons Ratio (y) = 0.20047 0.10801
# Poissons Ratio (z) = -0.07313 0.18664
#
# Static dielectric constant tensor:
#      x y z
#    x 3.201350 0.000000 -0.185850 
#    y 0.000000 3.505320 0.000000 
#    z -0.185850 0.000000 3.706120 
# 
# 
# High freq. dielectric constant tensor:
#      x y z
#    x 1.722420 0.000000 -0.015040 
#    y 0.000000 1.744490 0.000000 
#    z -0.015040 0.000000 1.758790 
# 
# From -- ./inp_files/268602.got.cif
#   From: 2010.06.25/outbox.cif.g09.slc.cpg/sg12_135_cif.got.tgz:268602.got - 2010.06.28 00:19:55.
