data_PCOD8089194
_publ_section_title
;
Structure prediction by ZEFSAII (Michael W. Deem and Ramdas Pophale) SiO2 
 PCOD8089194
Probable space group: C 2/M
;
_chemical_formula_sum "Si O2"
_cell_formula_units_Z 56
_cell_length_a 19.305025
_cell_length_b 8.993074
_cell_length_c 20.138366
_cell_angle_alpha 90.000000
_cell_angle_beta 57.590358
_cell_angle_gamma 90.000000
_cell_volume 2951.668147
_symmetry_space_group_name_H-M "C 2/M"
_symmetry_group_IT_number 12
_symmetry_cell_setting 'monoclinic'
loop_
_space_group_symop_operation_xyz
x,y,z
-x,y,-z
-x,-y,-z
x,-y,z
1/2+x,1/2+y,z
1/2-x,1/2+y,-z
1/2-x,1/2-y,-z
1/2+x,1/2-y,z
loop_
_atom_site_type_symbol
_atom_site_label
_atom_site_fract_x
_atom_site_fract_y
_atom_site_fract_z
Si Si1 0.431960 0.325168 0.085298
Si Si2 0.950272 0.824536 0.227289
Si Si3 0.978207 0.826161 0.435662
Si Si4 0.412298 0.675682 0.742311
Si Si5 0.214630 0.668573 0.674984
Si Si6 0.811058 0.323886 0.519823
Si Si7 0.732588 0.831899 0.821906
O O1 0.424207 0.500000 0.082118
O O2 0.459627 0.279444 0.145309
O O3 0.343557 0.260299 0.110023
O O4 0.500000 0.261017 0.000000
O O5 0.872305 0.742336 0.298915
O O6 0.030406 0.769723 0.226381
O O7 0.936487 0.000000 0.242933
O O8 0.901729 0.726550 0.453674
O O9 0.000000 0.787996 0.500000
O O10 0.051137 0.778236 0.348241
O O11 0.956530 0.000000 0.438395
O O12 0.403796 0.500000 0.748116
O O13 0.319961 0.740168 0.799417
O O14 0.214935 0.500000 0.647593
O O15 0.287980 0.761631 0.604296
O O16 0.231037 0.672949 0.743867
O O17 0.803824 0.500000 0.521839
O O18 0.750000 0.250000 0.500000
O O19 0.723366 0.000000 0.852744
#
# Coordination Sequence:
#
# PCOD8089194 Si02
#       7
#     8   8   8   8   8   8   8
#     4   9  18  33  52  75 103 133 165 203 249 298
#     4   9  17  31  52  74  98 133 172 208 249 302
#     4  10  20  35  54  75 103 138 173 215 270 322
#     4   9  17  31  51  73  97 128 167 207 249 302
#     4  10  19  33  52  73  98 129 168 213 260 309
#     4  12  24  36  51  73 102 136 178 225 269 311
#     4   9  18  33  54  77  99 127 164 203 245 299
#
# _framework density 18.972321999999998
#
# number of rings (size 3 to 8) (size 9 to 14) (size 15 to 20)
#    0.000    2.286    0.000    3.429    0.000    4.571 
#    0.000    2.143    0.000    0.000    0.000    0.000 
#    0.000    0.000    0.000    0.000    0.000    0.000 
#
# Total GULP energy -347172.251841 kJ/mol
# GULP energy per Si atom -12399.008994 kJ/mol
# Density = 1.892914 g / cm^3
# Si number density = 18.972322 Si / 1000 Ang^3
#
#
#
# Elastic Constant Matrix: (Units=GPa)
#
#
# Indices 1 2 3 4 5 6 
#
# 1 133.6639 30.3109 43.8385 0.0000 -24.2658 -0.0001
# 2 30.3109 63.6449 22.2285 0.0003 -8.0991 -0.0002
# 3 43.8385 22.2285 94.4513 0.0000 -22.4813 0.0000
# 4 0.0000 0.0003 0.0000 22.3709 -0.0001 -6.9836
# 5 -24.2658 -8.0991 -22.4813 -0.0001 30.7531 0.0000
# 6 -0.0001 -0.0002 0.0000 -6.9836 0.0000 26.8903
#
#
#
# Elastic Compliance Matrix: (Units=1/GPa)
#
#
# Indices 1 2 3 4 5 6 
#
# 1 0.010008 -0.003181 -0.002683 0.000000 0.005098 0.000000
# 2 -0.003181 0.018222 -0.002745 0.000000 0.000283 0.000000
# 3 -0.002683 -0.002745 0.014289 0.000000 0.007606 0.000000
# 4 0.000000 0.000000 0.000000 0.048645 0.000000 0.012633
# 5 0.005098 0.000283 0.007606 0.000000 0.042174 0.000000
# 6 0.000000 0.000000 0.000000 0.012633 0.000000 0.040469
#
#
# Mechanical properties :
#
#
# Convention : Reuss Voigt Hill
#
# Bulk Modulus (GPa) = 39.52322 53.83509 46.67915
# Shear Modulus (GPa) = 25.06795 29.02834 27.04814
#
# Velocity S-wave (km/s) = 3.63890 3.91581 3.77989
# Velocity P-wave (km/s) = 6.20747 6.99156 6.61115
#
# Compressibility (1/GPa) = 0.02530158
#
# Stress axis : x y z
#
# Youngs Moduli (GPa) = 99.91763 54.88019 69.98325
#
# Poissons Ratio (x) = 0.17455 0.18779
# Poissons Ratio (y) = 0.31779 0.19209
# Poissons Ratio (z) = 0.26811 0.15064
#
# Static dielectric constant tensor:
#      x y z
#    x 3.767720 0.000000 -0.183970 
#    y 0.000000 3.388480 0.000000 
#    z -0.183970 0.000000 3.699670 
# 
# 
# High freq. dielectric constant tensor:
#      x y z
#    x 1.743070 0.000000 -0.008250 
#    y 0.000000 1.716320 0.000000 
#    z -0.008250 0.000000 1.729510 
# 
# From -- ./inp_files/275050.got.cif
#   From: 2010.06.25/outbox.cif.g09.slc.cpg/sg12_138_cif.got.tgz:275050.got - 2010.06.28 00:19:55.
