data_PCOD8089825
_publ_section_title
;
Structure prediction by ZEFSAII (Michael W. Deem and Ramdas Pophale) SiO2 
 PCOD8089825
Probable space group: C 2/M
;
_chemical_formula_sum "Si O2"
_cell_formula_units_Z 56
_cell_length_a 16.795128
_cell_length_b 14.728080
_cell_length_c 11.308863
_cell_angle_alpha 90.000000
_cell_angle_beta 67.887039
_cell_angle_gamma 90.000000
_cell_volume 2591.596199
_symmetry_space_group_name_H-M "C 2/M"
_symmetry_group_IT_number 12
_symmetry_cell_setting 'monoclinic'
loop_
_space_group_symop_operation_xyz
x,y,z
-x,y,-z
-x,-y,-z
x,-y,z
1/2+x,1/2+y,z
1/2-x,1/2+y,-z
1/2-x,1/2-y,-z
1/2+x,1/2-y,z
loop_
_atom_site_type_symbol
_atom_site_label
_atom_site_fract_x
_atom_site_fract_y
_atom_site_fract_z
Si Si1 0.636481 0.399930 0.032309
Si Si2 0.426280 0.728455 0.616859
Si Si3 0.893981 0.599502 0.237479
Si Si4 0.688069 0.651763 0.763466
Si Si5 0.010488 0.226949 0.817668
Si Si6 0.150124 0.603507 0.469628
Si Si7 0.237583 0.838832 0.197974
O O1 0.605769 0.500000 0.094606
O O2 0.555936 0.329648 0.062983
O O3 0.709285 0.362207 0.080518
O O4 0.675252 0.416564 0.880165
O O5 0.500000 0.678648 0.500000
O O6 0.460412 0.747729 0.727059
O O7 0.407384 0.827407 0.572699
O O8 0.345518 0.660313 0.668433
O O9 0.937845 0.500000 0.214706
O O10 0.962197 0.673112 0.148201
O O11 0.859965 0.628815 0.386711
O O12 0.809625 0.591387 0.201965
O O13 0.597832 0.670392 0.747835
O O14 0.750928 0.613759 0.627491
O O15 0.723202 0.738981 0.813952
O O16 0.119981 0.500000 0.462982
#
# Coordination Sequence:
#
# PCOD8089825 Si02
#       7
#     8   8   8   8   8   8   8
#     4  11  22  39  61  85 117 153 195 246 293 341
#     4  10  19  33  54  80 116 156 187 225 290 339
#     4  10  20  37  60  88 120 153 191 238 288 345
#     4  10  21  37  60  83 115 153 196 239 290 342
#     4  10  22  36  57  86 115 154 192 236 292 343
#     4  10  21  34  56  89 118 152 195 235 285 349
#     4   9  21  36  59  84 114 153 196 237 287 350
#
# _framework density 21.608304
#
# number of rings (size 3 to 8) (size 9 to 14) (size 15 to 20)
#    0.000    2.000    1.429    1.714    2.000    4.286 
#    0.000    0.000    0.000    9.857    0.000    0.000 
#    0.000    0.000    0.000    0.000    0.000    0.000 
#
# Total GULP energy -346976.732237 kJ/mol
# GULP energy per Si atom -12392.026151 kJ/mol
# Density = 2.155912 g / cm^3
# Si number density = 21.608304 Si / 1000 Ang^3
#
#
#
# Elastic Constant Matrix: (Units=GPa)
#
#
# Indices 1 2 3 4 5 6 
#
# 1 101.1906 24.0187 20.7744 0.0000 4.2629 0.0000
# 2 24.0187 92.2473 16.0655 0.0000 3.2482 0.0000
# 3 20.7744 16.0655 54.4293 0.0000 -4.7419 0.0000
# 4 0.0000 0.0000 0.0000 18.1340 0.0000 0.6739
# 5 4.2629 3.2482 -4.7419 0.0000 28.1867 0.0000
# 6 0.0000 0.0000 0.0000 0.6739 0.0000 19.8687
#
#
#
# Elastic Compliance Matrix: (Units=1/GPa)
#
#
# Indices 1 2 3 4 5 6 
#
# 1 0.011280 -0.002194 -0.003841 0.000000 -0.002099 0.000000
# 2 -0.002194 0.011957 -0.002824 0.000000 -0.001521 0.000000
# 3 -0.003841 -0.002824 0.021060 0.000000 0.004449 0.000000
# 4 0.000000 0.000000 0.000000 0.055215 0.000000 -0.001873
# 5 -0.002099 -0.001521 0.004449 0.000000 0.036719 0.000000
# 6 0.000000 0.000000 0.000000 -0.001873 0.000000 0.050394
#
#
# Mechanical properties :
#
#
# Convention : Reuss Voigt Hill
#
# Bulk Modulus (GPa) = 37.62438 41.06494 39.34466
# Shear Modulus (GPa) = 23.45190 25.70510 24.57850
#
# Velocity S-wave (km/s) = 3.29799 3.45279 3.37628
# Velocity P-wave (km/s) = 5.65262 5.91111 5.78331
#
# Compressibility (1/GPa) = 0.02657851
#
# Stress axis : x y z
#
# Youngs Moduli (GPa) = 88.65198 83.63163 47.48434
#
# Poissons Ratio (x) = 0.18351 0.18237
# Poissons Ratio (y) = 0.19452 0.13411
# Poissons Ratio (z) = 0.34047 0.23621
#
# Static dielectric constant tensor:
#      x y z
#    x 4.152960 0.000000 -0.222530 
#    y 0.000000 3.801660 0.000000 
#    z -0.222530 0.000000 3.878980 
# 
# 
# High freq. dielectric constant tensor:
#      x y z
#    x 1.856840 0.000000 0.002820 
#    y 0.000000 1.838880 0.000000 
#    z 0.002820 0.000000 1.838670 
# 
# From -- ./inp_files/156001.got.cif
#   From: 2010.06.25/outbox.cif.g09.slc.cpg/sg12_79_cif.got.tgz:156001.got - 2010.06.28 00:19:55.
