data_PCOD8089751
_publ_section_title
;
Structure prediction by ZEFSAII (Michael W. Deem and Ramdas Pophale) SiO2 
 PCOD8089751
Probable space group: C 2/M
;
_chemical_formula_sum "Si O2"
_cell_formula_units_Z 48
_cell_length_a 19.603085
_cell_length_b 16.604165
_cell_length_c 15.362777
_cell_angle_alpha 90.000000
_cell_angle_beta 30.936760
_cell_angle_gamma 90.000000
_cell_volume 2570.702108
_symmetry_space_group_name_H-M "C 2/M"
_symmetry_group_IT_number 12
_symmetry_cell_setting 'monoclinic'
loop_
_space_group_symop_operation_xyz
x,y,z
-x,y,-z
-x,-y,-z
x,-y,z
1/2+x,1/2+y,z
1/2-x,1/2+y,-z
1/2-x,1/2-y,-z
1/2+x,1/2-y,z
loop_
_atom_site_type_symbol
_atom_site_label
_atom_site_fract_x
_atom_site_fract_y
_atom_site_fract_z
Si Si1 0.270833 0.735345 0.078440
Si Si2 0.619783 0.089712 0.811100
Si Si3 0.193348 0.697716 0.433051
Si Si4 0.068796 0.274003 0.740544
Si Si5 0.149209 0.159101 0.347943
Si Si6 0.844125 0.406405 0.679582
O O1 0.198490 0.811741 0.200184
O O2 0.217414 0.649875 0.175866
O O3 0.250000 0.750000 0.000000
O O4 0.427216 0.742414 0.927331
O O5 0.622948 0.143874 0.722904
O O6 0.756798 0.089628 0.716138
O O7 0.589803 0.000000 0.812342
O O8 0.500000 0.123955 0.000000
O O9 0.070782 0.705511 0.635145
O O10 0.327782 0.705421 0.342259
O O11 0.163178 0.765409 0.395691
O O12 0.208857 0.615925 0.359612
O O13 0.000000 0.126187 0.500000
O O14 0.810660 0.500000 0.737033
O O15 0.000000 0.390765 0.500000
#
# Coordination Sequence:
#
# PCOD8089751 Si02
#       6
#     8   8   8   8   8   8
#     4  11  20  34  57  80 106 142 185 226 270 322
#     4  10  20  35  52  76 108 140 176 221 269 316
#     4   9  19  34  56  80 108 139 184 224 272 325
#     4  10  19  34  56  83 104 142 188 228 263 329
#     4  10  19  33  54  79 107 139 179 222 267 322
#     4  10  21  37  55  80 114 146 179 225 283 335
#
# _framework density 18.671941
#
# number of rings (size 3 to 8) (size 9 to 14) (size 15 to 20)
#    0.000    2.000    1.667    4.000    0.000    1.000 
#    0.000    3.333    0.000   10.000    0.000    0.000 
#    0.000    0.000    0.000    0.000    0.000    0.000 
#
# Total GULP energy -297417.250984 kJ/mol
# GULP energy per Si atom -12392.385458 kJ/mol
# Density = 1.862944 g / cm^3
# Si number density = 18.671941 Si / 1000 Ang^3
#
#
#
# Elastic Constant Matrix: (Units=GPa)
#
#
# Indices 1 2 3 4 5 6 
#
# 1 100.5928 31.7048 44.1508 0.0001 11.9033 0.0000
# 2 31.7048 82.2512 33.7182 0.0000 9.5444 0.0000
# 3 44.1508 33.7182 119.7801 0.0004 -2.7358 -0.0002
# 4 0.0001 0.0000 0.0004 21.2756 -0.0002 -3.7814
# 5 11.9033 9.5444 -2.7358 -0.0002 40.9088 0.0001
# 6 0.0000 0.0000 -0.0002 -3.7814 0.0001 14.5769
#
#
#
# Elastic Compliance Matrix: (Units=1/GPa)
#
#
# Indices 1 2 3 4 5 6 
#
# 1 0.013058 -0.002981 -0.004051 0.000000 -0.003375 0.000000
# 2 -0.002981 0.014935 -0.003170 0.000000 -0.002829 0.000000
# 3 -0.004051 -0.003170 0.010795 0.000000 0.002640 0.000000
# 4 0.000000 0.000000 0.000000 0.049274 0.000000 0.012782
# 5 -0.003375 -0.002829 0.002640 0.000000 0.026263 0.000000
# 6 0.000000 0.000000 0.000000 0.012782 0.000000 0.071918
#
#
# Mechanical properties :
#
#
# Convention : Reuss Voigt Hill
#
# Bulk Modulus (GPa) = 54.39779 57.97464 56.18622
# Shear Modulus (GPa) = 23.49910 28.22227 25.86068
#
# Velocity S-wave (km/s) = 3.55142 3.89199 3.72560
# Velocity P-wave (km/s) = 6.78332 7.16333 6.97591
#
# Compressibility (1/GPa) = 0.01838310
#
# Stress axis : x y z
#
# Youngs Moduli (GPa) = 76.58107 66.95801 92.63969
#
# Poissons Ratio (x) = 0.19961 0.37529
# Poissons Ratio (y) = 0.22829 0.29366
# Poissons Ratio (z) = 0.31024 0.21225
#
# Static dielectric constant tensor:
#      x y z
#    x 3.550720 0.000000 0.016480 
#    y 0.000000 3.255010 0.000000 
#    z 0.016480 0.000000 3.692230 
# 
# 
# High freq. dielectric constant tensor:
#      x y z
#    x 1.732940 0.000000 0.001580 
#    y 0.000000 1.696380 0.000000 
#    z 0.001580 0.000000 1.734910 
# 
# From -- ./inp_files/216223.got.cif
#   From: 2010.06.25/outbox.cif.g09.slc.cpg/sg12_109_cif.got.tgz:216223.got - 2010.06.28 00:19:55.
