data_PCOD8089147
_publ_section_title
;
Structure prediction by ZEFSAII (Michael W. Deem and Ramdas Pophale) SiO2 
 PCOD8089147
Probable space group: C 2/M
;
_chemical_formula_sum "Si O2"
_cell_formula_units_Z 56
_cell_length_a 27.466732
_cell_length_b 15.327254
_cell_length_c 14.035370
_cell_angle_alpha 90.000000
_cell_angle_beta 148.971323
_cell_angle_gamma 90.000000
_cell_volume 3045.762972
_symmetry_space_group_name_H-M "C 2/M"
_symmetry_group_IT_number 12
_symmetry_cell_setting 'monoclinic'
loop_
_space_group_symop_operation_xyz
x,y,z
-x,y,-z
-x,-y,-z
x,-y,z
1/2+x,1/2+y,z
1/2-x,1/2+y,-z
1/2-x,1/2-y,-z
1/2+x,1/2-y,z
loop_
_atom_site_type_symbol
_atom_site_label
_atom_site_fract_x
_atom_site_fract_y
_atom_site_fract_z
Si Si1 0.035926 0.159695 0.960989
Si Si2 0.751111 0.696169 0.907048
Si Si3 0.411789 0.400499 0.285017
Si Si4 0.055925 0.251312 0.806150
Si Si5 0.655419 0.760715 0.564114
Si Si6 0.653252 0.403171 0.428346
Si Si7 0.269107 0.401605 0.643465
O O1 0.051468 0.237320 0.912142
O O2 0.955752 0.094780 0.787304
O O3 0.131436 0.106024 0.135606
O O4 0.000000 0.202486 0.000000
O O5 0.683627 0.612802 0.811313
O O6 0.711374 0.758184 0.756615
O O7 0.750000 0.750000 0.000000
O O8 0.862275 0.675353 0.073167
O O9 0.500000 0.377769 0.500000
O O10 0.415079 0.500000 0.254866
O O11 0.414894 0.338853 0.197736
O O12 0.954258 0.282931 0.598242
O O13 0.669423 0.666557 0.538436
O O14 0.692970 0.836049 0.558620
O O15 0.677437 0.500000 0.508127
O O16 0.719606 0.380004 0.449633
O O17 0.231992 0.500000 0.595304
#
# Coordination Sequence:
#
# PCOD8089147 Si02
#       7
#     8   8   8   8   8   8   8
#     4   9  17  31  52  81 111 138 174 225 276 323
#     4  10  21  37  53  77 107 140 179 220 273 321
#     4  10  20  35  56  81 105 133 173 228 280 325
#     4  10  20  35  55  79 108 143 178 218 270 327
#     4  11  20  34  55  80 108 145 184 221 274 326
#     4   9  19  32  52  80 110 141 180 229 278 323
#     4  10  19  33  51  77 111 147 184 223 266 322
#
# _framework density 18.386198
#
# number of rings (size 3 to 8) (size 9 to 14) (size 15 to 20)
#    0.000    2.143    2.857    0.857    0.000    5.143 
#    0.000    0.714    0.000    0.000    0.000    6.000 
#    0.000    0.000    0.000    0.000    0.000    0.000 
#
# Total GULP energy -347041.954762 kJ/mol
# GULP energy per Si atom -12394.355527 kJ/mol
# Density = 1.834435 g / cm^3
# Si number density = 18.386198 Si / 1000 Ang^3
#
#
#
# Elastic Constant Matrix: (Units=GPa)
#
#
# Indices 1 2 3 4 5 6 
#
# 1 103.0611 37.1919 50.2099 0.0000 14.4242 0.0000
# 2 37.1919 63.3379 32.5348 0.0000 12.2808 0.0000
# 3 50.2099 32.5348 93.3174 0.0000 9.7614 0.0000
# 4 0.0000 0.0000 0.0000 14.9829 0.0000 2.8467
# 5 14.4242 12.2808 9.7614 0.0000 37.3466 0.0000
# 6 0.0000 0.0000 0.0000 2.8467 0.0000 25.7955
#
#
#
# Elastic Compliance Matrix: (Units=1/GPa)
#
#
# Indices 1 2 3 4 5 6 
#
# 1 0.014788 -0.005178 -0.005893 0.000000 -0.002469 0.000000
# 2 -0.005178 0.021883 -0.004421 0.000000 -0.004041 0.000000
# 3 -0.005893 -0.004421 0.015461 0.000000 -0.000311 0.000000
# 4 0.000000 0.000000 0.000000 0.068172 0.000000 -0.007523
# 5 -0.002469 -0.004041 -0.000311 0.000000 0.029140 0.000000
# 6 0.000000 0.000000 0.000000 -0.007523 0.000000 0.039597
#
#
# Mechanical properties :
#
#
# Convention : Reuss Voigt Hill
#
# Bulk Modulus (GPa) = 47.28549 55.50994 51.39772
# Shear Modulus (GPa) = 22.01928 24.94366 23.48147
#
# Velocity S-wave (km/s) = 3.46439 3.68727 3.57757
# Velocity P-wave (km/s) = 6.46347 6.95590 6.71420
#
# Compressibility (1/GPa) = 0.02114814
#
# Stress axis : x y z
#
# Youngs Moduli (GPa) = 67.62175 45.69762 64.67892
#
# Poissons Ratio (x) = 0.23661 0.38118
# Poissons Ratio (y) = 0.35012 0.28594
# Poissons Ratio (z) = 0.39852 0.20202
#
# Static dielectric constant tensor:
#      x y z
#    x 3.854610 0.000000 0.211690 
#    y 0.000000 3.066640 0.000000 
#    z 0.211690 0.000000 3.588110 
# 
# 
# High freq. dielectric constant tensor:
#      x y z
#    x 1.730680 0.000000 -0.000310 
#    y 0.000000 1.668510 0.000000 
#    z -0.000310 0.000000 1.712250 
# 
# From -- ./inp_files/251186.got.cif
#   From: 2010.06.25/outbox.cif.g09.slc.cpg/sg12_126_cif.got.tgz:251186.got - 2010.06.28 00:19:55.
