data_PCOD8089626
_publ_section_title
;
Structure prediction by ZEFSAII (Michael W. Deem and Ramdas Pophale) SiO2 
 PCOD8089626
Probable space group: C 2/M
;
_chemical_formula_sum "Si O2"
_cell_formula_units_Z 48
_cell_length_a 19.235631
_cell_length_b 8.993143
_cell_length_c 29.440640
_cell_angle_alpha 90.000000
_cell_angle_beta 148.602100
_cell_angle_gamma 90.000000
_cell_volume 2653.290835
_symmetry_space_group_name_H-M "C 2/M"
_symmetry_group_IT_number 12
_symmetry_cell_setting 'monoclinic'
loop_
_space_group_symop_operation_xyz
x,y,z
-x,y,-z
-x,-y,-z
x,-y,z
1/2+x,1/2+y,z
1/2-x,1/2+y,-z
1/2-x,1/2-y,-z
1/2+x,1/2-y,z
loop_
_atom_site_type_symbol
_atom_site_label
_atom_site_fract_x
_atom_site_fract_y
_atom_site_fract_z
Si Si1 0.879610 0.670750 0.964929
Si Si2 0.457005 0.829374 0.857005
Si Si3 0.582026 0.676283 0.255700
Si Si4 0.378514 0.825777 0.404158
Si Si5 0.886354 0.672265 0.211737
Si Si6 0.194190 0.328616 0.734298
O O1 0.843405 0.500000 0.933130
O O2 0.752888 0.773491 0.886311
O O3 0.000000 0.725459 0.000000
O O4 0.919623 0.688301 0.039884
O O5 0.488946 0.736510 0.829476
O O6 0.325323 0.772003 0.809318
O O7 0.434505 0.000000 0.830882
O O8 0.571722 0.500000 0.249530
O O9 0.735290 0.733356 0.341853
O O10 0.509661 0.738472 0.259662
O O11 0.500000 0.749597 0.500000
O O12 0.394394 0.788497 0.359460
O O13 0.382624 0.000000 0.415237
O O14 0.902084 0.500000 0.208447
O O15 0.892854 0.700694 0.269445
O O16 0.241564 0.500000 0.757738
#
# Coordination Sequence:
#
# PCOD8089626 Si02
#       6
#     8   8   8   8   8   8
#     4  10  20  34  52  76 104 137 179 219 255 301
#     4  10  19  33  54  76 102 137 176 217 258 303
#     4  10  21  36  54  76 106 138 172 214 261 311
#     4   8  15  32  58  81  99 128 171 212 254 311
#     4  11  22  34  51  76 108 142 175 215 259 302
#     4   9  18  32  52  78 105 136 173 211 254 306
#
# _framework density 18.090741999999999
#
# number of rings (size 3 to 8) (size 9 to 14) (size 15 to 20)
#    0.000    2.333    1.667    2.500    0.000    3.000 
#    0.000    0.833    0.000   12.500    0.000    0.000 
#    0.000    0.000    0.000    0.000    0.000    0.000 
#
# Total GULP energy -297594.764809 kJ/mol
# GULP energy per Si atom -12399.781867 kJ/mol
# Density = 1.804957 g / cm^3
# Si number density = 18.090742 Si / 1000 Ang^3
#
#
#
# Elastic Constant Matrix: (Units=GPa)
#
#
# Indices 1 2 3 4 5 6 
#
# 1 134.1783 49.4109 60.6379 0.0000 1.2974 0.0000
# 2 49.4109 78.0339 36.6053 -0.0001 -1.8320 0.0003
# 3 60.6379 36.6053 108.4063 0.0001 -9.6561 0.0000
# 4 0.0000 -0.0001 0.0001 14.5581 0.0000 2.4321
# 5 1.2974 -1.8320 -9.6561 0.0000 21.3328 0.0000
# 6 0.0000 0.0003 0.0000 2.4321 0.0000 30.7940
#
#
#
# Elastic Compliance Matrix: (Units=1/GPa)
#
#
# Indices 1 2 3 4 5 6 
#
# 1 0.011667 -0.005065 -0.005124 0.000000 -0.003464 0.000000
# 2 -0.005065 0.017449 -0.003019 0.000000 0.000440 0.000000
# 3 -0.005124 -0.003019 0.013666 0.000000 0.006238 0.000000
# 4 0.000000 0.000000 0.000000 0.069609 0.000000 -0.005498
# 5 -0.003464 0.000440 0.006238 0.000000 0.049948 0.000000
# 6 0.000000 0.000000 0.000000 -0.005498 0.000000 0.032908
#
#
# Mechanical properties :
#
#
# Convention : Reuss Voigt Hill
#
# Bulk Modulus (GPa) = 61.10894 68.21408 64.66151
# Shear Modulus (GPa) = 22.01473 24.93460 23.47467
#
# Velocity S-wave (km/s) = 3.49220 3.71658 3.60614
# Velocity P-wave (km/s) = 7.07906 7.49705 7.29105
#
# Compressibility (1/GPa) = 0.01636422
#
# Stress axis : x y z
#
# Youngs Moduli (GPa) = 85.70919 57.30987 73.17337
#
# Poissons Ratio (x) = 0.29029 0.37497
# Poissons Ratio (y) = 0.43414 0.22095
# Poissons Ratio (z) = 0.43921 0.17305
#
# Static dielectric constant tensor:
#      x y z
#    x 3.446750 0.000000 -0.117780 
#    y 0.000000 3.263980 0.000000 
#    z -0.117780 0.000000 3.379000 
# 
# 
# High freq. dielectric constant tensor:
#      x y z
#    x 1.704770 0.000000 -0.011110 
#    y 0.000000 1.693110 0.000000 
#    z -0.011110 0.000000 1.682400 
# 
# From -- ./inp_files/273685.got.cif
#   From: 2010.06.25/outbox.cif.g09.slc.cpg/sg12_137_cif.got.tgz:273685.got - 2010.06.28 00:19:55.
