data_PCOD8089490
_publ_section_title
;
Structure prediction by ZEFSAII (Michael W. Deem and Ramdas Pophale) SiO2 
 PCOD8089490
Probable space group: C 2/M
;
_chemical_formula_sum "Si O2"
_cell_formula_units_Z 40
_cell_length_a 15.573841
_cell_length_b 9.116942
_cell_length_c 30.886407
_cell_angle_alpha 90.000000
_cell_angle_beta 151.923323
_cell_angle_gamma 90.000000
_cell_volume 2064.015380
_symmetry_space_group_name_H-M "C 2/M"
_symmetry_group_IT_number 12
_symmetry_cell_setting 'monoclinic'
loop_
_space_group_symop_operation_xyz
x,y,z
-x,y,-z
-x,-y,-z
x,-y,z
1/2+x,1/2+y,z
1/2-x,1/2+y,-z
1/2-x,1/2-y,-z
1/2+x,1/2-y,z
loop_
_atom_site_type_symbol
_atom_site_label
_atom_site_fract_x
_atom_site_fract_y
_atom_site_fract_z
Si Si1 0.886515 0.665911 0.091245
Si Si2 0.281987 0.672243 0.281904
Si Si3 0.530321 0.672190 0.720335
Si Si4 0.818014 0.826038 0.394714
Si Si5 0.202098 0.833039 0.100552
O O1 0.887884 0.500000 0.074925
O O2 0.827042 0.675289 0.114236
O O3 0.088573 0.737822 0.179200
O O4 0.750000 0.750000 0.000000
O O5 0.251069 0.500000 0.273083
O O6 0.440864 0.707082 0.317996
O O7 0.333467 0.733927 0.352294
O O8 0.507710 0.500000 0.718757
O O9 0.352206 0.755598 0.656705
O O10 0.711108 0.728201 0.824928
O O11 0.000000 0.775313 0.500000
O O12 0.791867 0.000000 0.384909
O O13 0.192188 0.000000 0.113823
O O14 0.000000 0.774389 0.000000
#
# Coordination Sequence:
#
# PCOD8089490 Si02
#       5
#     8   8   8   8   8
#     4  10  19  33  53  77 113 152 188 233 279 335
#     4   9  19  37  57  81 116 153 186 233 293 341
#     4  11  22  36  58  86 119 152 187 241 295 343
#     4  10  21  41  66  85 110 154 199 236 287 354
#     4  10  20  35  56  82 115 155 198 241 280 335
#
# _framework density 19.3797
#
# number of rings (size 3 to 8) (size 9 to 14) (size 15 to 20)
#    0.000    2.000    2.000    1.800    0.000    2.400 
#    0.000    3.000    0.000    0.000    0.000    0.000 
#    0.000    0.000    0.000    0.000    0.000    0.000 
#
# Total GULP energy -247992.963817 kJ/mol
# GULP energy per Si atom -12399.648191 kJ/mol
# Density = 1.933559 g / cm^3
# Si number density = 19.379700 Si / 1000 Ang^3
#
#
#
# Elastic Constant Matrix: (Units=GPa)
#
#
# Indices 1 2 3 4 5 6 
#
# 1 119.7837 28.2196 65.7352 -0.0001 -2.5292 -0.0001
# 2 28.2196 42.8967 38.2641 0.0001 -4.3561 -0.0001
# 3 65.7352 38.2641 151.1149 0.0002 -6.9909 -0.0004
# 4 -0.0001 0.0001 0.0002 21.2868 -0.0002 5.3589
# 5 -2.5292 -4.3561 -6.9909 -0.0002 31.4547 0.0000
# 6 -0.0001 -0.0001 -0.0004 5.3589 0.0000 23.8033
#
#
#
# Elastic Compliance Matrix: (Units=1/GPa)
#
#
# Indices 1 2 3 4 5 6 
#
# 1 0.011482 -0.004043 -0.003995 0.000000 -0.000525 0.000000
# 2 -0.004043 0.031733 -0.006151 0.000000 0.002702 0.000000
# 3 -0.003995 -0.006151 0.009961 0.000000 0.001041 0.000000
# 4 0.000000 0.000000 0.000000 0.049800 0.000000 -0.011212
# 5 -0.000525 0.002702 0.001041 0.000000 0.032355 0.000000
# 6 0.000000 0.000000 0.000000 -0.011212 0.000000 0.044535
#
#
# Mechanical properties :
#
#
# Convention : Reuss Voigt Hill
#
# Bulk Modulus (GPa) = 40.32750 64.24814 52.28782
# Shear Modulus (GPa) = 23.09336 27.41405 25.25371
#
# Velocity S-wave (km/s) = 3.45574 3.76516 3.61377
# Velocity P-wave (km/s) = 6.06442 7.21985 6.66721
#
# Compressibility (1/GPa) = 0.02479698
#
# Stress axis : x y z
#
# Youngs Moduli (GPa) = 87.08973 31.51278 100.38911
#
# Poissons Ratio (x) = 0.12741 0.40109
# Poissons Ratio (y) = 0.35211 0.61754
# Poissons Ratio (z) = 0.34796 0.19385
#
# Static dielectric constant tensor:
#      x y z
#    x 4.022200 0.000000 -0.368500 
#    y 0.000000 3.337860 0.000000 
#    z -0.368500 0.000000 3.964010 
# 
# 
# High freq. dielectric constant tensor:
#      x y z
#    x 1.768010 0.000000 0.002460 
#    y 0.000000 1.726670 0.000000 
#    z 0.002460 0.000000 1.757890 
# 
# From -- ./inp_files/211165.got.cif
#   From: 2010.06.25/outbox.cif.g09.slc.cpg/sg12_106_cif.got.tgz:211165.got - 2010.06.28 00:19:55.
