data_PCOD8089736
_publ_section_title
;
Structure prediction by ZEFSAII (Michael W. Deem and Ramdas Pophale) SiO2 
 PCOD8089736
Probable space group: C 2/M
;
_chemical_formula_sum "Si O2"
_cell_formula_units_Z 48
_cell_length_a 15.277130
_cell_length_b 8.600182
_cell_length_c 20.348278
_cell_angle_alpha 90.000000
_cell_angle_beta 68.985211
_cell_angle_gamma 90.000000
_cell_volume 2495.662016
_symmetry_space_group_name_H-M "C 2/M"
_symmetry_group_IT_number 12
_symmetry_cell_setting 'monoclinic'
loop_
_space_group_symop_operation_xyz
x,y,z
-x,y,-z
-x,-y,-z
x,-y,z
1/2+x,1/2+y,z
1/2-x,1/2+y,-z
1/2-x,1/2-y,-z
1/2+x,1/2-y,z
loop_
_atom_site_type_symbol
_atom_site_label
_atom_site_fract_x
_atom_site_fract_y
_atom_site_fract_z
Si Si1 0.489533 0.183326 0.333385
Si Si2 0.443928 0.683570 0.818733
Si Si3 0.252815 0.815720 0.832841
Si Si4 0.690040 0.816790 0.324656
Si Si5 0.704558 0.683627 0.577157
Si Si6 0.953480 0.815362 0.078378
O O1 0.501005 0.232514 0.254755
O O2 0.581644 0.235710 0.349364
O O3 0.403575 0.269304 0.390545
O O4 0.473758 0.000000 0.341053
O O5 0.456183 0.500000 0.806682
O O6 0.334680 0.729070 0.850453
O O7 0.489593 0.744782 0.873881
O O8 0.255578 0.763689 0.755744
O O9 0.154296 0.760087 0.889271
O O10 0.268804 0.000000 0.834737
O O11 0.740224 0.743547 0.374934
O O12 0.695627 0.000000 0.328921
O O13 0.713287 0.500000 0.573653
O O14 0.750000 0.750000 0.500000
O O15 0.957211 0.000000 0.075885
O O16 0.000000 0.745010 0.000000
#
# Coordination Sequence:
#
# PCOD8089736 Si02
#       6
#     8   8   8   8   8   8
#     4  10  20  37  58  79 102 135 177 217 259 309
#     4  10  19  33  54  79 104 133 173 220 264 305
#     4   9  17  33  55  76  99 134 178 217 255 305
#     4   8  17  34  55  74  99 138 176 207 252 316
#     4  11  22  37  55  79 109 141 175 212 257 308
#     4   9  18  32  51  75 106 145 180 207 251 321
#
# _framework density 19.233373
#
# number of rings (size 3 to 8) (size 9 to 14) (size 15 to 20)
#    0.000    2.500    0.000    3.500    0.000    4.000 
#    0.000   16.667    0.000    3.500    0.000    0.000 
#    0.000    0.000    0.000    0.000    0.000    0.000 
#
# Total GULP energy -297593.507052 kJ/mol
# GULP energy per Si atom -12399.729460 kJ/mol
# Density = 1.918960 g / cm^3
# Si number density = 19.233373 Si / 1000 Ang^3
#
#
#
# Elastic Constant Matrix: (Units=GPa)
#
#
# Indices 1 2 3 4 5 6 
#
# 1 106.9734 16.7434 70.7670 0.0000 -23.6591 0.0000
# 2 16.7434 36.4367 15.2881 0.0000 -0.1911 0.0000
# 3 70.7670 15.2881 120.0582 0.0000 -21.8602 0.0000
# 4 0.0000 0.0000 0.0000 24.0918 0.0000 -2.5474
# 5 -23.6591 -0.1911 -21.8602 0.0000 27.6898 0.0000
# 6 0.0000 0.0000 0.0000 -2.5474 0.0000 29.9194
#
#
#
# Elastic Compliance Matrix: (Units=1/GPa)
#
#
# Indices 1 2 3 4 5 6 
#
# 1 0.017228 -0.004488 -0.008069 0.000000 0.008319 0.000000
# 2 -0.004488 0.030403 -0.002203 0.000000 -0.005364 0.000000
# 3 -0.008069 -0.002203 0.014140 0.000000 0.004254 0.000000
# 4 0.000000 0.000000 0.000000 0.041885 0.000000 0.003566
# 5 0.008319 -0.005364 0.004254 0.000000 0.046544 0.000000
# 6 0.000000 0.000000 0.000000 0.003566 0.000000 0.033727
#
#
# Mechanical properties :
#
#
# Convention : Reuss Voigt Hill
#
# Bulk Modulus (GPa) = 31.00469 52.11838 41.56154
# Shear Modulus (GPa) = 22.30174 27.05151 24.67662
#
# Velocity S-wave (km/s) = 3.40889 3.75439 3.58580
# Velocity P-wave (km/s) = 5.62577 6.77869 6.22896
#
# Compressibility (1/GPa) = 0.03225318
#
# Stress axis : x y z
#
# Youngs Moduli (GPa) = 58.04391 32.89127 70.71919
#
# Poissons Ratio (x) = 0.14760 0.57062
# Poissons Ratio (y) = 0.26048 0.15579
# Poissons Ratio (z) = 0.46834 0.07246
#
# Static dielectric constant tensor:
#      x y z
#    x 3.742450 0.000000 0.063860 
#    y 0.000000 3.224000 0.000000 
#    z 0.063860 0.000000 3.666240 
# 
# 
# High freq. dielectric constant tensor:
#      x y z
#    x 1.762460 0.000000 -0.002700 
#    y 0.000000 1.720440 0.000000 
#    z -0.002700 0.000000 1.746840 
# 
# From -- ./inp_files/308266.got.cif
#   From: 2010.06.25/outbox.cif.g09.slc.cpg/sg12_155_cif.got.tgz:308266.got - 2010.06.28 00:19:55.
