data_PCOD8089793
_publ_section_title
;
Structure prediction by ZEFSAII (Michael W. Deem and Ramdas Pophale) SiO2 
 PCOD8089793
Probable space group: C 2/M
;
_chemical_formula_sum "Si O2"
_cell_formula_units_Z 56
_cell_length_a 14.509001
_cell_length_b 9.083176
_cell_length_c 22.351782
_cell_angle_alpha 90.000000
_cell_angle_beta 74.618350
_cell_angle_gamma 90.000000
_cell_volume 2840.178880
_symmetry_space_group_name_H-M "C 2/M"
_symmetry_group_IT_number 12
_symmetry_cell_setting 'monoclinic'
loop_
_space_group_symop_operation_xyz
x,y,z
-x,y,-z
-x,-y,-z
x,-y,z
1/2+x,1/2+y,z
1/2-x,1/2+y,-z
1/2-x,1/2-y,-z
1/2+x,1/2-y,z
loop_
_atom_site_type_symbol
_atom_site_label
_atom_site_fract_x
_atom_site_fract_y
_atom_site_fract_z
Si Si1 0.152207 0.328611 0.499499
Si Si2 0.118445 0.175330 0.273371
Si Si3 0.490794 0.670995 0.823630
Si Si4 0.706156 0.671606 0.803600
Si Si5 0.391215 0.663623 0.956180
Si Si6 0.459867 0.172499 0.598617
Si Si7 0.688986 0.163606 0.929395
O O1 0.173588 0.500000 0.498387
O O2 0.250000 0.250000 0.500000
O O3 0.116708 0.284222 0.439352
O O4 0.067465 0.287810 0.559986
O O5 0.223551 0.246069 0.254342
O O6 0.060791 0.229317 0.340491
O O7 0.064823 0.236902 0.223516
O O8 0.125462 0.000000 0.273519
O O9 0.464160 0.500000 0.832548
O O10 0.602011 0.698561 0.793978
O O11 0.456241 0.740100 0.893006
O O12 0.731887 0.500000 0.802825
O O13 0.712739 0.738632 0.868150
O O14 0.429216 0.500000 0.965616
O O15 0.283491 0.651888 0.952113
O O16 0.394426 0.760503 0.016300
O O17 0.451330 0.000000 0.615155
O O18 0.655318 0.000000 0.915759
#
# Coordination Sequence:
#
# PCOD8089793 Si02
#       7
#     8   8   8   8   8   8   8
#     4   9  19  37  62  89 123 155 190 232 273 321
#     4  11  22  40  60  82 114 150 189 237 278 323
#     4   9  20  38  57  77 106 146 188 228 279 341
#     4  11  22  37  58  81 107 146 190 230 283 346
#     4   9  17  34  56  75 102 142 184 227 281 346
#     4   9  20  39  59  85 119 158 190 225 277 332
#     4  10  19  33  54  80 109 138 179 235 287 338
#
# _framework density 19.717067
#
# number of rings (size 3 to 8) (size 9 to 14) (size 15 to 20)
#    0.000    2.286    1.429    2.143    0.000    3.429 
#    0.000   12.857    0.000    0.000    0.000    0.000 
#    0.000    0.000    0.000    0.000    0.000    0.000 
#
# Total GULP energy -347174.391400 kJ/mol
# GULP energy per Si atom -12399.085407 kJ/mol
# Density = 1.967219 g / cm^3
# Si number density = 19.717067 Si / 1000 Ang^3
#
#
#
# Elastic Constant Matrix: (Units=GPa)
#
#
# Indices 1 2 3 4 5 6 
#
# 1 88.0131 40.7649 43.4462 0.0000 -14.1645 0.0000
# 2 40.7649 91.0275 54.4480 0.0000 -10.7891 0.0000
# 3 43.4462 54.4480 133.5908 0.0000 -18.2374 0.0000
# 4 0.0000 0.0000 0.0000 37.6263 0.0000 -3.8157
# 5 -14.1645 -10.7891 -18.2374 0.0000 21.9100 0.0000
# 6 0.0000 0.0000 0.0000 -3.8157 0.0000 24.3287
#
#
#
# Elastic Compliance Matrix: (Units=1/GPa)
#
#
# Indices 1 2 3 4 5 6 
#
# 1 0.015739 -0.004989 -0.002292 0.000000 0.005811 0.000000
# 2 -0.004989 0.016232 -0.004899 0.000000 0.000690 0.000000
# 3 -0.002292 -0.004899 0.010939 0.000000 0.005211 0.000000
# 4 0.000000 0.000000 0.000000 0.027007 0.000000 0.004236
# 5 0.005811 0.000690 0.005211 0.000000 0.054075 0.000000
# 6 0.000000 0.000000 0.000000 0.004236 0.000000 0.041768
#
#
# Mechanical properties :
#
#
# Convention : Reuss Voigt Hill
#
# Bulk Modulus (GPa) = 53.90728 65.54996 59.72862
# Shear Modulus (GPa) = 25.47071 28.37113 26.92092
#
# Velocity S-wave (km/s) = 3.59808 3.79742 3.69909
# Velocity P-wave (km/s) = 6.68291 7.24877 6.97158
#
# Compressibility (1/GPa) = 0.01855037
#
# Stress axis : x y z
#
# Youngs Moduli (GPa) = 63.53565 61.60675 91.41476
#
# Poissons Ratio (x) = 0.30734 0.20954
# Poissons Ratio (y) = 0.31696 0.44785
# Poissons Ratio (z) = 0.14563 0.30182
#
# Static dielectric constant tensor:
#      x y z
#    x 3.552710 0.000000 -0.080690 
#    y 0.000000 3.578740 0.000000 
#    z -0.080690 0.000000 3.601210 
# 
# 
# High freq. dielectric constant tensor:
#      x y z
#    x 1.768290 0.000000 -0.008380 
#    y 0.000000 1.756000 0.000000 
#    z -0.008380 0.000000 1.769800 
# 
# From -- ./inp_files/337917.got.cif
#   From: 2010.06.25/outbox.cif.g09.slc.cpg/sg12_169_cif.got.tgz:337917.got - 2010.06.28 00:19:55.
