data_PCOD8089462
_publ_section_title
;
Structure prediction by ZEFSAII (Michael W. Deem and Ramdas Pophale) SiO2 
 PCOD8089462
Probable space group: C 2/M
;
_chemical_formula_sum "Si O2"
_cell_formula_units_Z 64
_cell_length_a 27.467020
_cell_length_b 8.940953
_cell_length_c 14.476766
_cell_angle_alpha 90.000000
_cell_angle_beta 77.516325
_cell_angle_gamma 90.000000
_cell_volume 3471.169632
_symmetry_space_group_name_H-M "C 2/M"
_symmetry_group_IT_number 12
_symmetry_cell_setting 'monoclinic'
loop_
_space_group_symop_operation_xyz
x,y,z
-x,y,-z
-x,-y,-z
x,-y,z
1/2+x,1/2+y,z
1/2-x,1/2+y,-z
1/2-x,1/2-y,-z
1/2+x,1/2-y,z
loop_
_atom_site_type_symbol
_atom_site_label
_atom_site_fract_x
_atom_site_fract_y
_atom_site_fract_z
Si Si1 0.197130 0.176986 0.042899
Si Si2 0.396529 0.673483 0.037782
Si Si3 0.755678 0.173869 0.400013
Si Si4 0.063441 0.176270 0.783061
Si Si5 0.460471 0.171146 0.864798
Si Si6 0.338146 0.678106 0.610603
Si Si7 0.136997 0.826626 0.603162
Si Si8 0.133699 0.326864 0.222319
O O1 0.176498 0.243176 0.146943
O O2 0.203647 0.000000 0.050343
O O3 0.250000 0.250000 0.000000
O O4 0.158378 0.219200 0.976510
O O5 0.405974 0.500000 0.014167
O O6 0.401684 0.714220 0.143224
O O7 0.440553 0.760481 0.967998
O O8 0.750000 0.250000 0.500000
O O9 0.718210 0.260743 0.346774
O O10 0.813987 0.195012 0.351820
O O11 0.740865 0.000000 0.409774
O O12 0.091043 0.241901 0.680221
O O13 0.009872 0.249089 0.810412
O O14 0.056020 0.000000 0.778212
O O15 0.419708 0.192864 0.802282
O O16 0.472942 0.000000 0.878723
O O17 0.338384 0.500000 0.615585
O O18 0.357288 0.740682 0.502817
O O19 0.372507 0.748739 0.675584
O O20 0.127203 0.000000 0.591559
O O21 0.148842 0.500000 0.225911
#
# Coordination Sequence:
#
# PCOD8089462 Si02
#       8
#     8   8   8   8   8   8   8   8
#     4  10  20  35  54  80 113 142 172 211 254 302
#     4   9  19  34  54  78 103 137 175 206 245 308
#     4   9  16  29  49  72 101 136 172 209 252 301
#     4  10  19  34  55  76 100 133 171 209 254 308
#     4  10  21  36  53  75 102 130 166 216 267 310
#     4  10  19  33  53  77 104 136 177 218 259 310
#     4   8  17  32  50  75 106 137 170 210 253 304
#     4  10  21  37  55  74 100 138 179 215 259 312
#
# _framework density 18.437588999999999
#
# number of rings (size 3 to 8) (size 9 to 14) (size 15 to 20)
#    0.000    2.500    0.000    3.000    0.000    5.000 
#    0.000    6.875    0.000    3.750    0.000    0.000 
#    0.000    0.000    0.000    0.000    0.000    0.000 
#
# Total GULP energy -396650.455049 kJ/mol
# GULP energy per Si atom -12395.326720 kJ/mol
# Density = 1.839562 g / cm^3
# Si number density = 18.437589 Si / 1000 Ang^3
#
#
#
# Elastic Constant Matrix: (Units=GPa)
#
#
# Indices 1 2 3 4 5 6 
#
# 1 92.0992 44.2736 63.4558 0.0000 -16.6156 0.0000
# 2 44.2736 80.3941 48.4295 0.0000 -3.6139 0.0000
# 3 63.4558 48.4295 119.4085 0.0000 -7.8373 0.0000
# 4 0.0000 0.0000 0.0000 22.0187 0.0000 1.6315
# 5 -16.6156 -3.6139 -7.8373 0.0000 28.6235 0.0000
# 6 0.0000 0.0000 0.0000 1.6315 0.0000 33.7789
#
#
#
# Elastic Compliance Matrix: (Units=1/GPa)
#
#
# Indices 1 2 3 4 5 6 
#
# 1 0.021131 -0.006381 -0.008034 0.000000 0.009261 0.000000
# 2 -0.006381 0.018389 -0.004234 0.000000 -0.002542 0.000000
# 3 -0.008034 -0.004234 0.014276 0.000000 -0.001289 0.000000
# 4 0.000000 0.000000 0.000000 0.045579 0.000000 -0.002201
# 5 0.009261 -0.002542 -0.001289 0.000000 0.039638 0.000000
# 6 0.000000 0.000000 0.000000 -0.002201 0.000000 0.029711
#
#
# Mechanical properties :
#
#
# Convention : Reuss Voigt Hill
#
# Bulk Modulus (GPa) = 60.60908 67.13554 63.87231
# Shear Modulus (GPa) = 23.63809 25.93374 24.78591
#
# Velocity S-wave (km/s) = 3.58447 3.75449 3.67047
# Velocity P-wave (km/s) = 7.07638 7.43548 7.25815
#
# Compressibility (1/GPa) = 0.01649918
#
# Stress axis : x y z
#
# Youngs Moduli (GPa) = 47.32282 54.37947 70.04575
#
# Poissons Ratio (x) = 0.34702 0.56272
# Poissons Ratio (y) = 0.30199 0.29657
# Poissons Ratio (z) = 0.38017 0.23024
#
# Static dielectric constant tensor:
#      x y z
#    x 3.658700 0.000000 -0.002540 
#    y 0.000000 3.454070 0.000000 
#    z -0.002540 0.000000 3.479600 
# 
# 
# High freq. dielectric constant tensor:
#      x y z
#    x 1.715840 0.000000 0.004160 
#    y 0.000000 1.712340 0.000000 
#    z 0.004160 0.000000 1.705400 
# 
# From -- ./inp_files/243872.got.cif
#   From: 2010.06.25/outbox.cif.g09.slc.cpg/sg12_122_cif.got.tgz:243872.got - 2010.06.28 00:19:55.
