data_PCOD8089651
_publ_section_title
;
Structure prediction by ZEFSAII (Michael W. Deem and Ramdas Pophale) SiO2 
 PCOD8089651
Probable space group: C 2/M
;
_chemical_formula_sum "Si O2"
_cell_formula_units_Z 56
_cell_length_a 22.254937
_cell_length_b 9.128190
_cell_length_c 16.669868
_cell_angle_alpha 90.000000
_cell_angle_beta 120.096838
_cell_angle_gamma 90.000000
_cell_volume 2929.875857
_symmetry_space_group_name_H-M "C 2/M"
_symmetry_group_IT_number 12
_symmetry_cell_setting 'monoclinic'
loop_
_space_group_symop_operation_xyz
x,y,z
-x,y,-z
-x,-y,-z
x,-y,z
1/2+x,1/2+y,z
1/2-x,1/2+y,-z
1/2-x,1/2-y,-z
1/2+x,1/2-y,z
loop_
_atom_site_type_symbol
_atom_site_label
_atom_site_fract_x
_atom_site_fract_y
_atom_site_fract_z
Si Si1 0.196628 0.168551 0.827433
Si Si2 0.341330 0.329728 0.755522
Si Si3 0.356197 0.829251 0.925966
Si Si4 0.682030 0.171444 0.657932
Si Si5 0.954204 0.172364 0.705259
Si Si6 0.936373 0.173464 0.514006
Si Si7 0.912138 0.171597 0.111820
O O1 0.276861 0.204244 0.897379
O O2 0.166246 0.267319 0.735848
O O3 0.155628 0.206144 0.880670
O O4 0.185471 0.000000 0.794423
O O5 0.351102 0.500000 0.783232
O O6 0.372209 0.238247 0.849976
O O7 0.261053 0.291906 0.685957
O O8 0.383717 0.284904 0.704495
O O9 0.372547 0.000000 0.933857
O O10 0.406499 0.755259 0.024167
O O11 0.633858 0.250386 0.561471
O O12 0.666583 0.000000 0.647281
O O13 0.951724 0.234840 0.613424
O O14 0.020742 0.235193 0.797006
O O15 0.963683 0.000000 0.705490
O O16 0.000000 0.220068 0.500000
O O17 0.924571 0.000000 0.504922
O O18 0.919449 0.000000 0.098329
#
# Coordination Sequence:
#
# PCOD8089651 Si02
#       7
#     8   8   8   8   8   8   8
#     4   9  18  33  53  77 105 137 174 212 253 309
#     4   9  19  37  55  73 101 137 177 213 249 300
#     4  10  20  33  51  77 107 137 170 212 262 309
#     4  10  20  33  53  79 106 136 169 211 259 303
#     4   9  19  35  55  76  99 134 178 216 249 299
#     4  10  20  36  58  81 105 134 169 209 255 308
#     4  10  19  33  54  77 101 134 176 217 257 302
#
# _framework density 19.113437000000001
#
# number of rings (size 3 to 8) (size 9 to 14) (size 15 to 20)
#    0.000    2.429    0.000    2.143    0.000    5.429 
#    0.000    5.000    0.000    0.000    0.000    0.000 
#    0.000    0.000    0.000    0.000    0.000    0.000 
#
# Total GULP energy -347285.901081 kJ/mol
# GULP energy per Si atom -12403.067896 kJ/mol
# Density = 1.906993 g / cm^3
# Si number density = 19.113437 Si / 1000 Ang^3
#
#
#
# Elastic Constant Matrix: (Units=GPa)
#
#
# Indices 1 2 3 4 5 6 
#
# 1 88.1071 34.7646 65.4070 0.0000 -12.8231 0.0000
# 2 34.7646 57.1737 59.0839 0.0000 -2.6088 0.0000
# 3 65.4070 59.0839 177.2889 0.0000 -1.6400 0.0000
# 4 0.0000 0.0000 0.0000 33.7652 0.0000 3.0724
# 5 -12.8231 -2.6088 -1.6400 0.0000 27.0589 0.0000
# 6 0.0000 0.0000 0.0000 3.0724 0.0000 19.7601
#
#
#
# Elastic Compliance Matrix: (Units=1/GPa)
#
#
# Indices 1 2 3 4 5 6 
#
# 1 0.018323 -0.005908 -0.004719 0.000000 0.007828 0.000000
# 2 -0.005908 0.028696 -0.007388 0.000000 -0.000481 0.000000
# 3 -0.004719 -0.007388 0.009822 0.000000 -0.002353 0.000000
# 4 0.000000 0.000000 0.000000 0.030041 0.000000 -0.004671
# 5 0.007828 -0.000481 -0.002353 0.000000 0.040477 0.000000
# 6 0.000000 0.000000 0.000000 -0.004671 0.000000 0.051333
#
#
# Mechanical properties :
#
#
# Convention : Reuss Voigt Hill
#
# Bulk Modulus (GPa) = 48.05064 71.23119 59.64092
# Shear Modulus (GPa) = 22.55718 27.00444 24.78081
#
# Velocity S-wave (km/s) = 3.43909 3.76287 3.60462
# Velocity P-wave (km/s) = 6.40032 7.49849 6.97107
#
# Compressibility (1/GPa) = 0.02081138
#
# Stress axis : x y z
#
# Youngs Moduli (GPa) = 54.57599 34.84817 101.81471
#
# Poissons Ratio (x) = 0.20588 0.48042
# Poissons Ratio (y) = 0.32243 0.75222
# Poissons Ratio (z) = 0.25752 0.25746
#
# Static dielectric constant tensor:
#      x y z
#    x 3.524050 0.000000 -0.003180 
#    y 0.000000 3.290790 0.000000 
#    z -0.003180 0.000000 3.550270 
# 
# 
# High freq. dielectric constant tensor:
#      x y z
#    x 1.744290 0.000000 0.001130 
#    y 0.000000 1.723240 0.000000 
#    z 0.001130 0.000000 1.748540 
# 
# From -- ./inp_files/239001.got.cif
#   From: 2010.06.25/outbox.cif.g09.slc.cpg/sg12_120_cif.got.tgz:239001.got - 2010.06.28 00:19:55.
