data_PCOD8089314
_publ_section_title
;
Structure prediction by ZEFSAII (Michael W. Deem and Ramdas Pophale) SiO2 
 PCOD8089314
Probable space group: C 2/M
;
_chemical_formula_sum "Si O2"
_cell_formula_units_Z 56
_cell_length_a 18.097925
_cell_length_b 17.975990
_cell_length_c 27.481676
_cell_angle_alpha 90.000000
_cell_angle_beta 159.863993
_cell_angle_gamma 90.000000
_cell_volume 3077.786591
_symmetry_space_group_name_H-M "C 2/M"
_symmetry_group_IT_number 12
_symmetry_cell_setting 'monoclinic'
loop_
_space_group_symop_operation_xyz
x,y,z
-x,y,-z
-x,-y,-z
x,-y,z
1/2+x,1/2+y,z
1/2-x,1/2+y,-z
1/2-x,1/2-y,-z
1/2+x,1/2-y,z
loop_
_atom_site_type_symbol
_atom_site_label
_atom_site_fract_x
_atom_site_fract_y
_atom_site_fract_z
Si Si1 0.758682 0.585559 0.116669
Si Si2 0.383056 0.586426 0.356444
Si Si3 0.034145 0.416992 0.464234
Si Si4 0.196251 0.143302 0.182384
Si Si5 0.800723 0.220705 0.604956
Si Si6 0.317542 0.863455 0.671913
Si Si7 0.583853 0.288627 0.693615
O O1 0.695139 0.500000 0.076981
O O2 0.803821 0.609850 0.200002
O O3 0.963043 0.599266 0.209530
O O4 0.555889 0.628954 0.969153
O O5 0.330357 0.500000 0.315764
O O6 0.216941 0.622774 0.292195
O O7 0.626116 0.595639 0.525046
O O8 0.351388 0.629591 0.285749
O O9 0.096180 0.500000 0.484820
O O10 0.230620 0.362095 0.575308
O O11 0.000000 0.416162 0.500000
O O12 0.816926 0.391376 0.303204
O O13 0.221336 0.232415 0.196006
O O14 0.829610 0.274339 0.669750
O O15 0.624466 0.260741 0.463478
O O16 0.024549 0.211036 0.714202
#
# Coordination Sequence:
#
# PCOD8089314 Si02
#       7
#     8   8   8   8   8   8   8
#     4  11  20  33  56  82 113 143 175 227 284 336
#     4  10  20  32  52  80 109 142 181 230 281 324
#     4  10  21  34  53  79 109 143 184 231 274 321
#     4  10  20  35  52  81 110 145 181 220 278 337
#     4   9  18  31  50  74 101 143 178 220 271 321
#     4  10  19  33  52  80 110 142 179 226 283 335
#     4   9  18  33  49  73 105 139 180 220 264 325
#
# _framework density 18.194894000000001
#
# number of rings (size 3 to 8) (size 9 to 14) (size 15 to 20)
#    0.000    2.143    1.429    3.429    8.000    0.571 
#    0.000    0.714    0.000    0.000    0.000    2.000 
#    0.000    0.000    0.000    0.000    0.000    0.000 
#
# Total GULP energy -347149.094211 kJ/mol
# GULP energy per Si atom -12398.181936 kJ/mol
# Density = 1.815348 g / cm^3
# Si number density = 18.194894 Si / 1000 Ang^3
#
#
#
# Elastic Constant Matrix: (Units=GPa)
#
#
# Indices 1 2 3 4 5 6 
#
# 1 96.1843 59.8100 40.5272 0.0219 17.8842 0.0044
# 2 59.8100 153.7691 33.7274 -0.0656 3.8429 0.0080
# 3 40.5272 33.7274 62.5256 -0.1051 7.7787 -0.0184
# 4 0.0219 -0.0656 -0.1051 18.8630 -0.0010 -1.7347
# 5 17.8842 3.8429 7.7787 -0.0010 25.2029 0.0150
# 6 0.0044 0.0080 -0.0184 -1.7347 0.0150 28.5075
#
#
#
# Elastic Compliance Matrix: (Units=1/GPa)
#
#
# Indices 1 2 3 4 5 6 
#
# 1 0.019090 -0.005370 -0.008209 -0.000088 -0.010194 -0.000007
# 2 -0.005370 0.008887 -0.001683 0.000028 0.002975 -0.000003
# 3 -0.008209 -0.001683 0.022323 0.000130 -0.000808 0.000024
# 4 -0.000088 0.000028 0.000130 0.053313 0.000018 0.003244
# 5 -0.010194 0.002975 -0.000808 0.000018 0.046708 -0.000023
# 6 -0.000007 -0.000003 0.000024 0.003244 -0.000023 0.035276
#
#
# Mechanical properties :
#
#
# Convention : Reuss Voigt Hill
#
# Bulk Modulus (GPa) = 50.56684 64.51201 57.53943
# Shear Modulus (GPa) = 22.45044 26.40897 24.42970
#
# Velocity S-wave (km/s) = 3.51648 3.81392 3.66822
# Velocity P-wave (km/s) = 6.65880 7.41133 7.04512
#
# Compressibility (1/GPa) = 0.01977580
#
# Stress axis : x y z
#
# Youngs Moduli (GPa) = 52.38264 112.52605 44.79716
#
# Poissons Ratio (x) = 0.60428 0.36774
# Poissons Ratio (y) = 0.28130 0.07540
# Poissons Ratio (z) = 0.43000 0.18939
#
# Static dielectric constant tensor:
#      x y z
#    x 3.439940 0.000000 0.055100 
#    y 0.000000 3.657360 -0.000190 
#    z 0.055100 -0.000190 2.999020 
# 
# 
# High freq. dielectric constant tensor:
#      x y z
#    x 1.704180 0.000000 0.012670 
#    y 0.000000 1.715760 -0.000020 
#    z 0.012670 -0.000020 1.662900 
# 
# From -- ./inp_files/364430.got.cif
#   From: 2010.06.25/outbox.cif.g09.slc.cpg/sg12_183_cif.got.tgz:364430.got - 2010.06.28 00:19:55.
