data_PCOD8089945
_publ_section_title
;
Structure prediction by ZEFSAII (Michael W. Deem and Ramdas Pophale) SiO2 
 PCOD8089945
Probable space group: C 2/M
;
_chemical_formula_sum "Si O2"
_cell_formula_units_Z 48
_cell_length_a 9.214161
_cell_length_b 17.925173
_cell_length_c 30.549085
_cell_angle_alpha 90.000000
_cell_angle_beta 147.950960
_cell_angle_gamma 90.000000
_cell_volume 2677.450017
_symmetry_space_group_name_H-M "C 2/M"
_symmetry_group_IT_number 12
_symmetry_cell_setting 'monoclinic'
loop_
_space_group_symop_operation_xyz
x,y,z
-x,y,-z
-x,-y,-z
x,-y,z
1/2+x,1/2+y,z
1/2-x,1/2+y,-z
1/2-x,1/2-y,-z
1/2+x,1/2-y,z
loop_
_atom_site_type_symbol
_atom_site_label
_atom_site_fract_x
_atom_site_fract_y
_atom_site_fract_z
Si Si1 0.243069 0.088568 0.592804
Si Si2 0.605455 0.840153 0.284155
Si Si3 0.343531 0.415946 0.723607
Si Si4 0.708727 0.732662 0.940335
Si Si5 0.446929 0.583915 0.850720
Si Si6 0.802928 0.801685 0.238708
O O1 0.195436 0.119754 0.629902
O O2 0.532283 0.115548 0.645815
O O3 0.000000 0.118404 0.500000
O O4 0.243034 0.000000 0.596495
O O5 0.355128 0.895542 0.208774
O O6 0.758101 0.817411 0.278663
O O7 0.498372 0.768302 0.282668
O O8 0.341269 0.500000 0.705144
O O9 0.463667 0.411502 0.802815
O O10 0.544312 0.371805 0.743071
O O11 0.661888 0.643928 0.923399
O O12 0.482203 0.783420 0.858333
O O13 0.750000 0.750000 0.000000
O O14 0.000000 0.759186 0.000000
O O15 0.519722 0.500000 0.885470
#
# Coordination Sequence:
#
# PCOD8089945 Si02
#       6
#     8   8   8   8   8   8
#     4   9  18  35  58  83 110 138 172 217 267 316
#     4  10  19  33  55  77 105 142 179 215 260 315
#     4   9  18  34  56  79 105 139 177 216 260 314
#     4  11  21  34  52  75 103 137 177 224 274 312
#     4   9  18  34  54  75 101 137 179 217 261 321
#     4  11  21  36  54  77 107 141 183 221 258 318
#
# _framework density 17.927505
#
# number of rings (size 3 to 8) (size 9 to 14) (size 15 to 20)
#    0.000    2.167    0.000    7.500    0.000    1.667 
#    0.000    5.000    0.000    5.000    0.000    0.000 
#    0.000    0.000    0.000    0.000    0.000    0.000 
#
# Total GULP energy -297421.165688 kJ/mol
# GULP energy per Si atom -12392.548570 kJ/mol
# Density = 1.788670 g / cm^3
# Si number density = 17.927505 Si / 1000 Ang^3
#
#
#
# Elastic Constant Matrix: (Units=GPa)
#
#
# Indices 1 2 3 4 5 6 
#
# 1 146.9637 58.2371 52.1297 -0.0009 -4.0613 -0.0009
# 2 58.2371 72.6373 45.2961 -0.0053 3.2663 -0.0005
# 3 52.1297 45.2961 103.0436 0.0032 -7.0996 0.0016
# 4 -0.0009 -0.0053 0.0032 26.7944 0.0032 -1.4664
# 5 -4.0613 3.2663 -7.0996 0.0032 21.1767 0.0000
# 6 -0.0009 -0.0005 0.0016 -1.4664 0.0000 32.7801
#
#
#
# Elastic Compliance Matrix: (Units=1/GPa)
#
#
# Indices 1 2 3 4 5 6 
#
# 1 0.010439 -0.007295 -0.001903 -0.000001 0.002489 0.000000
# 2 -0.007295 0.024800 -0.007750 0.000007 -0.007823 0.000001
# 3 -0.001903 -0.007750 0.014466 -0.000004 0.005680 -0.000001
# 4 -0.000001 0.000007 -0.000004 0.037413 -0.000008 0.001674
# 5 0.002489 -0.007823 0.005680 -0.000008 0.050810 -0.000001
# 6 0.000000 0.000001 -0.000001 0.001674 -0.000001 0.030581
#
#
# Mechanical properties :
#
#
# Convention : Reuss Voigt Hill
#
# Bulk Modulus (GPa) = 63.25550 70.44115 66.84832
# Shear Modulus (GPa) = 24.07616 27.28235 25.67925
#
# Velocity S-wave (km/s) = 3.66864 3.90528 3.78880
# Velocity P-wave (km/s) = 7.30108 7.72738 7.51726
#
# Compressibility (1/GPa) = 0.01580890
#
# Stress axis : x y z
#
# Youngs Moduli (GPa) = 95.79645 40.32197 69.12944
#
# Poissons Ratio (x) = 0.29413 0.13155
# Poissons Ratio (y) = 0.69880 0.53578
# Poissons Ratio (z) = 0.18229 0.31251
#
# Static dielectric constant tensor:
#      x y z
#    x 3.289180 -0.000010 0.024600 
#    y -0.000010 3.425380 0.000000 
#    z 0.024600 0.000000 3.362460 
# 
# 
# High freq. dielectric constant tensor:
#      x y z
#    x 1.691050 0.000000 0.000890 
#    y 0.000000 1.699290 0.000000 
#    z 0.000890 0.000000 1.680920 
# 
# From -- ./inp_files/195924.got.cif
#   From: 2010.06.25/outbox.cif.g09.slc.cpg/sg12_98_cif.got.tgz:195924.got - 2010.06.28 00:19:55.
