data_PCOD8089317
_publ_section_title
;
Structure prediction by ZEFSAII (Michael W. Deem and Ramdas Pophale) SiO2 
 PCOD8089317
Probable space group: C 2/M
;
_chemical_formula_sum "Si O2"
_cell_formula_units_Z 52
_cell_length_a 25.828731
_cell_length_b 19.513232
_cell_length_c 9.466568
_cell_angle_alpha 90.000000
_cell_angle_beta 142.683803
_cell_angle_gamma 90.000000
_cell_volume 2892.346103
_symmetry_space_group_name_H-M "C 2/M"
_symmetry_group_IT_number 12
_symmetry_cell_setting 'monoclinic'
loop_
_space_group_symop_operation_xyz
x,y,z
-x,y,-z
-x,-y,-z
x,-y,z
1/2+x,1/2+y,z
1/2-x,1/2+y,-z
1/2-x,1/2-y,-z
1/2+x,1/2-y,z
loop_
_atom_site_type_symbol
_atom_site_label
_atom_site_fract_x
_atom_site_fract_y
_atom_site_fract_z
Si Si1 0.825926 0.864687 0.817118
Si Si2 0.914988 0.741528 0.893838
Si Si3 0.439157 0.500000 0.728892
Si Si4 0.859619 0.644772 0.534618
Si Si5 0.596928 0.000000 0.267566
Si Si6 0.001879 0.115543 0.660565
Si Si7 0.481045 0.230242 0.616852
Si Si8 0.779662 0.000000 0.553193
O O1 0.848171 0.803967 0.754689
O O2 0.740037 0.847945 0.715663
O O3 0.812437 0.933899 0.704430
O O4 0.899101 0.873488 0.090568
O O5 0.877655 0.677211 0.728247
O O6 0.000000 0.769415 0.000000
O O7 0.938348 0.717090 0.103774
O O8 0.457628 0.567388 0.678333
O O9 0.336284 0.500000 0.532917
O O10 0.500000 0.500000 0.000000
O O11 0.891598 0.566386 0.608682
O O12 0.902796 0.685184 0.501329
O O13 0.674759 0.000000 0.317046
O O14 0.500000 0.000000 0.000000
O O15 0.000000 0.082955 0.500000
O O16 0.955002 0.189440 0.561392
O O17 0.500000 0.204917 0.500000
#
# Coordination Sequence:
#
# PCOD8089317 Si02
#       8
#     8   8   4   8   4   8   8   4
#     4  10  19  33  52  81 109 140 184 221 269 319
#     4   9  18  31  53  79 105 141 179 220 271 320
#     4  12  21  32  59  84 113 145 179 225 269 312
#     4  10  20  34  58  78 103 139 183 230 272 323
#     4  10  20  38  57  77 110 136 175 223 286 314
#     4  10  21  36  54  77 115 154 176 211 275 336
#     4   9  19  35  54  76 108 141 184 221 269 328
#     4  10  22  30  52  91 106 137 180 227 260 325
#
# _framework density 17.978486
#
# number of rings (size 3 to 8) (size 9 to 14) (size 15 to 20)
#    0.000    2.154    1.538    2.077    6.462    0.000 
#    0.000    7.308    3.385    0.000    0.000    0.000 
#    0.000    0.000    0.000    0.000    0.000    0.000 
#
# Total GULP energy -322254.533654 kJ/mol
# GULP energy per Si atom -12394.405141 kJ/mol
# Density = 1.793757 g / cm^3
# Si number density = 17.978486 Si / 1000 Ang^3
#
#
#
# Elastic Constant Matrix: (Units=GPa)
#
#
# Indices 1 2 3 4 5 6 
#
# 1 138.9638 66.5894 69.7472 0.0000 5.3008 0.0000
# 2 66.5894 118.7015 39.4955 0.0000 8.2063 0.0000
# 3 69.7472 39.4955 76.3063 0.0000 7.9948 0.0000
# 4 0.0000 0.0000 0.0000 20.6434 0.0000 5.3095
# 5 5.3008 8.2063 7.9948 0.0000 42.3315 0.0000
# 6 0.0000 0.0000 0.0000 5.3095 0.0000 35.1978
#
#
#
# Elastic Compliance Matrix: (Units=1/GPa)
#
#
# Indices 1 2 3 4 5 6 
#
# 1 0.015269 -0.004788 -0.011605 0.000000 0.001208 0.000000
# 2 -0.004788 0.011720 -0.001545 0.000000 -0.001381 0.000000
# 3 -0.011605 -0.001545 0.024820 0.000000 -0.002935 0.000000
# 4 0.000000 0.000000 0.000000 0.050397 0.000000 -0.007602
# 5 0.001208 -0.001381 -0.002935 0.000000 0.024294 0.000000
# 6 0.000000 0.000000 0.000000 -0.007602 0.000000 0.029558
#
#
# Mechanical properties :
#
#
# Convention : Reuss Voigt Hill
#
# Bulk Modulus (GPa) = 62.76380 76.18177 69.47278
# Shear Modulus (GPa) = 25.34940 30.17716 27.76328
#
# Velocity S-wave (km/s) = 3.75905 4.10141 3.93396
# Velocity P-wave (km/s) = 7.33668 8.05572 7.70459
#
# Compressibility (1/GPa) = 0.01593275
#
# Stress axis : x y z
#
# Youngs Moduli (GPa) = 65.49290 85.32454 40.29069
#
# Poissons Ratio (x) = 0.40852 0.46756
# Poissons Ratio (y) = 0.31357 0.06226
# Poissons Ratio (z) = 0.76003 0.13185
#
# Static dielectric constant tensor:
#      x y z
#    x 3.458630 0.000000 0.204700 
#    y 0.000000 3.514520 0.000000 
#    z 0.204700 0.000000 3.392750 
# 
# 
# High freq. dielectric constant tensor:
#      x y z
#    x 1.687020 0.000000 0.012060 
#    y 0.000000 1.708590 0.000000 
#    z 0.012060 0.000000 1.679510 
# 
# From -- ./inp_files/99051.got.cif
#   From: 2010.06.25/outbox.cif.g09.slc.cpg/sg12_50_cif.got.tgz:99051.got - 2010.06.28 00:19:55.
