data_PCOD8089091
_publ_section_title
;
Structure prediction by ZEFSAII (Michael W. Deem and Ramdas Pophale) SiO2 
 PCOD8089091
Probable space group: C 2/M
;
_chemical_formula_sum "Si O2"
_cell_formula_units_Z 64
_cell_length_a 20.427452
_cell_length_b 9.161660
_cell_length_c 21.629316
_cell_angle_alpha 90.000000
_cell_angle_beta 117.982025
_cell_angle_gamma 90.000000
_cell_volume 3574.690933
_symmetry_space_group_name_H-M "C 2/M"
_symmetry_group_IT_number 12
_symmetry_cell_setting 'monoclinic'
loop_
_space_group_symop_operation_xyz
x,y,z
-x,y,-z
-x,-y,-z
x,-y,z
1/2+x,1/2+y,z
1/2-x,1/2+y,-z
1/2-x,1/2-y,-z
1/2+x,1/2-y,z
loop_
_atom_site_type_symbol
_atom_site_label
_atom_site_fract_x
_atom_site_fract_y
_atom_site_fract_z
Si Si1 0.647510 0.835128 0.695542
Si Si2 0.299502 0.333310 0.695066
Si Si3 0.164254 0.327662 0.842821
Si Si4 0.579687 0.326675 0.911277
Si Si5 0.228917 0.827089 0.554095
Si Si6 0.668783 0.673600 0.069659
Si Si7 0.580052 0.671867 0.556538
Si Si8 0.411989 0.673204 0.845504
O O1 0.732737 0.822285 0.713892
O O2 0.641576 0.783958 0.763434
O O3 0.595193 0.734475 0.631004
O O4 0.619215 0.000000 0.674954
O O5 0.308620 0.500000 0.675330
O O6 0.286867 0.228214 0.631204
O O7 0.371846 0.277234 0.764175
O O8 0.158531 0.500000 0.850754
O O9 0.107833 0.244434 0.861244
O O10 0.246890 0.271203 0.894376
O O11 0.584109 0.500000 0.907204
O O12 0.495970 0.271657 0.883208
O O13 0.627631 0.268647 0.990230
O O14 0.250000 0.750000 0.500000
O O15 0.145121 0.781898 0.537290
O O16 0.236785 0.000000 0.550148
O O17 0.665530 0.500000 0.070964
O O18 0.628387 0.739942 0.112119
O O19 0.500000 0.732679 0.500000
O O20 0.577970 0.500000 0.562272
O O21 0.407475 0.500000 0.847492
#
# Coordination Sequence:
#
# PCOD8089091 Si02
#       8
#     8   8   8   8   8   8   8   8
#     4   9  17  31  53  76  97 131 174 207 239 292
#     4   9  16  31  55  76  97 130 173 211 246 291
#     4  10  19  33  51  71 102 138 169 204 251 302
#     4  10  20  31  48  77 105 129 165 214 260 297
#     4  10  20  35  55  79 106 133 165 203 247 297
#     4   9  16  30  53  75  96 130 175 214 247 294
#     4   9  19  36  56  78 103 130 162 205 253 294
#     4   9  16  30  52  76  99 128 170 216 254 291
#
# _framework density 17.903646999999999
#
# number of rings (size 3 to 8) (size 9 to 14) (size 15 to 20)
#    0.000    2.625    1.250    1.125    0.000    2.750 
#    2.250    0.625    0.000    3.000    0.000    0.000 
#    0.000    0.000    0.000    0.000    0.000    0.000 
#
# Total GULP energy -396784.771120 kJ/mol
# GULP energy per Si atom -12399.524097 kJ/mol
# Density = 1.786290 g / cm^3
# Si number density = 17.903647 Si / 1000 Ang^3
#
#
#
# Elastic Constant Matrix: (Units=GPa)
#
#
# Indices 1 2 3 4 5 6 
#
# 1 82.0109 25.1300 56.6277 0.0000 -6.7185 0.0000
# 2 25.1300 31.5019 33.0907 0.0000 -5.3246 0.0000
# 3 56.6277 33.0907 130.0398 0.0000 -3.3996 0.0000
# 4 0.0000 0.0000 0.0000 25.3818 0.0000 -4.7411
# 5 -6.7185 -5.3246 -3.3996 0.0000 35.1166 0.0000
# 6 0.0000 0.0000 0.0000 -4.7411 0.0000 24.1928
#
#
#
# Elastic Compliance Matrix: (Units=1/GPa)
#
#
# Indices 1 2 3 4 5 6 
#
# 1 0.019202 -0.008574 -0.006133 0.000000 0.001780 0.000000
# 2 -0.008574 0.048246 -0.008416 0.000000 0.004860 0.000000
# 3 -0.006133 -0.008416 0.012470 0.000000 -0.001242 0.000000
# 4 0.000000 0.000000 0.000000 0.040895 0.000000 0.008014
# 5 0.001780 0.004860 -0.001242 0.000000 0.029434 0.000000
# 6 0.000000 0.000000 0.000000 0.008014 0.000000 0.042905
#
#
# Mechanical properties :
#
#
# Convention : Reuss Voigt Hill
#
# Bulk Modulus (GPa) = 29.69975 52.58326 41.14150
# Shear Modulus (GPa) = 19.95033 25.51853 22.73443
#
# Velocity S-wave (km/s) = 3.34176 3.77944 3.56732
# Velocity P-wave (km/s) = 5.61378 6.96272 6.32432
#
# Compressibility (1/GPa) = 0.03367032
#
# Stress axis : x y z
#
# Youngs Moduli (GPa) = 52.07915 20.72707 80.19321
#
# Poissons Ratio (x) = 0.17772 0.49184
# Poissons Ratio (y) = 0.44654 0.67492
# Poissons Ratio (z) = 0.31941 0.17444
#
# Static dielectric constant tensor:
#      x y z
#    x 3.346140 0.000000 0.099860 
#    y 0.000000 2.996620 0.000000 
#    z 0.099860 0.000000 3.483860 
# 
# 
# High freq. dielectric constant tensor:
#      x y z
#    x 1.688470 0.000000 0.000340 
#    y 0.000000 1.660320 0.000000 
#    z 0.000340 0.000000 1.705750 
# 
# From -- ./inp_files/319770.got.cif
#   From: 2010.06.25/outbox.cif.g09.slc.cpg/sg12_160_cif.got.tgz:319770.got - 2010.06.28 00:19:55.
