data_PCOD8089814
_publ_section_title
;
Structure prediction by ZEFSAII (Michael W. Deem and Ramdas Pophale) SiO2 
 PCOD8089814
Probable space group: C 2/M
;
_chemical_formula_sum "Si O2"
_cell_formula_units_Z 64
_cell_length_a 24.285037
_cell_length_b 9.064186
_cell_length_c 29.903309
_cell_angle_alpha 90.000000
_cell_angle_beta 28.115950
_cell_angle_gamma 90.000000
_cell_volume 3102.023166
_symmetry_space_group_name_H-M "C 2/M"
_symmetry_group_IT_number 12
_symmetry_cell_setting 'monoclinic'
loop_
_space_group_symop_operation_xyz
x,y,z
-x,y,-z
-x,-y,-z
x,-y,z
1/2+x,1/2+y,z
1/2-x,1/2+y,-z
1/2-x,1/2-y,-z
1/2+x,1/2-y,z
loop_
_atom_site_type_symbol
_atom_site_label
_atom_site_fract_x
_atom_site_fract_y
_atom_site_fract_z
Si Si1 0.721977 0.167082 0.206410
Si Si2 0.094176 0.675100 0.469390
Si Si3 0.852064 0.826072 0.294968
Si Si4 0.512340 0.326083 0.616451
Si Si5 0.795061 0.335302 0.883691
Si Si6 0.971034 0.174074 0.295918
Si Si7 0.427798 0.162038 0.095899
Si Si8 0.452939 0.672217 0.913096
O O1 0.622227 0.283394 0.289599
O O2 0.756072 0.176319 0.130026
O O3 0.827770 0.216199 0.161840
O O4 0.685418 0.000000 0.246027
O O5 0.081794 0.500000 0.481231
O O6 0.228049 0.725628 0.362031
O O7 0.000000 0.735462 0.500000
O O8 0.076905 0.740972 0.530836
O O9 0.871318 0.770018 0.332553
O O10 0.965242 0.773334 0.186228
O O11 0.849631 0.000000 0.297896
O O12 0.528675 0.500000 0.598052
O O13 0.558874 0.271286 0.632207
O O14 0.842612 0.500000 0.858290
O O15 0.903274 0.226744 0.812541
O O16 0.686395 0.300598 0.995202
O O17 0.980927 0.000000 0.289642
O O18 0.515912 0.222823 0.068906
O O19 0.378194 0.000000 0.145339
O O20 0.500000 0.141409 0.000000
O O21 0.474772 0.500000 0.908600
#
# Coordination Sequence:
#
# PCOD8089814 Si02
#       8
#     8   8   8   8   8   8   8   8
#     4  10  19  33  54  80 112 150 193 237 283 338
#     4  10  22  40  61  87 115 148 193 241 289 349
#     4   9  20  39  60  83 113 150 196 243 287 344
#     4  10  21  37  59  87 115 148 187 236 299 351
#     4   9  18  32  52  82 114 144 189 239 279 330
#     4   9  19  37  60  84 114 152 190 233 292 350
#     4  11  22  33  49  78 117 156 195 242 291 340
#     4  10  20  35  55  79 111 156 199 237 284 341
#
# _framework density 20.631695000000001
#
# number of rings (size 3 to 8) (size 9 to 14) (size 15 to 20)
#    0.000    2.250    1.250    1.125    1.750    3.250 
#    0.000    1.875    0.000    0.000    0.000    0.000 
#    0.000    0.000    0.000    0.000    0.000    0.000 
#
# Total GULP energy -396503.615791 kJ/mol
# GULP energy per Si atom -12390.737993 kJ/mol
# Density = 2.058474 g / cm^3
# Si number density = 20.631695 Si / 1000 Ang^3
#
#
#
# Elastic Constant Matrix: (Units=GPa)
#
#
# Indices 1 2 3 4 5 6 
#
# 1 104.3088 28.0295 41.9512 0.0061 -6.4064 0.0094
# 2 28.0295 40.3044 11.2646 0.0100 2.2390 0.0408
# 3 41.9512 11.2646 98.1289 0.0132 7.5057 -0.0576
# 4 0.0061 0.0100 0.0132 44.4947 -0.0190 -129.7339
# 5 -6.4064 2.2390 7.5057 -0.0190 25.6696 0.1428
# 6 0.0094 0.0408 -0.0576 -129.7339 0.1428 1024.4813
#
#
#
# Elastic Compliance Matrix: (Units=1/GPa)
#
#
# Indices 1 2 3 4 5 6 
#
# 1 0.014660 -0.008939 -0.005708 0.000002 0.006107 -0.000001
# 2 -0.008939 0.031134 0.000640 -0.000015 -0.005134 -0.000002
# 3 -0.005708 0.000640 0.012961 -0.000002 -0.005270 0.000001
# 4 0.000002 -0.000015 -0.000002 0.035630 0.000004 0.004512
# 5 0.006107 -0.005134 -0.005270 0.000004 0.042470 -0.000006
# 6 -0.000001 -0.000002 0.000001 0.004512 -0.000006 0.001547
#
#
# Mechanical properties :
#
#
# Convention : Reuss Voigt Hill
#
# Bulk Modulus (GPa) = 32.53052 45.02588 38.77820
# Shear Modulus (GPa) = 28.30251 229.69559 128.99905
#
# Velocity S-wave (km/s) = 3.70780 10.56282 7.91583
# Velocity P-wave (km/s) = 5.84225 13.06274 10.11847
#
# Compressibility (1/GPa) = 0.03074037
#
# Stress axis : x y z
#
# Youngs Moduli (GPa) = 68.21356 32.11919 77.15675
#
# Poissons Ratio (x) = 0.28711 0.44043
# Poissons Ratio (y) = 0.60976 -0.04939
# Poissons Ratio (z) = 0.38938 -0.02056
#
# Static dielectric constant tensor:
#      x y z
#    x 3.543360 -0.000060 -0.094460 
#    y -0.000060 3.561760 0.000010 
#    z -0.094460 0.000010 3.918100 
# 
# 
# High freq. dielectric constant tensor:
#      x y z
#    x 1.802550 0.000000 -0.002240 
#    y 0.000000 1.789120 0.000000 
#    z -0.002240 0.000000 1.802000 
# 
# From -- ./inp_files/382273.got.cif
#   From: 2010.06.25/outbox.cif.g09.slc.cpg/sg12_192_cif.got.tgz:382273.got - 2010.06.28 00:19:55.
