data_PCOD8089162
_publ_section_title
;
Structure prediction by ZEFSAII (Michael W. Deem and Ramdas Pophale) SiO2 
 PCOD8089162
Probable space group: C 2/M
;
_chemical_formula_sum "Si O2"
_cell_formula_units_Z 56
_cell_length_a 19.872778
_cell_length_b 8.814780
_cell_length_c 18.674942
_cell_angle_alpha 90.000000
_cell_angle_beta 74.823036
_cell_angle_gamma 90.000000
_cell_volume 3157.268085
_symmetry_space_group_name_H-M "C 2/M"
_symmetry_group_IT_number 12
_symmetry_cell_setting 'monoclinic'
loop_
_space_group_symop_operation_xyz
x,y,z
-x,y,-z
-x,-y,-z
x,-y,z
1/2+x,1/2+y,z
1/2-x,1/2+y,-z
1/2-x,1/2-y,-z
1/2+x,1/2-y,z
loop_
_atom_site_type_symbol
_atom_site_label
_atom_site_fract_x
_atom_site_fract_y
_atom_site_fract_z
Si Si1 0.867146 0.679460 0.849452
Si Si2 0.187830 0.679414 0.561524
Si Si3 0.176511 0.822761 0.004112
Si Si4 0.964058 0.321579 0.440367
Si Si5 0.498352 0.179912 0.275057
Si Si6 0.717203 0.677502 0.841786
Si Si7 0.854816 0.180899 0.280837
O O1 0.865029 0.500000 0.857037
O O2 0.879253 0.746699 0.926349
O O3 0.794867 0.743858 0.835744
O O4 0.930622 0.733398 0.782075
O O5 0.196775 0.500000 0.566203
O O6 0.250000 0.750000 0.500000
O O7 0.117095 0.723252 0.539493
O O8 0.186720 0.751147 0.640535
O O9 0.178704 0.000000 0.019252
O O10 0.250000 0.750000 0.000000
O O11 0.163674 0.790129 0.923048
O O12 0.972548 0.500000 0.443915
O O13 0.001914 0.266776 0.356992
O O14 0.000000 0.244201 0.500000
O O15 0.433955 0.261338 0.254451
O O16 0.486339 0.000000 0.273194
O O17 0.726846 0.500000 0.828442
O O18 0.684371 0.745336 0.778736
O O19 0.854123 0.000000 0.285303
#
# Coordination Sequence:
#
# PCOD8089162 Si02
#       7
#     8   8   8   8   8   8   8
#     4   9  17  31  50  71  96 126 163 202 239 283
#     4  10  20  34  52  74  99 126 158 196 238 283
#     4   9  16  29  48  70  96 123 158 202 244 284
#     4   8  15  29  50  72  91 119 160 197 228 270
#     4   9  18  32  49  70  98 127 155 195 242 285
#     4   8  16  30  49  72  94 123 163 201 235 279
#     4  10  19  33  52  71  96 129 161 194 236 285
#
# _framework density 17.736853
#
# number of rings (size 3 to 8) (size 9 to 14) (size 15 to 20)
#    0.000    3.000    0.000    3.000    0.000    1.714 
#    0.000   12.143    0.000   18.429    0.000    0.000 
#    0.000    0.000    0.000    0.000    0.000    0.000 
#
# Total GULP energy -346995.479233 kJ/mol
# GULP energy per Si atom -12392.695687 kJ/mol
# Density = 1.769648 g / cm^3
# Si number density = 17.736853 Si / 1000 Ang^3
#
#
#
# Elastic Constant Matrix: (Units=GPa)
#
#
# Indices 1 2 3 4 5 6 
#
# 1 104.3978 29.3418 106.9876 0.0000 -7.4148 0.0000
# 2 29.3418 41.7786 52.2496 0.0000 -3.6837 0.0000
# 3 106.9876 52.2496 152.7058 0.0000 -3.7980 0.0000
# 4 0.0000 0.0000 0.0000 28.7793 0.0000 -3.9861
# 5 -7.4148 -3.6837 -3.7980 0.0000 35.7937 0.0000
# 6 0.0000 0.0000 0.0000 -3.9861 0.0000 23.5880
#
#
#
# Elastic Compliance Matrix: (Units=1/GPa)
#
#
# Indices 1 2 3 4 5 6 
#
# 1 0.037898 0.012104 -0.030548 0.000000 0.005855 0.000000
# 2 0.012104 0.045985 -0.024098 0.000000 0.004683 0.000000
# 3 -0.030548 -0.024098 0.036072 0.000000 -0.004981 0.000000
# 4 0.000000 0.000000 0.000000 0.035580 0.000000 0.006013
# 5 0.005855 0.004683 -0.004981 0.000000 0.029104 0.000000
# 6 0.000000 0.000000 0.000000 0.006013 0.000000 0.043411
#
#
# Mechanical properties :
#
#
# Convention : Reuss Voigt Hill
#
# Bulk Modulus (GPa) = 28.67636 75.11557 51.89596
# Shear Modulus (GPa) = 15.39606 24.98574 20.19090
#
# Velocity S-wave (km/s) = 2.94942 3.75732 3.37762
# Velocity P-wave (km/s) = 5.27272 7.82721 6.67334
#
# Compressibility (1/GPa) = 0.03487193
#
# Stress axis : x y z
#
# Youngs Moduli (GPa) = 26.38634 21.74605 27.72227
#
# Poissons Ratio (x) = -0.26321 0.84685
# Poissons Ratio (y) = -0.31937 0.66804
# Poissons Ratio (z) = 0.80604 0.52403
#
# Static dielectric constant tensor:
#      x y z
#    x 3.307800 0.000000 0.093720 
#    y 0.000000 3.137800 0.000000 
#    z 0.093720 0.000000 3.714290 
# 
# 
# High freq. dielectric constant tensor:
#      x y z
#    x 1.666080 0.000000 -0.003090 
#    y 0.000000 1.665480 0.000000 
#    z -0.003090 0.000000 1.702450 
# 
# From -- ./inp_files/280197.got.cif
#   From: 2010.06.25/outbox.cif.g09.slc.cpg/sg12_141_cif.got.tgz:280197.got - 2010.06.28 00:19:55.
