data_PCOD8089309
_publ_section_title
;
Structure prediction by ZEFSAII (Michael W. Deem and Ramdas Pophale) SiO2 
 PCOD8089309
Probable space group: C 2/M
;
_chemical_formula_sum "Si O2"
_cell_formula_units_Z 48
_cell_length_a 18.317113
_cell_length_b 12.976825
_cell_length_c 12.747370
_cell_angle_alpha 90.000000
_cell_angle_beta 62.573266
_cell_angle_gamma 90.000000
_cell_volume 2689.450976
_symmetry_space_group_name_H-M "C 2/M"
_symmetry_group_IT_number 12
_symmetry_cell_setting 'monoclinic'
loop_
_space_group_symop_operation_xyz
x,y,z
-x,y,-z
-x,-y,-z
x,-y,z
1/2+x,1/2+y,z
1/2-x,1/2+y,-z
1/2-x,1/2-y,-z
1/2+x,1/2-y,z
loop_
_atom_site_type_symbol
_atom_site_label
_atom_site_fract_x
_atom_site_fract_y
_atom_site_fract_z
Si Si1 0.257023 0.381262 0.296201
Si Si2 0.104437 0.747213 0.701581
Si Si3 0.417640 0.118135 0.490380
Si Si4 0.187563 0.213163 0.955592
Si Si5 0.475665 0.381495 0.899069
Si Si6 0.093590 0.614216 0.904367
O O1 0.284902 0.500000 0.288506
O O2 0.311893 0.314066 0.340897
O O3 0.160753 0.368298 0.382660
O O4 0.269555 0.344911 0.168914
O O5 0.093306 0.701877 0.593561
O O6 0.106038 0.650210 0.777330
O O7 0.026844 0.819240 0.779298
O O8 0.500000 0.145147 0.500000
O O9 0.422318 0.000000 0.444809
O O10 0.143853 0.317016 0.950481
O O11 0.250000 0.250000 0.000000
O O12 0.121201 0.136746 0.052682
O O13 0.498483 0.500000 0.869740
O O14 0.500000 0.342453 0.000000
O O15 0.130078 0.500000 0.888178
O O16 0.000000 0.617213 0.000000
#
# Coordination Sequence:
#
# PCOD8089309 Si02
#       6
#     8   8   8   8   8   8
#     4  10  21  38  60  84 110 148 194 233 273 330
#     4  11  19  36  59  85 108 148 188 233 277 331
#     4  10  23  39  58  84 113 147 188 234 282 332
#     4  11  22  35  55  85 118 150 181 227 284 336
#     4  11  20  36  60  87 113 145 189 231 275 334
#     4  10  19  33  52  79 112 146 185 225 272 330
#
# _framework density 17.847508999999999
#
# number of rings (size 3 to 8) (size 9 to 14) (size 15 to 20)
#    0.000    1.500    5.000    2.000    2.333    1.333 
#    0.000    0.000    0.000    3.000    0.000    0.000 
#    0.000    0.000    0.000    0.000    0.000    0.000 
#
# Total GULP energy -297610.370336 kJ/mol
# GULP energy per Si atom -12400.432097 kJ/mol
# Density = 1.780689 g / cm^3
# Si number density = 17.847509 Si / 1000 Ang^3
#
#
#
# Elastic Constant Matrix: (Units=GPa)
#
#
# Indices 1 2 3 4 5 6 
#
# 1 124.9039 47.1072 55.9940 0.0000 -2.2150 0.0000
# 2 47.1072 116.6225 51.9387 0.0000 -0.7642 0.0000
# 3 55.9940 51.9387 80.9542 0.0000 -6.5479 0.0000
# 4 0.0000 0.0000 0.0000 25.6561 0.0000 -5.8167
# 5 -2.2150 -0.7642 -6.5479 0.0000 29.4646 0.0000
# 6 0.0000 0.0000 0.0000 -5.8167 0.0000 22.9602
#
#
#
# Elastic Compliance Matrix: (Units=1/GPa)
#
#
# Indices 1 2 3 4 5 6 
#
# 1 0.011827 -0.001556 -0.007243 0.000000 -0.000761 0.000000
# 2 -0.001556 0.012269 -0.006903 0.000000 -0.001333 0.000000
# 3 -0.007243 -0.006903 0.022131 0.000000 0.004195 0.000000
# 4 0.000000 0.000000 0.000000 0.041352 0.000000 0.010476
# 5 -0.000761 -0.001333 0.004195 0.000000 0.034779 0.000000
# 6 0.000000 0.000000 0.000000 0.010476 0.000000 0.046208
#
#
# Mechanical properties :
#
#
# Convention : Reuss Voigt Hill
#
# Bulk Modulus (GPa) = 67.47001 70.28448 68.87725
# Shear Modulus (GPa) = 24.40088 26.77890 25.58989
#
# Velocity S-wave (km/s) = 3.70156 3.87774 3.79067
# Velocity P-wave (km/s) = 7.49362 7.71461 7.60492
#
# Compressibility (1/GPa) = 0.01482140
#
# Stress axis : x y z
#
# Youngs Moduli (GPa) = 84.55392 81.50776 45.18622
#
# Poissons Ratio (x) = 0.12685 0.32730
# Poissons Ratio (y) = 0.13159 0.31191
# Poissons Ratio (z) = 0.61245 0.56263
#
# Static dielectric constant tensor:
#      x y z
#    x 3.312190 0.000000 -0.213880 
#    y 0.000000 3.599090 0.000000 
#    z -0.213880 0.000000 3.204620 
# 
# 
# High freq. dielectric constant tensor:
#      x y z
#    x 1.688320 0.000000 -0.017890 
#    y 0.000000 1.706340 0.000000 
#    z -0.017890 0.000000 1.679230 
# 
# From -- ./inp_files/155256.got.cif
#   From: 2010.06.25/outbox.cif.g09.slc.cpg/sg12_78_cif.got.tgz:155256.got - 2010.06.28 00:19:55.
