data_PCOD8089115
_publ_section_title
;
Structure prediction by ZEFSAII (Michael W. Deem and Ramdas Pophale) SiO2 
 PCOD8089115
Probable space group: C 2/M
;
_chemical_formula_sum "Si O2"
_cell_formula_units_Z 56
_cell_length_a 30.271984
_cell_length_b 8.531427
_cell_length_c 19.315062
_cell_angle_alpha 90.000000
_cell_angle_beta 142.952465
_cell_angle_gamma 90.000000
_cell_volume 3005.380260
_symmetry_space_group_name_H-M "C 2/M"
_symmetry_group_IT_number 12
_symmetry_cell_setting 'monoclinic'
loop_
_space_group_symop_operation_xyz
x,y,z
-x,y,-z
-x,-y,-z
x,-y,z
1/2+x,1/2+y,z
1/2-x,1/2+y,-z
1/2-x,1/2-y,-z
1/2+x,1/2-y,z
loop_
_atom_site_type_symbol
_atom_site_label
_atom_site_fract_x
_atom_site_fract_y
_atom_site_fract_z
Si Si1 0.802130 0.680093 0.007882
Si Si2 0.463623 0.177185 0.197299
Si Si3 0.621480 0.684886 0.266385
Si Si4 0.750537 0.180932 0.340357
Si Si5 0.464987 0.322696 0.057219
Si Si6 0.693930 0.686632 0.138165
Si Si7 0.621982 0.821309 0.418668
O O1 0.782190 0.500000 0.971830
O O2 0.886387 0.701346 0.140350
O O3 0.750000 0.750000 0.000000
O O4 0.788577 0.766621 0.918373
O O5 0.469110 0.308430 0.145364
O O6 0.536543 0.198173 0.335571
O O7 0.464978 0.000000 0.166871
O O8 0.615461 0.500000 0.274465
O O9 0.689529 0.716392 0.302466
O O10 0.544847 0.742358 0.131510
O O11 0.633071 0.776348 0.352389
O O12 0.752584 0.233741 0.262670
O O13 0.830074 0.211469 0.472186
O O14 0.730658 0.000000 0.322825
O O15 0.458979 0.500000 0.025568
O O16 0.386920 0.245366 0.938424
O O17 0.697721 0.500000 0.148712
O O18 0.648368 0.000000 0.460663
#
# Coordination Sequence:
#
# PCOD8089115 Si02
#       7
#     8   8   8   8   8   8   8
#     4  10  19  34  57  86 111 132 158 196 244 301
#     4   8  16  30  51  76 102 129 163 203 246 292
#     4  10  19  33  51  73  99 132 174 219 257 295
#     4  12  24  35  47  69 101 139 176 214 255 300
#     4   8  16  30  50  72  97 128 166 209 254 298
#     4  10  20  36  54  75 102 134 168 207 255 306
#     4  10  19  34  53  73  98 134 176 217 253 291
#
# _framework density 18.63325
#
# number of rings (size 3 to 8) (size 9 to 14) (size 15 to 20)
#    0.000    2.286    0.000    3.429    0.000    2.857 
#    0.000    2.857    0.000    0.857    0.000    6.000 
#    0.000    0.000    0.000    0.000    0.000    0.000 
#
# Total GULP energy -346876.561887 kJ/mol
# GULP energy per Si atom -12388.448639 kJ/mol
# Density = 1.859084 g / cm^3
# Si number density = 18.633250 Si / 1000 Ang^3
#
#
#
# Elastic Constant Matrix: (Units=GPa)
#
#
# Indices 1 2 3 4 5 6 
#
# 1 82.0453 14.7317 23.4297 0.0000 10.2963 0.0000
# 2 14.7317 62.0560 14.6803 0.0000 2.0047 0.0000
# 3 23.4297 14.6803 67.7351 0.0000 -1.3984 0.0000
# 4 0.0000 0.0000 0.0000 25.0451 0.0000 -1.6631
# 5 10.2963 2.0047 -1.3984 0.0000 19.7284 0.0000
# 6 0.0000 0.0000 0.0000 -1.6631 0.0000 24.6224
#
#
#
# Elastic Compliance Matrix: (Units=1/GPa)
#
#
# Indices 1 2 3 4 5 6 
#
# 1 0.014961 -0.002142 -0.004875 0.000000 -0.007936 0.000000
# 2 -0.002142 0.017370 -0.003042 0.000000 -0.000863 0.000000
# 3 -0.004875 -0.003042 0.017193 0.000000 0.004072 0.000000
# 4 0.000000 0.000000 0.000000 0.040108 0.000000 0.002709
# 5 -0.007936 -0.000863 0.004072 0.000000 0.055206 0.000000
# 6 0.000000 0.000000 0.000000 0.002709 0.000000 0.040796
#
#
# Mechanical properties :
#
#
# Convention : Reuss Voigt Hill
#
# Bulk Modulus (GPa) = 34.00481 35.28000 34.64241
# Shear Modulus (GPa) = 23.19604 24.47882 23.83743
#
# Velocity S-wave (km/s) = 3.53210 3.62846 3.58060
# Velocity P-wave (km/s) = 5.90961 6.04394 5.97715
#
# Compressibility (1/GPa) = 0.02940761
#
# Stress axis : x y z
#
# Youngs Moduli (GPa) = 66.84050 57.56915 58.16388
#
# Poissons Ratio (x) = 0.12332 0.28353
# Poissons Ratio (y) = 0.14318 0.17691
# Poissons Ratio (z) = 0.32582 0.17510
#
# Static dielectric constant tensor:
#      x y z
#    x 3.117400 0.000000 0.301560 
#    y 0.000000 3.436400 0.000000 
#    z 0.301560 0.000000 3.659150 
# 
# 
# High freq. dielectric constant tensor:
#      x y z
#    x 1.687250 0.000000 0.023350 
#    y 0.000000 1.727210 0.000000 
#    z 0.023350 0.000000 1.724660 
# 
# From -- ./inp_files/280933.got.cif
#   From: 2010.06.25/outbox.cif.g09.slc.cpg/sg12_141_cif.got.tgz:280933.got - 2010.06.28 00:19:55.
