data_PCOD8089515
_publ_section_title
;
Structure prediction by ZEFSAII (Michael W. Deem and Ramdas Pophale) SiO2 
 PCOD8089515
Probable space group: C 2/M
;
_chemical_formula_sum "Si O2"
_cell_formula_units_Z 64
_cell_length_a 24.011433
_cell_length_b 13.450017
_cell_length_c 9.542103
_cell_angle_alpha 90.000000
_cell_angle_beta 78.741596
_cell_angle_gamma 90.000000
_cell_volume 3022.360581
_symmetry_space_group_name_H-M "C 2/M"
_symmetry_group_IT_number 12
_symmetry_cell_setting 'monoclinic'
loop_
_space_group_symop_operation_xyz
x,y,z
-x,y,-z
-x,-y,-z
x,-y,z
1/2+x,1/2+y,z
1/2-x,1/2+y,-z
1/2-x,1/2-y,-z
1/2+x,1/2-y,z
loop_
_atom_site_type_symbol
_atom_site_label
_atom_site_fract_x
_atom_site_fract_y
_atom_site_fract_z
Si Si1 0.821617 0.798756 0.192682
Si Si2 0.360837 0.886155 0.328462
Si Si3 0.478439 0.721901 0.855452
Si Si4 0.859829 0.881362 0.899529
Si Si5 0.336968 0.382075 0.601036
Si Si6 0.509799 0.885011 0.653821
Si Si7 0.917694 0.886017 0.325913
Si Si8 0.241876 0.384355 0.438829
O O1 0.840181 0.684415 0.211668
O O2 0.869137 0.871895 0.233441
O O3 0.760217 0.824030 0.290777
O O4 0.819443 0.823181 0.028810
O O5 0.425323 0.862765 0.334496
O O6 0.323566 0.864474 0.487271
O O7 0.351696 0.000000 0.283843
O O8 0.424468 0.651201 0.891939
O O9 0.467666 0.826456 0.780655
O O10 0.525217 0.670686 0.735778
O O11 0.500000 0.744637 0.000000
O O12 0.839125 0.842568 0.758277
O O13 0.854952 0.000000 0.918990
O O14 0.336762 0.500000 0.603424
O O15 0.392420 0.346269 0.486494
O O16 0.280069 0.344420 0.550793
O O17 0.500000 0.849727 0.500000
O O18 0.494262 0.000000 0.678124
O O19 0.934611 0.000000 0.325612
O O20 0.253407 0.500000 0.404548
#
# Coordination Sequence:
#
# PCOD8089515 Si02
#       8
#     8   8   8   8   8   8   8   8
#     4  11  19  34  55  85 114 153 190 231 287 337
#     4  10  20  37  60  86 110 144 198 244 283 335
#     4  12  23  35  54  85 114 154 195 227 283 337
#     4  11  22  34  53  83 123 156 186 230 284 346
#     4   8  18  34  51  79 114 154 185 222 282 334
#     4  10  23  42  62  84 112 147 192 247 290 325
#     4  10  19  33  53  78 115 151 190 228 269 336
#     4   9  18  34  60  85 113 149 189 233 280 346
#
# _framework density 21.175502999999999
#
# number of rings (size 3 to 8) (size 9 to 14) (size 15 to 20)
#    0.000    1.875    2.500    2.625    1.750    0.750 
#    0.000    3.125    0.000    1.500    0.000   13.125 
#    0.000    0.000    0.000    0.000    0.000    0.000 
#
# Total GULP energy -396761.458773 kJ/mol
# GULP energy per Si atom -12398.795587 kJ/mol
# Density = 2.112731 g / cm^3
# Si number density = 21.175503 Si / 1000 Ang^3
#
#
#
# Elastic Constant Matrix: (Units=GPa)
#
#
# Indices 1 2 3 4 5 6 
#
# 1 30.8843 16.6406 21.8941 0.0000 -11.5729 0.0000
# 2 16.6406 83.3421 42.4243 0.0000 -11.7216 0.0000
# 3 21.8941 42.4243 153.1824 0.0000 -4.5540 0.0000
# 4 0.0000 0.0000 0.0000 31.7345 0.0000 -4.5768
# 5 -11.5729 -11.7216 -4.5540 0.0000 25.8161 0.0000
# 6 0.0000 0.0000 0.0000 -4.5768 0.0000 18.2471
#
#
#
# Elastic Compliance Matrix: (Units=1/GPa)
#
#
# Indices 1 2 3 4 5 6 
#
# 1 0.044342 -0.004036 -0.004708 0.000000 0.017215 0.000000
# 2 -0.004036 0.015219 -0.003505 0.000000 0.004483 0.000000
# 3 -0.004708 -0.003505 0.008104 0.000000 -0.002272 0.000000
# 4 0.000000 0.000000 0.000000 0.032694 0.000000 0.008201
# 5 0.017215 0.004483 -0.002272 0.000000 0.048087 0.000000
# 6 0.000000 0.000000 0.000000 0.008201 0.000000 0.056860
#
#
# Mechanical properties :
#
#
# Convention : Reuss Voigt Hill
#
# Bulk Modulus (GPa) = 23.16559 47.70297 35.43428
# Shear Modulus (GPa) = 20.47556 27.58951 24.03254
#
# Velocity S-wave (km/s) = 3.11295 3.61348 3.37251
# Velocity P-wave (km/s) = 4.88714 6.32345 5.65111
#
# Compressibility (1/GPa) = 0.04316747
#
# Stress axis : x y z
#
# Youngs Moduli (GPa) = 22.55209 65.70672 123.39228
#
# Poissons Ratio (x) = 0.26518 0.58096
# Poissons Ratio (y) = 0.09101 0.43248
# Poissons Ratio (z) = 0.10618 0.23029
#
# Static dielectric constant tensor:
#      x y z
#    x 3.667880 0.000000 -0.128320 
#    y 0.000000 3.932160 0.000000 
#    z -0.128320 0.000000 4.115140 
# 
# 
# High freq. dielectric constant tensor:
#      x y z
#    x 1.807930 0.000000 -0.018360 
#    y 0.000000 1.841850 0.000000 
#    z -0.018360 0.000000 1.822640 
# 
# From -- ./inp_files/104560.got.cif
#   From: 2010.06.25/outbox.cif.g09.slc.cpg/sg12_53_cif.got.tgz:104560.got - 2010.06.28 00:19:55.
