data_PCOD8089634
_publ_section_title
;
Structure prediction by ZEFSAII (Michael W. Deem and Ramdas Pophale) SiO2 
 PCOD8089634
Probable space group: C 2/M
;
_chemical_formula_sum "Si O2"
_cell_formula_units_Z 56
_cell_length_a 30.262996
_cell_length_b 8.924873
_cell_length_c 12.410352
_cell_angle_alpha 90.000000
_cell_angle_beta 74.265152
_cell_angle_gamma 90.000000
_cell_volume 3226.346292
_symmetry_space_group_name_H-M "C 2/M"
_symmetry_group_IT_number 12
_symmetry_cell_setting 'monoclinic'
loop_
_space_group_symop_operation_xyz
x,y,z
-x,y,-z
-x,-y,-z
x,-y,z
1/2+x,1/2+y,z
1/2-x,1/2+y,-z
1/2-x,1/2-y,-z
1/2+x,1/2-y,z
loop_
_atom_site_type_symbol
_atom_site_label
_atom_site_fract_x
_atom_site_fract_y
_atom_site_fract_z
Si Si1 0.049725 0.176498 0.350876
Si Si2 0.792482 0.826550 0.030109
Si Si3 0.291732 0.175818 0.257120
Si Si4 0.145310 0.827245 0.206688
Si Si5 0.050635 0.822913 0.593254
Si Si6 0.361418 0.825659 0.396840
Si Si7 0.697695 0.822510 0.362453
O O1 0.092043 0.225765 0.246800
O O2 0.059160 0.235152 0.465568
O O3 0.000539 0.234005 0.337849
O O4 0.045298 0.000000 0.361803
O O5 0.803267 0.747616 0.134952
O O6 0.780502 0.000000 0.057957
O O7 0.750000 0.750000 0.000000
O O8 0.837641 0.807696 0.926529
O O9 0.334621 0.211029 0.305274
O O10 0.247192 0.247207 0.341501
O O11 0.283133 0.000000 0.248025
O O12 0.175808 0.724916 0.263747
O O13 0.150101 0.000000 0.241480
O O14 0.088864 0.751025 0.644778
O O15 0.055325 0.000000 0.600026
O O16 0.333193 0.763412 0.518293
O O17 0.369362 0.000000 0.406856
O O18 0.703914 0.000000 0.361353
#
# Coordination Sequence:
#
# PCOD8089634 Si02
#       7
#     8   8   8   8   8   8   8
#     4   8  15  29  50  79 105 131 168 207 253 309
#     4  11  22  35  54  78 103 135 176 219 256 300
#     4  11  23  38  53  70 102 144 179 213 257 306
#     4  10  19  33  54  76 105 138 167 206 260 309
#     4   9  16  29  53  78 103 134 169 207 252 311
#     4  10  22  36  50  75 108 139 171 212 261 311
#     4  11  21  33  51  77 106 134 171 214 255 310
#
# _framework density 17.357095000000001
#
# number of rings (size 3 to 8) (size 9 to 14) (size 15 to 20)
#    0.000    2.000    2.857    2.571    0.000    2.286 
#    0.000    2.143    0.000    0.857    0.000    6.000 
#    0.000    0.000    0.000    0.000    0.000    0.000 
#
# Total GULP energy -347171.683488 kJ/mol
# GULP energy per Si atom -12398.988696 kJ/mol
# Density = 1.731759 g / cm^3
# Si number density = 17.357095 Si / 1000 Ang^3
#
#
#
# Elastic Constant Matrix: (Units=GPa)
#
#
# Indices 1 2 3 4 5 6 
#
# 1 146.4071 50.9125 50.0611 0.0000 -9.8094 0.0000
# 2 50.9125 64.1747 30.5193 0.0000 3.6549 0.0000
# 3 50.0611 30.5193 74.6225 0.0000 -0.6249 0.0000
# 4 0.0000 0.0000 0.0000 23.4346 0.0000 2.6191
# 5 -9.8094 3.6549 -0.6249 0.0000 28.8195 0.0000
# 6 0.0000 0.0000 0.0000 2.6191 0.0000 27.3537
#
#
#
# Elastic Compliance Matrix: (Units=1/GPa)
#
#
# Indices 1 2 3 4 5 6 
#
# 1 0.011098 -0.006879 -0.004594 0.000000 0.004550 0.000000
# 2 -0.006879 0.023810 -0.005169 0.000000 -0.005473 0.000000
# 3 -0.004594 -0.005169 0.018592 0.000000 -0.000505 0.000000
# 4 0.000000 0.000000 0.000000 0.043133 0.000000 -0.004130
# 5 0.004550 -0.005473 -0.000505 0.000000 0.036931 0.000000
# 6 0.000000 0.000000 0.000000 -0.004130 0.000000 0.036954
#
#
# Mechanical properties :
#
#
# Convention : Reuss Voigt Hill
#
# Bulk Modulus (GPa) = 49.46335 60.91000 55.18667
# Shear Modulus (GPa) = 23.74851 26.16898 24.95874
#
# Velocity S-wave (km/s) = 3.70297 3.88710 3.79615
# Velocity P-wave (km/s) = 6.84412 7.43737 7.14691
#
# Compressibility (1/GPa) = 0.02021699
#
# Stress axis : x y z
#
# Youngs Moduli (GPa) = 90.10598 41.99971 53.78615
#
# Poissons Ratio (x) = 0.28892 0.24708
# Poissons Ratio (y) = 0.61985 0.27800
# Poissons Ratio (z) = 0.41392 0.21708
#
# Static dielectric constant tensor:
#      x y z
#    x 3.456600 0.000000 -0.265190 
#    y 0.000000 3.138170 0.000000 
#    z -0.265190 0.000000 3.319040 
# 
# 
# High freq. dielectric constant tensor:
#      x y z
#    x 1.673110 0.000000 -0.012700 
#    y 0.000000 1.662720 0.000000 
#    z -0.012700 0.000000 1.653300 
# 
# From -- ./inp_files/186422.got.cif
#   From: 2010.06.25/outbox.cif.g09.slc.cpg/sg12_94_cif.got.tgz:186422.got - 2010.06.28 00:19:55.
