data_PCOD8089830
_publ_section_title
;
Structure prediction by ZEFSAII (Michael W. Deem and Ramdas Pophale) SiO2 
 PCOD8089830
Probable space group: C 2/M
;
_chemical_formula_sum "Si O2"
_cell_formula_units_Z 64
_cell_length_a 20.549891
_cell_length_b 9.200665
_cell_length_c 23.091894
_cell_angle_alpha 90.000000
_cell_angle_beta 127.848571
_cell_angle_gamma 90.000000
_cell_volume 3447.583312
_symmetry_space_group_name_H-M "C 2/M"
_symmetry_group_IT_number 12
_symmetry_cell_setting 'monoclinic'
loop_
_space_group_symop_operation_xyz
x,y,z
-x,y,-z
-x,-y,-z
x,-y,z
1/2+x,1/2+y,z
1/2-x,1/2+y,-z
1/2-x,1/2-y,-z
1/2+x,1/2-y,z
loop_
_atom_site_type_symbol
_atom_site_label
_atom_site_fract_x
_atom_site_fract_y
_atom_site_fract_z
Si Si1 0.917657 0.841812 0.487939
Si Si2 0.289986 0.838034 0.350003
Si Si3 0.125254 0.162950 0.323794
Si Si4 0.996649 0.668549 0.818579
Si Si5 0.773914 0.828185 0.810133
Si Si6 0.889322 0.670289 0.220293
Si Si7 0.945825 0.330854 0.916975
Si Si8 0.454030 0.827700 0.622089
O O1 0.857541 0.774080 0.407703
O O2 0.936108 0.729949 0.548945
O O3 0.000000 0.873700 0.500000
O O4 0.883990 0.000000 0.491651
O O5 0.220802 0.842212 0.361244
O O6 0.253301 0.784139 0.269162
O O7 0.328280 0.000000 0.363156
O O8 0.116428 0.261823 0.375498
O O9 0.077591 0.232773 0.243865
O O10 0.091322 0.000000 0.316260
O O11 0.976089 0.500000 0.794044
O O12 0.080641 0.710893 0.828942
O O13 0.001603 0.697725 0.889962
O O14 0.701867 0.768574 0.814551
O O15 0.859638 0.752238 0.871389
O O16 0.787774 0.000000 0.823445
O O17 0.882861 0.500000 0.224566
O O18 0.957474 0.725603 0.304169
O O19 0.924869 0.500000 0.911727
O O20 0.000000 0.273914 0.000000
O O21 0.446662 0.000000 0.617689
#
# Coordination Sequence:
#
# PCOD8089830 Si02
#       8
#     8   8   8   8   8   8   8   8
#     4  11  24  38  52  75 107 142 182 232 283 323
#     4  10  21  35  54  78 105 141 179 222 277 334
#     4  10  19  33  54  81 109 135 174 227 276 319
#     4   9  17  33  55  78 107 145 186 219 265 329
#     4  10  19  35  57  82 108 135 180 229 270 322
#     4   8  16  31  55  81 103 137 182 227 267 315
#     4  10  21  36  55  80 112 147 180 219 269 327
#     4  10  20  36  57  78 106 146 187 221 269 330
#
# _framework density 18.563728000000001
#
# number of rings (size 3 to 8) (size 9 to 14) (size 15 to 20)
#    0.000    2.250    1.250    2.625    0.000    4.250 
#    0.000    3.750    0.000    0.000    0.000    0.000 
#    0.000    0.000    0.000    0.000    0.000    0.000 
#
# Total GULP energy -396638.927894 kJ/mol
# GULP energy per Si atom -12394.966497 kJ/mol
# Density = 1.852148 g / cm^3
# Si number density = 18.563728 Si / 1000 Ang^3
#
#
#
# Elastic Constant Matrix: (Units=GPa)
#
#
# Indices 1 2 3 4 5 6 
#
# 1 111.1940 41.3408 58.4637 0.0000 6.7961 0.0000
# 2 41.3408 87.9256 52.9017 0.0000 0.3898 0.0000
# 3 58.4637 52.9017 120.3366 0.0000 -1.7918 0.0000
# 4 0.0000 0.0000 0.0000 26.7262 0.0000 2.7691
# 5 6.7961 0.3898 -1.7918 0.0000 23.8662 0.0000
# 6 0.0000 0.0000 0.0000 2.7691 0.0000 25.9808
#
#
#
# Elastic Compliance Matrix: (Units=1/GPa)
#
#
# Indices 1 2 3 4 5 6 
#
# 1 0.013034 -0.003079 -0.005039 0.000000 -0.004040 0.000000
# 2 -0.003079 0.016204 -0.005625 0.000000 0.000190 0.000000
# 3 -0.005039 -0.005625 0.013269 0.000000 0.002523 0.000000
# 4 0.000000 0.000000 0.000000 0.037834 0.000000 -0.004032
# 5 -0.004040 0.000190 0.002523 0.000000 0.043237 0.000000
# 6 0.000000 0.000000 0.000000 -0.004032 0.000000 0.038920
#
#
# Mechanical properties :
#
#
# Convention : Reuss Voigt Hill
#
# Bulk Modulus (GPa) = 66.57185 69.42984 68.00084
# Shear Modulus (GPa) = 25.64212 26.43130 26.03671
#
# Velocity S-wave (km/s) = 3.72062 3.77744 3.74914
# Velocity P-wave (km/s) = 7.37539 7.51714 7.44661
#
# Compressibility (1/GPa) = 0.01502136
#
# Stress axis : x y z
#
# Youngs Moduli (GPa) = 76.72032 61.71177 75.36495
#
# Poissons Ratio (x) = 0.18999 0.37979
# Poissons Ratio (y) = 0.23619 0.42394
# Poissons Ratio (z) = 0.38662 0.34714
#
# Static dielectric constant tensor:
#      x y z
#    x 3.715840 0.000000 -0.114420 
#    y 0.000000 3.462560 0.000000 
#    z -0.114420 0.000000 3.271840 
# 
# 
# High freq. dielectric constant tensor:
#      x y z
#    x 1.730870 0.000000 -0.009510 
#    y 0.000000 1.714640 0.000000 
#    z -0.009510 0.000000 1.697590 
# 
# From -- ./inp_files/346276.got.cif
#   From: 2010.06.25/outbox.cif.g09.slc.cpg/sg12_174_cif.got.tgz:346276.got - 2010.06.28 00:19:55.
