data_PCOD8089587
_publ_section_title
;
Structure prediction by ZEFSAII (Michael W. Deem and Ramdas Pophale) SiO2 
 PCOD8089587
Probable space group: C 2/M
;
_chemical_formula_sum "Si O2"
_cell_formula_units_Z 56
_cell_length_a 19.385089
_cell_length_b 9.118749
_cell_length_c 21.089636
_cell_angle_alpha 90.000000
_cell_angle_beta 55.324203
_cell_angle_gamma 90.000000
_cell_volume 3065.822672
_symmetry_space_group_name_H-M "C 2/M"
_symmetry_group_IT_number 12
_symmetry_cell_setting 'monoclinic'
loop_
_space_group_symop_operation_xyz
x,y,z
-x,y,-z
-x,-y,-z
x,-y,z
1/2+x,1/2+y,z
1/2-x,1/2+y,-z
1/2-x,1/2-y,-z
1/2+x,1/2-y,z
loop_
_atom_site_type_symbol
_atom_site_label
_atom_site_fract_x
_atom_site_fract_y
_atom_site_fract_z
Si Si1 0.165181 0.172472 0.860053
Si Si2 0.336164 0.332364 0.445835
Si Si3 0.901000 0.331386 0.295294
Si Si4 0.090190 0.167788 0.455195
Si Si5 0.007597 0.827986 0.859595
Si Si6 0.322951 0.673033 0.001812
Si Si7 0.760500 0.168714 0.705486
O O1 0.177405 0.228569 0.925331
O O2 0.239315 0.242741 0.779901
O O3 0.073234 0.217362 0.881037
O O4 0.175885 0.000000 0.851171
O O5 0.319440 0.500000 0.433854
O O6 0.250000 0.250000 0.500000
O O7 0.396348 0.254329 0.363724
O O8 0.381862 0.322530 0.487954
O O9 0.924236 0.500000 0.295930
O O10 0.811902 0.314962 0.308336
O O11 0.973023 0.259795 0.214603
O O12 0.156690 0.238119 0.370979
O O13 0.000000 0.248491 0.500000
O O14 0.080992 0.000000 0.438125
O O15 0.015408 0.000000 0.841607
O O16 0.913974 0.783134 0.927731
O O17 0.308453 0.500000 0.005380
O O18 0.250000 0.750000 0.000000
O O19 0.772470 0.000000 0.718553
#
# Coordination Sequence:
#
# PCOD8089587 Si02
#       7
#     8   8   8   8   8   8   8
#     4   9  18  34  57  81 103 134 175 222 267 308
#     4  11  20  33  55  80 107 141 181 222 266 315
#     4  10  19  33  53  82 111 136 172 224 273 312
#     4   9  18  34  53  74 103 140 179 219 260 307
#     4   9  18  35  58  81 103 137 181 220 260 314
#     4  10  21  37  56  79 111 143 175 213 263 321
#     4   9  17  32  53  78 105 135 175 218 261 313
#
# _framework density 18.265896999999999
#
# number of rings (size 3 to 8) (size 9 to 14) (size 15 to 20)
#    0.000    2.429    1.429    1.286    0.000    3.429 
#    2.571    0.000    0.000    7.286    0.000    0.000 
#    0.000    0.000    0.000    0.000    0.000    0.000 
#
# Total GULP energy -347137.271757 kJ/mol
# GULP energy per Si atom -12397.759706 kJ/mol
# Density = 1.822432 g / cm^3
# Si number density = 18.265897 Si / 1000 Ang^3
#
#
#
# Elastic Constant Matrix: (Units=GPa)
#
#
# Indices 1 2 3 4 5 6 
#
# 1 79.8095 32.5314 68.7528 0.0000 -16.4434 0.0002
# 2 32.5314 63.2971 59.1875 0.0000 -0.1031 0.0002
# 3 68.7528 59.1875 182.5631 0.0000 -8.6864 0.0000
# 4 0.0000 0.0000 0.0000 34.5592 0.0000 1.1674
# 5 -16.4434 -0.1031 -8.6864 0.0000 21.4239 0.0000
# 6 0.0002 0.0002 0.0000 1.1674 0.0000 22.1340
#
#
#
# Elastic Compliance Matrix: (Units=1/GPa)
#
#
# Indices 1 2 3 4 5 6 
#
# 1 0.023585 -0.006437 -0.006052 0.000000 0.015617 0.000000
# 2 -0.006437 0.024610 -0.005898 0.000000 -0.007213 0.000000
# 3 -0.006052 -0.005898 0.009632 0.000000 -0.000768 0.000000
# 4 0.000000 0.000000 0.000000 0.028987 0.000000 -0.001529
# 5 0.015617 -0.007213 -0.000768 0.000000 0.058317 0.000000
# 6 0.000000 0.000000 0.000000 -0.001529 0.000000 0.045260
#
#
# Mechanical properties :
#
#
# Convention : Reuss Voigt Hill
#
# Bulk Modulus (GPa) = 47.49760 71.84590 59.67175
# Shear Modulus (GPa) = 21.35087 26.63662 23.99375
#
# Velocity S-wave (km/s) = 3.42262 3.82287 3.62827
# Velocity P-wave (km/s) = 6.45592 7.67493 7.09167
#
# Compressibility (1/GPa) = 0.02105370
#
# Stress axis : x y z
#
# Youngs Moduli (GPa) = 42.40014 40.63440 103.81778
#
# Poissons Ratio (x) = 0.26155 0.62832
# Poissons Ratio (y) = 0.27292 0.61228
# Poissons Ratio (z) = 0.25661 0.23965
#
# Static dielectric constant tensor:
#      x y z
#    x 3.273500 0.000000 -0.068330 
#    y 0.000000 3.034320 0.000000 
#    z -0.068330 0.000000 3.649640 
# 
# 
# High freq. dielectric constant tensor:
#      x y z
#    x 1.691450 0.000000 -0.000940 
#    y 0.000000 1.691480 0.000000 
#    z -0.000940 0.000000 1.725990 
# 
# From -- ./inp_files/281718.got.cif
#   From: 2010.06.25/outbox.cif.g09.slc.cpg/sg12_141_cif.got.tgz:281718.got - 2010.06.28 00:19:55.
