data_PCOD8089409
_publ_section_title
;
Structure prediction by ZEFSAII (Michael W. Deem and Ramdas Pophale) SiO2 
 PCOD8089409
Probable space group: C 2/M
;
_chemical_formula_sum "Si O2"
_cell_formula_units_Z 56
_cell_length_a 28.267676
_cell_length_b 13.612077
_cell_length_c 23.581828
_cell_angle_alpha 90.000000
_cell_angle_beta 160.713254
_cell_angle_gamma 90.000000
_cell_volume 2997.059467
_symmetry_space_group_name_H-M "C 2/M"
_symmetry_group_IT_number 12
_symmetry_cell_setting 'monoclinic'
loop_
_space_group_symop_operation_xyz
x,y,z
-x,y,-z
-x,-y,-z
x,-y,z
1/2+x,1/2+y,z
1/2-x,1/2+y,-z
1/2-x,1/2-y,-z
1/2+x,1/2-y,z
loop_
_atom_site_type_symbol
_atom_site_label
_atom_site_fract_x
_atom_site_fract_y
_atom_site_fract_z
Si Si1 0.799628 0.615369 0.504913
Si Si2 0.965090 0.384377 0.137561
Si Si3 0.561655 0.736067 0.415986
Si Si4 0.753280 0.762453 0.937916
Si Si5 0.934481 0.613153 0.980917
Si Si6 0.014160 0.885423 0.248671
Si Si7 0.619140 0.386415 0.590804
O O1 0.817420 0.500000 0.512127
O O2 0.833492 0.675538 0.485628
O O3 0.642773 0.640091 0.350994
O O4 0.913380 0.651186 0.681439
O O5 0.944797 0.500000 0.116171
O O6 0.810766 0.339843 0.977895
O O7 0.004038 0.346706 0.118075
O O8 0.409851 0.782041 0.266354
O O9 0.539369 0.662565 0.338357
O O10 0.628935 0.677862 0.544776
O O11 0.750000 0.750000 0.000000
O O12 0.867008 0.848991 0.051976
O O13 0.979059 0.500000 0.027702
O O14 0.764913 0.627264 0.790336
O O15 0.000000 0.668386 0.000000
O O16 0.003524 0.000000 0.247586
O O17 0.500000 0.348583 0.500000
O O18 0.593044 0.500000 0.543997
#
# Coordination Sequence:
#
# PCOD8089409 Si02
#       7
#     8   8   8   8   8   8   8
#     4  10  21  35  54  80 109 143 178 220 276 321
#     4  10  19  33  53  75 111 145 175 219 266 317
#     4  11  21  35  54  80 109 142 183 225 266 325
#     4  10  20  32  47  75 102 139 178 218 259 320
#     4   9  19  32  49  75 104 139 181 215 254 312
#     4  10  21  34  50  77 110 144 176 216 268 327
#     4  10  21  36  53  78 112 149 182 217 262 318
#
# _framework density 18.684981000000001
#
# number of rings (size 3 to 8) (size 9 to 14) (size 15 to 20)
#    0.000    2.000    2.857    1.714    2.000    4.571 
#    0.000    0.000    0.000    0.429    0.000    1.000 
#    0.000   10.286    0.000    0.000    0.000    0.000 
#
# Total GULP energy -347020.567621 kJ/mol
# GULP energy per Si atom -12393.591701 kJ/mol
# Density = 1.864245 g / cm^3
# Si number density = 18.684981 Si / 1000 Ang^3
#
#
#
# Elastic Constant Matrix: (Units=GPa)
#
#
# Indices 1 2 3 4 5 6 
#
# 1 111.2560 43.7550 30.1814 -0.0009 6.6182 -0.0006
# 2 43.7550 68.8950 26.2246 -0.0010 4.9741 -0.0008
# 3 30.1814 26.2246 51.7888 -0.0016 19.3623 -0.0008
# 4 -0.0009 -0.0010 -0.0016 19.7700 -0.0014 6.3948
# 5 6.6182 4.9741 19.3623 -0.0014 34.6132 -0.0009
# 6 -0.0006 -0.0008 -0.0008 6.3948 -0.0009 33.8848
#
#
#
# Elastic Compliance Matrix: (Units=1/GPa)
#
#
# Indices 1 2 3 4 5 6 
#
# 1 0.012672 -0.006398 -0.004531 0.000000 0.001031 0.000000
# 2 -0.006398 0.021491 -0.008164 0.000000 0.002702 0.000000
# 3 -0.004531 -0.008164 0.032017 0.000001 -0.015871 0.000000
# 4 0.000000 0.000000 0.000001 0.053870 0.000001 -0.010167
# 5 0.001031 0.002702 -0.015871 0.000001 0.037183 0.000000
# 6 0.000000 0.000000 0.000000 -0.010167 0.000000 0.031430
#
#
# Mechanical properties :
#
#
# Convention : Reuss Voigt Hill
#
# Bulk Modulus (GPa) = 35.72079 48.02909 41.87494
# Shear Modulus (GPa) = 21.17021 26.43885 23.80453
#
# Velocity S-wave (km/s) = 3.36967 3.76570 3.57318
# Velocity P-wave (km/s) = 5.85649 6.68340 6.28356
#
# Compressibility (1/GPa) = 0.02799490
#
# Stress axis : x y z
#
# Youngs Moduli (GPa) = 78.91262 46.53194 31.23316
#
# Poissons Ratio (x) = 0.29771 0.14151
# Poissons Ratio (y) = 0.50487 0.25498
# Poissons Ratio (z) = 0.35754 0.37988
#
# Static dielectric constant tensor:
#      x y z
#    x 3.564830 0.000000 0.241050 
#    y 0.000000 3.330750 0.000000 
#    z 0.241050 0.000000 3.846710 
# 
# 
# High freq. dielectric constant tensor:
#      x y z
#    x 1.723720 0.000000 0.023010 
#    y 0.000000 1.699680 0.000000 
#    z 0.023010 0.000000 1.724250 
# 
# From -- ./inp_files/352083.got.cif
#   From: 2010.06.25/outbox.cif.g09.slc.cpg/sg12_177_cif.got.tgz:352083.got - 2010.06.28 00:19:55.
