data_PCOD8089607
_publ_section_title
;
Structure prediction by ZEFSAII (Michael W. Deem and Ramdas Pophale) SiO2 
 PCOD8089607
Probable space group: C 2/M
;
_chemical_formula_sum "Si O2"
_cell_formula_units_Z 64
_cell_length_a 8.757809
_cell_length_b 19.197353
_cell_length_c 22.412003
_cell_angle_alpha 90.000000
_cell_angle_beta 113.002069
_cell_angle_gamma 90.000000
_cell_volume 3468.461814
_symmetry_space_group_name_H-M "C 2/M"
_symmetry_group_IT_number 12
_symmetry_cell_setting 'monoclinic'
loop_
_space_group_symop_operation_xyz
x,y,z
-x,y,-z
-x,-y,-z
x,-y,z
1/2+x,1/2+y,z
1/2-x,1/2+y,-z
1/2-x,1/2-y,-z
1/2+x,1/2-y,z
loop_
_atom_site_type_symbol
_atom_site_label
_atom_site_fract_x
_atom_site_fract_y
_atom_site_fract_z
Si Si1 0.310159 0.921220 0.630378
Si Si2 0.434136 0.324305 0.252564
Si Si3 0.929007 0.675695 0.747436
Si Si4 0.450597 0.578780 0.630378
Si Si5 0.934720 0.175096 0.116611
Si Si6 0.680984 0.578199 1.000000
Si Si7 0.201497 0.324904 0.883389
Si Si8 0.172836 0.417276 0.500000
O O1 0.426684 0.877628 0.692181
O O2 0.313709 0.887602 0.564950
O O3 0.122764 0.919108 0.622764
O O4 0.379514 0.000000 0.640527
O O5 0.245999 0.319096 0.245999
O O6 0.521543 0.250000 0.271543
O O7 0.542322 0.377628 0.307819
O O8 0.437261 0.350932 0.185102
O O9 0.067056 0.649068 0.814898
O O10 0.401539 0.500000 0.640526
O O11 0.316190 0.612398 0.564950
O O12 0.120286 0.181390 0.120286
O O13 0.826450 0.119207 0.063613
O O14 0.847626 0.250000 0.097626
O O15 0.750324 0.500000 0.000000
O O16 0.500000 0.574381 0.000000
O O17 0.800776 0.619207 0.063613
O O18 0.190538 0.500000 0.500000
O O19 0.000000 0.391806 0.500000
#
# Coordination Sequence:
#
# PCOD8089607 Si02
#       8
#     8   8   8   8   8   8   8   8
#     4   9  18  33  52  72  97 131 166 201 245 295
#     4  10  20  34  52  74 101 131 165 204 245 292
#     4  10  20  34  52  74 101 131 165 204 245 292
#     4   9  18  33  52  72  97 131 166 201 245 295
#     4  10  19  33  54  74  97 131 167 203 242 291
#     4   9  19  34  51  75 104 131 162 202 248 293
#     4  10  19  33  54  74  97 131 167 203 242 291
#     4   9  17  29  48  75 102 127 161 205 246 289
#
# _framework density 18.451982000000001
#
# number of rings (size 3 to 8) (size 9 to 14) (size 15 to 20)
#    0.000    2.500    0.000    3.750    0.000    4.500 
#    0.000    2.500    0.000    5.250    0.000    0.000 
#    0.000    0.000    0.000    0.000    0.000    0.000 
#
# Total GULP energy -396792.813589 kJ/mol
# GULP energy per Si atom -12399.775425 kJ/mol
# Density = 1.840998 g / cm^3
# Si number density = 18.451982 Si / 1000 Ang^3
#
#
#
# Elastic Constant Matrix: (Units=GPa)
#
#
# Indices 1 2 3 4 5 6 
#
# 1 61.7290 33.6233 53.0766 0.0000 -1.6075 0.0000
# 2 33.6233 103.1632 103.7279 0.0000 -2.6737 0.0000
# 3 53.0766 103.7279 194.5908 0.0000 -3.4598 0.0000
# 4 0.0000 0.0000 0.0000 31.0095 0.0000 -0.3870
# 5 -1.6075 -2.6737 -3.4598 0.0000 25.4704 0.0000
# 6 0.0000 0.0000 0.0000 -0.3870 0.0000 20.8618
#
#
#
# Elastic Compliance Matrix: (Units=1/GPa)
#
#
# Indices 1 2 3 4 5 6 
#
# 1 0.021438 -0.002379 -0.004571 0.000000 0.000482 0.000000
# 2 -0.002379 0.021166 -0.010622 0.000000 0.000629 0.000000
# 3 -0.004571 -0.010622 0.012052 0.000000 0.000234 0.000000
# 4 0.000000 0.000000 0.000000 0.032256 0.000000 0.000598
# 5 0.000482 0.000629 0.000234 0.000000 0.039389 0.000000
# 6 0.000000 0.000000 0.000000 0.000598 0.000000 0.047946
#
#
# Mechanical properties :
#
#
# Convention : Reuss Voigt Hill
#
# Bulk Modulus (GPa) = 51.25085 82.25983 66.75534
# Shear Modulus (GPa) = 23.15941 26.73868 24.94905
#
# Velocity S-wave (km/s) = 3.54661 3.81083 3.68109
# Velocity P-wave (km/s) = 6.67883 8.00253 7.37046
#
# Compressibility (1/GPa) = 0.01951187
#
# Stress axis : x y z
#
# Youngs Moduli (GPa) = 46.64536 47.24667 82.97216
#
# Poissons Ratio (x) = 0.11239 0.37926
# Poissons Ratio (y) = 0.11096 0.88136
# Poissons Ratio (z) = 0.21321 0.50187
#
# Static dielectric constant tensor:
#      x y z
#    x 3.300440 0.000000 -0.013260 
#    y 0.000000 3.381710 0.000000 
#    z -0.013260 0.000000 3.648200 
# 
# 
# High freq. dielectric constant tensor:
#      x y z
#    x 1.711950 0.000000 -0.000770 
#    y 0.000000 1.695460 0.000000 
#    z -0.000770 0.000000 1.732100 
# 
# From -- ./inp_files/301741.got.cif
#   From: 2010.06.25/outbox.cif.g09.slc.cpg/sg12_151_cif.got.tgz:301741.got - 2010.06.28 00:19:55.
