data_PCOD8089844
_publ_section_title
;
Structure prediction by ZEFSAII (Michael W. Deem and Ramdas Pophale) SiO2 
 PCOD8089844
Probable space group: C 2/M
;
_chemical_formula_sum "Si O2"
_cell_formula_units_Z 64
_cell_length_a 20.652654
_cell_length_b 8.987532
_cell_length_c 31.833808
_cell_angle_alpha 90.000000
_cell_angle_beta 142.961861
_cell_angle_gamma 90.000000
_cell_volume 3559.191081
_symmetry_space_group_name_H-M "C 2/M"
_symmetry_group_IT_number 12
_symmetry_cell_setting 'monoclinic'
loop_
_space_group_symop_operation_xyz
x,y,z
-x,y,-z
-x,-y,-z
x,-y,z
1/2+x,1/2+y,z
1/2-x,1/2+y,-z
1/2-x,1/2-y,-z
1/2+x,1/2-y,z
loop_
_atom_site_type_symbol
_atom_site_label
_atom_site_fract_x
_atom_site_fract_y
_atom_site_fract_z
Si Si1 0.715098 0.671991 0.176166
Si Si2 0.083354 0.670159 0.669689
Si Si3 0.960372 0.671590 0.524888
Si Si4 0.017766 0.172085 0.960321
Si Si5 0.277250 0.826713 0.970916
Si Si6 0.844702 0.827930 0.173028
Si Si7 0.743303 0.676572 0.542194
Si Si8 0.452739 0.325257 0.671917
O O1 0.716963 0.500000 0.165835
O O2 0.791665 0.709176 0.255771
O O3 0.591912 0.718187 0.121258
O O4 0.757168 0.747859 0.155996
O O5 0.058000 0.500000 0.670271
O O6 0.060737 0.691994 0.608693
O O7 0.006005 0.779671 0.655271
O O8 0.921640 0.500000 0.503835
O O9 0.863597 0.775732 0.489090
O O10 0.000000 0.724985 0.500000
O O11 0.047642 0.000000 0.968353
O O12 0.110846 0.272350 0.989906
O O13 0.000000 0.206234 0.000000
O O14 0.179821 0.790656 0.888165
O O15 0.287378 0.000000 0.984592
O O16 0.250000 0.750000 0.000000
O O17 0.966525 0.781158 0.248245
O O18 0.829416 0.000000 0.175023
O O19 0.746909 0.500000 0.539022
O O20 0.750000 0.750000 0.500000
O O21 0.843447 0.733557 0.621936
O O22 0.426690 0.500000 0.657314
#
# Coordination Sequence:
#
# PCOD8089844 Si02
#       8
#     8   8   8   8   8   8   8   8
#     4   9  17  30  52  80 107 137 176 225 271 319
#     4   9  17  31  52  78 107 141 181 220 268 324
#     4  10  21  37  56  79 111 148 184 223 271 327
#     4  10  19  33  54  81 111 141 179 224 272 324
#     4  11  23  38  56  79 111 149 187 227 275 329
#     4   9  19  34  53  79 109 141 179 225 277 327
#     4  12  23  36  56  83 113 145 185 230 274 323
#     4  10  19  33  55  82 109 138 177 229 282 326
#
# _framework density 17.981612999999999
#
# number of rings (size 3 to 8) (size 9 to 14) (size 15 to 20)
#    0.000    2.000    2.500    1.875    0.000    2.000 
#    0.000    1.250    0.000    4.500    0.000    0.000 
#    0.000    0.000    0.000    0.000    0.000    0.000 
#
# Total GULP energy -396754.308592 kJ/mol
# GULP energy per Si atom -12398.572143 kJ/mol
# Density = 1.794069 g / cm^3
# Si number density = 17.981613 Si / 1000 Ang^3
#
#
#
# Elastic Constant Matrix: (Units=GPa)
#
#
# Indices 1 2 3 4 5 6 
#
# 1 98.6891 52.4897 68.4521 0.0000 -4.9099 -0.0001
# 2 52.4897 86.6047 59.0787 0.0001 -2.0128 -0.0001
# 3 68.4521 59.0787 145.4580 0.0000 0.5930 0.0000
# 4 0.0000 0.0001 0.0000 25.5715 0.0000 5.2063
# 5 -4.9099 -2.0128 0.5930 0.0000 23.1828 0.0000
# 6 -0.0001 -0.0001 0.0000 5.2063 0.0000 25.1314
#
#
#
# Elastic Compliance Matrix: (Units=1/GPa)
#
#
# Indices 1 2 3 4 5 6 
#
# 1 0.017876 -0.006929 -0.005612 0.000000 0.003328 0.000000
# 2 -0.006929 0.018714 -0.004341 0.000000 0.000268 0.000000
# 3 -0.005612 -0.004341 0.011286 0.000000 -0.001854 0.000000
# 4 0.000000 0.000000 0.000000 0.040828 0.000000 -0.008458
# 5 0.003328 0.000268 -0.001854 0.000000 0.043911 0.000000
# 6 0.000000 0.000000 0.000000 -0.008458 0.000000 0.041543
#
#
# Mechanical properties :
#
#
# Convention : Reuss Voigt Hill
#
# Bulk Modulus (GPa) = 70.85785 76.75475 73.80630
# Shear Modulus (GPa) = 23.51543 24.82589 24.17066
#
# Velocity S-wave (km/s) = 3.62020 3.71971 3.67029
# Velocity P-wave (km/s) = 7.54757 7.82471 7.68739
#
# Compressibility (1/GPa) = 0.01411276
#
# Stress axis : x y z
#
# Youngs Moduli (GPa) = 55.94071 53.43649 88.60193
#
# Poissons Ratio (x) = 0.37026 0.49721
# Poissons Ratio (y) = 0.38761 0.38463
# Poissons Ratio (z) = 0.31393 0.23197
#
# Static dielectric constant tensor:
#      x y z
#    x 2.962410 0.000000 -0.049160 
#    y 0.000000 3.355950 0.000000 
#    z -0.049160 0.000000 3.895540 
# 
# 
# High freq. dielectric constant tensor:
#      x y z
#    x 1.658600 0.000000 0.004770 
#    y 0.000000 1.698240 0.000000 
#    z 0.004770 0.000000 1.719430 
# 
# From -- ./inp_files/378472.got.cif
#   From: 2010.06.25/outbox.cif.g09.slc.cpg/sg12_190_cif.got.tgz:378472.got - 2010.06.28 00:19:55.
