data_PCOD8089138
_publ_section_title
;
Structure prediction by ZEFSAII (Michael W. Deem and Ramdas Pophale) SiO2 
 PCOD8089138
Probable space group: C 2/M
;
_chemical_formula_sum "Si O2"
_cell_formula_units_Z 56
_cell_length_a 31.172643
_cell_length_b 13.213897
_cell_length_c 12.621047
_cell_angle_alpha 90.000000
_cell_angle_beta 143.440424
_cell_angle_gamma 90.000000
_cell_volume 3096.685742
_symmetry_space_group_name_H-M "C 2/M"
_symmetry_group_IT_number 12
_symmetry_cell_setting 'monoclinic'
loop_
_space_group_symop_operation_xyz
x,y,z
-x,y,-z
-x,-y,-z
x,-y,z
1/2+x,1/2+y,z
1/2-x,1/2+y,-z
1/2-x,1/2-y,-z
1/2+x,1/2-y,z
loop_
_atom_site_type_symbol
_atom_site_label
_atom_site_fract_x
_atom_site_fract_y
_atom_site_fract_z
Si Si1 0.922271 0.117642 0.313728
Si Si2 0.830227 0.613207 0.931467
Si Si3 0.929664 0.116481 0.677974
Si Si4 0.422694 0.700114 0.089380
Si Si5 0.144376 0.178398 0.265350
Si Si6 0.700147 0.889781 0.369586
Si Si7 0.183008 0.119602 0.719467
O O1 0.903311 0.133958 0.153604
O O2 0.859176 0.165348 0.262382
O O3 0.000000 0.165932 0.500000
O O4 0.925699 0.000000 0.346978
O O5 0.854553 0.500000 0.014255
O O6 0.793413 0.610101 0.743738
O O7 0.765889 0.658963 0.878026
O O8 0.900713 0.684098 0.072803
O O9 0.912998 0.128674 0.769306
O O10 0.860332 0.149420 0.472792
O O11 0.993071 0.192123 0.769218
O O12 0.952330 0.000000 0.699749
O O13 0.379398 0.658653 0.902378
O O14 0.221085 0.125461 0.426300
O O15 0.147799 0.298493 0.301039
O O16 0.670661 0.000000 0.349979
O O17 0.188862 0.000000 0.738636
#
# Coordination Sequence:
#
# PCOD8089138 Si02
#       7
#     8   8   8   8   8   8   8
#     4  10  19  33  51  76 108 136 165 207 262 315
#     4   9  18  35  55  75  99 136 181 214 245 298
#     4  11  20  33  53  78 107 136 168 211 260 310
#     4  11  22  32  50  81 107 133 167 217 265 304
#     4  10  20  31  49  80 108 133 172 211 258 312
#     4   9  17  32  52  73 104 143 173 206 252 307
#     4   9  17  32  56  75  95 135 179 207 242 305
#
# _framework density 18.083850000000002
#
# number of rings (size 3 to 8) (size 9 to 14) (size 15 to 20)
#    0.000    2.143    2.857    1.286    0.000    3.429 
#    0.000    0.714    0.000    3.857    0.000    0.000 
#    0.000    0.000    0.000    0.000    0.000    0.000 
#
# Total GULP energy -347032.401158 kJ/mol
# GULP energy per Si atom -12394.014327 kJ/mol
# Density = 1.804269 g / cm^3
# Si number density = 18.083850 Si / 1000 Ang^3
#
#
#
# Elastic Constant Matrix: (Units=GPa)
#
#
# Indices 1 2 3 4 5 6 
#
# 1 105.5977 27.3075 37.7988 0.0000 1.3074 0.0000
# 2 27.3075 60.4330 30.6107 0.0000 10.4741 0.0000
# 3 37.7988 30.6107 56.2975 0.0000 2.1111 0.0000
# 4 0.0000 0.0000 0.0000 19.0192 0.0000 2.6506
# 5 1.3074 10.4741 2.1111 0.0000 31.6991 0.0000
# 6 0.0000 0.0000 0.0000 2.6506 0.0000 23.3253
#
#
#
# Elastic Compliance Matrix: (Units=1/GPa)
#
#
# Indices 1 2 3 4 5 6 
#
# 1 0.012643 -0.002091 -0.007376 0.000000 0.000661 0.000000
# 2 -0.002091 0.024713 -0.011760 0.000000 -0.007296 0.000000
# 3 -0.007376 -0.011760 0.029025 0.000000 0.002257 0.000000
# 4 0.000000 0.000000 0.000000 0.053425 0.000000 -0.006071
# 5 0.000661 -0.007296 0.002257 0.000000 0.033780 0.000000
# 6 0.000000 0.000000 0.000000 -0.006071 0.000000 0.043562
#
#
# Mechanical properties :
#
#
# Convention : Reuss Voigt Hill
#
# Bulk Modulus (GPa) = 41.79452 45.97356 43.88404
# Shear Modulus (GPa) = 20.19569 23.24946 21.72257
#
# Velocity S-wave (km/s) = 3.34545 3.58948 3.46961
# Velocity P-wave (km/s) = 6.17126 6.53122 6.35379
#
# Compressibility (1/GPa) = 0.02392658
#
# Stress axis : x y z
#
# Youngs Moduli (GPa) = 79.09617 40.46392 34.45317
#
# Poissons Ratio (x) = 0.08461 0.25414
# Poissons Ratio (y) = 0.16540 0.40516
# Poissons Ratio (z) = 0.58344 0.47585
#
# Static dielectric constant tensor:
#      x y z
#    x 3.531960 0.000000 -0.003070 
#    y 0.000000 3.320160 0.000000 
#    z -0.003070 0.000000 3.196690 
# 
# 
# High freq. dielectric constant tensor:
#      x y z
#    x 1.700680 0.000000 -0.002260 
#    y 0.000000 1.672880 0.000000 
#    z -0.002260 0.000000 1.687530 
# 
# From -- ./inp_files/189233.got.cif
#   From: 2010.06.25/outbox.cif.g09.slc.cpg/sg12_95_cif.got.tgz:189233.got - 2010.06.28 00:19:55.
