data_PCOD8089025
_publ_section_title
;
Structure prediction by ZEFSAII (Michael W. Deem and Ramdas Pophale) SiO2 
 PCOD8089025
Probable space group: C 2/M
;
_chemical_formula_sum "Si O2"
_cell_formula_units_Z 52
_cell_length_a 17.951887
_cell_length_b 10.934480
_cell_length_c 15.102517
_cell_angle_alpha 90.000000
_cell_angle_beta 103.743690
_cell_angle_gamma 90.000000
_cell_volume 2879.661721
_symmetry_space_group_name_H-M "C 2/M"
_symmetry_group_IT_number 12
_symmetry_cell_setting 'monoclinic'
loop_
_space_group_symop_operation_xyz
x,y,z
-x,y,-z
-x,-y,-z
x,-y,z
1/2+x,1/2+y,z
1/2-x,1/2+y,-z
1/2-x,1/2-y,-z
1/2+x,1/2-y,z
loop_
_atom_site_type_symbol
_atom_site_label
_atom_site_fract_x
_atom_site_fract_y
_atom_site_fract_z
Si Si1 0.778361 0.861710 0.334143
Si Si2 0.582422 0.359673 0.506299
Si Si3 0.850740 0.630355 0.045645
Si Si4 0.247210 0.210633 0.866364
Si Si5 0.888436 0.863005 0.848701
Si Si6 0.166542 0.856653 0.355157
Si Si7 0.500000 0.779822 0.000000
O O1 0.864783 0.841739 0.392590
O O2 0.778276 0.862491 0.227718
O O3 0.731713 0.746516 0.359758
O O4 0.749926 0.000000 0.355773
O O5 0.500000 0.294135 0.500000
O O6 0.566211 0.500000 0.480306
O O7 0.623822 0.308204 0.430474
O O8 0.846963 0.500000 0.093624
O O9 0.829620 0.734831 0.110220
O O10 0.935904 0.641373 0.030837
O O11 0.789473 0.623828 0.948133
O O12 0.306167 0.318121 0.859342
O O13 0.892370 0.849816 0.743494
O O14 0.894895 0.000000 0.883240
O O15 0.960774 0.796859 0.911248
O O16 0.197150 0.000000 0.372313
#
# Coordination Sequence:
#
# PCOD8089025 Si02
#       7
#     8   8   8   8   8   8   4
#     4  10  19  33  55  79 101 128 166 211 254 297
#     4   9  18  32  51  76 105 135 168 206 249 298
#     4  10  19  33  49  68 100 133 164 204 251 300
#     4   9  19  32  50  73  94 127 170 207 245 293
#     4   9  17  31  49  70  98 129 167 210 247 288
#     4   9  18  33  54  77 101 134 171 208 250 297
#     4  10  20  30  46  74 100 130 166 200 250 302
#
# _framework density 18.057677000000002
#
# number of rings (size 3 to 8) (size 9 to 14) (size 15 to 20)
#    0.000    2.615    0.000    1.846    0.000    1.846 
#    0.000    4.615    0.000    1.846    0.000    0.000 
#    0.000    0.000    0.000    0.000    0.000    0.000 
#
# Total GULP energy -322125.652425 kJ/mol
# GULP energy per Si atom -12389.448170 kJ/mol
# Density = 1.801658 g / cm^3
# Si number density = 18.057677 Si / 1000 Ang^3
#
#
#
# Elastic Constant Matrix: (Units=GPa)
#
#
# Indices 1 2 3 4 5 6 
#
# 1 101.5288 42.1059 33.7402 0.0000 0.1462 0.0000
# 2 42.1059 96.9982 21.6804 0.0000 3.2261 0.0000
# 3 33.7402 21.6804 84.3663 0.0000 4.5338 0.0000
# 4 0.0000 0.0000 0.0000 17.8392 0.0000 0.4171
# 5 0.1462 3.2261 4.5338 0.0000 27.3366 0.0000
# 6 0.0000 0.0000 0.0000 0.4171 0.0000 -1.7815
#
#
#
# Elastic Compliance Matrix: (Units=1/GPa)
#
#
# Indices 1 2 3 4 5 6 
#
# 1 0.013229 -0.004865 -0.004104 0.000000 0.001184 0.000000
# 2 -0.004865 0.012745 -0.001262 0.000000 -0.001269 0.000000
# 3 -0.004104 -0.001262 0.013934 0.000000 -0.002140 0.000000
# 4 0.000000 0.000000 0.000000 0.055751 0.000000 0.013053
# 5 0.001184 -0.001269 -0.002140 0.000000 0.037079 0.000000
# 6 0.000000 0.000000 0.000000 0.013053 0.000000 -0.558268
#
#
# Mechanical properties :
#
#
# Convention : Reuss Voigt Hill
#
# Bulk Modulus (GPa) = 51.42116 53.10514 52.26315
# Shear Modulus (GPa) = -12.54435 21.03665 4.24615
#
# Velocity S-wave (km/s) = -2.63854 3.41687 1.53510
# Velocity P-wave (km/s) = 4.38809 6.71112 5.66985
#
# Compressibility (1/GPa) = 0.01944725
#
# Stress axis : x y z
#
# Youngs Moduli (GPa) = 75.59114 78.46000 71.76878
#
# Poissons Ratio (x) = 0.38168 0.29455
# Poissons Ratio (y) = 0.36772 0.09054
# Poissons Ratio (z) = 0.31024 0.09899
#
# Static dielectric constant tensor:
#      x y z
#    x 3.276580 0.000000 -0.058290 
#    y 0.000000 3.269860 0.000000 
#    z -0.058290 0.000000 3.514370 
# 
# 
# High freq. dielectric constant tensor:
#      x y z
#    x 1.683730 0.000000 -0.000370 
#    y 0.000000 1.690810 0.000000 
#    z -0.000370 0.000000 1.706020 
# 
# From -- ./inp_files/222541.got.cif
#   From: 2010.06.25/outbox.cif.g09.slc.cpg/sg12_112_cif.got.tgz:222541.got - 2010.06.28 00:19:55.
