data_PCOD8089473
_publ_section_title
;
Structure prediction by ZEFSAII (Michael W. Deem and Ramdas Pophale) SiO2 
 PCOD8089473
Probable space group: C 2/M
;
_chemical_formula_sum "Si O2"
_cell_formula_units_Z 56
_cell_length_a 18.140275
_cell_length_b 8.879398
_cell_length_c 20.357211
_cell_angle_alpha 90.000000
_cell_angle_beta 64.285301
_cell_angle_gamma 90.000000
_cell_volume 2954.295571
_symmetry_space_group_name_H-M "C 2/M"
_symmetry_group_IT_number 12
_symmetry_cell_setting 'monoclinic'
loop_
_space_group_symop_operation_xyz
x,y,z
-x,y,-z
-x,-y,-z
x,-y,z
1/2+x,1/2+y,z
1/2-x,1/2+y,-z
1/2-x,1/2-y,-z
1/2+x,1/2-y,z
loop_
_atom_site_type_symbol
_atom_site_label
_atom_site_fract_x
_atom_site_fract_y
_atom_site_fract_z
Si Si1 0.375916 0.332458 0.072409
Si Si2 0.170939 0.822434 0.499327
Si Si3 0.038840 0.323042 0.771045
Si Si4 0.344199 0.325870 0.643826
Si Si5 0.516214 0.325716 0.643627
Si Si6 0.803341 0.820223 0.228497
Si Si7 0.454831 0.669935 0.916550
O O1 0.346224 0.500000 0.067444
O O2 0.312008 0.258382 0.149078
O O3 0.459894 0.337570 0.079377
O O4 0.389297 0.256971 0.994769
O O5 0.250000 0.750000 0.500000
O O6 0.161956 0.766637 0.428132
O O7 0.091952 0.770316 0.570486
O O8 0.180249 0.000000 0.498046
O O9 0.050700 0.500000 0.771601
O O10 0.010854 0.277203 0.709620
O O11 0.125520 0.245877 0.753013
O O12 0.965298 0.273136 0.848405
O O13 0.318506 0.500000 0.659114
O O14 0.436013 0.299400 0.631610
O O15 0.284526 0.228537 0.712085
O O16 0.525572 0.500000 0.660777
O O17 0.812103 0.000000 0.226219
O O18 0.429247 0.500000 0.905386
#
# Coordination Sequence:
#
# PCOD8089473 Si02
#       7
#     8   8   8   8   8   8   8
#     4   7  12  24  45  71  98 131 171 212 253 305
#     4  10  21  37  58  82 106 134 169 211 256 304
#     4  11  21  32  49  77 109 137 173 221 263 302
#     4  10  21  37  56  79 106 135 172 217 259 302
#     4  10  21  38  57  75 102 142 178 208 255 314
#     4  10  19  33  53  77 106 140 176 212 258 314
#     4   8  13  26  47  70  98 133 172 212 259 310
#
# _framework density 18.955449000000002
#
# number of rings (size 3 to 8) (size 9 to 14) (size 15 to 20)
#    0.000    2.571    0.000    4.714    0.000    5.714 
#    0.000    6.429    0.000    3.429    0.000    0.000 
#    0.000    0.000    0.000    0.000    0.000    0.000 
#
# Total GULP energy -346969.132381 kJ/mol
# GULP energy per Si atom -12391.754728 kJ/mol
# Density = 1.891231 g / cm^3
# Si number density = 18.955449 Si / 1000 Ang^3
#
#
#
# Elastic Constant Matrix: (Units=GPa)
#
#
# Indices 1 2 3 4 5 6 
#
# 1 77.8630 29.3006 60.0605 0.0000 -3.5252 0.0000
# 2 29.3006 66.4060 51.3885 -0.0001 -0.3982 -0.0003
# 3 60.0605 51.3885 193.5044 0.0000 -1.3698 0.0000
# 4 0.0000 -0.0001 0.0000 24.6139 0.0000 -2.4641
# 5 -3.5252 -0.3982 -1.3698 0.0000 4.4292 0.0000
# 6 0.0000 -0.0003 0.0000 -2.4641 0.0000 23.6627
#
#
#
# Elastic Compliance Matrix: (Units=1/GPa)
#
#
# Indices 1 2 3 4 5 6 
#
# 1 0.018629 -0.004705 -0.004440 0.000000 0.013030 0.000000
# 2 -0.004705 0.020143 -0.003911 0.000000 -0.003144 0.000000
# 3 -0.004440 -0.003911 0.007574 0.000000 -0.001543 0.000000
# 4 0.000000 0.000000 0.000000 0.041055 0.000000 0.004275
# 5 0.013030 -0.003144 -0.001543 0.000000 0.235388 0.000000
# 6 0.000000 0.000000 0.000000 0.004275 0.000000 0.042706
#
#
# Mechanical properties :
#
#
# Convention : Reuss Voigt Hill
#
# Bulk Modulus (GPa) = 49.42692 68.80804 59.11748
# Shear Modulus (GPa) = 12.55173 23.67606 18.11390
#
# Velocity S-wave (km/s) = 2.57606 3.53801 3.09464
# Velocity P-wave (km/s) = 5.91439 7.28482 6.63508
#
# Compressibility (1/GPa) = 0.02023189
#
# Stress axis : x y z
#
# Youngs Moduli (GPa) = 53.68065 49.64552 132.03560
#
# Poissons Ratio (x) = 0.23360 0.58626
# Poissons Ratio (y) = 0.25259 0.51640
# Poissons Ratio (z) = 0.23835 0.19417
#
# Static dielectric constant tensor:
#      x y z
#    x 3.066800 0.000000 -0.017040 
#    y 0.000000 3.320020 0.000000 
#    z -0.017040 0.000000 4.234880 
# 
# 
# High freq. dielectric constant tensor:
#      x y z
#    x 1.699370 0.000000 0.000880 
#    y 0.000000 1.711250 0.000000 
#    z 0.000880 0.000000 1.768110 
# 
# From -- ./inp_files/313737.got.cif
#   From: 2010.06.25/outbox.cif.g09.slc.cpg/sg12_157_cif.got.tgz:313737.got - 2010.06.28 00:19:55.
