data_PCOD8089692
_publ_section_title
;
Structure prediction by ZEFSAII (Michael W. Deem and Ramdas Pophale) SiO2 
 PCOD8089692
Probable space group: C 2/M
;
_chemical_formula_sum "Si O2"
_cell_formula_units_Z 56
_cell_length_a 35.599398
_cell_length_b 12.598078
_cell_length_c 15.946764
_cell_angle_alpha 90.000000
_cell_angle_beta 24.605946
_cell_angle_gamma 90.000000
_cell_volume 2977.860260
_symmetry_space_group_name_H-M "C 2/M"
_symmetry_group_IT_number 12
_symmetry_cell_setting 'monoclinic'
loop_
_space_group_symop_operation_xyz
x,y,z
-x,y,-z
-x,-y,-z
x,-y,z
1/2+x,1/2+y,z
1/2-x,1/2+y,-z
1/2-x,1/2-y,-z
1/2+x,1/2-y,z
loop_
_atom_site_type_symbol
_atom_site_label
_atom_site_fract_x
_atom_site_fract_y
_atom_site_fract_z
Si Si1 0.361080 0.267362 0.624741
Si Si2 0.988894 0.621772 0.924089
Si Si3 0.187909 0.616987 0.952619
Si Si4 0.451967 0.378890 0.764472
Si Si5 0.674623 0.124506 0.453180
Si Si6 0.140619 0.772234 0.909282
Si Si7 0.898819 0.269137 0.731107
O O1 0.294000 0.360184 0.733306
O O2 0.460532 0.306461 0.405239
O O3 0.340416 0.161575 0.612376
O O4 0.342143 0.247267 0.761293
O O5 0.959688 0.500000 0.958976
O O6 0.084973 0.650242 0.687671
O O7 0.000000 0.629758 0.000000
O O8 0.915230 0.713420 0.050887
O O9 0.170588 0.500000 0.956587
O O10 0.134777 0.688240 0.995663
O O11 0.146362 0.632569 0.129365
O O12 0.475789 0.500000 0.695336
O O13 0.394100 0.334104 0.802541
O O14 0.404330 0.374113 0.952962
O O15 0.758864 0.190938 0.323273
O O16 0.697428 0.000000 0.407663
O O17 0.000000 0.299042 0.500000
#
# Coordination Sequence:
#
# PCOD8089692 Si02
#       7
#     8   8   8   8   8   8   8
#     4  10  19  34  51  77 107 144 191 236 272 332
#     4  10  21  39  64  90 115 148 185 225 282 344
#     4  10  20  32  49  73 105 143 183 231 279 322
#     4  10  19  33  54  77 108 151 188 232 283 329
#     4  10  21  37  60  86 114 152 190 230 283 339
#     4  10  20  37  57  84 115 146 187 231 274 335
#     4   9  20  33  46  72 105 142 191 234 276 328
#
# _framework density 18.80545
#
# number of rings (size 3 to 8) (size 9 to 14) (size 15 to 20)
#    0.000    2.143    1.429    1.714    0.000    4.571 
#    0.000    0.000    0.000    1.714    0.000    0.000 
#    0.000    0.000    0.000    0.000    0.000    0.000 
#
# Total GULP energy -346992.917912 kJ/mol
# GULP energy per Si atom -12392.604211 kJ/mol
# Density = 1.876265 g / cm^3
# Si number density = 18.805450 Si / 1000 Ang^3
#
#
#
# Elastic Constant Matrix: (Units=GPa)
#
#
# Indices 1 2 3 4 5 6 
#
# 1 85.6009 34.0406 32.1797 0.0000 -1.6847 0.0000
# 2 34.0406 96.6302 34.9223 0.0000 -5.3345 0.0000
# 3 32.1797 34.9223 67.9485 0.0000 -4.4898 0.0000
# 4 0.0000 0.0000 0.0000 21.3242 0.0000 -0.2851
# 5 -1.6847 -5.3345 -4.4898 0.0000 20.8464 0.0000
# 6 0.0000 0.0000 0.0000 -0.2851 0.0000 18.1208
#
#
#
# Elastic Compliance Matrix: (Units=1/GPa)
#
#
# Indices 1 2 3 4 5 6 
#
# 1 0.015059 -0.003381 -0.005448 0.000000 -0.000822 0.000000
# 2 -0.003381 0.013541 -0.005222 0.000000 0.002067 0.000000
# 3 -0.005448 -0.005222 0.020150 0.000000 0.002563 0.000000
# 4 0.000000 0.000000 0.000000 0.046905 0.000000 0.000738
# 5 -0.000822 0.002067 0.002563 0.000000 0.048985 0.000000
# 6 0.000000 0.000000 0.000000 0.000738 0.000000 0.055197
#
#
# Mechanical properties :
#
#
# Convention : Reuss Voigt Hill
#
# Bulk Modulus (GPa) = 48.43053 50.27386 49.35220
# Shear Modulus (GPa) = 21.29282 21.99407 21.64344
#
# Velocity S-wave (km/s) = 3.36857 3.42359 3.39619
# Velocity P-wave (km/s) = 6.39836 6.51304 6.45596
#
# Compressibility (1/GPa) = 0.02064813
#
# Stress axis : x y z
#
# Youngs Moduli (GPa) = 66.40708 73.84949 49.62723
#
# Poissons Ratio (x) = 0.24970 0.27038
# Poissons Ratio (y) = 0.22454 0.25913
# Poissons Ratio (z) = 0.36179 0.38561
#
# Static dielectric constant tensor:
#      x y z
#    x 3.450830 0.000000 -0.016480 
#    y 0.000000 3.429370 0.000000 
#    z -0.016480 0.000000 3.556430 
# 
# 
# High freq. dielectric constant tensor:
#      x y z
#    x 1.714550 0.000000 -0.005430 
#    y 0.000000 1.718960 0.000000 
#    z -0.005430 0.000000 1.740540 
# 
# From -- ./inp_files/213401.got.cif
#   From: 2010.06.25/outbox.cif.g09.slc.cpg/sg12_107_cif.got.tgz:213401.got - 2010.06.28 00:19:55.
