data_PCOD8089495
_publ_section_title
;
Structure prediction by ZEFSAII (Michael W. Deem and Ramdas Pophale) SiO2 
 PCOD8089495
Probable space group: C 2/M
;
_chemical_formula_sum "Si O2"
_cell_formula_units_Z 56
_cell_length_a 33.152039
_cell_length_b 8.860745
_cell_length_c 24.219770
_cell_angle_alpha 90.000000
_cell_angle_beta 24.063710
_cell_angle_gamma 90.000000
_cell_volume 2900.993920
_symmetry_space_group_name_H-M "C 2/M"
_symmetry_group_IT_number 12
_symmetry_cell_setting 'monoclinic'
loop_
_space_group_symop_operation_xyz
x,y,z
-x,y,-z
-x,-y,-z
x,-y,z
1/2+x,1/2+y,z
1/2-x,1/2+y,-z
1/2-x,1/2-y,-z
1/2+x,1/2-y,z
loop_
_atom_site_type_symbol
_atom_site_label
_atom_site_fract_x
_atom_site_fract_y
_atom_site_fract_z
Si Si1 0.760562 0.320705 0.131760
Si Si2 0.044870 0.322612 0.170338
Si Si3 0.634994 0.324166 0.899650
Si Si4 0.554108 0.177315 0.817640
Si Si5 0.552300 0.178653 0.378334
Si Si6 0.219615 0.175641 0.674296
Si Si7 0.057920 0.320259 0.593068
O O1 0.756914 0.500000 0.139381
O O2 0.785075 0.258740 0.161801
O O3 0.657628 0.256601 0.239266
O O4 0.845951 0.263580 0.982663
O O5 0.050092 0.500000 0.170866
O O6 0.966764 0.280187 0.219989
O O7 0.008324 0.252354 0.274040
O O8 0.637048 0.500000 0.911714
O O9 0.664871 0.293197 0.799857
O O10 0.525231 0.260345 0.044449
O O11 0.663353 0.234138 0.696378
O O12 0.543606 0.000000 0.840769
O O13 0.500000 0.232327 0.500000
O O14 0.485389 0.235357 0.411106
O O15 0.567872 0.000000 0.358708
O O16 0.330685 0.239954 0.539355
O O17 0.219415 0.000000 0.659026
O O18 0.058671 0.500000 0.593198
#
# Coordination Sequence:
#
# PCOD8089495 Si02
#       7
#     8   8   8   8   8   8   8
#     4  10  20  34  54  79 107 137 168 209 261 311
#     4   8  17  34  52  73 102 136 173 210 253 305
#     4  10  19  33  53  78 106 135 174 217 253 302
#     4  10  20  33  51  76 106 138 171 211 260 311
#     4  10  20  35  56  81 105 133 173 214 254 305
#     4  10  20  33  52  77 102 134 176 217 257 302
#     4   9  18  34  54  73 100 138 175 214 256 300
#
# _framework density 19.303729000000001
#
# number of rings (size 3 to 8) (size 9 to 14) (size 15 to 20)
#    0.000    2.429    0.000    3.429    0.000    6.571 
#    0.000    0.714    0.000    8.571    0.000    0.000 
#    0.000    0.000    0.000    0.000    0.000    0.000 
#
# Total GULP energy -347212.515289 kJ/mol
# GULP energy per Si atom -12400.446975 kJ/mol
# Density = 1.925979 g / cm^3
# Si number density = 19.303729 Si / 1000 Ang^3
#
#
#
# Elastic Constant Matrix: (Units=GPa)
#
#
# Indices 1 2 3 4 5 6 
#
# 1 140.0469 33.7653 90.9027 0.0061 -11.2878 -0.0025
# 2 33.7653 37.4148 34.0929 0.0229 0.5144 -0.0067
# 3 90.9027 34.0929 113.9080 0.0071 -6.9305 -0.0017
# 4 0.0061 0.0229 0.0071 20.0252 -0.0017 -10.0248
# 5 -11.2878 0.5144 -6.9305 -0.0017 39.5793 0.0005
# 6 -0.0025 -0.0067 -0.0017 -10.0248 0.0005 27.1120
#
#
#
# Elastic Compliance Matrix: (Units=1/GPa)
#
#
# Indices 1 2 3 4 5 6 
#
# 1 0.015414 -0.003955 -0.010963 0.000005 0.002528 0.000001
# 2 -0.003955 0.037998 -0.008405 -0.000043 -0.003094 -0.000008
# 3 -0.010963 -0.008405 0.020074 0.000006 0.000498 0.000000
# 4 0.000005 -0.000043 0.000006 0.061281 0.000005 0.022659
# 5 0.002528 -0.003094 0.000498 0.000005 0.026114 0.000001
# 6 0.000001 -0.000008 0.000000 0.022659 0.000001 0.045262
#
#
# Mechanical properties :
#
#
# Convention : Reuss Voigt Hill
#
# Bulk Modulus (GPa) = 37.25869 67.65461 52.45665
# Shear Modulus (GPa) = 19.10328 26.18388 22.64358
#
# Velocity S-wave (km/s) = 3.14923 3.68695 3.42865
# Velocity P-wave (km/s) = 5.70673 7.29714 6.55038
#
# Compressibility (1/GPa) = 0.02683937
#
# Stress axis : x y z
#
# Youngs Moduli (GPa) = 64.87645 26.31728 49.81607
#
# Poissons Ratio (x) = 0.10409 0.54615
# Poissons Ratio (y) = 0.25661 0.41868
# Poissons Ratio (z) = 0.71126 0.22119
#
# Static dielectric constant tensor:
#      x y z
#    x 3.664050 0.000000 0.021870 
#    y 0.000000 3.244250 0.000010 
#    z 0.021870 0.000010 3.725750 
# 
# 
# High freq. dielectric constant tensor:
#      x y z
#    x 1.757880 0.000000 -0.004660 
#    y 0.000000 1.723120 0.000000 
#    z -0.004660 0.000000 1.755220 
# 
# From -- ./inp_files/237321.got.cif
#   From: 2010.06.25/outbox.cif.g09.slc.cpg/sg12_119_cif.got.tgz:237321.got - 2010.06.28 00:19:55.
