data_PCOD8089904
_publ_section_title
;
Structure prediction by ZEFSAII (Michael W. Deem and Ramdas Pophale) SiO2 
 PCOD8089904
Probable space group: C 2/M
;
_chemical_formula_sum "Si O2"
_cell_formula_units_Z 56
_cell_length_a 20.425686
_cell_length_b 8.829550
_cell_length_c 29.755389
_cell_angle_alpha 90.000000
_cell_angle_beta 146.139214
_cell_angle_gamma 90.000000
_cell_volume 2990.019095
_symmetry_space_group_name_H-M "C 2/M"
_symmetry_group_IT_number 12
_symmetry_cell_setting 'monoclinic'
loop_
_space_group_symop_operation_xyz
x,y,z
-x,y,-z
-x,-y,-z
x,-y,z
1/2+x,1/2+y,z
1/2-x,1/2+y,-z
1/2-x,1/2-y,-z
1/2+x,1/2-y,z
loop_
_atom_site_type_symbol
_atom_site_label
_atom_site_fract_x
_atom_site_fract_y
_atom_site_fract_z
Si Si1 0.463901 0.824234 0.258097
Si Si2 0.587471 0.824130 0.668040
Si Si3 0.690768 0.320570 0.346503
Si Si4 0.915159 0.824987 0.068342
Si Si5 0.295245 0.673972 0.094973
Si Si6 0.931238 0.178494 0.504917
Si Si7 0.669169 0.321297 0.233475
O O1 0.439301 0.790773 0.295860
O O2 0.575716 0.726899 0.307871
O O3 0.349107 0.773989 0.165331
O O4 0.489025 0.000000 0.263410
O O5 0.500866 0.724486 0.588984
O O6 0.721285 0.772500 0.734645
O O7 0.570596 0.000000 0.645745
O O8 0.700395 0.500000 0.352265
O O9 0.803897 0.253428 0.435589
O O10 0.684870 0.254193 0.292521
O O11 0.873340 0.800854 0.095420
O O12 0.048724 0.762426 0.141912
O O13 0.904413 0.000000 0.048087
O O14 0.837822 0.727491 0.989845
O O15 0.294244 0.500000 0.109399
O O16 0.000000 0.238079 0.500000
O O17 0.915443 0.000000 0.494336
O O18 0.656994 0.500000 0.231285
#
# Coordination Sequence:
#
# PCOD8089904 Si02
#       7
#     8   8   8   8   8   8   8
#     4  11  23  38  57  85 119 151 188 236 288 339
#     4  10  22  40  61  83 112 154 194 232 283 342
#     4  11  21  37  63  86 111 151 193 235 280 337
#     4   9  17  32  55  84 111 141 188 241 281 325
#     4  10  19  33  54  83 115 150 188 229 285 343
#     4  11  23  38  58  89 120 146 184 238 291 335
#     4   9  17  34  59  85 108 141 194 237 274 332
#
# _framework density 18.728975999999999
#
# number of rings (size 3 to 8) (size 9 to 14) (size 15 to 20)
#    0.000    1.857    2.857    1.714    0.000    2.857 
#    0.000    1.429    0.000    4.286    0.000    0.000 
#    0.000    0.000    0.000    0.000    0.000    0.000 
#
# Total GULP energy -347297.562669 kJ/mol
# GULP energy per Si atom -12403.484381 kJ/mol
# Density = 1.868635 g / cm^3
# Si number density = 18.728976 Si / 1000 Ang^3
#
#
#
# Elastic Constant Matrix: (Units=GPa)
#
#
# Indices 1 2 3 4 5 6 
#
# 1 87.8489 29.5260 44.8024 0.0001 4.7040 -0.0001
# 2 29.5260 57.0746 37.5630 0.0002 -4.5375 -0.0005
# 3 44.8024 37.5630 139.7053 0.0000 11.7711 -0.0001
# 4 0.0001 0.0002 0.0000 31.5758 0.0000 -0.6813
# 5 4.7040 -4.5375 11.7711 0.0000 29.4700 0.0000
# 6 -0.0001 -0.0005 -0.0001 -0.6813 0.0000 23.2900
#
#
#
# Elastic Compliance Matrix: (Units=1/GPa)
#
#
# Indices 1 2 3 4 5 6 
#
# 1 0.015050 -0.005944 -0.003051 0.000000 -0.002099 0.000000
# 2 -0.005944 0.024624 -0.005292 0.000000 0.006854 0.000000
# 3 -0.003051 -0.005292 0.009921 0.000000 -0.004290 0.000000
# 4 0.000000 0.000000 0.000000 0.031690 0.000000 0.000927
# 5 -0.002099 0.006854 -0.004290 0.000000 0.037037 0.000000
# 6 0.000000 0.000000 0.000000 0.000927 0.000000 0.042964
#
#
# Mechanical properties :
#
#
# Convention : Reuss Voigt Hill
#
# Bulk Modulus (GPa) = 47.57509 56.49017 52.03263
# Shear Modulus (GPa) = 25.39805 28.38299 26.89052
#
# Velocity S-wave (km/s) = 3.68650 3.89711 3.79327
# Velocity P-wave (km/s) = 6.60132 7.10474 6.85765
#
# Compressibility (1/GPa) = 0.02101940
#
# Stress axis : x y z
#
# Youngs Moduli (GPa) = 66.44737 40.61129 100.79875
#
# Poissons Ratio (x) = 0.24140 0.30756
# Poissons Ratio (y) = 0.39498 0.53341
# Poissons Ratio (z) = 0.20274 0.21491
#
# Static dielectric constant tensor:
#      x y z
#    x 3.330830 0.000000 0.127270 
#    y 0.000000 3.326580 0.000000 
#    z 0.127270 0.000000 3.624590 
# 
# 
# High freq. dielectric constant tensor:
#      x y z
#    x 1.710360 0.000000 0.009050 
#    y 0.000000 1.718620 0.000000 
#    z 0.009050 0.000000 1.743060 
# 
# From -- ./inp_files/380761.got.cif
#   From: 2010.06.25/outbox.cif.g09.slc.cpg/sg12_191_cif.got.tgz:380761.got - 2010.06.28 00:19:55.
