data_PCOD8089871
_publ_section_title
;
Structure prediction by ZEFSAII (Michael W. Deem and Ramdas Pophale) SiO2 
 PCOD8089871
Probable space group: C 2/M
;
_chemical_formula_sum "Si O2"
_cell_formula_units_Z 60
_cell_length_a 31.332633
_cell_length_b 12.384395
_cell_length_c 9.301105
_cell_angle_alpha 90.000000
_cell_angle_beta 62.797529
_cell_angle_gamma 90.000000
_cell_volume 3209.975577
_symmetry_space_group_name_H-M "C 2/M"
_symmetry_group_IT_number 12
_symmetry_cell_setting 'monoclinic'
loop_
_space_group_symop_operation_xyz
x,y,z
-x,y,-z
-x,-y,-z
x,-y,z
1/2+x,1/2+y,z
1/2-x,1/2+y,-z
1/2-x,1/2-y,-z
1/2+x,1/2-y,z
loop_
_atom_site_type_symbol
_atom_site_label
_atom_site_fract_x
_atom_site_fract_y
_atom_site_fract_z
Si Si1 0.312433 0.125259 0.167949
Si Si2 0.865216 0.743996 0.344871
Si Si3 0.428559 0.380270 0.787688
Si Si4 0.552977 0.378618 0.913984
Si Si5 0.590689 0.122682 0.467986
Si Si6 0.158507 0.259685 0.165390
Si Si7 0.500000 0.248603 0.500000
Si Si8 0.297672 0.374624 0.654481
O O1 0.344680 0.185803 0.235720
O O2 0.257819 0.129813 0.304691
O O3 0.329002 0.000000 0.124936
O O4 0.315893 0.189723 0.012452
O O5 0.912772 0.811366 0.240393
O O6 0.882645 0.652529 0.426274
O O7 0.827103 0.825475 0.475463
O O8 0.432713 0.500000 0.718858
O O9 0.378992 0.333482 0.809859
O O10 0.475573 0.318489 0.661963
O O11 0.424659 0.378557 0.963693
O O12 0.549123 0.500000 0.856936
O O13 0.500000 0.325845 0.000000
O O14 0.629232 0.143043 0.283244
O O15 0.540429 0.181819 0.520452
O O16 0.576146 0.000000 0.495063
O O17 0.195992 0.200544 0.214019
O O18 0.312885 0.500000 0.658599
#
# Coordination Sequence:
#
# PCOD8089871 Si02
#       8
#     8   8   8   8   8   8   4   8
#     4  11  22  38  59  84 116 153 196 240 286 342
#     4  11  21  38  59  82 118 151 190 234 290 343
#     4  10  19  33  54  82 110 142 182 227 282 340
#     4  10  20  34  55  81 113 147 181 227 284 341
#     4  10  21  36  56  79 109 152 195 235 280 332
#     4  10  20  37  58  81 112 149 187 238 290 338
#     4  10  20  34  56  80 112 148 188 238 280 334
#     4  10  22  38  59  87 115 149 192 240 293 350
#
# _framework density 18.69173
#
# number of rings (size 3 to 8) (size 9 to 14) (size 15 to 20)
#    0.000    1.733    1.333    3.600    0.000    0.000 
#    0.000    4.000    0.000    8.000    0.000    0.000 
#    0.000    0.000    0.000    0.000    0.000    0.000 
#
# Total GULP energy -371956.798106 kJ/mol
# GULP energy per Si atom -12398.559937 kJ/mol
# Density = 1.864919 g / cm^3
# Si number density = 18.691730 Si / 1000 Ang^3
#
#
#
# Elastic Constant Matrix: (Units=GPa)
#
#
# Indices 1 2 3 4 5 6 
#
# 1 82.4960 30.5668 25.4784 0.0000 -7.7265 0.0000
# 2 30.5668 118.5803 44.2166 0.0000 -9.4799 0.0000
# 3 25.4784 44.2166 84.8717 0.0000 -9.0435 0.0000
# 4 0.0000 0.0000 0.0000 24.3848 0.0000 -16.0834
# 5 -7.7265 -9.4799 -9.0435 0.0000 30.6785 0.0000
# 6 0.0000 0.0000 0.0000 -16.0834 0.0000 62.9899
#
#
#
# Elastic Compliance Matrix: (Units=1/GPa)
#
#
# Indices 1 2 3 4 5 6 
#
# 1 0.014058 -0.002446 -0.002735 0.000000 0.001979 0.000000
# 2 -0.002446 0.010976 -0.004841 0.000000 0.001349 0.000000
# 3 -0.002735 -0.004841 0.015376 0.000000 0.002348 0.000000
# 4 0.000000 0.000000 0.000000 0.049314 0.000000 0.012591
# 5 0.001979 0.001349 0.002348 0.000000 0.034203 0.000000
# 6 0.000000 0.000000 0.000000 0.012591 0.000000 0.019091
#
#
# Mechanical properties :
#
#
# Convention : Reuss Voigt Hill
#
# Bulk Modulus (GPa) = 49.09884 54.05239 51.57561
# Shear Modulus (GPa) = 29.43775 35.98973 32.71374
#
# Velocity S-wave (km/s) = 3.97282 4.39274 4.18804
# Velocity P-wave (km/s) = 6.88252 7.39654 7.14415
#
# Compressibility (1/GPa) = 0.02036708
#
# Stress axis : x y z
#
# Youngs Moduli (GPa) = 71.13357 91.10517 65.03810
#
# Poissons Ratio (x) = 0.22281 0.17789
# Poissons Ratio (y) = 0.17397 0.31482
# Poissons Ratio (z) = 0.19457 0.44100
#
# Static dielectric constant tensor:
#      x y z
#    x 3.405190 0.000000 0.075090 
#    y 0.000000 3.469120 0.000000 
#    z 0.075090 0.000000 3.868300 
# 
# 
# High freq. dielectric constant tensor:
#      x y z
#    x 1.735900 0.000000 -0.000750 
#    y 0.000000 1.729300 0.000000 
#    z -0.000750 0.000000 1.728000 
# 
# From -- ./inp_files/110413.got.cif
#   From: 2010.06.25/outbox.cif.g09.slc.cpg/sg12_56_cif.got.tgz:110413.got - 2010.06.28 00:19:55.
