data_PCOD8089731
_publ_section_title
;
Structure prediction by ZEFSAII (Michael W. Deem and Ramdas Pophale) SiO2 
 PCOD8089731
Probable space group: C 2/M
;
_chemical_formula_sum "Si O2"
_cell_formula_units_Z 40
_cell_length_a 9.907293
_cell_length_b 14.422278
_cell_length_c 14.641602
_cell_angle_alpha 90.000000
_cell_angle_beta 66.880365
_cell_angle_gamma 90.000000
_cell_volume 1924.055125
_symmetry_space_group_name_H-M "C 2/M"
_symmetry_group_IT_number 12
_symmetry_cell_setting 'monoclinic'
loop_
_space_group_symop_operation_xyz
x,y,z
-x,y,-z
-x,-y,-z
x,-y,z
1/2+x,1/2+y,z
1/2-x,1/2+y,-z
1/2-x,1/2-y,-z
1/2+x,1/2-y,z
loop_
_atom_site_type_symbol
_atom_site_label
_atom_site_fract_x
_atom_site_fract_y
_atom_site_fract_z
Si Si1 0.168379 0.500000 0.480617
Si Si2 0.432282 0.155749 0.829206
Si Si3 0.761994 0.199711 0.766015
Si Si4 0.145682 0.500000 0.018384
Si Si5 0.827178 0.699023 0.561631
Si Si6 0.772232 0.000000 0.797409
Si Si7 0.949693 0.500000 0.298119
O O1 0.238683 0.593396 0.420288
O O2 0.173911 0.500000 0.590644
O O3 0.000000 0.500000 0.500000
O O4 0.587515 0.190461 0.829728
O O5 0.331477 0.242638 0.830352
O O6 0.341663 0.093368 0.924977
O O7 0.456863 0.095709 0.727501
O O8 0.787080 0.248233 0.663530
O O9 0.842223 0.097652 0.744402
O O10 0.272518 0.500000 0.907589
O O11 0.000000 0.500000 0.000000
O O12 0.750000 0.750000 0.500000
O O13 0.000000 0.697645 0.500000
O O14 0.611471 0.000000 0.790770
#
# Coordination Sequence:
#
# PCOD8089731 Si02
#       7
#     4   8   8   4   8   4   4
#     4  10  19  33  54  78 111 148 193 240 271 332
#     4  10  21  35  63  85 116 144 193 240 286 345
#     4  11  21  38  57  87 114 155 190 240 291 335
#     4  11  18  42  63  89 105 156 202 224 275 370
#     4  11  22  37  58  84 117 156 201 239 283 340
#     4  10  21  38  60  79 116 151 194 230 280 364
#     4   9  16  34  56  77 103 154 193 224 272 340
#
# _framework density 20.789425000000001
#
# number of rings (size 3 to 8) (size 9 to 14) (size 15 to 20)
#    0.000    1.600    4.000    6.000    0.000    1.600 
#    0.000    7.000    0.000    1.200    0.000    0.000 
#    0.000    0.000    0.000    0.000    0.000    0.000 
#
# Total GULP energy -247771.915187 kJ/mol
# GULP energy per Si atom -12388.595759 kJ/mol
# Density = 2.074211 g / cm^3
# Si number density = 20.789425 Si / 1000 Ang^3
#
#
#
# Elastic Constant Matrix: (Units=GPa)
#
#
# Indices 1 2 3 4 5 6 
#
# 1 63.9050 44.3530 3.1267 0.0000 10.4556 0.0000
# 2 44.3530 221.0937 64.7554 0.0000 17.0221 0.0000
# 3 3.1267 64.7554 116.4122 0.0000 12.5913 0.0000
# 4 0.0000 0.0000 0.0000 32.0744 0.0000 4.6925
# 5 10.4556 17.0221 12.5913 0.0000 22.2917 0.0000
# 6 0.0000 0.0000 0.0000 4.6925 0.0000 29.9918
#
#
#
# Elastic Compliance Matrix: (Units=1/GPa)
#
#
# Indices 1 2 3 4 5 6 
#
# 1 0.019601 -0.004107 0.002570 0.000000 -0.007510 0.000000
# 2 -0.004107 0.006407 -0.003337 0.000000 -0.001082 0.000000
# 3 0.002570 -0.003337 0.010898 0.000000 -0.004813 0.000000
# 4 0.000000 0.000000 0.000000 0.031908 0.000000 -0.004992
# 5 -0.007510 -0.001082 -0.004813 0.000000 0.051927 0.000000
# 6 0.000000 0.000000 0.000000 -0.004992 0.000000 0.034124
#
#
# Mechanical properties :
#
#
# Convention : Reuss Voigt Hill
#
# Bulk Modulus (GPa) = 36.81914 69.54236 53.18075
# Shear Modulus (GPa) = 28.79103 36.14995 32.47049
#
# Velocity S-wave (km/s) = 3.72545 4.17449 3.95634
# Velocity P-wave (km/s) = 6.02115 7.53383 6.81956
#
# Compressibility (1/GPa) = 0.02715979
#
# Stress axis : x y z
#
# Youngs Moduli (GPa) = 51.01668 156.06862 91.76090
#
# Poissons Ratio (x) = 0.64094 -0.23585
# Poissons Ratio (y) = 0.20952 0.30620
# Poissons Ratio (z) = -0.13112 0.52078
#
# Static dielectric constant tensor:
#      x y z
#    x 3.437190 0.000000 0.342140 
#    y 0.000000 4.731130 0.000000 
#    z 0.342140 0.000000 3.610510 
# 
# 
# High freq. dielectric constant tensor:
#      x y z
#    x 1.766350 0.000000 0.029950 
#    y 0.000000 1.846390 0.000000 
#    z 0.029950 0.000000 1.804860 
# 
# From -- ./inp_files/203860.got.cif
#   From: 2010.06.25/outbox.cif.g09.slc.cpg/sg12_102_cif.got.tgz:203860.got - 2010.06.28 00:19:55.
