data_PCOD8089565
_publ_section_title
;
Structure prediction by ZEFSAII (Michael W. Deem and Ramdas Pophale) SiO2 
 PCOD8089565
Probable space group: C 2/M
;
_chemical_formula_sum "Si O2"
_cell_formula_units_Z 56
_cell_length_a 30.714425
_cell_length_b 10.887274
_cell_length_c 24.748562
_cell_angle_alpha 90.000000
_cell_angle_beta 19.405995
_cell_angle_gamma 90.000000
_cell_volume 2749.725491
_symmetry_space_group_name_H-M "C 2/M"
_symmetry_group_IT_number 12
_symmetry_cell_setting 'monoclinic'
loop_
_space_group_symop_operation_xyz
x,y,z
-x,y,-z
-x,-y,-z
x,-y,z
1/2+x,1/2+y,z
1/2-x,1/2+y,-z
1/2-x,1/2-y,-z
1/2+x,1/2-y,z
loop_
_atom_site_type_symbol
_atom_site_label
_atom_site_fract_x
_atom_site_fract_y
_atom_site_fract_z
Si Si1 0.241892 0.365444 0.577454
Si Si2 0.623247 0.641600 0.475129
Si Si3 0.647230 0.765830 0.204658
Si Si4 0.166831 0.135638 0.925882
Si Si5 0.052875 0.801237 0.743603
Si Si6 0.124360 0.634758 0.116511
Si Si7 0.124767 0.358363 0.892808
O O1 0.195933 0.500000 0.650107
O O2 0.324285 0.305078 0.529434
O O3 0.110450 0.290624 0.721088
O O4 0.329023 0.377611 0.421107
O O5 0.582252 0.500000 0.528788
O O6 0.494067 0.717164 0.610823
O O7 0.737335 0.659982 0.298283
O O8 0.703119 0.831554 0.192671
O O9 0.641208 0.859692 0.161468
O O10 0.740011 0.655726 0.074839
O O11 0.126354 0.249700 0.935199
O O12 0.185340 0.000000 0.875765
O O13 0.050225 0.113555 0.105418
O O14 0.984442 0.730471 0.774556
O O15 0.074494 0.500000 0.159607
O O16 0.118183 0.500000 0.923589
O O17 0.000000 0.336604 0.000000
#
# Coordination Sequence:
#
# PCOD8089565 Si02
#       7
#     8   8   8   8   8   8   8
#     4  10  19  33  56  86 119 151 193 250 304 356
#     4  10  20  37  61  87 117 155 202 255 307 355
#     4  10  21  36  54  85 118 159 203 244 299 358
#     4  11  24  41  62  88 124 162 200 247 304 364
#     4  10  20  34  56  85 118 156 200 239 302 364
#     4  10  19  33  53  80 119 161 203 246 294 357
#     4  10  23  44  69  92 117 154 205 257 304 357
#
# _framework density 20.365669
#
# number of rings (size 3 to 8) (size 9 to 14) (size 15 to 20)
#    0.000    1.857    1.429    2.571    0.000    5.429 
#    0.000    3.571    0.000    0.000    0.000    0.000 
#    0.000    0.000    0.000    0.000    0.000    0.000 
#
# Total GULP energy -346997.526947 kJ/mol
# GULP energy per Si atom -12392.768820 kJ/mol
# Density = 2.031932 g / cm^3
# Si number density = 20.365669 Si / 1000 Ang^3
#
#
#
# Elastic Constant Matrix: (Units=GPa)
#
#
# Indices 1 2 3 4 5 6 
#
# 1 96.8542 53.3203 21.3844 -0.0060 -16.5322 0.0002
# 2 53.3203 117.0356 21.6835 -0.0014 -5.2134 -0.0001
# 3 21.3844 21.6835 92.2569 -0.0053 -14.2008 0.0002
# 4 -0.0060 -0.0014 -0.0053 -35.8819 0.0011 2.3578
# 5 -16.5322 -5.2134 -14.2008 0.0011 32.2837 0.0001
# 6 0.0002 -0.0001 0.0002 2.3578 0.0001 21.7595
#
#
#
# Elastic Compliance Matrix: (Units=1/GPa)
#
#
# Indices 1 2 3 4 5 6 
#
# 1 0.015169 -0.006440 -0.001037 -0.000002 0.006272 0.000000
# 2 -0.006440 0.011676 -0.001576 0.000001 -0.002105 0.000000
# 3 -0.001037 -0.001576 0.012152 -0.000001 0.004560 0.000000
# 4 -0.000002 0.000001 -0.000001 -0.027672 -0.000001 0.002998
# 5 0.006272 -0.002105 0.004560 -0.000001 0.035853 0.000000
# 6 0.000000 0.000000 0.000000 0.002998 0.000000 0.045632
#
#
# Mechanical properties :
#
#
# Convention : Reuss Voigt Hill
#
# Bulk Modulus (GPa) = 47.86342 55.43589 51.64966
# Shear Modulus (GPa) = 42.41605 17.61616 30.01610
#
# Velocity S-wave (km/s) = 4.56864 2.94427 3.84325
# Velocity P-wave (km/s) = 7.16819 6.23198 6.71642
#
# Compressibility (1/GPa) = 0.02089278
#
# Stress axis : x y z
#
# Youngs Moduli (GPa) = 65.92183 85.64314 82.29146
#
# Poissons Ratio (x) = 0.55150 0.08535
# Poissons Ratio (y) = 0.42450 0.12967
# Poissons Ratio (z) = 0.06838 0.13495
#
# Static dielectric constant tensor:
#      x y z
#    x 3.606480 0.000000 -0.145790 
#    y 0.000000 3.516790 0.000000 
#    z -0.145790 0.000000 3.640430 
# 
# 
# High freq. dielectric constant tensor:
#      x y z
#    x 1.787530 0.000000 -0.013130 
#    y 0.000000 1.784970 0.000000 
#    z -0.013130 0.000000 1.799940 
# 
# From -- ./inp_files/353926.got.cif
#   From: 2010.06.25/outbox.cif.g09.slc.cpg/sg12_177_cif.got.tgz:353926.got - 2010.06.28 00:19:55.
