data_PCOD8089289
_publ_section_title
;
Structure prediction by ZEFSAII (Michael W. Deem and Ramdas Pophale) SiO2 
 PCOD8089289
Probable space group: C 2/M
;
_chemical_formula_sum "Si O2"
_cell_formula_units_Z 60
_cell_length_a 11.744318
_cell_length_b 22.372633
_cell_length_c 12.747606
_cell_angle_alpha 90.000000
_cell_angle_beta 88.532402
_cell_angle_gamma 90.000000
_cell_volume 3348.351534
_symmetry_space_group_name_H-M "C 2/M"
_symmetry_group_IT_number 12
_symmetry_cell_setting 'monoclinic'
loop_
_space_group_symop_operation_xyz
x,y,z
-x,y,-z
-x,-y,-z
x,-y,z
1/2+x,1/2+y,z
1/2-x,1/2+y,-z
1/2-x,1/2-y,-z
1/2+x,1/2-y,z
loop_
_atom_site_type_symbol
_atom_site_label
_atom_site_fract_x
_atom_site_fract_y
_atom_site_fract_z
Si Si1 0.199332 0.864264 0.928464
Si Si2 0.967040 0.066888 0.202911
Si Si3 0.720682 0.569090 0.129230
Si Si4 0.367923 0.222383 0.814772
Si Si5 0.500000 0.723669 0.000000
Si Si6 0.249200 0.668980 0.717142
Si Si7 0.973784 0.283635 0.382499
Si Si8 0.482972 0.349628 0.612521
O O1 0.137867 0.917217 0.868013
O O2 0.294832 0.833478 0.855345
O O3 0.261661 0.897794 0.022933
O O4 0.108866 0.815096 0.966956
O O5 0.083666 0.074583 0.135732
O O6 0.961063 0.109648 0.301864
O O7 0.953278 0.000000 0.244690
O O8 0.761082 0.500000 0.133220
O O9 0.774465 0.605905 0.224356
O O10 0.286184 0.280089 0.800283
O O11 0.424807 0.203423 0.702791
O O12 0.464966 0.236844 0.899505
O O13 0.349443 0.660634 0.631367
O O14 0.138813 0.684304 0.654091
O O15 0.949436 0.212936 0.386695
O O16 0.000000 0.307223 0.500000
O O17 0.500000 0.381107 0.500000
#
# Coordination Sequence:
#
# PCOD8089289 Si02
#       8
#     8   8   8   8   4   8   8   8
#     4  12  20  33  53  80 113 142 178 221 266 328
#     4  10  19  33  52  77 111 145 180 218 266 328
#     4  10  20  34  53  78 106 145 179 214 271 330
#     4  11  23  32  55  85 112 145 180 223 269 325
#     4  12  20  34  51  84 119 148 172 216 274 338
#     4  10  19  37  55  77 110 143 179 222 270 327
#     4  10  22  38  57  80 109 145 184 224 276 326
#     4   9  19  33  52  82 110 139 175 225 271 323
#
# _framework density 17.919266
#
# number of rings (size 3 to 8) (size 9 to 14) (size 15 to 20)
#    0.000    1.600    2.667    4.000    1.867    7.200 
#    0.000    0.000    0.000    2.800    0.000    0.000 
#    0.000    0.000    0.000    0.000    0.000    0.000 
#
# Total GULP energy -372013.082708 kJ/mol
# GULP energy per Si atom -12400.436090 kJ/mol
# Density = 1.787848 g / cm^3
# Si number density = 17.919266 Si / 1000 Ang^3
#
#
#
# Elastic Constant Matrix: (Units=GPa)
#
#
# Indices 1 2 3 4 5 6 
#
# 1 61.8643 40.1297 45.6224 0.0000 13.6847 0.0000
# 2 40.1297 86.6223 50.5295 0.0000 2.4125 0.0000
# 3 45.6224 50.5295 124.3780 0.0000 -1.7395 0.0000
# 4 0.0000 0.0000 0.0000 12.3574 0.0000 0.7050
# 5 13.6847 2.4125 -1.7395 0.0000 26.8696 0.0000
# 6 0.0000 0.0000 0.0000 0.7050 0.0000 18.7575
#
#
#
# Elastic Compliance Matrix: (Units=1/GPa)
#
#
# Indices 1 2 3 4 5 6 
#
# 1 0.031802 -0.009643 -0.007969 0.000000 -0.015847 0.000000
# 2 -0.009643 0.018137 -0.003789 0.000000 0.003037 0.000000
# 3 -0.007969 -0.003789 0.012575 0.000000 0.005213 0.000000
# 4 0.000000 0.000000 0.000000 0.081097 0.000000 -0.003048
# 5 -0.015847 0.003037 0.005213 0.000000 0.045352 0.000000
# 6 0.000000 0.000000 0.000000 -0.003048 0.000000 0.053427
#
#
# Mechanical properties :
#
#
# Convention : Reuss Voigt Hill
#
# Bulk Modulus (GPa) = 50.72921 60.60310 55.66615
# Shear Modulus (GPa) = 17.13718 20.70242 18.91980
#
# Velocity S-wave (km/s) = 3.09585 3.40268 3.25289
# Velocity P-wave (km/s) = 6.41486 7.02361 6.72613
#
# Compressibility (1/GPa) = 0.01971251
#
# Stress axis : x y z
#
# Youngs Moduli (GPa) = 31.44466 55.13524 79.52087
#
# Poissons Ratio (x) = 0.53166 0.63372
# Poissons Ratio (y) = 0.30322 0.30129
# Poissons Ratio (z) = 0.25059 0.20890
#
# Static dielectric constant tensor:
#      x y z
#    x 3.084240 0.000000 -0.031210 
#    y 0.000000 3.288560 0.000000 
#    z -0.031210 0.000000 3.513640 
# 
# 
# High freq. dielectric constant tensor:
#      x y z
#    x 1.667590 0.000000 0.000860 
#    y 0.000000 1.679020 0.000000 
#    z 0.000860 0.000000 1.706180 
# 
# From -- ./inp_files/133948.got.cif
#   From: 2010.06.25/outbox.cif.g09.slc.cpg/sg12_67_cif.got.tgz:133948.got - 2010.06.28 00:19:55.
