data_PCOD8089161
_publ_section_title
;
Structure prediction by ZEFSAII (Michael W. Deem and Ramdas Pophale) SiO2 
 PCOD8089161
Probable space group: C 2/M
;
_chemical_formula_sum "Si O2"
_cell_formula_units_Z 40
_cell_length_a 14.379519
_cell_length_b 9.213041
_cell_length_c 22.204201
_cell_angle_alpha 90.000000
_cell_angle_beta 131.101971
_cell_angle_gamma 90.000000
_cell_volume 2216.609918
_symmetry_space_group_name_H-M "C 2/M"
_symmetry_group_IT_number 12
_symmetry_cell_setting 'monoclinic'
loop_
_space_group_symop_operation_xyz
x,y,z
-x,y,-z
-x,-y,-z
x,-y,z
1/2+x,1/2+y,z
1/2-x,1/2+y,-z
1/2-x,1/2-y,-z
1/2+x,1/2-y,z
loop_
_atom_site_type_symbol
_atom_site_label
_atom_site_fract_x
_atom_site_fract_y
_atom_site_fract_z
Si Si1 0.374608 0.828325 0.876400
Si Si2 0.067526 0.166604 0.431283
Si Si3 0.652866 0.828077 0.000991
Si Si4 0.284765 0.670739 0.302273
Si Si5 0.261965 0.168602 0.411759
O O1 0.514999 0.779416 0.922867
O O2 0.284888 0.767833 0.786282
O O3 0.370932 0.000000 0.876082
O O4 0.327167 0.774692 0.921533
O O5 0.146042 0.198210 0.405244
O O6 0.114539 0.263256 0.506818
O O7 0.928357 0.208962 0.356242
O O8 0.079771 0.000000 0.457046
O O9 0.670562 0.000000 0.002402
O O10 0.750000 0.750000 0.000000
O O11 0.262491 0.500000 0.301340
O O12 0.228739 0.753584 0.335427
O O13 0.286157 0.000000 0.410877
#
# Coordination Sequence:
#
# PCOD8089161 Si02
#       5
#     8   8   8   8   8
#     4   8  17  33  51  72  99 130 162 194 235 293
#     4   9  19  34  50  68  94 131 169 199 236 291
#     4   9  17  33  55  75  97 128 162 195 237 287
#     4  10  19  33  52  71  95 130 167 199 236 287
#     4  10  20  33  49  72 100 127 160 205 249 283
#
# _framework density 18.045576000000001
#
# number of rings (size 3 to 8) (size 9 to 14) (size 15 to 20)
#    0.000    2.800    0.000    2.400    0.000    5.600 
#    0.000    6.000    0.000    0.000    0.000    0.000 
#    0.000    0.000    0.000    0.000    0.000    0.000 
#
# Total GULP energy -247993.582987 kJ/mol
# GULP energy per Si atom -12399.679149 kJ/mol
# Density = 1.800450 g / cm^3
# Si number density = 18.045576 Si / 1000 Ang^3
#
#
#
# Elastic Constant Matrix: (Units=GPa)
#
#
# Indices 1 2 3 4 5 6 
#
# 1 112.1942 37.3883 64.9963 0.0000 -10.3585 0.0000
# 2 37.3883 48.1401 41.1212 0.0000 -8.0958 0.0000
# 3 64.9963 41.1212 159.9772 0.0000 -13.4824 0.0000
# 4 0.0000 0.0000 0.0000 20.3530 0.0000 -6.2679
# 5 -10.3585 -8.0958 -13.4824 0.0000 21.4019 0.0000
# 6 0.0000 0.0000 0.0000 -6.2679 0.0000 32.2399
#
#
#
# Elastic Compliance Matrix: (Units=1/GPa)
#
#
# Indices 1 2 3 4 5 6 
#
# 1 0.013490 -0.007229 -0.003488 0.000000 0.001597 0.000000
# 2 -0.007229 0.031262 -0.004643 0.000000 0.005402 0.000000
# 3 -0.003488 -0.004643 0.009052 0.000000 0.002258 0.000000
# 4 0.000000 0.000000 0.000000 0.052262 0.000000 0.010160
# 5 0.001597 0.005402 0.002258 0.000000 0.050963 0.000000
# 6 0.000000 0.000000 0.000000 0.010160 0.000000 0.032993
#
#
# Mechanical properties :
#
#
# Convention : Reuss Voigt Hill
#
# Bulk Modulus (GPa) = 43.32204 67.48036 55.40120
# Shear Modulus (GPa) = 21.88774 26.58600 24.23687
#
# Velocity S-wave (km/s) = 3.48647 3.84248 3.66880
# Velocity P-wave (km/s) = 6.34558 7.56054 6.97955
#
# Compressibility (1/GPa) = 0.02308294
#
# Stress axis : x y z
#
# Youngs Moduli (GPa) = 74.12657 31.98762 110.47436
#
# Poissons Ratio (x) = 0.23125 0.38535
# Poissons Ratio (y) = 0.53588 0.51297
# Poissons Ratio (z) = 0.25856 0.14853
#
# Static dielectric constant tensor:
#      x y z
#    x 3.351000 0.000000 -0.056730 
#    y 0.000000 3.103380 0.000000 
#    z -0.056730 0.000000 3.747580 
# 
# 
# High freq. dielectric constant tensor:
#      x y z
#    x 1.705560 0.000000 -0.003720 
#    y 0.000000 1.675060 0.000000 
#    z -0.003720 0.000000 1.701320 
# 
# From -- ./inp_files/211349.got.cif
#   From: 2010.06.25/outbox.cif.g09.slc.cpg/sg12_106_cif.got.tgz:211349.got - 2010.06.28 00:19:55.
