data_PCOD8089352
_publ_section_title
;
Structure prediction by ZEFSAII (Michael W. Deem and Ramdas Pophale) SiO2 
 PCOD8089352
Probable space group: C 2/M
;
_chemical_formula_sum "Si O2"
_cell_formula_units_Z 56
_cell_length_a 19.213435
_cell_length_b 8.761266
_cell_length_c 21.958549
_cell_angle_alpha 90.000000
_cell_angle_beta 123.960605
_cell_angle_gamma 90.000000
_cell_volume 3065.850680
_symmetry_space_group_name_H-M "C 2/M"
_symmetry_group_IT_number 12
_symmetry_cell_setting 'monoclinic'
loop_
_space_group_symop_operation_xyz
x,y,z
-x,y,-z
-x,-y,-z
x,-y,z
1/2+x,1/2+y,z
1/2-x,1/2+y,-z
1/2-x,1/2-y,-z
1/2+x,1/2-y,z
loop_
_atom_site_type_symbol
_atom_site_label
_atom_site_fract_x
_atom_site_fract_y
_atom_site_fract_z
Si Si1 0.946899 0.825752 0.189880
Si Si2 0.744928 0.179428 0.431484
Si Si3 0.489518 0.325115 0.908129
Si Si4 0.723894 0.821017 0.923236
Si Si5 0.923054 0.179544 0.646122
Si Si6 0.570961 0.679976 0.489352
Si Si7 0.874320 0.319892 0.942450
O O1 0.871022 0.710965 0.142122
O O2 0.010632 0.810627 0.164492
O O3 0.996002 0.775953 0.274531
O O4 0.913773 0.000000 0.178434
O O5 0.750000 0.250000 0.500000
O O6 0.659662 0.248357 0.361205
O O7 0.833656 0.219283 0.440658
O O8 0.734796 0.000000 0.431317
O O9 0.479877 0.500000 0.924348
O O10 0.412278 0.226331 0.895839
O O11 0.575447 0.258773 0.977739
O O12 0.780033 0.742742 0.898413
O O13 0.739893 0.000000 0.934086
O O14 0.750000 0.750000 0.000000
O O15 0.939208 0.241566 0.585176
O O16 0.907896 0.000000 0.638096
O O17 0.500000 0.752350 0.500000
O O18 0.557353 0.500000 0.481231
O O19 0.877619 0.500000 0.952961
#
# Coordination Sequence:
#
# PCOD8089352 Si02
#       7
#     8   8   8   8   8   8   8
#     4  10  21  36  54  76 106 142 179 222 275 328
#     4   9  16  28  49  74 100 132 172 214 253 303
#     4  10  19  33  53  74 100 134 173 218 272 324
#     4  12  23  36  55  78 105 138 180 225 272 327
#     4   9  18  33  52  75 105 140 174 213 262 316
#     4   8  14  27  50  78 105 135 173 212 252 298
#     4  11  21  34  53  76 102 129 171 223 270 320
#
# _framework density 18.265730000000001
#
# number of rings (size 3 to 8) (size 9 to 14) (size 15 to 20)
#    0.000    2.143    1.429    5.143    0.000    1.143 
#    0.000    1.429    0.000   12.429    0.000    0.000 
#    0.000    0.000    0.000    0.000    0.000    0.000 
#
# Total GULP energy -347026.446072 kJ/mol
# GULP energy per Si atom -12393.801645 kJ/mol
# Density = 1.822416 g / cm^3
# Si number density = 18.265730 Si / 1000 Ang^3
#
#
#
# Elastic Constant Matrix: (Units=GPa)
#
#
# Indices 1 2 3 4 5 6 
#
# 1 123.2291 29.4759 47.2751 0.0000 14.0322 0.0000
# 2 29.4759 81.7699 26.0679 0.0000 7.2931 0.0000
# 3 47.2751 26.0679 86.2990 0.0000 6.6023 0.0000
# 4 0.0000 0.0000 0.0000 21.8382 0.0000 7.9627
# 5 14.0322 7.2931 6.6023 0.0000 23.6140 0.0000
# 6 0.0000 0.0000 0.0000 7.9627 0.0000 27.7165
#
#
#
# Elastic Compliance Matrix: (Units=1/GPa)
#
#
# Indices 1 2 3 4 5 6 
#
# 1 0.011064 -0.001950 -0.005125 0.000000 -0.004540 0.000000
# 2 -0.001950 0.014102 -0.003012 0.000000 -0.002355 0.000000
# 3 -0.005125 -0.003012 0.015328 0.000000 -0.000310 0.000000
# 4 0.000000 0.000000 0.000000 0.051149 0.000000 -0.014695
# 5 -0.004540 -0.002355 -0.000310 0.000000 0.045859 0.000000
# 6 0.000000 0.000000 0.000000 -0.014695 0.000000 0.040301
#
#
# Mechanical properties :
#
#
# Convention : Reuss Voigt Hill
#
# Bulk Modulus (GPa) = 49.20570 55.21509 52.21039
# Shear Modulus (GPa) = 24.41980 27.19901 25.80940
#
# Velocity S-wave (km/s) = 3.66036 3.86304 3.76306
# Velocity P-wave (km/s) = 6.69788 7.08462 6.89396
#
# Compressibility (1/GPa) = 0.02032285
#
# Stress axis : x y z
#
# Youngs Moduli (GPa) = 90.38024 70.91004 65.23798
#
# Poissons Ratio (x) = 0.13826 0.33434
# Poissons Ratio (y) = 0.17622 0.19647
# Poissons Ratio (z) = 0.46319 0.21355
#
# Static dielectric constant tensor:
#      x y z
#    x 3.788260 0.000000 0.176750 
#    y 0.000000 3.395110 0.000000 
#    z 0.176750 0.000000 3.295510 
# 
# 
# High freq. dielectric constant tensor:
#      x y z
#    x 1.713800 0.000000 0.014340 
#    y 0.000000 1.702630 0.000000 
#    z 0.014340 0.000000 1.678840 
# 
# From -- ./inp_files/342584.got.cif
#   From: 2010.06.25/outbox.cif.g09.slc.cpg/sg12_172_cif.got.tgz:342584.got - 2010.06.28 00:19:55.
