data_PCOD8089434
_publ_section_title
;
Structure prediction by ZEFSAII (Michael W. Deem and Ramdas Pophale) SiO2 
 PCOD8089434
Probable space group: C 2/M
;
_chemical_formula_sum "Si O2"
_cell_formula_units_Z 56
_cell_length_a 21.566241
_cell_length_b 10.653686
_cell_length_c 17.324122
_cell_angle_alpha 90.000000
_cell_angle_beta 48.218980
_cell_angle_gamma 90.000000
_cell_volume 2968.163596
_symmetry_space_group_name_H-M "C 2/M"
_symmetry_group_IT_number 12
_symmetry_cell_setting 'monoclinic'
loop_
_space_group_symop_operation_xyz
x,y,z
-x,y,-z
-x,-y,-z
x,-y,z
1/2+x,1/2+y,z
1/2-x,1/2+y,-z
1/2-x,1/2-y,-z
1/2+x,1/2-y,z
loop_
_atom_site_type_symbol
_atom_site_label
_atom_site_fract_x
_atom_site_fract_y
_atom_site_fract_z
Si Si1 0.888140 0.714668 0.893226
Si Si2 0.917397 0.141761 0.521465
Si Si3 0.026110 0.366103 0.891051
Si Si4 0.029843 0.142560 0.687381
Si Si5 0.699375 0.145080 0.314047
Si Si6 0.251818 0.361174 0.101219
Si Si7 0.629970 0.639292 0.751085
O O1 0.830528 0.634606 0.883765
O O2 0.947010 0.633660 0.899438
O O3 0.945903 0.798698 0.790541
O O4 0.827714 0.789118 0.000212
O O5 0.939898 0.199275 0.418817
O O6 0.864955 0.249314 0.606948
O O7 0.000000 0.123920 0.500000
O O8 0.875412 0.000000 0.551249
O O9 0.071841 0.500000 0.835484
O O10 0.084648 0.246548 0.836450
O O11 0.000000 0.365755 0.000000
O O12 0.108294 0.159264 0.679382
O O13 0.005512 0.000000 0.692597
O O14 0.730868 0.190649 0.203820
O O15 0.772235 0.150314 0.316935
O O16 0.664113 0.000000 0.339821
O O17 0.286102 0.500000 0.083522
O O18 0.598717 0.500000 0.803485
#
# Coordination Sequence:
#
# PCOD8089434 Si02
#       7
#     8   8   8   8   8   8   8
#     4  10  19  33  53  76 104 138 175 214 262 312
#     4  10  21  37  56  79 106 138 176 216 259 309
#     4  10  20  33  50  75 107 139 173 215 260 307
#     4   9  18  34  55  77 103 135 175 219 260 308
#     4  10  21  37  55  79 109 138 174 217 259 308
#     4  10  20  33  51  76 106 139 175 216 261 310
#     4   9  19  35  54  76 102 135 174 215 259 309
#
# _framework density 18.866883999999999
#
# number of rings (size 3 to 8) (size 9 to 14) (size 15 to 20)
#    0.000    2.286    0.000    2.571    0.000    2.286 
#    0.000    7.143    0.000    0.000    0.000    0.000 
#    0.000    0.000    0.000    0.000    0.000    0.000 
#
# Total GULP energy -346902.785116 kJ/mol
# GULP energy per Si atom -12389.385183 kJ/mol
# Density = 1.882394 g / cm^3
# Si number density = 18.866884 Si / 1000 Ang^3
#
#
#
# Elastic Constant Matrix: (Units=GPa)
#
#
# Indices 1 2 3 4 5 6 
#
# 1 65.2722 24.4028 29.5480 0.0000 6.8099 0.0000
# 2 24.4028 118.0895 63.8121 0.0000 -0.1365 -0.0001
# 3 29.5480 63.8121 117.6012 0.0000 16.3989 0.0000
# 4 0.0000 0.0000 0.0000 22.2535 0.0000 12.4905
# 5 6.8099 -0.1365 16.3989 0.0000 28.4924 0.0000
# 6 0.0000 -0.0001 0.0000 12.4905 0.0000 23.9963
#
#
#
# Elastic Compliance Matrix: (Units=1/GPa)
#
#
# Indices 1 2 3 4 5 6 
#
# 1 0.017700 -0.002048 -0.002984 0.000000 -0.002523 0.000000
# 2 -0.002048 0.012683 -0.007006 0.000000 0.004583 0.000000
# 3 -0.002984 -0.007006 0.014091 0.000000 -0.007430 0.000000
# 4 0.000000 0.000000 0.000000 0.063484 0.000000 -0.033045
# 5 -0.002523 0.004583 -0.007430 0.000000 0.039999 0.000000
# 6 0.000000 0.000000 0.000000 -0.033045 0.000000 0.058873
#
#
# Mechanical properties :
#
#
# Convention : Reuss Voigt Hill
#
# Bulk Modulus (GPa) = 49.02717 59.60987 54.31852
# Shear Modulus (GPa) = 21.03437 27.16176 24.09806
#
# Velocity S-wave (km/s) = 3.34261 3.79839 3.57777
# Velocity P-wave (km/s) = 6.39841 7.13447 6.77644
#
# Compressibility (1/GPa) = 0.02039685
#
# Stress axis : x y z
#
# Youngs Moduli (GPa) = 56.49632 78.84785 70.96755
#
# Poissons Ratio (x) = 0.16148 0.21178
# Poissons Ratio (y) = 0.11571 0.49722
# Poissons Ratio (z) = 0.16860 0.55243
#
# Static dielectric constant tensor:
#      x y z
#    x 3.800980 0.000000 0.264580 
#    y 0.000000 3.761920 0.000000 
#    z 0.264580 0.000000 3.358030 
# 
# 
# High freq. dielectric constant tensor:
#      x y z
#    x 1.746210 0.000000 0.019080 
#    y 0.000000 1.738830 0.000000 
#    z 0.019080 0.000000 1.715620 
# 
# From -- ./inp_files/282782.got.cif
#   From: 2010.06.25/outbox.cif.g09.slc.cpg/sg12_142_cif.got.tgz:282782.got - 2010.06.28 00:19:55.
