data_PCOD8089494
_publ_section_title
;
Structure prediction by ZEFSAII (Michael W. Deem and Ramdas Pophale) SiO2 
 PCOD8089494
Probable space group: C 2/M
;
_chemical_formula_sum "Si O2"
_cell_formula_units_Z 64
_cell_length_a 13.427981
_cell_length_b 10.088553
_cell_length_c 25.240662
_cell_angle_alpha 90.000000
_cell_angle_beta 70.848754
_cell_angle_gamma 90.000000
_cell_volume 3230.085106
_symmetry_space_group_name_H-M "C 2/M"
_symmetry_group_IT_number 12
_symmetry_cell_setting 'monoclinic'
loop_
_space_group_symop_operation_xyz
x,y,z
-x,y,-z
-x,-y,-z
x,-y,z
1/2+x,1/2+y,z
1/2-x,1/2+y,-z
1/2-x,1/2-y,-z
1/2+x,1/2-y,z
loop_
_atom_site_type_symbol
_atom_site_label
_atom_site_fract_x
_atom_site_fract_y
_atom_site_fract_z
Si Si1 0.905985 0.148178 0.142372
Si Si2 0.902159 0.342737 0.239017
Si Si3 0.689076 0.650244 0.334310
Si Si4 0.262972 0.350236 0.073733
Si Si5 0.515262 0.648610 0.688663
Si Si6 0.881795 0.852761 0.949349
Si Si7 0.899323 0.644853 0.487814
Si Si8 0.792986 0.792203 0.411535
O O1 0.919635 0.268734 0.180505
O O2 0.799645 0.168836 0.127724
O O3 0.993979 0.153715 0.081345
O O4 0.906212 0.000000 0.169451
O O5 0.934423 0.500000 0.231071
O O6 0.779629 0.328020 0.274885
O O7 0.972123 0.261485 0.268960
O O8 0.664620 0.500000 0.349645
O O9 0.579150 0.709038 0.331102
O O10 0.723694 0.701224 0.385323
O O11 0.222548 0.500000 0.072172
O O12 0.167390 0.249907 0.083431
O O13 0.354158 0.315563 0.014776
O O14 0.486751 0.500000 0.716068
O O15 0.624309 0.625023 0.637649
O O16 0.838767 0.000000 0.943620
O O17 0.938867 0.500000 0.463686
O O18 0.867810 0.717769 0.439923
O O19 0.795389 0.624739 0.542369
O O20 0.000000 0.714731 0.500000
#
# Coordination Sequence:
#
# PCOD8089494 Si02
#       8
#     8   8   8   8   8   8   8   8
#     4  10  20  35  55  77 105 142 178 214 261 315
#     4  10  22  38  54  77 106 134 170 216 268 321
#     4   9  19  36  56  75  99 135 174 217 268 315
#     4   9  18  33  53  78 107 139 178 220 260 309
#     4  10  20  37  59  79 101 133 177 222 264 312
#     4   9  18  33  53  77 106 141 178 216 262 314
#     4  10  20  32  48  75 112 146 173 208 257 306
#     4  10  19  33  53  78 105 137 179 218 253 303
#
# _framework density 19.813718999999999
#
# number of rings (size 3 to 8) (size 9 to 14) (size 15 to 20)
#    0.000    2.375    0.000    2.250    0.000    4.000 
#    0.000    7.500    0.000    9.750    0.000    0.000 
#    0.000    0.000    0.000    0.000    0.000    0.000 
#
# Total GULP energy -396446.315954 kJ/mol
# GULP energy per Si atom -12388.947374 kJ/mol
# Density = 1.976862 g / cm^3
# Si number density = 19.813719 Si / 1000 Ang^3
#
#
#
# Elastic Constant Matrix: (Units=GPa)
#
#
# Indices 1 2 3 4 5 6 
#
# 1 116.3801 45.9305 22.1378 0.0000 25.0639 0.0000
# 2 45.9305 106.2093 34.5228 0.0000 22.7197 0.0000
# 3 22.1378 34.5228 57.4648 0.0000 17.2610 0.0000
# 4 0.0000 0.0000 0.0000 33.1646 0.0000 -2.0663
# 5 25.0639 22.7197 17.2610 0.0000 27.9290 0.0000
# 6 0.0000 0.0000 0.0000 -2.0663 0.0000 25.7719
#
#
#
# Elastic Compliance Matrix: (Units=1/GPa)
#
#
# Indices 1 2 3 4 5 6 
#
# 1 0.011569 -0.003324 -0.000188 0.000000 -0.007561 0.000000
# 2 -0.003324 0.013651 -0.005503 0.000000 -0.004721 0.000000
# 3 -0.000188 -0.005503 0.023804 0.000000 -0.010066 0.000000
# 4 0.000000 0.000000 0.000000 0.030304 0.000000 0.002430
# 5 -0.007561 -0.004721 -0.010066 0.000000 0.052653 0.000000
# 6 0.000000 0.000000 0.000000 0.002430 0.000000 0.038997
#
#
# Mechanical properties :
#
#
# Convention : Reuss Voigt Hill
#
# Bulk Modulus (GPa) = 32.26460 53.91516 43.08988
# Shear Modulus (GPa) = 25.08287 29.20396 27.14342
#
# Velocity S-wave (km/s) = 3.56186 3.84334 3.70527
# Velocity P-wave (km/s) = 5.76499 6.85311 6.33246
#
# Compressibility (1/GPa) = 0.03099372
#
# Stress axis : x y z
#
# Youngs Moduli (GPa) = 86.43990 73.25226 42.00988
#
# Poissons Ratio (x) = 0.24350 0.00792
# Poissons Ratio (y) = 0.28734 0.23116
# Poissons Ratio (z) = 0.01629 0.40307
#
# Static dielectric constant tensor:
#      x y z
#    x 3.718180 0.000000 0.052470 
#    y 0.000000 3.552480 0.000000 
#    z 0.052470 0.000000 3.452020 
# 
# 
# High freq. dielectric constant tensor:
#      x y z
#    x 1.776480 0.000000 0.003120 
#    y 0.000000 1.767010 0.000000 
#    z 0.003120 0.000000 1.761520 
# 
# From -- ./inp_files/335613.got.cif
#   From: 2010.06.25/outbox.cif.g09.slc.cpg/sg12_168_cif.got.tgz:335613.got - 2010.06.28 00:19:55.
