data_PCOD8089771
_publ_section_title
;
Structure prediction by ZEFSAII (Michael W. Deem and Ramdas Pophale) SiO2 
 PCOD8089771
Probable space group: C 2/M
;
_chemical_formula_sum "Si O2"
_cell_formula_units_Z 56
_cell_length_a 32.839386
_cell_length_b 9.721716
_cell_length_c 11.330205
_cell_angle_alpha 90.000000
_cell_angle_beta 53.221711
_cell_angle_gamma 90.000000
_cell_volume 2897.247739
_symmetry_space_group_name_H-M "C 2/M"
_symmetry_group_IT_number 12
_symmetry_cell_setting 'monoclinic'
loop_
_space_group_symop_operation_xyz
x,y,z
-x,y,-z
-x,-y,-z
x,-y,z
1/2+x,1/2+y,z
1/2-x,1/2+y,-z
1/2-x,1/2-y,-z
1/2+x,1/2-y,z
loop_
_atom_site_type_symbol
_atom_site_label
_atom_site_fract_x
_atom_site_fract_y
_atom_site_fract_z
Si Si1 0.304240 0.840609 0.715066
Si Si2 0.032992 0.160077 0.058612
Si Si3 0.213151 0.653294 0.907800
Si Si4 0.632077 0.158304 0.859938
Si Si5 0.704998 0.842912 0.533127
Si Si6 0.530945 0.659706 0.329107
Si Si7 0.379600 0.151752 0.763650
O O1 0.260119 0.752372 0.853800
O O2 0.307699 0.794583 0.575020
O O3 0.362066 0.810900 0.661270
O O4 0.289768 0.000000 0.756421
O O5 0.007694 0.185017 0.235562
O O6 0.046826 0.000000 0.022598
O O7 0.083937 0.247368 0.966632
O O8 0.000000 0.204660 0.000000
O O9 0.234030 0.500000 0.844580
O O10 0.179640 0.707562 0.856122
O O11 0.176199 0.650787 0.082948
O O12 0.651453 0.175946 0.693321
O O13 0.617383 0.000000 0.916438
O O14 0.750000 0.750000 0.500000
O O15 0.723687 0.000000 0.509445
O O16 0.500000 0.712787 0.500000
O O17 0.542110 0.500000 0.327736
O O18 0.584332 0.737957 0.238985
O O19 0.405171 0.000000 0.728862
#
# Coordination Sequence:
#
# PCOD8089771 Si02
#       7
#     8   8   8   8   8   8   8
#     4  10  21  34  52  80 113 147 186 227 268 319
#     4  10  22  40  61  85 111 140 181 231 280 333
#     4  10  19  33  54  79 110 144 181 222 265 318
#     4  10  20  35  56  81 109 143 182 223 270 324
#     4  10  20  34  51  75 109 146 183 224 268 317
#     4  10  22  40  61  84 111 144 182 228 282 337
#     4  10  21  37  55  80 112 145 183 227 273 325
#
# _framework density 19.328688
#
# number of rings (size 3 to 8) (size 9 to 14) (size 15 to 20)
#    0.000    2.000    2.857    0.429    0.000    4.000 
#    0.000    0.000    0.000    0.000    0.000    0.000 
#    0.000    0.000    0.000    0.000    0.000    0.000 
#
# Total GULP energy -346895.300994 kJ/mol
# GULP energy per Si atom -12389.117893 kJ/mol
# Density = 1.928470 g / cm^3
# Si number density = 19.328688 Si / 1000 Ang^3
#
#
#
# Elastic Constant Matrix: (Units=GPa)
#
#
# Indices 1 2 3 4 5 6 
#
# 1 94.3323 38.4067 33.8340 0.0000 19.2369 0.0000
# 2 38.4067 55.9875 21.2165 0.0000 -1.3203 0.0000
# 3 33.8340 21.2165 81.0357 0.0000 18.4893 0.0000
# 4 0.0000 0.0000 0.0000 25.2916 0.0000 -2.1238
# 5 19.2369 -1.3203 18.4893 0.0000 31.2364 0.0000
# 6 0.0000 0.0000 0.0000 -2.1238 0.0000 28.8493
#
#
#
# Elastic Compliance Matrix: (Units=1/GPa)
#
#
# Indices 1 2 3 4 5 6 
#
# 1 0.018457 -0.012112 -0.002109 0.000000 -0.010630 0.000000
# 2 -0.012112 0.028345 -0.005017 0.000000 0.011627 0.000000
# 3 -0.002109 -0.005017 0.016517 0.000000 -0.008690 0.000000
# 4 0.000000 0.000000 0.000000 0.039785 0.000000 0.002929
# 5 -0.010630 0.011627 -0.008690 0.000000 0.044195 0.000000
# 6 0.000000 0.000000 0.000000 0.002929 0.000000 0.034879
#
#
# Mechanical properties :
#
#
# Convention : Reuss Voigt Hill
#
# Bulk Modulus (GPa) = 40.25508 46.47443 43.36475
# Shear Modulus (GPa) = 21.84018 26.26867 24.05443
#
# Velocity S-wave (km/s) = 3.36510 3.69053 3.53157
# Velocity P-wave (km/s) = 5.99753 6.50050 6.25407
#
# Compressibility (1/GPa) = 0.02484159
#
# Stress axis : x y z
#
# Youngs Moduli (GPa) = 54.18140 35.27910 60.54286
#
# Poissons Ratio (x) = 0.42731 0.12771
# Poissons Ratio (y) = 0.65626 0.30375
# Poissons Ratio (z) = 0.11429 0.17700
#
# Static dielectric constant tensor:
#      x y z
#    x 3.616510 0.000000 0.533430 
#    y 0.000000 3.478180 0.000000 
#    z 0.533430 0.000000 3.840150 
# 
# 
# High freq. dielectric constant tensor:
#      x y z
#    x 1.746030 0.000000 0.032280 
#    y 0.000000 1.748230 0.000000 
#    z 0.032280 0.000000 1.755180 
# 
# From -- ./inp_files/187235.got.cif
#   From: 2010.06.25/outbox.cif.g09.slc.cpg/sg12_94_cif.got.tgz:187235.got - 2010.06.28 00:19:55.
