data_PCOD8089949
_publ_section_title
;
Structure prediction by ZEFSAII (Michael W. Deem and Ramdas Pophale) SiO2 
 PCOD8089949
Probable space group: C 2/M
;
_chemical_formula_sum "Si O2"
_cell_formula_units_Z 48
_cell_length_a 17.828774
_cell_length_b 9.276164
_cell_length_c 30.914448
_cell_angle_alpha 90.000000
_cell_angle_beta 29.898837
_cell_angle_gamma 90.000000
_cell_volume 2548.534663
_symmetry_space_group_name_H-M "C 2/M"
_symmetry_group_IT_number 12
_symmetry_cell_setting 'monoclinic'
loop_
_space_group_symop_operation_xyz
x,y,z
-x,y,-z
-x,-y,-z
x,-y,z
1/2+x,1/2+y,z
1/2-x,1/2+y,-z
1/2-x,1/2-y,-z
1/2+x,1/2-y,z
loop_
_atom_site_type_symbol
_atom_site_label
_atom_site_fract_x
_atom_site_fract_y
_atom_site_fract_z
Si Si1 0.404607 0.671126 0.007622
Si Si2 0.438414 0.333560 0.157791
Si Si3 0.911425 0.333862 0.667314
Si Si4 0.438439 0.171479 0.821566
Si Si5 0.561457 0.330691 0.516042
Si Si6 0.098271 0.671198 0.655289
O O1 0.414356 0.500000 0.004448
O O2 0.472961 0.726232 0.928234
O O3 0.500000 0.736183 0.000000
O O4 0.233274 0.724372 0.096739
O O5 0.478157 0.500000 0.147316
O O6 0.263239 0.313971 0.235317
O O7 0.484616 0.239052 0.175279
O O8 0.953129 0.500000 0.638439
O O9 0.954597 0.245721 0.603541
O O10 0.002457 0.270886 0.662736
O O11 0.527021 0.230099 0.735343
O O12 0.448163 0.000000 0.820936
O O13 0.500000 0.289618 0.500000
O O14 0.553288 0.500000 0.528736
O O15 0.731657 0.272341 0.434877
O O16 0.093404 0.500000 0.659308
#
# Coordination Sequence:
#
# PCOD8089949 Si02
#       6
#     8   8   8   8   8   8
#     4   9  17  31  53  78 101 130 169 206 241 289
#     4  10  20  33  50  75 105 131 161 207 252 288
#     4  10  20  34  52  73  99 132 168 205 245 291
#     4  10  19  33  55  77  99 132 169 202 243 298
#     4  10  20  34  52  74 101 130 162 205 252 296
#     4   9  18  33  52  74  99 129 167 207 245 290
#
# _framework density 18.834351000000002
#
# number of rings (size 3 to 8) (size 9 to 14) (size 15 to 20)
#    0.000    2.333    0.000    3.000    0.000    6.333 
#    0.000    1.667    0.000    4.000    0.000    0.000 
#    0.000    0.000    0.000    0.000    0.000    0.000 
#
# Total GULP energy -297659.501712 kJ/mol
# GULP energy per Si atom -12402.479238 kJ/mol
# Density = 1.879148 g / cm^3
# Si number density = 18.834351 Si / 1000 Ang^3
#
#
#
# Elastic Constant Matrix: (Units=GPa)
#
#
# Indices 1 2 3 4 5 6 
#
# 1 106.6529 27.3348 13.0659 0.0024 2.6630 0.0569
# 2 27.3348 22.9358 18.2019 0.0013 5.1273 0.0096
# 3 13.0659 18.2019 86.6556 -0.0023 11.3033 -0.0090
# 4 0.0024 0.0013 -0.0023 23.2068 0.0002 2.0448
# 5 2.6630 5.1273 11.3033 0.0002 40.4159 0.0060
# 6 0.0569 0.0096 -0.0090 2.0448 0.0060 25.2463
#
#
#
# Elastic Compliance Matrix: (Units=1/GPa)
#
#
# Indices 1 2 3 4 5 6 
#
# 1 0.013723 -0.017788 0.001547 0.000002 0.000920 -0.000024
# 2 -0.017788 0.075919 -0.012621 -0.000004 -0.004929 0.000008
# 3 0.001547 -0.012621 0.014283 0.000001 -0.002495 0.000007
# 4 0.000002 -0.000004 0.000001 0.043400 0.000000 -0.003515
# 5 0.000920 -0.004929 -0.002495 0.000000 0.026005 -0.000007
# 6 -0.000024 0.000008 0.000007 -0.003515 -0.000007 0.039895
#
#
# Mechanical properties :
#
#
# Convention : Reuss Voigt Hill
#
# Bulk Modulus (GPa) = 21.64524 37.04993 29.34759
# Shear Modulus (GPa) = 17.46116 28.28327 22.87221
#
# Velocity S-wave (km/s) = 3.04812 3.87936 3.48859
# Velocity P-wave (km/s) = 4.88932 6.30715 5.64294
#
# Compressibility (1/GPa) = 0.04619954
#
# Stress axis : x y z
#
# Youngs Moduli (GPa) = 72.87135 13.17201 70.01208
#
# Poissons Ratio (x) = 0.23431 -0.10833
# Poissons Ratio (y) = 1.29627 0.88366
# Poissons Ratio (z) = -0.11276 0.16625
#
# Static dielectric constant tensor:
#      x y z
#    x 3.629640 -0.000030 -0.047790 
#    y -0.000030 3.028380 0.000000 
#    z -0.047790 0.000000 3.689980 
# 
# 
# High freq. dielectric constant tensor:
#      x y z
#    x 1.749470 0.000000 -0.001490 
#    y 0.000000 1.683880 0.000000 
#    z -0.001490 0.000000 1.750940 
# 
# From -- ./inp_files/212507.got.cif
#   From: 2010.06.25/outbox.cif.g09.slc.cpg/sg12_107_cif.got.tgz:212507.got - 2010.06.28 00:19:55.
