data_PCOD8089842
_publ_section_title
;
Structure prediction by ZEFSAII (Michael W. Deem and Ramdas Pophale) SiO2 
 PCOD8089842
Probable space group: C 2/M
;
_chemical_formula_sum "Si O2"
_cell_formula_units_Z 56
_cell_length_a 20.615366
_cell_length_b 9.033308
_cell_length_c 32.644743
_cell_angle_alpha 90.000000
_cell_angle_beta 29.211273
_cell_angle_gamma 90.000000
_cell_volume 2966.872515
_symmetry_space_group_name_H-M "C 2/M"
_symmetry_group_IT_number 12
_symmetry_cell_setting 'monoclinic'
loop_
_space_group_symop_operation_xyz
x,y,z
-x,y,-z
-x,-y,-z
x,-y,z
1/2+x,1/2+y,z
1/2-x,1/2+y,-z
1/2-x,1/2-y,-z
1/2+x,1/2-y,z
loop_
_atom_site_type_symbol
_atom_site_label
_atom_site_fract_x
_atom_site_fract_y
_atom_site_fract_z
Si Si1 0.640979 0.176243 0.757219
Si Si2 0.621364 0.827414 0.053281
Si Si3 0.171215 0.173879 0.507328
Si Si4 0.363776 0.175058 0.331585
Si Si5 0.362947 0.824402 0.779712
Si Si6 0.869866 0.671487 0.046460
Si Si7 0.626911 0.674995 0.311888
O O1 0.507580 0.236100 0.852268
O O2 0.648828 0.242898 0.706994
O O3 0.769147 0.231784 0.711546
O O4 0.639925 0.000000 0.757018
O O5 0.637640 0.000000 0.052773
O O6 0.750000 0.750000 0.000000
O O7 0.601660 0.793590 0.016439
O O8 0.250000 0.250000 0.500000
O O9 0.235030 0.223183 0.428847
O O10 0.018186 0.223332 0.592269
O O11 0.186611 0.000000 0.505294
O O12 0.496193 0.234464 0.280835
O O13 0.373366 0.000000 0.322663
O O14 0.250970 0.773726 0.873030
O O15 0.335934 0.752987 0.750774
O O16 0.360811 0.000000 0.776601
O O17 0.832869 0.500000 0.074094
O O18 0.000000 0.716025 0.000000
O O19 0.636885 0.500000 0.299404
#
# Coordination Sequence:
#
# PCOD8089842 Si02
#       7
#     8   8   8   8   8   8   8
#     4   9  18  34  54  78 107 139 178 222 268 313
#     4  10  20  35  56  78 106 143 179 222 270 320
#     4  10  19  33  54  81 110 141 178 220 265 316
#     4   9  18  32  52  79 109 139 175 220 265 310
#     4  11  21  34  55  80 108 141 177 223 274 323
#     4  10  21  37  56  78 106 141 183 227 268 315
#     4  10  20  34  56  81 107 143 182 222 268 319
#
# _framework density 18.875094000000001
#
# number of rings (size 3 to 8) (size 9 to 14) (size 15 to 20)
#    0.000    2.143    1.429    2.143    0.000    4.857 
#    0.000    5.000    0.000    2.571    0.000    2.000 
#    0.000    0.000    0.000    0.000    0.000    0.000 
#
# Total GULP energy -347258.228710 kJ/mol
# GULP energy per Si atom -12402.079597 kJ/mol
# Density = 1.883213 g / cm^3
# Si number density = 18.875094 Si / 1000 Ang^3
#
#
#
# Elastic Constant Matrix: (Units=GPa)
#
#
# Indices 1 2 3 4 5 6 
#
# 1 155.6824 25.3849 70.2620 0.0023 3.2784 -0.0128
# 2 25.3849 25.3639 25.7849 0.0009 -0.0479 -0.0195
# 3 70.2620 25.7849 153.0003 -0.0017 2.9394 0.0019
# 4 0.0023 0.0009 -0.0017 23.5739 -0.0007 -3.5260
# 5 3.2784 -0.0479 2.9394 -0.0007 39.6497 0.0014
# 6 -0.0128 -0.0195 0.0019 -3.5260 0.0014 23.5157
#
#
#
# Elastic Compliance Matrix: (Units=1/GPa)
#
#
# Indices 1 2 3 4 5 6 
#
# 1 0.008729 -0.005638 -0.003049 -0.000001 -0.000503 0.000000
# 2 -0.005638 0.051235 -0.006064 0.000004 0.000978 0.000040
# 3 -0.003049 -0.006064 0.008966 0.000000 -0.000420 -0.000007
# 4 -0.000001 0.000004 0.000000 0.043393 0.000001 0.006507
# 5 -0.000503 0.000978 -0.000420 0.000001 0.025295 -0.000001
# 6 0.000000 0.000040 -0.000007 0.006507 -0.000001 0.043500
#
#
# Mechanical properties :
#
#
# Convention : Reuss Voigt Hill
#
# Bulk Modulus (GPa) = 25.36230 64.10114 44.73172
# Shear Modulus (GPa) = 22.34496 31.52219 26.93357
#
# Velocity S-wave (km/s) = 3.44442 4.09105 3.78158
# Velocity P-wave (km/s) = 5.41154 7.50666 6.54350
#
# Compressibility (1/GPa) = 0.03942860
#
# Stress axis : x y z
#
# Youngs Moduli (GPa) = 114.55775 19.51773 111.53039
#
# Poissons Ratio (x) = 0.11004 0.34005
# Poissons Ratio (y) = 0.64586 0.67636
# Poissons Ratio (z) = 0.34928 0.11836
#
# Static dielectric constant tensor:
#      x y z
#    x 4.418790 -0.000270 0.411290 
#    y -0.000270 3.132790 -0.000130 
#    z 0.411290 -0.000130 3.912220 
# 
# 
# High freq. dielectric constant tensor:
#      x y z
#    x 1.744430 0.000000 0.001750 
#    y 0.000000 1.695610 0.000000 
#    z 0.001750 0.000000 1.751460 
# 
# From -- ./inp_files/281715.got.cif
#   From: 2010.06.25/outbox.cif.g09.slc.cpg/sg12_141_cif.got.tgz:281715.got - 2010.06.28 00:19:55.
