data_PCOD8089324
_publ_section_title
;
Structure prediction by ZEFSAII (Michael W. Deem and Ramdas Pophale) SiO2 
 PCOD8089324
Probable space group: C 2/M
;
_chemical_formula_sum "Si O2"
_cell_formula_units_Z 48
_cell_length_a 14.543553
_cell_length_b 12.901024
_cell_length_c 13.524747
_cell_angle_alpha 90.000000
_cell_angle_beta 106.728664
_cell_angle_gamma 90.000000
_cell_volume 2430.209085
_symmetry_space_group_name_H-M "C 2/M"
_symmetry_group_IT_number 12
_symmetry_cell_setting 'monoclinic'
loop_
_space_group_symop_operation_xyz
x,y,z
-x,y,-z
-x,-y,-z
x,-y,z
1/2+x,1/2+y,z
1/2-x,1/2+y,-z
1/2-x,1/2-y,-z
1/2+x,1/2-y,z
loop_
_atom_site_type_symbol
_atom_site_label
_atom_site_fract_x
_atom_site_fract_y
_atom_site_fract_z
Si Si1 0.106783 0.618869 0.070785
Si Si2 0.092876 0.747132 0.258065
Si Si3 0.263304 0.877756 0.263894
Si Si4 0.480351 0.119871 0.379768
Si Si5 0.753307 0.116874 0.963126
Si Si6 0.463372 0.617140 0.091830
O O1 0.139542 0.500000 0.089762
O O2 0.120589 0.665240 0.182751
O O3 0.173965 0.675627 0.007321
O O4 0.000000 0.629776 0.000000
O O5 0.187559 0.816593 0.310548
O O6 0.057932 0.687596 0.344547
O O7 0.004818 0.819267 0.196085
O O8 0.371847 0.845082 0.322317
O O9 0.237678 0.838340 0.144726
O O10 0.247514 0.000000 0.275162
O O11 0.500000 0.139359 0.500000
O O12 0.494921 0.000000 0.354708
O O13 0.716139 0.000000 0.934675
O O14 0.849341 0.118947 0.057152
O O15 0.504042 0.500000 0.112071
O O16 0.500000 0.667363 0.000000
#
# Coordination Sequence:
#
# PCOD8089324 Si02
#       6
#     8   8   8   8   8   8
#     4  10  21  34  48  77 120 157 190 232 276 329
#     4  12  22  33  61  88 113 147 200 243 285 341
#     4  10  21  38  61  87 116 154 195 236 285 350
#     4  10  24  46  65  81 109 150 197 253 312 359
#     4   9  18  33  52  76 117 159 185 214 266 336
#     4  10  19  33  52  83 124 159 187 218 268 340
#
# _framework density 19.751387000000001
#
# number of rings (size 3 to 8) (size 9 to 14) (size 15 to 20)
#    0.000    1.833    1.667    2.500    2.333    4.000 
#    0.000    0.000    0.000    2.000    0.000    0.000 
#    0.000    0.000    0.000    0.000    0.000    0.000 
#
# Total GULP energy -297616.371948 kJ/mol
# GULP energy per Si atom -12400.682165 kJ/mol
# Density = 1.970643 g / cm^3
# Si number density = 19.751387 Si / 1000 Ang^3
#
#
#
# Elastic Constant Matrix: (Units=GPa)
#
#
# Indices 1 2 3 4 5 6 
#
# 1 141.9205 34.5240 43.6901 0.0000 -16.2207 0.0000
# 2 34.5240 69.7583 36.4607 0.0000 -11.6873 0.0000
# 3 43.6901 36.4607 72.0941 0.0000 -12.1570 0.0000
# 4 0.0000 0.0000 0.0000 21.2918 0.0000 -17.6781
# 5 -16.2207 -11.6873 -12.1570 0.0000 23.2174 0.0000
# 6 0.0000 0.0000 0.0000 -17.6781 0.0000 9.7887
#
#
#
# Elastic Compliance Matrix: (Units=1/GPa)
#
#
# Indices 1 2 3 4 5 6 
#
# 1 0.009117 -0.001848 -0.004028 0.000000 0.003329 0.000000
# 2 -0.001848 0.020427 -0.008440 0.000000 0.004572 0.000000
# 3 -0.004028 -0.008440 0.021267 0.000000 0.004073 0.000000
# 4 0.000000 0.000000 0.000000 -0.094034 0.000000 -0.169823
# 5 0.003329 0.004572 0.004073 0.000000 0.049832 0.000000
# 6 0.000000 0.000000 0.000000 -0.169823 0.000000 -0.204537
#
#
# Mechanical properties :
#
#
# Convention : Reuss Voigt Hill
#
# Bulk Modulus (GPa) = 45.09028 57.01361 51.05195
# Shear Modulus (GPa) = -30.88273 22.13277 -4.37498
#
# Velocity S-wave (km/s) = -3.95849 3.35112 -1.48991
# Velocity P-wave (km/s) = 1.40911 6.62583 4.78995
#
# Compressibility (1/GPa) = 0.02217773
#
# Stress axis : x y z
#
# Youngs Moduli (GPa) = 109.69046 48.95433 47.02097
#
# Poissons Ratio (x) = 0.09049 0.18942
# Poissons Ratio (y) = 0.20276 0.39684
# Poissons Ratio (z) = 0.44189 0.41315
#
# Static dielectric constant tensor:
#      x y z
#    x 3.655110 0.000000 -0.043230 
#    y 0.000000 3.875900 0.000000 
#    z -0.043230 0.000000 3.228910 
# 
# 
# High freq. dielectric constant tensor:
#      x y z
#    x 1.783440 0.000000 -0.001350 
#    y 0.000000 1.785460 0.000000 
#    z -0.001350 0.000000 1.725570 
# 
# From -- ./inp_files/143119.got.cif
#   From: 2010.06.25/outbox.cif.g09.slc.cpg/sg12_72_cif.got.tgz:143119.got - 2010.06.28 00:19:55.
