data_PCOD8089181
_publ_section_title
;
Structure prediction by ZEFSAII (Michael W. Deem and Ramdas Pophale) SiO2 
 PCOD8089181
Probable space group: C 2/M
;
_chemical_formula_sum "Si O2"
_cell_formula_units_Z 64
_cell_length_a 29.857510
_cell_length_b 8.651518
_cell_length_c 14.908609
_cell_angle_alpha 90.000000
_cell_angle_beta 78.570671
_cell_angle_gamma 90.000000
_cell_volume 3774.716803
_symmetry_space_group_name_H-M "C 2/M"
_symmetry_group_IT_number 12
_symmetry_cell_setting 'monoclinic'
loop_
_space_group_symop_operation_xyz
x,y,z
-x,y,-z
-x,-y,-z
x,-y,z
1/2+x,1/2+y,z
1/2-x,1/2+y,-z
1/2-x,1/2-y,-z
1/2+x,1/2-y,z
loop_
_atom_site_type_symbol
_atom_site_label
_atom_site_fract_x
_atom_site_fract_y
_atom_site_fract_z
Si Si1 0.208003 0.320755 0.198503
Si Si2 0.683639 0.679403 0.585791
Si Si3 0.356617 0.678762 0.917316
Si Si4 0.811339 0.180322 0.122609
Si Si5 0.460276 0.318657 0.126006
Si Si6 0.375783 0.820038 0.244812
Si Si7 0.784787 0.678488 0.599561
Si Si8 0.053995 0.319288 0.058721
O O1 0.200653 0.500000 0.177874
O O2 0.172316 0.218029 0.158809
O O3 0.258881 0.268992 0.151766
O O4 0.198774 0.287670 0.306632
O O5 0.672969 0.500000 0.602854
O O6 0.644302 0.775903 0.650469
O O7 0.731796 0.726283 0.611624
O O8 0.684185 0.721646 0.480264
O O9 0.370062 0.500000 0.910899
O O10 0.402954 0.778377 0.896330
O O11 0.327021 0.721013 0.016352
O O12 0.840553 0.277708 0.180701
O O13 0.817594 0.000000 0.144056
O O14 0.469305 0.500000 0.125647
O O15 0.423306 0.271111 0.214731
O O16 0.507663 0.230787 0.127458
O O17 0.440804 0.273321 0.036233
O O18 0.386451 0.000000 0.236470
O O19 0.790417 0.500000 0.571091
O O20 0.052478 0.500000 0.038006
#
# Coordination Sequence:
#
# PCOD8089181 Si02
#       8
#     8   8   8   8   8   8   8   8
#     4  10  20  35  52  71 102 141 179 219 259 300
#     4  10  19  33  52  73 102 135 168 214 263 311
#     4  11  22  34  51  74 103 141 181 217 255 302
#     4  10  20  35  50  69 103 142 178 217 255 299
#     4  11  21  35  54  75 103 135 168 211 262 308
#     4  12  22  32  51  78 105 137 174 211 254 312
#     4   9  18  33  51  73 100 134 173 216 260 306
#     4  11  21  35  53  76 102 133 173 214 257 305
#
# _framework density 16.954916000000001
#
# number of rings (size 3 to 8) (size 9 to 14) (size 15 to 20)
#    0.000    1.500    2.500    5.250    0.000    2.000 
#    0.000    0.000    0.000    0.000    0.000    0.875 
#    0.000    7.000    0.000    0.000    0.000    0.000 
#
# Total GULP energy -396968.866560 kJ/mol
# GULP energy per Si atom -12405.277080 kJ/mol
# Density = 1.691633 g / cm^3
# Si number density = 16.954916 Si / 1000 Ang^3
#
#
#
# Elastic Constant Matrix: (Units=GPa)
#
#
# Indices 1 2 3 4 5 6 
#
# 1 86.0842 26.1279 39.4084 0.0000 -9.0330 0.0000
# 2 26.1279 71.7873 25.3966 0.0000 -3.6196 0.0000
# 3 39.4084 25.3966 82.4600 0.0000 -8.6267 0.0000
# 4 0.0000 0.0000 0.0000 26.5475 0.0000 -0.3593
# 5 -9.0330 -3.6196 -8.6267 0.0000 21.6806 0.0000
# 6 0.0000 0.0000 0.0000 -0.3593 0.0000 28.2449
#
#
#
# Elastic Compliance Matrix: (Units=1/GPa)
#
#
# Indices 1 2 3 4 5 6 
#
# 1 0.015841 -0.003411 -0.006145 0.000000 0.003585 0.000000
# 2 -0.003411 0.016379 -0.003419 0.000000 -0.000047 0.000000
# 3 -0.006145 -0.003419 0.016475 0.000000 0.003424 0.000000
# 4 0.000000 0.000000 0.000000 0.037675 0.000000 0.000479
# 5 0.003585 -0.000047 0.003424 0.000000 0.048973 0.000000
# 6 0.000000 0.000000 0.000000 0.000479 0.000000 0.035411
#
#
# Mechanical properties :
#
#
# Convention : Reuss Voigt Hill
#
# Bulk Modulus (GPa) = 43.96619 46.91080 45.43850
# Shear Modulus (GPa) = 24.47558 25.25451 24.86504
#
# Velocity S-wave (km/s) = 3.80355 3.86360 3.83370
# Velocity P-wave (km/s) = 6.72881 6.90154 6.81572
#
# Compressibility (1/GPa) = 0.02274475
#
# Stress axis : x y z
#
# Youngs Moduli (GPa) = 63.12687 61.05468 60.69726
#
# Poissons Ratio (x) = 0.20825 0.37299
# Poissons Ratio (y) = 0.21531 0.20754
# Poissons Ratio (z) = 0.38792 0.20877
#
# Static dielectric constant tensor:
#      x y z
#    x 3.123670 0.000000 -0.180080 
#    y 0.000000 3.193230 0.000000 
#    z -0.180080 0.000000 3.115540 
# 
# 
# High freq. dielectric constant tensor:
#      x y z
#    x 1.637550 0.000000 -0.015430 
#    y 0.000000 1.664160 0.000000 
#    z -0.015430 0.000000 1.637940 
# 
# From -- ./inp_files/248283.got.cif
#   From: 2010.06.25/outbox.cif.g09.slc.cpg/sg12_125_cif.got.tgz:248283.got - 2010.06.28 00:19:55.
