data_PCOD8089998
_publ_section_title
;
Structure prediction by ZEFSAII (Michael W. Deem and Ramdas Pophale) SiO2 
 PCOD8089998
Probable space group: C 2/M
;
_chemical_formula_sum "Si O2"
_cell_formula_units_Z 48
_cell_length_a 28.667293
_cell_length_b 8.790952
_cell_length_c 9.930582
_cell_angle_alpha 90.000000
_cell_angle_beta 90.356674
_cell_angle_gamma 90.000000
_cell_volume 2502.585252
_symmetry_space_group_name_H-M "C 2/M"
_symmetry_group_IT_number 12
_symmetry_cell_setting 'monoclinic'
loop_
_space_group_symop_operation_xyz
x,y,z
-x,y,-z
-x,-y,-z
x,-y,z
1/2+x,1/2+y,z
1/2-x,1/2+y,-z
1/2-x,1/2-y,-z
1/2+x,1/2-y,z
loop_
_atom_site_type_symbol
_atom_site_label
_atom_site_fract_x
_atom_site_fract_y
_atom_site_fract_z
Si Si1 0.778748 0.179712 0.121707
Si Si2 0.622211 0.825746 0.225784
Si Si3 0.051531 0.679341 0.005469
Si Si4 0.128243 0.320931 0.801744
Si Si5 0.789435 0.821742 0.689826
Si Si6 0.850499 0.327382 0.491949
O O1 0.832052 0.234244 0.114393
O O2 0.757994 0.240004 0.263630
O O3 0.775993 0.000000 0.114140
O O4 0.750000 0.250000 0.000000
O O5 0.579927 0.758163 0.136338
O O6 0.669435 0.727372 0.203676
O O7 0.610592 0.818189 0.386964
O O8 0.632710 0.000000 0.181851
O O9 0.046179 0.500000 0.021902
O O10 0.078854 0.721725 0.868862
O O11 0.000000 0.754649 0.000000
O O12 0.137463 0.500000 0.812928
O O13 0.127594 0.264283 0.646174
O O14 0.804634 0.767251 0.539491
O O15 0.781449 0.000000 0.692965
O O16 0.833524 0.500000 0.470492
#
# Coordination Sequence:
#
# PCOD8089998 Si02
#       6
#     8   8   8   8   8   8
#     4  12  24  37  54  80 112 145 182 220 267 318
#     4   8  15  31  52  76 108 143 177 217 267 319
#     4   9  17  31  55  83 107 135 174 224 279 327
#     4  10  20  35  55  80 111 141 181 229 270 317
#     4  10  19  33  55  79 106 143 185 219 265 318
#     4   8  17  33  52  77 109 147 181 220 268 316
#
# _framework density 19.180164999999999
#
# number of rings (size 3 to 8) (size 9 to 14) (size 15 to 20)
#    1.000    1.500    0.000    3.500    0.000    2.667 
#    0.000    0.833    0.000    7.000    0.000    1.167 
#    0.000    0.000    0.000    0.000    0.000    0.000 
#
# Total GULP energy -297367.857505 kJ/mol
# GULP energy per Si atom -12390.327396 kJ/mol
# Density = 1.913651 g / cm^3
# Si number density = 19.180165 Si / 1000 Ang^3
#
#
#
# Elastic Constant Matrix: (Units=GPa)
#
#
# Indices 1 2 3 4 5 6 
#
# 1 108.6730 32.5372 28.8200 0.0000 -17.6912 0.0000
# 2 32.5372 81.1317 19.5103 0.0000 -9.8693 0.0000
# 3 28.8200 19.5103 81.5740 0.0000 -23.1767 0.0000
# 4 0.0000 0.0000 0.0000 18.2376 0.0000 -0.3908
# 5 -17.6912 -9.8693 -23.1767 0.0000 21.9260 0.0000
# 6 0.0000 0.0000 0.0000 -0.3908 0.0000 16.8571
#
#
#
# Elastic Compliance Matrix: (Units=1/GPa)
#
#
# Indices 1 2 3 4 5 6 
#
# 1 0.011683 -0.003566 -0.001504 0.000000 0.006231 0.000000
# 2 -0.003566 0.014378 -0.001655 0.000000 0.001846 0.000000
# 3 -0.001504 -0.001655 0.018051 0.000000 0.017122 0.000000
# 4 0.000000 0.000000 0.000000 0.054859 0.000000 0.001272
# 5 0.006231 0.001846 0.017122 0.000000 0.069565 0.000000
# 6 0.000000 0.000000 0.000000 0.001272 0.000000 0.059352
#
#
# Mechanical properties :
#
#
# Convention : Reuss Voigt Hill
#
# Bulk Modulus (GPa) = 32.61318 48.12375 40.36847
# Shear Modulus (GPa) = 19.87624 24.10492 21.99058
#
# Velocity S-wave (km/s) = 3.22264 3.54893 3.38971
# Velocity P-wave (km/s) = 5.55767 6.47596 6.03431
#
# Compressibility (1/GPa) = 0.03066245
#
# Stress axis : x y z
#
# Youngs Moduli (GPa) = 85.59578 69.55060 55.39974
#
# Poissons Ratio (x) = 0.24799 0.08334
# Poissons Ratio (y) = 0.30519 0.09167
# Poissons Ratio (z) = 0.12876 0.11508
#
# Static dielectric constant tensor:
#      x y z
#    x 3.486680 0.000000 -0.032300 
#    y 0.000000 3.179770 0.000000 
#    z -0.032300 0.000000 3.748550 
# 
# 
# High freq. dielectric constant tensor:
#      x y z
#    x 1.716960 0.000000 -0.003910 
#    y 0.000000 1.717700 0.000000 
#    z -0.003910 0.000000 1.755840 
# 
# From -- ./inp_files/179338.got.cif
#   From: 2010.06.25/outbox.cif.g09.slc.cpg/sg12_90_cif.got.tgz:179338.got - 2010.06.28 00:19:55.
