data_PCOD8089526
_publ_section_title
;
Structure prediction by ZEFSAII (Michael W. Deem and Ramdas Pophale) SiO2 
 PCOD8089526
Probable space group: C 2/M
;
_chemical_formula_sum "Si O2"
_cell_formula_units_Z 60
_cell_length_a 27.434642
_cell_length_b 9.382128
_cell_length_c 16.568233
_cell_angle_alpha 90.000000
_cell_angle_beta 50.219186
_cell_angle_gamma 90.000000
_cell_volume 3277.324830
_symmetry_space_group_name_H-M "C 2/M"
_symmetry_group_IT_number 12
_symmetry_cell_setting 'monoclinic'
loop_
_space_group_symop_operation_xyz
x,y,z
-x,y,-z
-x,-y,-z
x,-y,z
1/2+x,1/2+y,z
1/2-x,1/2+y,-z
1/2-x,1/2-y,-z
1/2+x,1/2-y,z
loop_
_atom_site_type_symbol
_atom_site_label
_atom_site_fract_x
_atom_site_fract_y
_atom_site_fract_z
Si Si1 0.261591 0.332776 0.274902
Si Si2 0.153524 0.334289 0.130140
Si Si3 0.500000 0.293491 0.500000
Si Si4 0.700773 0.169884 0.610312
Si Si5 0.623188 0.156130 0.421833
Si Si6 0.425073 0.158256 0.346954
Si Si7 0.213803 0.838365 0.930927
Si Si8 0.966898 0.844693 0.708860
O O1 0.259921 0.500000 0.303712
O O2 0.296693 0.236132 0.303311
O O3 0.190668 0.265220 0.340158
O O4 0.297838 0.315147 0.151742
O O5 0.136904 0.500000 0.137694
O O6 0.212729 0.307801 0.126379
O O7 0.094811 0.253076 0.232414
O O8 0.168111 0.269522 0.026476
O O9 0.565509 0.207863 0.428359
O O10 0.497302 0.376249 0.587749
O O11 0.750000 0.250000 0.500000
O O12 0.629147 0.202701 0.658320
O O13 0.714889 0.000000 0.595087
O O14 0.606299 0.157401 0.532782
O O15 0.636303 0.000000 0.373786
O O16 0.482830 0.269769 0.284367
O O17 0.451449 0.000000 0.299017
O O18 0.196914 0.000000 0.974354
O O19 0.950461 0.000000 0.762781
#
# Coordination Sequence:
#
# PCOD8089526 Si02
#       8
#     8   8   4   8   8   8   8   8
#     4  10  19  33  53  79 109 141 178 221 269 319
#     4  10  20  36  58  80 107 144 184 220 263 316
#     4  10  20  32  46  74 109 142 177 212 257 308
#     4  11  21  35  54  78 107 143 181 224 272 320
#     4   9  16  29  48  71 102 141 178 211 251 309
#     4   9  19  35  52  71 101 139 181 215 255 317
#     4   9  19  35  56  82 111 142 179 223 268 316
#     4  11  22  35  52  76 108 141 176 218 268 319
#
# _framework density 18.307614000000001
#
# number of rings (size 3 to 8) (size 9 to 14) (size 15 to 20)
#    0.000    2.133    1.333    2.400    0.000    4.800 
#    0.000    2.000    0.000    0.800    0.000    5.600 
#    0.000    0.000    0.000    0.000    0.000    0.000 
#
# Total GULP energy -371787.538830 kJ/mol
# GULP energy per Si atom -12392.917961 kJ/mol
# Density = 1.826594 g / cm^3
# Si number density = 18.307614 Si / 1000 Ang^3
#
#
#
# Elastic Constant Matrix: (Units=GPa)
#
#
# Indices 1 2 3 4 5 6 
#
# 1 107.7284 51.4677 30.9448 -0.0001 4.2912 0.0001
# 2 51.4677 117.0439 42.0788 -0.0007 -1.4033 0.0007
# 3 30.9448 42.0788 61.7881 -0.0002 0.1308 0.0003
# 4 -0.0001 -0.0007 -0.0002 22.5575 0.0001 -10.6043
# 5 4.2912 -1.4033 0.1308 0.0001 24.6663 -0.0001
# 6 0.0001 0.0007 0.0003 -10.6043 -0.0001 10.3279
#
#
#
# Elastic Compliance Matrix: (Units=1/GPa)
#
#
# Indices 1 2 3 4 5 6 
#
# 1 0.012366 -0.004292 -0.003265 0.000000 -0.002378 0.000000
# 2 -0.004292 0.012815 -0.006581 0.000000 0.001511 -0.000001
# 3 -0.003265 -0.006581 0.022301 0.000000 0.000075 -0.000001
# 4 0.000000 0.000000 0.000000 0.085694 0.000000 0.087987
# 5 -0.002378 0.001511 0.000075 0.000000 0.041040 0.000000
# 6 0.000000 -0.000001 -0.000001 0.087987 0.000000 0.187167
#
#
# Mechanical properties :
#
#
# Convention : Reuss Voigt Hill
#
# Bulk Modulus (GPa) = 52.06748 59.50477 55.78612
# Shear Modulus (GPa) = 12.62428 22.31494 17.46961
#
# Velocity S-wave (km/s) = 2.62880 3.49505 3.09241
# Velocity P-wave (km/s) = 6.14135 6.99002 6.57939
#
# Compressibility (1/GPa) = 0.01920585
#
# Stress axis : x y z
#
# Youngs Moduli (GPa) = 80.86771 78.03141 44.84092
#
# Poissons Ratio (x) = 0.33494 0.14640
# Poissons Ratio (y) = 0.34712 0.29510
# Poissons Ratio (z) = 0.26402 0.51352
#
# Static dielectric constant tensor:
#      x y z
#    x 3.423910 0.000000 0.002450 
#    y 0.000000 3.413860 0.000000 
#    z 0.002450 0.000000 3.138110 
# 
# 
# High freq. dielectric constant tensor:
#      x y z
#    x 1.703310 0.000000 -0.000930 
#    y 0.000000 1.707380 0.000000 
#    z -0.000930 0.000000 1.691060 
# 
# From -- ./inp_files/292209.got.cif
#   From: 2010.06.25/outbox.cif.g09.slc.cpg/sg12_147_cif.got.tgz:292209.got - 2010.06.28 00:19:55.
