data_PCOD8089189
_publ_section_title
;
Structure prediction by ZEFSAII (Michael W. Deem and Ramdas Pophale) SiO2 
 PCOD8089189
Probable space group: C 2/M
;
_chemical_formula_sum "Si O2"
_cell_formula_units_Z 64
_cell_length_a 30.705913
_cell_length_b 9.019654
_cell_length_c 14.152193
_cell_angle_alpha 90.000000
_cell_angle_beta 91.396423
_cell_angle_gamma 90.000000
_cell_volume 3918.380774
_symmetry_space_group_name_H-M "C 2/M"
_symmetry_group_IT_number 12
_symmetry_cell_setting 'monoclinic'
loop_
_space_group_symop_operation_xyz
x,y,z
-x,y,-z
-x,-y,-z
x,-y,z
1/2+x,1/2+y,z
1/2-x,1/2+y,-z
1/2-x,1/2-y,-z
1/2+x,1/2-y,z
loop_
_atom_site_type_symbol
_atom_site_label
_atom_site_fract_x
_atom_site_fract_y
_atom_site_fract_z
Si Si1 0.910890 0.670254 0.910037
Si Si2 0.325570 0.171677 0.786179
Si Si3 0.494561 0.662946 0.888324
Si Si4 0.301257 0.328187 0.602750
Si Si5 0.799516 0.330365 0.413865
Si Si6 0.249384 0.824633 0.100992
Si Si7 0.663751 0.828383 0.784832
Si Si8 0.410118 0.324590 0.107591
O O1 0.917177 0.500000 0.937819
O O2 0.872809 0.694348 0.833297
O O3 0.955150 0.726882 0.861739
O O4 0.899044 0.755799 0.005196
O O5 0.328068 0.232753 0.679867
O O6 0.291312 0.266633 0.842814
O O7 0.311555 0.000000 0.786009
O O8 0.483674 0.500000 0.845952
O O9 0.541420 0.720928 0.852887
O O10 0.500000 0.650678 0.000000
O O11 0.313120 0.500000 0.615160
O O12 0.250249 0.297784 0.617545
O O13 0.315057 0.275652 0.499020
O O14 0.803900 0.500000 0.447710
O O15 0.829634 0.296997 0.325596
O O16 0.293421 0.779380 0.156465
O O17 0.245074 0.000000 0.089845
O O18 0.250000 0.750000 0.000000
O O19 0.623388 0.730869 0.815954
O O20 0.653490 0.000000 0.803555
O O21 0.406770 0.500000 0.095649
#
# Coordination Sequence:
#
# PCOD8089189 Si02
#       8
#     8   8   8   8   8   8   8   8
#     4  10  20  32  48  71  97 128 166 201 238 286
#     4  11  22  34  48  70  98 130 164 201 241 285
#     4   8  16  31  48  68  95 124 157 200 244 284
#     4  10  19  33  52  73  94 123 161 203 245 289
#     4   9  18  34  51  70  95 124 158 203 247 284
#     4  11  22  35  47  66  96 132 170 201 233 281
#     4  10  20  34  49  68  97 129 163 199 237 283
#     4  10  20  32  48  72  99 128 163 200 241 287
#
# _framework density 16.333276999999999
#
# number of rings (size 3 to 8) (size 9 to 14) (size 15 to 20)
#    0.000    2.125    1.250    3.375    0.000    9.750 
#    0.000    0.000    0.000    0.000    0.000    0.875 
#    0.000    7.000    0.000    0.000    0.000    0.000 
#
# Total GULP energy -396828.021438 kJ/mol
# GULP energy per Si atom -12400.875670 kJ/mol
# Density = 1.629610 g / cm^3
# Si number density = 16.333277 Si / 1000 Ang^3
#
#
#
# Elastic Constant Matrix: (Units=GPa)
#
#
# Indices 1 2 3 4 5 6 
#
# 1 105.8427 56.0603 42.4776 0.0000 -2.4645 0.0000
# 2 56.0603 83.7986 42.3443 0.0000 -2.3879 0.0000
# 3 42.4776 42.3443 79.2093 0.0000 -3.8822 0.0000
# 4 0.0000 0.0000 0.0000 28.7619 0.0000 -2.0697
# 5 -2.4645 -2.3879 -3.8822 0.0000 7.0489 0.0000
# 6 0.0000 0.0000 0.0000 -2.0697 0.0000 28.6479
#
#
#
# Elastic Compliance Matrix: (Units=1/GPa)
#
#
# Indices 1 2 3 4 5 6 
#
# 1 0.015416 -0.008404 -0.003751 0.000000 0.000477 0.000000
# 2 -0.008404 0.020935 -0.006661 0.000000 0.000485 0.000000
# 3 -0.003751 -0.006661 0.018522 0.000000 0.006633 0.000000
# 4 0.000000 0.000000 0.000000 0.034950 0.000000 0.002525
# 5 0.000477 0.000485 0.006633 0.000000 0.145851 0.000000
# 6 0.000000 0.000000 0.000000 0.002525 0.000000 0.035089
#
#
# Mechanical properties :
#
#
# Convention : Reuss Voigt Hill
#
# Bulk Modulus (GPa) = 58.00054 61.17945 59.58999
# Shear Modulus (GPa) = 15.91633 21.42295 18.66964
#
# Velocity S-wave (km/s) = 3.12504 3.62555 3.38456
# Velocity P-wave (km/s) = 6.97201 7.42054 7.19977
#
# Compressibility (1/GPa) = 0.01724122
#
# Stress axis : x y z
#
# Youngs Moduli (GPa) = 64.86932 47.76626 53.98863
#
# Poissons Ratio (x) = 0.40142 0.20251
# Poissons Ratio (y) = 0.54515 0.35963
# Poissons Ratio (z) = 0.24332 0.31818
#
# Static dielectric constant tensor:
#      x y z
#    x 3.248880 0.000000 -0.061660 
#    y 0.000000 3.272540 0.000000 
#    z -0.061660 0.000000 2.807100 
# 
# 
# High freq. dielectric constant tensor:
#      x y z
#    x 1.617600 0.000000 -0.002840 
#    y 0.000000 1.641680 0.000000 
#    z -0.002840 0.000000 1.608120 
# 
# From -- ./inp_files/244074.got.cif
#   From: 2010.06.25/outbox.cif.g09.slc.cpg/sg12_123_cif.got.tgz:244074.got - 2010.06.28 00:19:55.
