data_PCOD8089603
_publ_section_title
;
Structure prediction by ZEFSAII (Michael W. Deem and Ramdas Pophale) SiO2 
 PCOD8089603
Probable space group: C 2/M
;
_chemical_formula_sum "Si O2"
_cell_formula_units_Z 40
_cell_length_a 16.066720
_cell_length_b 10.407348
_cell_length_c 11.455676
_cell_angle_alpha 90.000000
_cell_angle_beta 103.631420
_cell_angle_gamma 90.000000
_cell_volume 1861.569168
_symmetry_space_group_name_H-M "C 2/M"
_symmetry_group_IT_number 12
_symmetry_cell_setting 'monoclinic'
loop_
_space_group_symop_operation_xyz
x,y,z
-x,y,-z
-x,-y,-z
x,-y,z
1/2+x,1/2+y,z
1/2-x,1/2+y,-z
1/2-x,1/2-y,-z
1/2+x,1/2-y,z
loop_
_atom_site_type_symbol
_atom_site_label
_atom_site_fract_x
_atom_site_fract_y
_atom_site_fract_z
Si Si1 0.058379 0.736845 0.745782
Si Si2 0.714230 0.000000 0.423445
Si Si3 0.154668 0.000000 0.353168
Si Si4 0.031544 0.000000 0.641682
Si Si5 0.359200 0.232342 0.741408
Si Si6 0.598301 0.856890 0.000085
Si Si7 0.411777 0.000000 0.404094
O O1 0.106557 0.728884 0.886244
O O2 0.095287 0.625686 0.677162
O O3 0.083886 0.871844 0.693269
O O4 0.956074 0.720023 0.725662
O O5 0.813451 0.000000 0.500281
O O6 0.696320 0.874655 0.342064
O O7 0.664867 0.000000 0.529906
O O8 0.052831 0.000000 0.307079
O O9 0.184866 0.869815 0.298508
O O10 0.000000 0.000000 0.500000
O O11 0.352047 0.211735 0.877878
O O12 0.635807 0.000000 0.991502
O O13 0.500000 0.870394 0.000000
O O14 0.500000 0.000000 0.500000
#
# Coordination Sequence:
#
# PCOD8089603 Si02
#       7
#     8   4   4   4   8   8   4
#     4  10  19  33  53  85 108 136 175 226 272 317
#     4  12  22  35  55  79 110 148 182 219 262 317
#     4  10  24  37  51  81 111 146 181 212 269 326
#     4  10  22  37  55  79 118 142 171 216 276 328
#     4  10  19  35  55  78 109 141 180 225 266 313
#     4   9  16  29  53  81 107 132 176 228 270 309
#     4  12  20  31  55  80 111 138 180 224 265 309
#
# _framework density 21.48725
#
# number of rings (size 3 to 8) (size 9 to 14) (size 15 to 20)
#    0.000    1.800    4.000    1.200    2.800    0.800 
#    0.000    4.000    0.000    1.200    5.200    0.000 
#    0.000    0.000    0.000    0.000    0.000    0.000 
#
# Total GULP energy -247972.553921 kJ/mol
# GULP energy per Si atom -12398.627696 kJ/mol
# Density = 2.143834 g / cm^3
# Si number density = 21.487250 Si / 1000 Ang^3
#
#
#
# Elastic Constant Matrix: (Units=GPa)
#
#
# Indices 1 2 3 4 5 6 
#
# 1 14.2941 3.8900 1.1896 0.0000 2.6536 0.0000
# 2 3.8900 227.7138 108.2311 0.0000 2.6940 0.0000
# 3 1.1896 108.2311 191.1941 0.0000 3.0262 0.0000
# 4 0.0000 0.0000 0.0000 44.8486 0.0000 -0.1173
# 5 2.6536 2.6940 3.0262 0.0000 25.8922 0.0000
# 6 0.0000 0.0000 0.0000 -0.1173 0.0000 -2.1218
#
#
#
# Elastic Compliance Matrix: (Units=1/GPa)
#
#
# Indices 1 2 3 4 5 6 
#
# 1 0.071635 -0.001342 0.000429 0.000000 -0.007252 0.000000
# 2 -0.001342 0.006034 -0.003406 0.000000 -0.000092 0.000000
# 3 0.000429 -0.003406 0.007164 0.000000 -0.000527 0.000000
# 4 0.000000 0.000000 0.000000 0.022294 0.000000 -0.001233
# 5 -0.007252 -0.000092 -0.000527 0.000000 0.039436 0.000000
# 6 0.000000 0.000000 0.000000 -0.001233 0.000000 -0.471238
#
#
# Mechanical properties :
#
#
# Convention : Reuss Voigt Hill
#
# Bulk Modulus (GPa) = 13.12424 73.31372 43.21898
# Shear Modulus (GPa) = -17.20354 35.04988 8.92317
#
# Velocity S-wave (km/s) = -2.83263 4.04319 2.04005
# Velocity P-wave (km/s) = 2.13944 7.48266 5.07016
#
# Compressibility (1/GPa) = 0.07619491
#
# Stress axis : x y z
#
# Youngs Moduli (GPa) = 13.95968 165.71622 139.58462
#
# Poissons Ratio (x) = 0.22232 -0.05981
# Poissons Ratio (y) = 0.01873 0.47545
# Poissons Ratio (z) = -0.00598 0.56445
#
# Static dielectric constant tensor:
#      x y z
#    x 4.635300 0.000000 0.232320 
#    y 0.000000 4.153340 0.000000 
#    z 0.232320 0.000000 4.191700 
# 
# 
# High freq. dielectric constant tensor:
#      x y z
#    x 1.796000 0.000000 0.002650 
#    y 0.000000 1.855380 0.000000 
#    z 0.002650 0.000000 1.855850 
# 
# From -- ./inp_files/162798.got.cif
#   From: 2010.06.25/outbox.cif.g09.slc.cpg/sg12_82_cif.got.tgz:162798.got - 2010.06.28 00:19:55.
