data_PCOD8089713
_publ_section_title
;
Structure prediction by ZEFSAII (Michael W. Deem and Ramdas Pophale) SiO2 
 PCOD8089713
Probable space group: C 2/M
;
_chemical_formula_sum "Si O2"
_cell_formula_units_Z 56
_cell_length_a 29.725304
_cell_length_b 9.250077
_cell_length_c 16.648850
_cell_angle_alpha 90.000000
_cell_angle_beta 46.180972
_cell_angle_gamma 90.000000
_cell_volume 3303.014521
_symmetry_space_group_name_H-M "C 2/M"
_symmetry_group_IT_number 12
_symmetry_cell_setting 'monoclinic'
loop_
_space_group_symop_operation_xyz
x,y,z
-x,y,-z
-x,-y,-z
x,-y,z
1/2+x,1/2+y,z
1/2-x,1/2+y,-z
1/2-x,1/2-y,-z
1/2+x,1/2-y,z
loop_
_atom_site_type_symbol
_atom_site_label
_atom_site_fract_x
_atom_site_fract_y
_atom_site_fract_z
Si Si1 0.054219 0.670409 0.096513
Si Si2 0.250740 0.166429 0.285526
Si Si3 0.570593 0.333677 0.757275
Si Si4 0.716800 0.667612 0.152993
Si Si5 0.121855 0.167383 0.869807
Si Si6 0.841364 0.667026 0.908866
Si Si7 0.803509 0.834046 0.479063
O O1 0.052010 0.500000 0.081857
O O2 0.094637 0.705518 0.125600
O O3 0.985956 0.731352 0.198082
O O4 0.083870 0.747620 0.983498
O O5 0.214001 0.210658 0.250125
O O6 0.309790 0.267691 0.226475
O O7 0.202538 0.187541 0.417936
O O8 0.274009 0.000000 0.250258
O O9 0.554099 0.500000 0.757807
O O10 0.584168 0.315188 0.834310
O O11 0.629061 0.278323 0.632404
O O12 0.704482 0.500000 0.155054
O O13 0.662767 0.749540 0.170699
O O14 0.784894 0.714497 0.036948
O O15 0.127812 0.000000 0.887307
O O16 0.836945 0.500000 0.893301
O O17 0.750000 0.750000 0.500000
O O18 0.796106 0.000000 0.462478
#
# Coordination Sequence:
#
# PCOD8089713 Si02
#       7
#     8   8   8   8   8   8   8
#     4  11  22  36  53  75 104 139 176 212 255 311
#     4  10  19  33  54  78 106 137 171 212 255 303
#     4  10  22  37  50  74 107 139 176 214 252 301
#     4   9  17  31  50  75 103 130 165 209 256 306
#     4  11  21  33  51  76 108 140 170 210 257 305
#     4   9  18  32  49  73 103 130 165 211 255 306
#     4  10  20  35  55  76 104 138 174 216 255 296
#
# _framework density 16.95421
#
# number of rings (size 3 to 8) (size 9 to 14) (size 15 to 20)
#    0.000    2.000    2.857    1.286    0.000    5.143 
#    0.000    0.000    0.000    0.857    0.000    6.000 
#    0.000    0.000    0.000    0.000    0.000    0.000 
#
# Total GULP energy -347260.851394 kJ/mol
# GULP energy per Si atom -12402.173264 kJ/mol
# Density = 1.691562 g / cm^3
# Si number density = 16.954210 Si / 1000 Ang^3
#
#
#
# Elastic Constant Matrix: (Units=GPa)
#
#
# Indices 1 2 3 4 5 6 
#
# 1 115.9536 62.0254 49.2491 -0.0004 2.1955 0.0006
# 2 62.0254 77.7202 40.0040 0.0032 -3.9044 -0.0021
# 3 49.2491 40.0040 74.6608 0.0004 -4.7278 -0.0004
# 4 -0.0004 0.0032 0.0004 23.1378 -0.0005 -2.2893
# 5 2.1955 -3.9044 -4.7278 -0.0005 28.7157 0.0004
# 6 0.0006 -0.0021 -0.0004 -2.2893 0.0004 32.8930
#
#
#
# Elastic Compliance Matrix: (Units=1/GPa)
#
#
# Indices 1 2 3 4 5 6 
#
# 1 0.016791 -0.010720 -0.005563 0.000002 -0.003657 -0.000001
# 2 -0.010720 0.024632 -0.005924 -0.000003 0.003193 0.000001
# 3 -0.005563 -0.005924 0.020427 0.000000 0.002983 0.000000
# 4 0.000002 -0.000003 0.000000 0.043519 0.000000 0.003029
# 5 -0.003657 0.003193 0.002983 0.000000 0.036029 0.000000
# 6 -0.000001 0.000001 0.000000 0.003029 0.000000 0.030612
#
#
# Mechanical properties :
#
#
# Convention : Reuss Voigt Hill
#
# Bulk Modulus (GPa) = 57.36032 63.43240 60.39636
# Shear Modulus (GPa) = 22.49850 24.75302 23.62576
#
# Velocity S-wave (km/s) = 3.64677 3.82513 3.73702
# Velocity P-wave (km/s) = 7.18595 7.55010 7.37027
#
# Compressibility (1/GPa) = 0.01743366
#
# Stress axis : x y z
#
# Youngs Moduli (GPa) = 59.55679 40.59798 48.95490
#
# Poissons Ratio (x) = 0.43521 0.27236
# Poissons Ratio (y) = 0.63846 0.29003
# Poissons Ratio (z) = 0.33134 0.24052
#
# Static dielectric constant tensor:
#      x y z
#    x 3.209250 0.000000 0.096290 
#    y 0.000000 3.263070 0.000000 
#    z 0.096290 0.000000 3.217710 
# 
# 
# High freq. dielectric constant tensor:
#      x y z
#    x 1.649280 0.000000 0.010210 
#    y 0.000000 1.658420 0.000000 
#    z 0.010210 0.000000 1.640910 
# 
# From -- ./inp_files/248869.got.cif
#   From: 2010.06.25/outbox.cif.g09.slc.cpg/sg12_125_cif.got.tgz:248869.got - 2010.06.28 00:19:55.
