data_PCOD8089521
_publ_section_title
;
Structure prediction by ZEFSAII (Michael W. Deem and Ramdas Pophale) SiO2 
 PCOD8089521
Probable space group: C 2/M
;
_chemical_formula_sum "Si O2"
_cell_formula_units_Z 64
_cell_length_a 19.728858
_cell_length_b 9.015068
_cell_length_c 31.387994
_cell_angle_alpha 90.000000
_cell_angle_beta 36.547291
_cell_angle_gamma 90.000000
_cell_volume 3324.345277
_symmetry_space_group_name_H-M "C 2/M"
_symmetry_group_IT_number 12
_symmetry_cell_setting 'monoclinic'
loop_
_space_group_symop_operation_xyz
x,y,z
-x,y,-z
-x,-y,-z
x,-y,z
1/2+x,1/2+y,z
1/2-x,1/2+y,-z
1/2-x,1/2-y,-z
1/2+x,1/2-y,z
loop_
_atom_site_type_symbol
_atom_site_label
_atom_site_fract_x
_atom_site_fract_y
_atom_site_fract_z
Si Si1 0.710104 0.676063 0.725029
Si Si2 0.470828 0.673179 0.733990
Si Si3 0.984978 0.675214 0.872975
Si Si4 0.344606 0.175349 0.480768
Si Si5 0.428432 0.825226 0.996278
Si Si6 0.279508 0.674800 0.374715
Si Si7 0.918457 0.324610 0.676481
Si Si8 0.174228 0.173979 0.109954
O O1 0.691157 0.500000 0.736335
O O2 0.593519 0.753030 0.796230
O O3 0.748007 0.730740 0.658854
O O4 0.809317 0.731004 0.705814
O O5 0.466893 0.500000 0.725407
O O6 0.598895 0.737977 0.671008
O O7 0.405113 0.757663 0.729930
O O8 0.411109 0.708567 0.808573
O O9 0.986244 0.500000 0.865594
O O10 0.987831 0.716793 0.921597
O O11 0.870673 0.739892 0.909057
O O12 0.250000 0.250000 0.500000
O O13 0.320484 0.221741 0.542168
O O14 0.468581 0.234139 0.404707
O O15 0.334749 0.000000 0.479870
O O16 0.423745 0.000000 0.005115
O O17 0.500000 0.755463 0.000000
O O18 0.298706 0.765386 0.060589
O O19 0.293182 0.500000 0.366376
O O20 0.921566 0.500000 0.678001
O O21 0.179073 0.000000 0.096405
#
# Coordination Sequence:
#
# PCOD8089521 Si02
#       8
#     8   8   8   8   8   8   8   8
#     4  10  21  39  57  78 112 148 183 223 275 332
#     4  10  19  33  57  83 105 143 190 224 262 327
#     4  11  22  36  59  86 111 142 183 232 273 317
#     4  10  19  33  53  79 107 140 182 226 273 321
#     4   9  20  37  57  84 114 145 184 224 266 323
#     4   9  17  33  56  78 102 140 188 223 258 323
#     4  10  22  35  53  82 113 143 177 231 285 319
#     4  10  20  37  61  82 109 151 187 221 268 324
#
# _framework density 19.251911
#
# number of rings (size 3 to 8) (size 9 to 14) (size 15 to 20)
#    0.000    2.125    2.500    0.750    1.750    1.500 
#    0.000    3.750    0.000    1.875    0.000    2.625 
#    0.000    0.000    0.000    0.000    0.000    0.000 
#
# Total GULP energy -396769.301651 kJ/mol
# GULP energy per Si atom -12399.040677 kJ/mol
# Density = 1.920809 g / cm^3
# Si number density = 19.251911 Si / 1000 Ang^3
#
#
#
# Elastic Constant Matrix: (Units=GPa)
#
#
# Indices 1 2 3 4 5 6 
#
# 1 157.5256 30.3849 34.2212 -0.0032 4.1299 0.0159
# 2 30.3849 25.5650 19.5468 0.0001 1.6425 0.0134
# 3 34.2212 19.5468 68.4967 -0.0015 -0.4176 -0.0053
# 4 -0.0032 0.0001 -0.0015 14.7895 -0.0015 1.0443
# 5 4.1299 1.6425 -0.4176 -0.0015 33.0144 0.0011
# 6 0.0159 0.0134 -0.0053 1.0443 0.0011 28.4118
#
#
#
# Elastic Compliance Matrix: (Units=1/GPa)
#
#
# Indices 1 2 3 4 5 6 
#
# 1 0.008406 -0.008615 -0.001745 0.000002 -0.000645 -0.000001
# 2 -0.008615 0.059098 -0.012573 -0.000002 -0.002022 -0.000025
# 3 -0.001745 -0.012573 0.019066 0.000001 0.001085 0.000010
# 4 0.000002 -0.000002 0.000001 0.067791 0.000003 -0.002492
# 5 -0.000645 -0.002022 0.001085 0.000003 0.030485 0.000000
# 6 -0.000001 -0.000025 0.000010 -0.002492 0.000000 0.035288
#
#
# Mechanical properties :
#
#
# Convention : Reuss Voigt Hill
#
# Bulk Modulus (GPa) = 24.56785 46.65478 35.61132
# Shear Modulus (GPa) = 17.88470 26.40544 22.14507
#
# Velocity S-wave (km/s) = 3.05123 3.70750 3.39526
# Velocity P-wave (km/s) = 5.02019 6.52793 5.82306
#
# Compressibility (1/GPa) = 0.04070361
#
# Stress axis : x y z
#
# Youngs Moduli (GPa) = 118.96373 16.92093 52.45021
#
# Poissons Ratio (x) = 0.14577 0.09153
# Poissons Ratio (y) = 1.02487 0.65946
# Poissons Ratio (z) = 0.20760 0.21275
#
# Static dielectric constant tensor:
#      x y z
#    x 3.801180 -0.000020 0.069820 
#    y -0.000020 3.177160 0.000000 
#    z 0.069820 0.000000 3.809890 
# 
# 
# High freq. dielectric constant tensor:
#      x y z
#    x 1.758890 0.000000 0.005350 
#    y 0.000000 1.711680 0.000000 
#    z 0.005350 0.000000 1.761210 
# 
# From -- ./inp_files/378069.got.cif
#   From: 2010.06.25/outbox.cif.g09.slc.cpg/sg12_190_cif.got.tgz:378069.got - 2010.06.28 00:19:55.
