data_PCOD8089242
_publ_section_title
;
Structure prediction by ZEFSAII (Michael W. Deem and Ramdas Pophale) SiO2 
 PCOD8089242
Probable space group: C 2/M
;
_chemical_formula_sum "Si O2"
_cell_formula_units_Z 56
_cell_length_a 20.539608
_cell_length_b 8.865630
_cell_length_c 23.039878
_cell_angle_alpha 90.000000
_cell_angle_beta 46.512102
_cell_angle_gamma 90.000000
_cell_volume 3043.905511
_symmetry_space_group_name_H-M "C 2/M"
_symmetry_group_IT_number 12
_symmetry_cell_setting 'monoclinic'
loop_
_space_group_symop_operation_xyz
x,y,z
-x,y,-z
-x,-y,-z
x,-y,z
1/2+x,1/2+y,z
1/2-x,1/2+y,-z
1/2-x,1/2-y,-z
1/2+x,1/2-y,z
loop_
_atom_site_type_symbol
_atom_site_label
_atom_site_fract_x
_atom_site_fract_y
_atom_site_fract_z
Si Si1 0.303176 0.675072 0.087794
Si Si2 0.059053 0.821088 0.092911
Si Si3 0.614004 0.678368 0.185911
Si Si4 0.545564 0.821402 0.337221
Si Si5 0.809563 0.176686 0.668803
Si Si6 0.913832 0.666744 0.512237
Si Si7 0.637431 0.324882 0.819089
O O1 0.278859 0.500000 0.092618
O O2 0.213678 0.772282 0.140879
O O3 0.351322 0.699786 0.119434
O O4 0.369559 0.739307 0.997763
O O5 0.087885 0.761220 0.138357
O O6 0.960170 0.761572 0.138233
O O7 0.058826 0.000000 0.090302
O O8 0.606477 0.500000 0.194262
O O9 0.543769 0.750092 0.274429
O O10 0.631164 0.760097 0.319542
O O11 0.451258 0.778053 0.426576
O O12 0.557422 0.000000 0.326319
O O13 0.841219 0.219397 0.583948
O O14 0.707452 0.227591 0.739085
O O15 0.819694 0.000000 0.671728
O O16 0.870293 0.500000 0.534080
O O17 0.000000 0.658050 0.500000
O O18 0.649291 0.500000 0.795147
#
# Coordination Sequence:
#
# PCOD8089242 Si02
#       7
#     8   8   8   8   8   8   8
#     4  10  19  34  57  78 100 136 183 222 258 310
#     4   9  20  36  53  77 104 140 182 218 259 308
#     4  11  21  33  52  78 111 139 170 219 268 311
#     4  10  19  33  52  75 103 138 178 213 252 308
#     4  11  20  30  49  79 111 135 165 212 266 312
#     4   8  16  30  49  73 102 134 171 212 253 304
#     4  10  19  34  56  76 103 141 182 218 252 307
#
# _framework density 18.397417999999998
#
# number of rings (size 3 to 8) (size 9 to 14) (size 15 to 20)
#    0.000    2.143    1.429    3.857    0.000    4.857 
#    0.000    2.857    0.000    2.571    0.000    0.000 
#    0.000    0.000    0.000    0.000    0.000    0.000 
#
# Total GULP energy -347199.913307 kJ/mol
# GULP energy per Si atom -12399.996904 kJ/mol
# Density = 1.835554 g / cm^3
# Si number density = 18.397418 Si / 1000 Ang^3
#
#
#
# Elastic Constant Matrix: (Units=GPa)
#
#
# Indices 1 2 3 4 5 6 
#
# 1 65.3476 22.5411 34.4862 -0.0002 9.4595 0.0002
# 2 22.5411 71.2675 44.9092 -0.0003 6.6603 0.0005
# 3 34.4862 44.9092 150.0207 -0.0001 21.4000 0.0001
# 4 -0.0002 -0.0003 -0.0001 17.9046 0.0000 6.4908
# 5 9.4595 6.6603 21.4000 0.0000 14.1304 0.0000
# 6 0.0002 0.0005 0.0001 6.4908 0.0000 15.2683
#
#
#
# Elastic Compliance Matrix: (Units=1/GPa)
#
#
# Indices 1 2 3 4 5 6 
#
# 1 0.018860 -0.003951 -0.002063 0.000000 -0.007639 0.000000
# 2 -0.003951 0.018124 -0.004689 0.000000 0.001204 -0.000001
# 3 -0.002063 -0.004689 0.010244 0.000000 -0.011924 0.000000
# 4 0.000000 0.000000 0.000000 0.066027 0.000000 -0.028069
# 5 -0.007639 0.001204 -0.011924 0.000000 0.093375 0.000001
# 6 0.000000 -0.000001 0.000000 -0.028069 0.000001 0.077428
#
#
# Mechanical properties :
#
#
# Convention : Reuss Voigt Hill
#
# Bulk Modulus (GPa) = 38.72647 54.50097 46.61372
# Shear Modulus (GPa) = 15.91995 21.77395 18.84695
#
# Velocity S-wave (km/s) = 2.94485 3.44398 3.20415
# Velocity P-wave (km/s) = 5.71476 6.74561 6.25147
#
# Compressibility (1/GPa) = 0.02582213
#
# Stress axis : x y z
#
# Youngs Moduli (GPa) = 53.02148 55.17698 97.61386
#
# Poissons Ratio (x) = 0.21803 0.20137
# Poissons Ratio (y) = 0.20951 0.45768
# Poissons Ratio (z) = 0.10938 0.25871
#
# Static dielectric constant tensor:
#      x y z
#    x 3.175480 0.000000 0.198330 
#    y 0.000000 3.215120 0.000000 
#    z 0.198330 0.000000 3.929940 
# 
# 
# High freq. dielectric constant tensor:
#      x y z
#    x 1.676590 0.000000 0.009650 
#    y 0.000000 1.698320 0.000000 
#    z 0.009650 0.000000 1.735590 
# 
# From -- ./inp_files/280443.got.cif
#   From: 2010.06.25/outbox.cif.g09.slc.cpg/sg12_141_cif.got.tgz:280443.got - 2010.06.28 00:19:55.
