data_PCOD8089113
_publ_section_title
;
Structure prediction by ZEFSAII (Michael W. Deem and Ramdas Pophale) SiO2 
 PCOD8089113
Probable space group: C 2/M
;
_chemical_formula_sum "Si O2"
_cell_formula_units_Z 48
_cell_length_a 27.263995
_cell_length_b 8.600348
_cell_length_c 11.788631
_cell_angle_alpha 90.000000
_cell_angle_beta 107.020022
_cell_angle_gamma 90.000000
_cell_volume 2643.131556
_symmetry_space_group_name_H-M "C 2/M"
_symmetry_group_IT_number 12
_symmetry_cell_setting 'monoclinic'
loop_
_space_group_symop_operation_xyz
x,y,z
-x,y,-z
-x,-y,-z
x,-y,z
1/2+x,1/2+y,z
1/2-x,1/2+y,-z
1/2-x,1/2-y,-z
1/2+x,1/2-y,z
loop_
_atom_site_type_symbol
_atom_site_label
_atom_site_fract_x
_atom_site_fract_y
_atom_site_fract_z
Si Si1 0.960550 0.176204 0.637869
Si Si2 0.387051 0.180905 0.760655
Si Si3 0.943381 0.182395 0.003543
Si Si4 0.806586 0.815274 0.542374
Si Si5 0.935280 0.680496 0.241403
Si Si6 0.880767 0.176223 0.395272
O O1 0.934001 0.293826 0.706925
O O2 0.934782 0.188580 0.497897
O O3 0.019569 0.221143 0.669675
O O4 0.954769 0.000000 0.681468
O O5 0.399715 0.272037 0.884429
O O6 0.334604 0.246649 0.671899
O O7 0.380557 0.000000 0.783071
O O8 0.942644 0.000000 0.027017
O O9 0.927708 0.271269 0.106848
O O10 0.000000 0.235343 0.000000
O O11 0.750000 0.750000 0.500000
O O12 0.835703 0.761192 0.447273
O O13 0.807317 0.000000 0.552562
O O14 0.947560 0.500000 0.257178
O O15 0.884930 0.721062 0.283468
O O16 0.868948 0.000000 0.351126
#
# Coordination Sequence:
#
# PCOD8089113 Si02
#       6
#     8   8   8   8   8   8
#     4  10  19  33  51  73 106 148 186 221 267 323
#     4  11  21  34  55  83 113 142 183 232 274 321
#     4  11  22  36  55  75 107 154 193 224 266 324
#     4  10  21  39  63  87 111 141 180 227 280 329
#     4  12  23  32  49  77 110 146 184 227 270 319
#     4   9  20  36  53  75 107 144 181 221 270 329
#
# _framework density 18.160276
#
# number of rings (size 3 to 8) (size 9 to 14) (size 15 to 20)
#    0.000    1.500    1.667    6.000    0.000    6.667 
#    0.000    0.000    0.000    1.000    0.000    0.000 
#    0.000    0.000    0.000    0.000    0.000    0.000 
#
# Total GULP energy -297626.437365 kJ/mol
# GULP energy per Si atom -12401.101557 kJ/mol
# Density = 1.811894 g / cm^3
# Si number density = 18.160276 Si / 1000 Ang^3
#
#
#
# Elastic Constant Matrix: (Units=GPa)
#
#
# Indices 1 2 3 4 5 6 
#
# 1 87.7726 18.8221 57.8593 0.0000 5.1757 0.0000
# 2 18.8221 66.1828 29.3152 0.0000 0.2389 0.0000
# 3 57.8593 29.3152 99.3525 0.0000 -7.5843 0.0000
# 4 0.0000 0.0000 0.0000 25.4875 0.0000 4.2225
# 5 5.1757 0.2389 -7.5843 0.0000 23.0487 0.0000
# 6 0.0000 0.0000 0.0000 4.2225 0.0000 23.3514
#
#
#
# Elastic Compliance Matrix: (Units=1/GPa)
#
#
# Indices 1 2 3 4 5 6 
#
# 1 0.020010 -0.000242 -0.012232 0.000000 -0.008516 0.000000
# 2 -0.000242 0.017467 -0.005152 0.000000 -0.001822 0.000000
# 3 -0.012232 -0.005152 0.019410 0.000000 0.009187 0.000000
# 4 0.000000 0.000000 0.000000 0.040447 0.000000 -0.007314
# 5 -0.008516 -0.001822 0.009187 0.000000 0.048341 0.000000
# 6 0.000000 0.000000 0.000000 -0.007314 0.000000 0.044146
#
#
# Mechanical properties :
#
#
# Convention : Reuss Voigt Hill
#
# Bulk Modulus (GPa) = 46.22025 51.70012 48.96018
# Shear Modulus (GPa) = 21.52523 24.19826 22.86175
#
# Velocity S-wave (km/s) = 3.44654 3.65428 3.55193
# Velocity P-wave (km/s) = 6.42999 6.80703 6.62119
#
# Compressibility (1/GPa) = 0.02163554
#
# Stress axis : x y z
#
# Youngs Moduli (GPa) = 49.97393 57.25035 51.51942
#
# Poissons Ratio (x) = 0.01386 0.63019
# Poissons Ratio (y) = 0.01210 0.26543
# Poissons Ratio (z) = 0.61128 0.29496
#
# Static dielectric constant tensor:
#      x y z
#    x 3.085610 0.000000 -0.066430 
#    y 0.000000 3.346030 0.000000 
#    z -0.066430 0.000000 3.342290 
# 
# 
# High freq. dielectric constant tensor:
#      x y z
#    x 1.674600 0.000000 -0.013290 
#    y 0.000000 1.713220 0.000000 
#    z -0.013290 0.000000 1.700700 
# 
# From -- ./inp_files/185957.got.cif
#   From: 2010.06.25/outbox.cif.g09.slc.cpg/sg12_93_cif.got.tgz:185957.got - 2010.06.28 00:19:55.
