data_PCOD8089743
_publ_section_title
;
Structure prediction by ZEFSAII (Michael W. Deem and Ramdas Pophale) SiO2 
 PCOD8089743
Probable space group: C 2/M
;
_chemical_formula_sum "Si O2"
_cell_formula_units_Z 56
_cell_length_a 24.841759
_cell_length_b 9.268625
_cell_length_c 16.676956
_cell_angle_alpha 90.000000
_cell_angle_beta 59.650010
_cell_angle_gamma 90.000000
_cell_volume 3313.619226
_symmetry_space_group_name_H-M "C 2/M"
_symmetry_group_IT_number 12
_symmetry_cell_setting 'monoclinic'
loop_
_space_group_symop_operation_xyz
x,y,z
-x,y,-z
-x,-y,-z
x,-y,z
1/2+x,1/2+y,z
1/2-x,1/2+y,-z
1/2-x,1/2-y,-z
1/2+x,1/2-y,z
loop_
_atom_site_type_symbol
_atom_site_label
_atom_site_fract_x
_atom_site_fract_y
_atom_site_fract_z
Si Si1 0.073733 0.834159 0.098097
Si Si2 0.837637 0.333385 0.392837
Si Si3 0.772737 0.666398 0.598542
Si Si4 0.262654 0.166718 0.783242
Si Si5 0.799409 0.169087 0.907912
Si Si6 0.882521 0.167212 0.112463
Si Si7 0.450436 0.168923 0.202438
O O1 0.132080 0.800048 0.110563
O O2 0.017369 0.735999 0.170945
O O3 0.053494 0.000000 0.120374
O O4 0.090283 0.795157 0.994703
O O5 0.822240 0.500000 0.391512
O O6 0.827039 0.289391 0.494325
O O7 0.790720 0.250027 0.370594
O O8 0.907939 0.298291 0.312739
O O9 0.754798 0.500000 0.603075
O O10 0.794899 0.697367 0.672673
O O11 0.297038 0.269539 0.819967
O O12 0.190062 0.207612 0.832360
O O13 0.270182 0.000000 0.804102
O O14 0.783605 0.000000 0.920496
O O15 0.750000 0.250000 0.000000
O O16 0.919860 0.262912 0.146943
O O17 0.892500 0.000000 0.126862
O O18 0.457827 0.000000 0.181346
#
# Coordination Sequence:
#
# PCOD8089743 Si02
#       7
#     8   8   8   8   8   8   8
#     4  10  22  38  52  69  99 140 177 206 247 306
#     4   9  18  31  48  75 107 133 165 211 256 298
#     4   9  17  31  52  75 102 136 169 204 252 311
#     4  10  19  33  54  79 105 135 172 208 255 308
#     4  11  22  37  56  77 102 134 173 217 258 299
#     4  10  19  34  52  73 104 139 172 203 247 309
#     4  11  22  33  49  77 108 135 170 213 255 298
#
# _framework density 16.899951000000001
#
# number of rings (size 3 to 8) (size 9 to 14) (size 15 to 20)
#    0.000    2.000    2.857    1.286    0.000    5.143 
#    0.000    0.000    0.000    0.857    0.000    6.000 
#    0.000    0.000    0.000    0.000    0.000    0.000 
#
# Total GULP energy -347211.762521 kJ/mol
# GULP energy per Si atom -12400.420090 kJ/mol
# Density = 1.686149 g / cm^3
# Si number density = 16.899951 Si / 1000 Ang^3
#
#
#
# Elastic Constant Matrix: (Units=GPa)
#
#
# Indices 1 2 3 4 5 6 
#
# 1 102.9377 62.8079 66.4251 0.0000 2.6345 0.0000
# 2 62.8079 81.0767 59.9288 0.0000 0.1700 0.0001
# 3 66.4251 59.9288 123.8654 0.0000 1.2416 0.0000
# 4 0.0000 0.0000 0.0000 24.4741 0.0000 1.0949
# 5 2.6345 0.1700 1.2416 0.0000 19.2966 0.0000
# 6 0.0000 0.0001 0.0000 1.0949 0.0000 31.8860
#
#
#
# Elastic Compliance Matrix: (Units=1/GPa)
#
#
# Indices 1 2 3 4 5 6 
#
# 1 0.020409 -0.012038 -0.005097 0.000000 -0.002352 0.000000
# 2 -0.012038 0.026304 -0.006289 0.000000 0.001817 0.000000
# 3 -0.005097 -0.006289 0.013851 0.000000 -0.000140 0.000000
# 4 0.000000 0.000000 0.000000 0.040922 0.000000 -0.001405
# 5 -0.002352 0.001817 -0.000140 0.000000 0.052137 0.000000
# 6 0.000000 0.000000 0.000000 -0.001405 0.000000 0.031410
#
#
# Mechanical properties :
#
#
# Convention : Reuss Voigt Hill
#
# Bulk Modulus (GPa) = 72.90728 76.24480 74.57604
# Shear Modulus (GPa) = 21.14586 23.04587 22.09587
#
# Velocity S-wave (km/s) = 3.54112 3.69679 3.61979
# Velocity P-wave (km/s) = 7.74297 7.96461 7.85457
#
# Compressibility (1/GPa) = 0.01371605
#
# Stress axis : x y z
#
# Youngs Moduli (GPa) = 48.99892 38.01654 72.19758
#
# Poissons Ratio (x) = 0.45763 0.36798
# Poissons Ratio (y) = 0.58983 0.45408
# Poissons Ratio (z) = 0.24974 0.23910
#
# Static dielectric constant tensor:
#      x y z
#    x 3.122540 0.000000 0.136180 
#    y 0.000000 3.172800 0.000000 
#    z 0.136180 0.000000 3.561980 
# 
# 
# High freq. dielectric constant tensor:
#      x y z
#    x 1.628420 0.000000 0.003220 
#    y 0.000000 1.656360 0.000000 
#    z 0.003220 0.000000 1.660460 
# 
# From -- ./inp_files/287393.got.cif
#   From: 2010.06.25/outbox.cif.g09.slc.cpg/sg12_144_cif.got.tgz:287393.got - 2010.06.28 00:19:55.
