data_PCOD8089720
_publ_section_title
;
Structure prediction by ZEFSAII (Michael W. Deem and Ramdas Pophale) SiO2 
 PCOD8089720
Probable space group: C 2/M
;
_chemical_formula_sum "Si O2"
_cell_formula_units_Z 56
_cell_length_a 24.754783
_cell_length_b 9.114340
_cell_length_c 14.856603
_cell_angle_alpha 90.000000
_cell_angle_beta 74.219883
_cell_angle_gamma 90.000000
_cell_volume 3225.670183
_symmetry_space_group_name_H-M "C 2/M"
_symmetry_group_IT_number 12
_symmetry_cell_setting 'monoclinic'
loop_
_space_group_symop_operation_xyz
x,y,z
-x,y,-z
-x,-y,-z
x,-y,z
1/2+x,1/2+y,z
1/2-x,1/2+y,-z
1/2-x,1/2-y,-z
1/2+x,1/2-y,z
loop_
_atom_site_type_symbol
_atom_site_label
_atom_site_fract_x
_atom_site_fract_y
_atom_site_fract_z
Si Si1 0.493534 0.328996 0.400348
Si Si2 0.174786 0.669304 0.089749
Si Si3 0.598447 0.171899 0.289245
Si Si4 0.798544 0.828706 0.095884
Si Si5 0.867832 0.168662 0.400488
Si Si6 0.195121 0.673149 0.724462
Si Si7 0.180498 0.829794 0.386532
O O1 0.500000 0.275679 0.500000
O O2 0.507898 0.500000 0.386316
O O3 0.536622 0.240668 0.318240
O O4 0.431595 0.292170 0.394917
O O5 0.174447 0.500000 0.060090
O O6 0.124668 0.707831 0.180140
O O7 0.232891 0.707567 0.113463
O O8 0.166878 0.768733 0.005257
O O9 0.635893 0.237930 0.351190
O O10 0.594914 0.000000 0.307665
O O11 0.820638 0.747187 0.174123
O O12 0.810329 0.000000 0.100818
O O13 0.849411 0.273439 0.328469
O O14 0.828734 0.200491 0.504061
O O15 0.861883 0.000000 0.372882
O O16 0.190543 0.500000 0.736887
O O17 0.257146 0.722670 0.666091
O O18 0.170637 0.000000 0.367871
#
# Coordination Sequence:
#
# PCOD8089720 Si02
#       7
#     8   8   8   8   8   8   8
#     4  10  20  37  57  76 104 144 185 223 264 312
#     4   9  19  34  51  78 110 139 173 217 269 317
#     4  11  21  33  54  82 112 140 173 224 271 312
#     4  10  19  33  54  78 107 141 177 216 262 323
#     4  10  21  37  55  74 105 147 186 222 260 313
#     4  11  22  34  53  80 111 144 178 221 268 320
#     4  10  20  35  53  76 108 147 182 214 262 320
#
# _framework density 17.360733
#
# number of rings (size 3 to 8) (size 9 to 14) (size 15 to 20)
#    0.000    1.857    2.857    1.714    0.000    3.714 
#    0.000    0.000    0.000    0.857    0.000    6.000 
#    0.000    0.000    0.000    0.000    0.000    0.000 
#
# Total GULP energy -347340.945045 kJ/mol
# GULP energy per Si atom -12405.033752 kJ/mol
# Density = 1.732122 g / cm^3
# Si number density = 17.360733 Si / 1000 Ang^3
#
#
#
# Elastic Constant Matrix: (Units=GPa)
#
#
# Indices 1 2 3 4 5 6 
#
# 1 68.7662 35.4340 46.5301 0.0000 3.7924 0.0000
# 2 35.4340 72.9316 55.2904 0.0000 5.5888 0.0000
# 3 46.5301 55.2904 111.4173 0.0000 4.3305 0.0000
# 4 0.0000 0.0000 0.0000 33.9663 0.0000 2.3823
# 5 3.7924 5.5888 4.3305 0.0000 25.8373 0.0000
# 6 0.0000 0.0000 0.0000 2.3823 0.0000 30.4552
#
#
#
# Elastic Compliance Matrix: (Units=1/GPa)
#
#
# Indices 1 2 3 4 5 6 
#
# 1 0.021767 -0.005838 -0.006158 0.000000 -0.000900 0.000000
# 2 -0.005838 0.023772 -0.009252 0.000000 -0.002734 0.000000
# 3 -0.006158 -0.009252 0.016131 0.000000 0.000202 0.000000
# 4 0.000000 0.000000 0.000000 0.029603 0.000000 -0.002316
# 5 -0.000900 -0.002734 0.000202 0.000000 0.039393 0.000000
# 6 0.000000 0.000000 0.000000 -0.002316 0.000000 0.033016
#
#
# Mechanical properties :
#
#
# Convention : Reuss Voigt Hill
#
# Bulk Modulus (GPa) = 52.15864 58.62488 55.39176
# Shear Modulus (GPa) = 23.52172 25.77581 24.64877
#
# Velocity S-wave (km/s) = 3.68486 3.85739 3.77211
# Velocity P-wave (km/s) = 6.94360 7.32675 7.13774
#
# Compressibility (1/GPa) = 0.01917228
#
# Stress axis : x y z
#
# Youngs Moduli (GPa) = 45.94170 42.06694 61.99380
#
# Poissons Ratio (x) = 0.24558 0.38177
# Poissons Ratio (y) = 0.26820 0.57359
# Poissons Ratio (z) = 0.28292 0.38922
#
# Static dielectric constant tensor:
#      x y z
#    x 3.079940 0.000000 -0.115820 
#    y 0.000000 3.250370 0.000000 
#    z -0.115820 0.000000 3.278890 
# 
# 
# High freq. dielectric constant tensor:
#      x y z
#    x 1.650100 0.000000 -0.002620 
#    y 0.000000 1.676020 0.000000 
#    z -0.002620 0.000000 1.673780 
# 
# From -- ./inp_files/237309.got.cif
#   From: 2010.06.25/outbox.cif.g09.slc.cpg/sg12_119_cif.got.tgz:237309.got - 2010.06.28 00:19:55.
