data_PCOD8089545
_publ_section_title
;
Structure prediction by ZEFSAII (Michael W. Deem and Ramdas Pophale) SiO2 
 PCOD8089545
Probable space group: C 2/M
;
_chemical_formula_sum "Si O2"
_cell_formula_units_Z 64
_cell_length_a 18.311715
_cell_length_b 10.274035
_cell_length_c 17.783069
_cell_angle_alpha 90.000000
_cell_angle_beta 86.383135
_cell_angle_gamma 90.000000
_cell_volume 3338.957459
_symmetry_space_group_name_H-M "C 2/M"
_symmetry_group_IT_number 12
_symmetry_cell_setting 'monoclinic'
loop_
_space_group_symop_operation_xyz
x,y,z
-x,y,-z
-x,-y,-z
x,-y,z
1/2+x,1/2+y,z
1/2-x,1/2+y,-z
1/2-x,1/2-y,-z
1/2+x,1/2-y,z
loop_
_atom_site_type_symbol
_atom_site_label
_atom_site_fract_x
_atom_site_fract_y
_atom_site_fract_z
Si Si1 0.681645 0.845819 0.015529
Si Si2 0.927123 0.345252 0.849699
Si Si3 0.722376 0.223252 0.378993
Si Si4 0.171583 0.354467 0.731794
Si Si5 0.658049 0.641763 0.518501
Si Si6 0.086349 0.347325 0.877809
Si Si7 0.577757 0.854216 0.316843
Si Si8 0.064529 0.352873 0.599222
O O1 0.642004 0.802554 0.095229
O O2 0.704457 0.000000 0.013341
O O3 0.750000 0.750000 0.000000
O O4 0.622256 0.816020 0.955044
O O5 0.928491 0.500000 0.849947
O O6 0.916130 0.287467 0.765966
O O7 0.003729 0.290406 0.878822
O O8 0.757521 0.276916 0.300084
O O9 0.696557 0.340135 0.435227
O O10 0.779913 0.136173 0.420945
O O11 0.653406 0.140668 0.356556
O O12 0.197466 0.500000 0.749277
O O13 0.136868 0.286763 0.808085
O O14 0.111663 0.354125 0.670922
O O15 0.619491 0.500000 0.521444
O O16 0.599954 0.757491 0.535127
O O17 0.081315 0.500000 0.862690
O O18 0.514633 0.791981 0.373701
O O19 0.549818 0.000000 0.303854
O O20 0.060222 0.500000 0.565209
#
# Coordination Sequence:
#
# PCOD8089545 Si02
#       8
#     8   8   8   8   8   8   8   8
#     4  10  21  34  54  85 116 145 178 220 265 313
#     4   9  17  32  54  80 108 139 181 226 264 307
#     4  10  21  32  52  77 103 141 179 218 266 325
#     4   9  16  30  51  76 103 135 176 219 262 312
#     4  10  21  38  54  74 107 144 178 216 268 328
#     4   9  16  30  54  80 104 139 184 224 258 303
#     4  10  19  33  53  80 107 134 176 230 274 310
#     4   9  18  34  57  79 101 133 177 224 268 317
#
# _framework density 19.167660000000001
#
# number of rings (size 3 to 8) (size 9 to 14) (size 15 to 20)
#    0.000    2.500    1.250    1.125    1.750    5.500 
#    0.000    3.125    0.000    2.250    0.000    0.000 
#    0.000    0.000    0.000    0.000    0.000    0.000 
#
# Total GULP energy -396590.516231 kJ/mol
# GULP energy per Si atom -12393.453632 kJ/mol
# Density = 1.912403 g / cm^3
# Si number density = 19.167660 Si / 1000 Ang^3
#
#
#
# Elastic Constant Matrix: (Units=GPa)
#
#
# Indices 1 2 3 4 5 6 
#
# 1 110.5576 28.4062 43.3777 0.0000 -22.4044 0.0000
# 2 28.4062 66.0787 28.9840 0.0000 -16.4880 0.0000
# 3 43.3777 28.9840 89.4502 0.0000 -22.2891 0.0000
# 4 0.0000 0.0000 0.0000 11.7763 0.0000 -6.0028
# 5 -22.4044 -16.4880 -22.2891 0.0000 36.8650 0.0000
# 6 0.0000 0.0000 0.0000 -6.0028 0.0000 22.0054
#
#
#
# Elastic Compliance Matrix: (Units=1/GPa)
#
#
# Indices 1 2 3 4 5 6 
#
# 1 0.012046 -0.002438 -0.004120 0.000000 0.003739 0.000000
# 2 -0.002438 0.019031 -0.003806 0.000000 0.004729 0.000000
# 3 -0.004120 -0.003806 0.015733 0.000000 0.005306 0.000000
# 4 0.000000 0.000000 0.000000 0.098630 0.000000 0.026905
# 5 0.003739 0.004729 0.005306 0.000000 0.034722 0.000000
# 6 0.000000 0.000000 0.000000 0.026905 0.000000 0.052783
#
#
# Mechanical properties :
#
#
# Convention : Reuss Voigt Hill
#
# Bulk Modulus (GPa) = 38.34067 51.95805 45.14936
# Shear Modulus (GPa) = 19.05740 25.15057 22.10399
#
# Velocity S-wave (km/s) = 3.15659 3.62627 3.39955
# Velocity P-wave (km/s) = 5.77336 6.68574 6.24623
#
# Compressibility (1/GPa) = 0.02608196
#
# Stress axis : x y z
#
# Youngs Moduli (GPa) = 83.01766 52.54622 63.56262
#
# Poissons Ratio (x) = 0.12812 0.26185
# Poissons Ratio (y) = 0.20242 0.24190
# Poissons Ratio (z) = 0.34200 0.19998
#
# Static dielectric constant tensor:
#      x y z
#    x 3.528750 0.000000 -0.234160 
#    y 0.000000 3.056310 0.000000 
#    z -0.234160 0.000000 3.712220 
# 
# 
# High freq. dielectric constant tensor:
#      x y z
#    x 1.749140 0.000000 -0.010840 
#    y 0.000000 1.687120 0.000000 
#    z -0.010840 0.000000 1.757720 
# 
# From -- ./inp_files/276441.got.cif
#   From: 2010.06.25/outbox.cif.g09.slc.cpg/sg12_139_cif.got.tgz:276441.got - 2010.06.28 00:19:55.
