data_PCOD8089812
_publ_section_title
;
Structure prediction by ZEFSAII (Michael W. Deem and Ramdas Pophale) SiO2 
 PCOD8089812
Probable space group: C 2/M
;
_chemical_formula_sum "Si O2"
_cell_formula_units_Z 56
_cell_length_a 31.255125
_cell_length_b 8.592298
_cell_length_c 11.903402
_cell_angle_alpha 90.000000
_cell_angle_beta 116.855643
_cell_angle_gamma 90.000000
_cell_volume 2851.926623
_symmetry_space_group_name_H-M "C 2/M"
_symmetry_group_IT_number 12
_symmetry_cell_setting 'monoclinic'
loop_
_space_group_symop_operation_xyz
x,y,z
-x,y,-z
-x,-y,-z
x,-y,z
1/2+x,1/2+y,z
1/2-x,1/2+y,-z
1/2-x,1/2-y,-z
1/2+x,1/2-y,z
loop_
_atom_site_type_symbol
_atom_site_label
_atom_site_fract_x
_atom_site_fract_y
_atom_site_fract_z
Si Si1 0.853132 0.683122 0.079170
Si Si2 0.269427 0.184486 0.824651
Si Si3 0.204087 0.683932 0.385943
Si Si4 0.161006 0.816937 0.704306
Si Si5 0.441452 0.182407 0.026426
Si Si6 0.116708 0.316040 0.431644
Si Si7 0.458152 0.317467 0.811230
O O1 0.852701 0.500000 0.103964
O O2 0.862704 0.776534 0.204596
O O3 0.894413 0.727047 0.040205
O O4 0.802087 0.740319 0.967502
O O5 0.295430 0.242854 0.741893
O O6 0.215409 0.251381 0.767835
O O7 0.266850 0.000000 0.820998
O O8 0.205964 0.500000 0.395085
O O9 0.250000 0.750000 0.500000
O O10 0.157264 0.746415 0.394070
O O11 0.129301 0.734582 0.572280
O O12 0.160381 0.000000 0.681798
O O13 0.486040 0.274222 0.132409
O O14 0.452324 0.000000 0.044765
O O15 0.433593 0.230390 0.887673
O O16 0.110769 0.500000 0.420511
O O17 0.067276 0.236667 0.333876
O O18 0.452791 0.500000 0.822629
#
# Coordination Sequence:
#
# PCOD8089812 Si02
#       7
#     8   8   8   8   8   8   8
#     4  10  21  38  59  81 110 151 195 235 277 335
#     4   9  18  34  55  80 113 149 187 230 280 331
#     4  10  19  33  54  80 112 146 183 229 277 331
#     4  11  22  36  55  80 116 154 191 239 283 330
#     4  10  20  38  63  88 116 148 187 233 283 341
#     4  11  22  37  58  83 115 155 194 231 281 343
#     4  11  22  37  61  90 119 146 181 234 289 341
#
# _framework density 19.635849
#
# number of rings (size 3 to 8) (size 9 to 14) (size 15 to 20)
#    0.000    1.714    1.429    4.714    0.000    4.000 
#    0.000    2.143    0.000    4.286    0.000    0.000 
#    0.000    0.000    0.000    0.000    0.000    0.000 
#
# Total GULP energy -347267.801939 kJ/mol
# GULP energy per Si atom -12402.421498 kJ/mol
# Density = 1.959116 g / cm^3
# Si number density = 19.635849 Si / 1000 Ang^3
#
#
#
# Elastic Constant Matrix: (Units=GPa)
#
#
# Indices 1 2 3 4 5 6 
#
# 1 65.4040 18.1939 40.7196 0.0000 2.1211 0.0000
# 2 18.1939 52.3118 22.3572 0.0000 2.6938 0.0000
# 3 40.7196 22.3572 140.4513 0.0000 7.8689 0.0000
# 4 0.0000 0.0000 0.0000 31.8823 0.0000 0.8717
# 5 2.1211 2.6938 7.8689 0.0000 29.6149 0.0000
# 6 0.0000 0.0000 0.0000 0.8717 0.0000 23.5326
#
#
#
# Elastic Compliance Matrix: (Units=1/GPa)
#
#
# Indices 1 2 3 4 5 6 
#
# 1 0.019694 -0.004741 -0.004974 0.000000 0.000342 0.000000
# 2 -0.004741 0.021683 -0.002015 0.000000 -0.001097 0.000000
# 3 -0.004974 -0.002015 0.008986 0.000000 -0.001848 0.000000
# 4 0.000000 0.000000 0.000000 0.031397 0.000000 -0.001163
# 5 0.000342 -0.001097 -0.001848 0.000000 0.034333 0.000000
# 6 0.000000 0.000000 0.000000 -0.001163 0.000000 0.042537
#
#
# Mechanical properties :
#
#
# Convention : Reuss Voigt Hill
#
# Bulk Modulus (GPa) = 37.17235 46.74536 41.95886
# Shear Modulus (GPa) = 26.16971 28.79906 27.48439
#
# Velocity S-wave (km/s) = 3.65465 3.83385 3.74532
# Velocity P-wave (km/s) = 6.06470 6.59209 6.33389
#
# Compressibility (1/GPa) = 0.02690171
#
# Stress axis : x y z
#
# Youngs Moduli (GPa) = 50.77616 46.11899 111.27938
#
# Poissons Ratio (x) = 0.21867 0.55353
# Poissons Ratio (y) = 0.24075 0.22428
# Poissons Ratio (z) = 0.25257 0.09295
#
# Static dielectric constant tensor:
#      x y z
#    x 3.754890 0.000000 0.031420 
#    y 0.000000 3.421000 0.000000 
#    z 0.031420 0.000000 3.654100 
# 
# 
# High freq. dielectric constant tensor:
#      x y z
#    x 1.756690 0.000000 0.003050 
#    y 0.000000 1.754150 0.000000 
#    z 0.003050 0.000000 1.774240 
# 
# From -- ./inp_files/187780.got.cif
#   From: 2010.06.25/outbox.cif.g09.slc.cpg/sg12_94_cif.got.tgz:187780.got - 2010.06.28 00:19:55.
