data_PCOD8089967
_publ_section_title
;
Structure prediction by ZEFSAII (Michael W. Deem and Ramdas Pophale) SiO2 
 PCOD8089967
Probable space group: C 2/M
;
_chemical_formula_sum "Si O2"
_cell_formula_units_Z 56
_cell_length_a 29.198679
_cell_length_b 18.482290
_cell_length_c 19.519965
_cell_angle_alpha 90.000000
_cell_angle_beta 162.784858
_cell_angle_gamma 90.000000
_cell_volume 3117.681664
_symmetry_space_group_name_H-M "C 2/M"
_symmetry_group_IT_number 12
_symmetry_cell_setting 'monoclinic'
loop_
_space_group_symop_operation_xyz
x,y,z
-x,y,-z
-x,-y,-z
x,-y,z
1/2+x,1/2+y,z
1/2-x,1/2+y,-z
1/2-x,1/2-y,-z
1/2+x,1/2-y,z
loop_
_atom_site_type_symbol
_atom_site_label
_atom_site_fract_x
_atom_site_fract_y
_atom_site_fract_z
Si Si1 0.085801 0.668009 0.789154
Si Si2 0.235160 0.584762 0.528848
Si Si3 0.072288 0.916351 0.531346
Si Si4 0.472892 0.414793 0.133911
Si Si5 0.712466 0.915635 0.650873
Si Si6 0.893207 0.583724 0.045719
Si Si7 0.096446 0.830760 0.827389
O O1 0.147507 0.625614 0.943346
O O2 0.038965 0.748316 0.746245
O O3 0.939215 0.629402 0.544461
O O4 0.220710 0.667509 0.925698
O O5 0.260532 0.500000 0.562006
O O6 0.363454 0.616555 0.660586
O O7 0.263217 0.610005 0.647237
O O8 0.061517 0.607385 0.256558
O O9 0.000000 0.890923 0.500000
O O10 0.002863 0.870721 0.371454
O O11 0.033248 0.000000 0.462323
O O12 0.257933 0.902398 0.797379
O O13 0.477650 0.500000 0.159387
O O14 0.431130 0.368585 0.139992
O O15 0.348103 0.398537 0.897099
O O16 0.668195 0.000000 0.587519
O O17 0.899585 0.500000 0.076053
#
# Coordination Sequence:
#
# PCOD8089967 Si02
#       7
#     8   8   8   8   8   8   8
#     4  10  21  36  51  75 105 140 175 210 261 312
#     4   8  15  31  56  81 104 132 172 214 256 308
#     4  10  19  33  55  78  98 130 178 221 255 299
#     4  10  20  34  54  81 109 137 167 213 267 311
#     4   9  18  34  57  80 102 134 177 216 253 307
#     4   9  17  33  58  79  96 130 181 222 249 294
#     4  11  23  35  49  75 111 140 169 210 266 317
#
# _framework density 17.962064000000002
#
# number of rings (size 3 to 8) (size 9 to 14) (size 15 to 20)
#    0.000    2.429    1.429    2.143    0.000    5.143 
#    0.000    5.000    0.000    6.857    0.000    0.000 
#    0.000    0.000    0.000    0.000    0.000    0.000 
#
# Total GULP energy -347130.699746 kJ/mol
# GULP energy per Si atom -12397.524991 kJ/mol
# Density = 1.792118 g / cm^3
# Si number density = 17.962064 Si / 1000 Ang^3
#
#
#
# Elastic Constant Matrix: (Units=GPa)
#
#
# Indices 1 2 3 4 5 6 
#
# 1 103.8513 46.8005 56.7679 -0.0001 10.2615 0.0000
# 2 46.8005 70.8961 48.1352 0.0000 4.8163 0.0000
# 3 56.7679 48.1352 114.8654 -0.0001 9.8730 0.0000
# 4 -0.0001 0.0000 -0.0001 13.8506 -0.0001 1.0718
# 5 10.2615 4.8163 9.8730 -0.0001 23.9854 0.0000
# 6 0.0000 0.0000 0.0000 1.0718 0.0000 28.6413
#
#
#
# Elastic Compliance Matrix: (Units=1/GPa)
#
#
# Indices 1 2 3 4 5 6 
#
# 1 0.015566 -0.007016 -0.004459 0.000000 -0.003415 0.000000
# 2 -0.007016 0.022884 -0.006205 0.000000 0.000961 0.000000
# 3 -0.004459 -0.006205 0.013724 0.000000 -0.002496 0.000000
# 4 0.000000 0.000000 0.000000 0.072409 0.000000 -0.002710
# 5 -0.003415 0.000961 -0.002496 0.000000 0.043987 0.000000
# 6 0.000000 0.000000 0.000000 -0.002710 0.000000 0.035016
#
#
# Mechanical properties :
#
#
# Convention : Reuss Voigt Hill
#
# Bulk Modulus (GPa) = 59.47350 65.89110 62.68230
# Shear Modulus (GPa) = 20.44561 22.48942 21.46752
#
# Velocity S-wave (km/s) = 3.37748 3.54227 3.46086
# Velocity P-wave (km/s) = 6.95646 7.31392 7.13743
#
# Compressibility (1/GPa) = 0.01681421
#
# Stress axis : x y z
#
# Youngs Moduli (GPa) = 64.24344 43.69837 72.86280
#
# Poissons Ratio (x) = 0.30658 0.32491
# Poissons Ratio (y) = 0.45072 0.45212
# Poissons Ratio (z) = 0.28648 0.27115
#
# Static dielectric constant tensor:
#      x y z
#    x 3.260620 0.000000 0.185370 
#    y 0.000000 3.217090 0.000000 
#    z 0.185370 0.000000 3.628600 
# 
# 
# High freq. dielectric constant tensor:
#      x y z
#    x 1.677850 0.000000 0.008350 
#    y 0.000000 1.678300 0.000000 
#    z 0.008350 0.000000 1.709720 
# 
# From -- ./inp_files/293903.got.cif
#   From: 2010.06.25/outbox.cif.g09.slc.cpg/sg12_147_cif.got.tgz:293903.got - 2010.06.28 00:19:55.
