data_PCOD8089848
_publ_section_title
;
Structure prediction by ZEFSAII (Michael W. Deem and Ramdas Pophale) SiO2 
 PCOD8089848
Probable space group: C 2/M
;
_chemical_formula_sum "Si O2"
_cell_formula_units_Z 56
_cell_length_a 33.443130
_cell_length_b 8.489392
_cell_length_c 14.996210
_cell_angle_alpha 90.000000
_cell_angle_beta 46.114038
_cell_angle_gamma 90.000000
_cell_volume 3068.542782
_symmetry_space_group_name_H-M "C 2/M"
_symmetry_group_IT_number 12
_symmetry_cell_setting 'monoclinic'
loop_
_space_group_symop_operation_xyz
x,y,z
-x,y,-z
-x,-y,-z
x,-y,z
1/2+x,1/2+y,z
1/2-x,1/2+y,-z
1/2-x,1/2-y,-z
1/2+x,1/2-y,z
loop_
_atom_site_type_symbol
_atom_site_label
_atom_site_fract_x
_atom_site_fract_y
_atom_site_fract_z
Si Si1 0.392826 0.681333 0.996126
Si Si2 0.170317 0.682292 0.061291
Si Si3 0.117998 0.183881 0.669419
Si Si4 0.502077 0.183244 0.894265
Si Si5 0.705326 0.684815 0.183808
Si Si6 0.800179 0.186400 0.609495
Si Si7 0.819863 0.315808 0.261238
O O1 0.381450 0.500000 0.036408
O O2 0.357829 0.791997 0.115991
O O3 0.375481 0.718362 0.921469
O O4 0.457784 0.717985 0.906369
O O5 0.156901 0.500000 0.069334
O O6 0.167271 0.726414 0.170427
O O7 0.230411 0.727891 0.929786
O O8 0.062343 0.284708 0.760683
O O9 0.149996 0.241009 0.531162
O O10 0.157012 0.214551 0.693273
O O11 0.103251 0.000000 0.688185
O O12 0.487752 0.000000 0.908862
O O13 0.500000 0.239512 0.000000
O O14 0.695405 0.500000 0.187724
O O15 0.688139 0.747507 0.308323
O O16 0.741600 0.250696 0.663223
O O17 0.794550 0.000000 0.621170
O O18 0.820507 0.500000 0.285302
#
# Coordination Sequence:
#
# PCOD8089848 Si02
#       7
#     8   8   8   8   8   8   8
#     4  12  23  35  56  83 110 141 182 229 273 321
#     4  10  19  33  54  81 112 143 178 222 272 323
#     4  11  22  36  55  81 110 145 188 227 266 318
#     4  11  23  39  58  77 105 145 184 226 277 323
#     4   9  17  33  54  78 111 147 181 217 264 322
#     4   9  19  35  55  79 113 151 182 219 268 323
#     4  11  20  35  54  78 113 151 182 217 270 323
#
# _framework density 18.249704000000001
#
# number of rings (size 3 to 8) (size 9 to 14) (size 15 to 20)
#    0.000    1.571    2.857    3.429    0.000    1.143 
#    0.000    3.571    0.000    0.857    0.000    6.000 
#    0.000    0.000    0.000    0.000    0.000    0.000 
#
# Total GULP energy -347321.832090 kJ/mol
# GULP energy per Si atom -12404.351146 kJ/mol
# Density = 1.820817 g / cm^3
# Si number density = 18.249704 Si / 1000 Ang^3
#
#
#
# Elastic Constant Matrix: (Units=GPa)
#
#
# Indices 1 2 3 4 5 6 
#
# 1 124.6372 29.0665 57.7401 0.0000 12.7945 -0.0001
# 2 29.0665 48.8788 12.0768 0.0005 -1.8204 -0.0009
# 3 57.7401 12.0768 108.6014 0.0001 0.8947 0.0000
# 4 0.0000 0.0005 0.0001 18.3013 0.0000 2.6072
# 5 12.7945 -1.8204 0.8947 0.0000 20.9718 0.0000
# 6 -0.0001 -0.0009 0.0000 2.6072 0.0000 28.7444
#
#
#
# Elastic Compliance Matrix: (Units=1/GPa)
#
#
# Indices 1 2 3 4 5 6 
#
# 1 0.013375 -0.006714 -0.006295 0.000000 -0.008474 0.000000
# 2 -0.006714 0.024485 0.000796 -0.000001 0.006187 0.000001
# 3 -0.006295 0.000796 0.012438 0.000000 0.003379 0.000000
# 4 0.000000 -0.000001 0.000000 0.055356 0.000000 -0.005021
# 5 -0.008474 0.006187 0.003379 0.000000 0.053246 0.000000
# 6 0.000000 0.000001 0.000000 -0.005021 0.000000 0.035245
#
#
# Mechanical properties :
#
#
# Convention : Reuss Voigt Hill
#
# Bulk Modulus (GPa) = 38.65058 53.32049 45.98553
# Shear Modulus (GPa) = 22.00749 25.81911 23.91330
#
# Velocity S-wave (km/s) = 3.47639 3.76542 3.62379
# Velocity P-wave (km/s) = 6.11052 6.94155 6.53925
#
# Compressibility (1/GPa) = 0.02587284
#
# Stress axis : x y z
#
# Youngs Moduli (GPa) = 74.76597 40.84108 80.39656
#
# Poissons Ratio (x) = 0.27421 0.50607
# Poissons Ratio (y) = 0.50198 -0.06398
# Poissons Ratio (z) = 0.47063 -0.03250
#
# Static dielectric constant tensor:
#      x y z
#    x 3.472490 0.000000 0.159070 
#    y 0.000000 3.207900 0.000000 
#    z 0.159070 0.000000 3.353170 
# 
# 
# High freq. dielectric constant tensor:
#      x y z
#    x 1.708580 0.000000 0.009090 
#    y 0.000000 1.703920 0.000000 
#    z 0.009090 0.000000 1.686770 
# 
# From -- ./inp_files/248920.got.cif
#   From: 2010.06.25/outbox.cif.g09.slc.cpg/sg12_125_cif.got.tgz:248920.got - 2010.06.28 00:19:55.
