data_PCOD8089952
_publ_section_title
;
Structure prediction by ZEFSAII (Michael W. Deem and Ramdas Pophale) SiO2 
 PCOD8089952
Probable space group: C 2/M
;
_chemical_formula_sum "Si O2"
_cell_formula_units_Z 56
_cell_length_a 15.332859
_cell_length_b 9.476288
_cell_length_c 26.208762
_cell_angle_alpha 90.000000
_cell_angle_beta 53.625102
_cell_angle_gamma 90.000000
_cell_volume 3066.102686
_symmetry_space_group_name_H-M "C 2/M"
_symmetry_group_IT_number 12
_symmetry_cell_setting 'monoclinic'
loop_
_space_group_symop_operation_xyz
x,y,z
-x,y,-z
-x,-y,-z
x,-y,z
1/2+x,1/2+y,z
1/2-x,1/2+y,-z
1/2-x,1/2-y,-z
1/2+x,1/2-y,z
loop_
_atom_site_type_symbol
_atom_site_label
_atom_site_fract_x
_atom_site_fract_y
_atom_site_fract_z
Si Si1 0.202863 0.661567 0.638617
Si Si2 0.241504 0.836111 0.925967
Si Si3 0.909183 0.836194 0.927348
Si Si4 0.220434 0.332971 0.293331
Si Si5 0.347475 0.667271 0.149820
Si Si6 0.598396 0.664033 0.501476
Si Si7 0.528022 0.163132 0.619501
O O1 0.218858 0.500000 0.650797
O O2 0.215647 0.761492 0.682611
O O3 0.290663 0.701035 0.565337
O O4 0.084264 0.685390 0.655138
O O5 0.347077 0.750128 0.905580
O O6 0.204672 0.774856 0.884200
O O7 0.273633 0.000000 0.912005
O O8 0.143352 0.811046 0.999161
O O9 0.030660 0.775402 0.886754
O O10 0.905792 0.000000 0.913181
O O11 0.230512 0.500000 0.296433
O O12 0.275460 0.280688 0.222084
O O13 0.095637 0.283709 0.334930
O O14 0.351809 0.500000 0.144895
O O15 0.500000 0.713663 0.500000
O O16 0.588849 0.500000 0.518530
O O17 0.595049 0.749918 0.554840
O O18 0.533452 0.000000 0.601539
#
# Coordination Sequence:
#
# PCOD8089952 Si02
#       7
#     8   8   8   8   8   8   8
#     4  10  21  37  54  75 103 133 165 206 256 304
#     4   9  17  31  53  78 102 131 167 208 252 295
#     4   9  17  31  52  77 103 131 166 208 251 296
#     4  10  21  36  52  73 100 134 173 210 244 291
#     4   9  18  33  52  72 100 137 173 203 243 301
#     4  10  19  33  55  78 102 130 162 205 256 304
#     4  10  21  35  53  76 101 130 167 209 252 297
#
# _framework density 18.264227999999999
#
# number of rings (size 3 to 8) (size 9 to 14) (size 15 to 20)
#    0.000    2.429    1.429    0.857    0.000    4.286 
#    0.000    3.571    0.000    3.429    0.000    0.000 
#    0.000    0.000    0.000    0.000    0.000    0.000 
#
# Total GULP energy -347271.621225 kJ/mol
# GULP energy per Si atom -12402.557901 kJ/mol
# Density = 1.822266 g / cm^3
# Si number density = 18.264228 Si / 1000 Ang^3
#
#
#
# Elastic Constant Matrix: (Units=GPa)
#
#
# Indices 1 2 3 4 5 6 
#
# 1 126.2925 40.7698 65.5519 0.0000 18.0943 0.0000
# 2 40.7698 42.8754 40.2429 0.0000 9.9079 0.0000
# 3 65.5519 40.2429 109.4628 0.0000 14.0791 0.0000
# 4 0.0000 0.0000 0.0000 19.2453 0.0000 5.6709
# 5 18.0943 9.9079 14.0791 0.0000 19.5977 0.0000
# 6 0.0000 0.0000 0.0000 5.6709 0.0000 30.6030
#
#
#
# Elastic Compliance Matrix: (Units=1/GPa)
#
#
# Indices 1 2 3 4 5 6 
#
# 1 0.013445 -0.007068 -0.004756 0.000000 -0.005424 0.000000
# 2 -0.007068 0.040999 -0.009931 0.000000 -0.007067 0.000000
# 3 -0.004756 -0.009931 0.015892 0.000000 -0.002006 0.000000
# 4 0.000000 0.000000 0.000000 0.054962 0.000000 -0.010185
# 5 -0.005424 -0.007067 -0.002006 0.000000 0.061048 0.000000
# 6 0.000000 0.000000 0.000000 -0.010185 0.000000 0.034564
#
#
# Mechanical properties :
#
#
# Convention : Reuss Voigt Hill
#
# Bulk Modulus (GPa) = 37.27569 63.52889 50.40229
# Shear Modulus (GPa) = 18.29073 22.69360 20.49216
#
# Velocity S-wave (km/s) = 3.16800 3.52876 3.35324
# Velocity P-wave (km/s) = 5.81679 7.17367 6.53057
#
# Compressibility (1/GPa) = 0.02682714
#
# Stress axis : x y z
#
# Youngs Moduli (GPa) = 74.37510 24.39094 62.92277
#
# Poissons Ratio (x) = 0.17239 0.29924
# Poissons Ratio (y) = 0.52568 0.62490
# Poissons Ratio (z) = 0.35370 0.24223
#
# Static dielectric constant tensor:
#      x y z
#    x 3.536440 0.000000 -0.045970 
#    y 0.000000 3.138920 0.000000 
#    z -0.045970 0.000000 3.334200 
# 
# 
# High freq. dielectric constant tensor:
#      x y z
#    x 1.721550 0.000000 -0.000900 
#    y 0.000000 1.684960 0.000000 
#    z -0.000900 0.000000 1.702660 
# 
# From -- ./inp_files/269387.got.cif
#   From: 2010.06.25/outbox.cif.g09.slc.cpg/sg12_135_cif.got.tgz:269387.got - 2010.06.28 00:19:55.
