data_PCOD8089174
_publ_section_title
;
Structure prediction by ZEFSAII (Michael W. Deem and Ramdas Pophale) SiO2 
 PCOD8089174
Probable space group: C 2/M
;
_chemical_formula_sum "Si O2"
_cell_formula_units_Z 32
_cell_length_a 14.609821
_cell_length_b 15.303447
_cell_length_c 8.514475
_cell_angle_alpha 90.000000
_cell_angle_beta 115.818846
_cell_angle_gamma 90.000000
_cell_volume 1713.638667
_symmetry_space_group_name_H-M "C 2/M"
_symmetry_group_IT_number 12
_symmetry_cell_setting 'monoclinic'
loop_
_space_group_symop_operation_xyz
x,y,z
-x,y,-z
-x,-y,-z
x,-y,z
1/2+x,1/2+y,z
1/2-x,1/2+y,-z
1/2-x,1/2-y,-z
1/2+x,1/2-y,z
loop_
_atom_site_type_symbol
_atom_site_label
_atom_site_fract_x
_atom_site_fract_y
_atom_site_fract_z
Si Si1 0.000000 0.773193 0.500000
Si Si2 0.500000 0.655961 0.000000
Si Si3 0.875400 0.098145 0.187895
Si Si4 0.144472 0.600779 0.043966
Si Si5 0.451209 0.809221 0.764722
O O1 0.075557 0.833467 0.655636
O O2 0.063061 0.708174 0.431440
O O3 0.427124 0.597529 0.054908
O O4 0.568531 0.716552 0.164393
O O5 0.883723 0.000000 0.264348
O O6 0.758152 0.124911 0.079116
O O7 0.119629 0.500000 0.994052
O O8 0.067439 0.659490 0.884312
O O9 0.127343 0.621214 0.218469
#
# Coordination Sequence:
#
# PCOD8089174 Si02
#       5
#     4   4   8   8   8
#     4  10  21  32  47  74 104 132 158 198 251 288
#     4   8  17  30  49  72  94 128 166 198 231 280
#     4  10  19  33  52  73 100 131 163 201 243 289
#     4   9  18  34  55  73  94 130 168 201 240 288
#     4   9  18  33  52  74 100 127 162 205 242 289
#
# _framework density 18.673715000000001
#
# number of rings (size 3 to 8) (size 9 to 14) (size 15 to 20)
#    0.000    3.000    0.000    2.250    0.000   10.000 
#    0.000    5.000    0.000   12.000    0.000    0.000 
#    0.000    0.000    0.000    0.000    0.000    0.000 
#
# Total GULP energy -198254.893996 kJ/mol
# GULP energy per Si atom -12390.930875 kJ/mol
# Density = 1.863121 g / cm^3
# Si number density = 18.673715 Si / 1000 Ang^3
#
#
#
# Elastic Constant Matrix: (Units=GPa)
#
#
# Indices 1 2 3 4 5 6 
#
# 1 138.3437 32.5932 47.1536 0.0000 -9.1780 0.0000
# 2 32.5932 66.5701 30.4359 0.0000 0.4144 0.0000
# 3 47.1536 30.4359 84.0254 0.0000 -26.5803 0.0000
# 4 0.0000 0.0000 0.0000 10.5783 0.0000 -5.3853
# 5 -9.1780 0.4144 -26.5803 0.0000 28.0628 0.0000
# 6 0.0000 0.0000 0.0000 -5.3853 0.0000 26.4113
#
#
#
# Elastic Compliance Matrix: (Units=1/GPa)
#
#
# Indices 1 2 3 4 5 6 
#
# 1 0.009340 -0.002331 -0.004883 0.000000 -0.001536 0.000000
# 2 -0.002331 0.020417 -0.009172 0.000000 -0.009752 0.000000
# 3 -0.004883 -0.009172 0.024989 0.000000 0.022207 0.000000
# 4 0.000000 0.000000 0.000000 0.105482 0.000000 0.021508
# 5 -0.001536 -0.009752 0.022207 0.000000 0.056310 0.000000
# 6 0.000000 0.000000 0.000000 0.021508 0.000000 0.042248
#
#
# Mechanical properties :
#
#
# Convention : Reuss Voigt Hill
#
# Bulk Modulus (GPa) = 45.50920 56.58942 51.04931
# Shear Modulus (GPa) = 16.72891 24.92759 20.82825
#
# Velocity S-wave (km/s) = 2.99633 3.65760 3.34335
# Velocity P-wave (km/s) = 6.03277 6.94316 6.50391
#
# Compressibility (1/GPa) = 0.02197358
#
# Stress axis : x y z
#
# Youngs Moduli (GPa) = 107.06687 48.97821 40.01785
#
# Poissons Ratio (x) = 0.11416 0.19541
# Poissons Ratio (y) = 0.24955 0.36706
# Poissons Ratio (z) = 0.52281 0.44925
#
# Static dielectric constant tensor:
#      x y z
#    x 3.509770 0.000000 -0.320980 
#    y 0.000000 3.484700 0.000000 
#    z -0.320980 0.000000 3.226860 
# 
# 
# High freq. dielectric constant tensor:
#      x y z
#    x 1.724910 0.000000 -0.022590 
#    y 0.000000 1.733680 0.000000 
#    z -0.022590 0.000000 1.689990 
# 
# From -- ./inp_files/59875.got.cif
#   From: 2010.06.25/outbox.cif.g09.slc.cpg/sg12_30_cif.got.tgz:59875.got - 2010.06.28 00:19:55.
