data_PCOD8089075
_publ_section_title
;
Structure prediction by ZEFSAII (Michael W. Deem and Ramdas Pophale) SiO2 
 PCOD8089075
Probable space group: C 2/M
;
_chemical_formula_sum "Si O2"
_cell_formula_units_Z 40
_cell_length_a 5.194347
_cell_length_b 15.793675
_cell_length_c 25.293171
_cell_angle_alpha 90.000000
_cell_angle_beta 107.642098
_cell_angle_gamma 90.000000
_cell_volume 1977.406078
_symmetry_space_group_name_H-M "C 2/M"
_symmetry_group_IT_number 12
_symmetry_cell_setting 'monoclinic'
loop_
_space_group_symop_operation_xyz
x,y,z
-x,y,-z
-x,-y,-z
x,-y,z
1/2+x,1/2+y,z
1/2-x,1/2+y,-z
1/2-x,1/2-y,-z
1/2+x,1/2-y,z
loop_
_atom_site_type_symbol
_atom_site_label
_atom_site_fract_x
_atom_site_fract_y
_atom_site_fract_z
Si Si1 0.714184 0.344940 0.475733
Si Si2 0.350123 0.696272 0.943016
Si Si3 0.536156 0.399126 0.352737
Si Si4 0.937848 0.400547 0.286693
Si Si5 0.728325 0.695454 0.175385
O O1 0.500000 0.393003 0.500000
O O2 0.750000 0.250000 0.500000
O O3 0.616345 0.347135 0.409620
O O4 0.000000 0.393010 0.500000
O O5 0.553539 0.775600 0.944138
O O6 0.319979 0.648371 0.884582
O O7 0.500000 0.643385 0.000000
O O8 0.553382 0.500000 0.363950
O O9 0.736006 0.367460 0.319270
O O10 0.238405 0.368571 0.317993
O O11 0.930693 0.500000 0.284992
O O12 0.847946 0.370874 0.223654
O O13 0.444243 0.729407 0.180050
#
# Coordination Sequence:
#
# PCOD8089075 Si02
#       5
#     8   8   8   8   8
#     4  10  21  38  53  77 104 127 161 207 256 307
#     4   8  14  25  44  68 101 137 170 213 258 299
#     4  10  21  38  58  76 100 137 175 203 248 317
#     4  10  21  38  55  77 108 142 173 210 261 309
#     4  10  19  33  50  81 108 134 181 221 258 304
#
# _framework density 20.228521000000001
#
# number of rings (size 3 to 8) (size 9 to 14) (size 15 to 20)
#    0.000    2.400    0.000    2.400    0.000    0.800 
#   21.600    0.000    0.000    0.600    0.000    0.000 
#    0.000   20.800    0.000    0.000    0.000    3.200 
#
# Total GULP energy -247798.826346 kJ/mol
# GULP energy per Si atom -12389.941317 kJ/mol
# Density = 2.018248 g / cm^3
# Si number density = 20.228521 Si / 1000 Ang^3
#
#
#
# Elastic Constant Matrix: (Units=GPa)
#
#
# Indices 1 2 3 4 5 6 
#
# 1 170.4775 9.9519 65.4194 0.0000 -0.7876 0.0000
# 2 9.9519 11.7035 26.3630 0.0000 0.5796 0.0000
# 3 65.4194 26.3630 226.1730 0.0000 5.3252 0.0000
# 4 0.0000 0.0000 0.0000 9.6321 0.0000 -0.9630
# 5 -0.7876 0.5796 5.3252 0.0000 35.3631 0.0000
# 6 0.0000 0.0000 0.0000 -0.9630 0.0000 2.8778
#
#
#
# Elastic Compliance Matrix: (Units=1/GPa)
#
#
# Indices 1 2 3 4 5 6 
#
# 1 0.006632 -0.001786 -0.001720 0.000000 0.000436 0.000000
# 2 -0.001786 0.116348 -0.013046 0.000000 0.000018 0.000000
# 3 -0.001720 -0.013046 0.006458 0.000000 -0.000797 0.000000
# 4 0.000000 0.000000 0.000000 0.107413 0.000000 0.035945
# 5 0.000436 0.000018 -0.000797 0.000000 0.028408 0.000000
# 6 0.000000 0.000000 0.000000 0.035945 0.000000 0.359520
#
#
# Mechanical properties :
#
#
# Convention : Reuss Voigt Hill
#
# Bulk Modulus (GPa) = 10.38044 67.98029 39.18036
# Shear Modulus (GPa) = 7.24644 30.01591 18.63117
#
# Velocity S-wave (km/s) = 1.89475 3.85624 3.03815
# Velocity P-wave (km/s) = 3.15111 7.31482 5.63188
#
# Compressibility (1/GPa) = 0.09633503
#
# Stress axis : x y z
#
# Youngs Moduli (GPa) = 150.77577 8.59492 154.83691
#
# Poissons Ratio (x) = 0.01535 0.26640
# Poissons Ratio (y) = 0.26925 2.01993
# Poissons Ratio (z) = 0.25941 0.11213
#
# Static dielectric constant tensor:
#      x y z
#    x -0.175830 0.000000 0.036420 
#    y 0.000000 2.929140 0.000000 
#    z 0.036420 0.000000 4.182030 
# 
# 
# High freq. dielectric constant tensor:
#      x y z
#    x 1.826150 0.000000 0.000930 
#    y 0.000000 1.709770 0.000000 
#    z 0.000930 0.000000 1.820500 
# 
# From -- ./inp_files/252599.got.cif
#   From: 2010.06.25/outbox.cif.g09.slc.cpg/sg12_127_cif.got.tgz:252599.got - 2010.06.28 00:19:55.
