data_PCOD8089727
_publ_section_title
;
Structure prediction by ZEFSAII (Michael W. Deem and Ramdas Pophale) SiO2 
 PCOD8089727
Probable space group: C 2/M
;
_chemical_formula_sum "Si O2"
_cell_formula_units_Z 48
_cell_length_a 19.114684
_cell_length_b 8.685117
_cell_length_c 15.798197
_cell_angle_alpha 90.000000
_cell_angle_beta 77.042818
_cell_angle_gamma 90.000000
_cell_volume 2555.930589
_symmetry_space_group_name_H-M "C 2/M"
_symmetry_group_IT_number 12
_symmetry_cell_setting 'monoclinic'
loop_
_space_group_symop_operation_xyz
x,y,z
-x,y,-z
-x,-y,-z
x,-y,z
1/2+x,1/2+y,z
1/2-x,1/2+y,-z
1/2-x,1/2-y,-z
1/2+x,1/2-y,z
loop_
_atom_site_type_symbol
_atom_site_label
_atom_site_fract_x
_atom_site_fract_y
_atom_site_fract_z
Si Si1 0.422562 0.179338 0.856718
Si Si2 0.817185 0.679534 0.028871
Si Si3 0.029616 0.318342 0.401947
Si Si4 0.049292 0.179791 0.732977
Si Si5 0.318409 0.178665 0.219009
Si Si6 0.344766 0.321651 0.724217
O O1 0.496134 0.273603 0.824311
O O2 0.363636 0.226973 0.803294
O O3 0.440119 0.000000 0.841270
O O4 0.390423 0.215597 0.958018
O O5 0.801290 0.500000 0.038354
O O6 0.824954 0.744469 0.121674
O O7 0.750000 0.750000 0.000000
O O8 0.040949 0.500000 0.396372
O O9 0.973405 0.270016 0.345154
O O10 0.000000 0.262270 0.500000
O O11 0.106589 0.237287 0.366621
O O12 0.130110 0.224177 0.734471
O O13 0.043841 0.000000 0.716472
O O14 0.238233 0.204243 0.275959
O O15 0.340786 0.000000 0.216222
O O16 0.361310 0.500000 0.737845
#
# Coordination Sequence:
#
# PCOD8089727 Si02
#       6
#     8   8   8   8   8   8
#     4  10  19  33  54  78 108 148 188 228 272 321
#     4  10  20  33  53  79 109 147 190 232 269 315
#     4  10  21  39  63  86 109 139 175 218 270 333
#     4  11  23  37  56  81 111 145 182 228 274 321
#     4  10  21  37  54  78 114 150 183 225 276 321
#     4  10  19  33  57  83 110 144 181 224 270 321
#
# _framework density 18.779852999999999
#
# number of rings (size 3 to 8) (size 9 to 14) (size 15 to 20)
#    0.000    1.833    1.667    5.000    0.000    4.667 
#    0.000    4.167    0.000    0.000    0.000    0.000 
#    0.000    0.000    0.000    0.000    0.000    0.000 
#
# Total GULP energy -297645.812748 kJ/mol
# GULP energy per Si atom -12401.908864 kJ/mol
# Density = 1.873711 g / cm^3
# Si number density = 18.779853 Si / 1000 Ang^3
#
#
#
# Elastic Constant Matrix: (Units=GPa)
#
#
# Indices 1 2 3 4 5 6 
#
# 1 107.3944 16.9498 43.1957 0.0000 -10.3540 0.0000
# 2 16.9498 35.1874 22.5673 0.0000 -10.7040 0.0000
# 3 43.1957 22.5673 130.7797 0.0000 -11.0555 0.0000
# 4 0.0000 0.0000 0.0000 21.7643 0.0000 -4.9426
# 5 -10.3540 -10.7040 -11.0555 0.0000 18.8481 0.0000
# 6 0.0000 0.0000 0.0000 -4.9426 0.0000 32.9002
#
#
#
# Elastic Compliance Matrix: (Units=1/GPa)
#
#
# Indices 1 2 3 4 5 6 
#
# 1 0.011212 -0.002579 -0.003011 0.000000 0.002929 0.000000
# 2 -0.002579 0.037666 -0.004166 0.000000 0.017531 0.000000
# 3 -0.003011 -0.004166 0.009490 0.000000 0.001547 0.000000
# 4 0.000000 0.000000 0.000000 0.047570 0.000000 0.007146
# 5 0.002929 0.017531 0.001547 0.000000 0.065528 0.000000
# 6 0.000000 0.000000 0.000000 0.007146 0.000000 0.031469
#
#
# Mechanical properties :
#
#
# Convention : Reuss Voigt Hill
#
# Bulk Modulus (GPa) = 25.73506 48.75413 37.24460
# Shear Modulus (GPa) = 21.24060 27.41241 24.32651
#
# Velocity S-wave (km/s) = 3.36673 3.82471 3.60300
# Velocity P-wave (km/s) = 5.37089 6.74698 6.09788
#
# Compressibility (1/GPa) = 0.03885749
#
# Stress axis : x y z
#
# Youngs Moduli (GPa) = 89.19210 26.54895 105.36903
#
# Poissons Ratio (x) = 0.06847 0.31722
# Poissons Ratio (y) = 0.23003 0.43895
# Poissons Ratio (z) = 0.26852 0.11060
#
# Static dielectric constant tensor:
#      x y z
#    x 3.319380 0.000000 -0.181870 
#    y 0.000000 3.478200 0.000000 
#    z -0.181870 0.000000 3.665890 
# 
# 
# High freq. dielectric constant tensor:
#      x y z
#    x 1.721790 0.000000 -0.015280 
#    y 0.000000 1.734610 0.000000 
#    z -0.015280 0.000000 1.722860 
# 
# From -- ./inp_files/279843.got.cif
#   From: 2010.06.25/outbox.cif.g09.slc.cpg/sg12_140_cif.got.tgz:279843.got - 2010.06.28 00:19:55.
