data_PCOD8089766
_publ_section_title
;
Structure prediction by ZEFSAII (Michael W. Deem and Ramdas Pophale) SiO2 
 PCOD8089766
Probable space group: C 2/M
;
_chemical_formula_sum "Si O2"
_cell_formula_units_Z 44
_cell_length_a 28.930996
_cell_length_b 10.979763
_cell_length_c 11.804568
_cell_angle_alpha 90.000000
_cell_angle_beta 143.267100
_cell_angle_gamma 90.000000
_cell_volume 2242.692230
_symmetry_space_group_name_H-M "C 2/M"
_symmetry_group_IT_number 12
_symmetry_cell_setting 'monoclinic'
loop_
_space_group_symop_operation_xyz
x,y,z
-x,y,-z
-x,-y,-z
x,-y,z
1/2+x,1/2+y,z
1/2-x,1/2+y,-z
1/2-x,1/2-y,-z
1/2+x,1/2-y,z
loop_
_atom_site_type_symbol
_atom_site_label
_atom_site_fract_x
_atom_site_fract_y
_atom_site_fract_z
Si Si1 0.780953 0.714951 0.378888
Si Si2 0.843541 0.365746 0.735258
Si Si3 0.457256 0.644198 0.307134
Si Si4 0.500000 0.242055 0.000000
Si Si5 0.219254 0.858199 0.022476
Si Si6 0.428697 0.640721 0.652590
O O1 0.820114 0.636354 0.555917
O O2 0.704133 0.773900 0.280516
O O3 0.759534 0.638363 0.225093
O O4 0.843246 0.812137 0.457283
O O5 0.825995 0.500000 0.746603
O O6 0.934981 0.341015 0.931621
O O7 0.500000 0.699120 0.500000
O O8 0.462857 0.500000 0.316480
O O9 0.504780 0.700275 0.295112
O O10 0.368630 0.683231 0.130377
O O11 0.452188 0.331816 0.826219
O O12 0.226080 0.000000 0.988357
O O13 0.250000 0.750000 0.000000
O O14 0.424060 0.500000 0.619713
#
# Coordination Sequence:
#
# PCOD8089766 Si02
#       6
#     8   8   8   4   8   8
#     4  10  21  35  55  82 110 146 190 234 282 334
#     4  10  20  35  54  78 112 150 189 233 283 339
#     4   9  18  33  54  78 104 138 181 228 277 328
#     4  10  20  32  50  78 110 148 186 224 280 338
#     4  11  23  39  60  85 115 149 187 234 286 340
#     4  10  19  33  54  79 109 142 184 235 280 329
#
# _framework density 19.619278000000001
#
# number of rings (size 3 to 8) (size 9 to 14) (size 15 to 20)
#    0.000    2.000    0.000    3.818    0.000    2.909 
#    0.000    5.455    0.000    6.000    0.000    0.000 
#    0.000    0.000    0.000    0.000    0.000    0.000 
#
# Total GULP energy -272608.610532 kJ/mol
# GULP energy per Si atom -12391.300479 kJ/mol
# Density = 1.957462 g / cm^3
# Si number density = 19.619278 Si / 1000 Ang^3
#
#
#
# Elastic Constant Matrix: (Units=GPa)
#
#
# Indices 1 2 3 4 5 6 
#
# 1 89.9627 34.1233 30.6495 0.0000 14.7112 0.0000
# 2 34.1233 70.5585 18.5962 0.0000 12.6114 0.0000
# 3 30.6495 18.5962 107.3379 0.0000 17.3281 0.0000
# 4 0.0000 0.0000 0.0000 19.3637 0.0000 4.5814
# 5 14.7112 12.6114 17.3281 0.0000 41.4527 0.0000
# 6 0.0000 0.0000 0.0000 4.5814 0.0000 24.7054
#
#
#
# Elastic Compliance Matrix: (Units=1/GPa)
#
#
# Indices 1 2 3 4 5 6 
#
# 1 0.014700 -0.005972 -0.002803 0.000000 -0.002228 0.000000
# 2 -0.005972 0.017823 -0.000911 0.000000 -0.002922 0.000000
# 3 -0.002803 -0.000911 0.010798 0.000000 -0.003242 0.000000
# 4 0.000000 0.000000 0.000000 0.054013 0.000000 -0.010016
# 5 -0.002228 -0.002922 -0.003242 0.000000 0.027159 0.000000
# 6 0.000000 0.000000 0.000000 -0.010016 0.000000 0.042334
#
#
# Mechanical properties :
#
#
# Convention : Reuss Voigt Hill
#
# Bulk Modulus (GPa) = 41.75510 48.28858 45.02184
# Shear Modulus (GPa) = 25.74889 29.40372 27.57631
#
# Velocity S-wave (km/s) = 3.62668 3.87553 3.75316
# Velocity P-wave (km/s) = 6.23425 6.68525 6.46368
#
# Compressibility (1/GPa) = 0.02394917
#
# Stress axis : x y z
#
# Youngs Moduli (GPa) = 68.02522 56.10635 92.61030
#
# Poissons Ratio (x) = 0.33508 0.25960
# Poissons Ratio (y) = 0.40627 0.08435
# Poissons Ratio (z) = 0.19069 0.05110
#
# Static dielectric constant tensor:
#      x y z
#    x 3.784040 0.000000 0.181140 
#    y 0.000000 3.299910 0.000000 
#    z 0.181140 0.000000 3.740020 
# 
# 
# High freq. dielectric constant tensor:
#      x y z
#    x 1.768850 0.000000 0.011000 
#    y 0.000000 1.736990 0.000000 
#    z 0.011000 0.000000 1.777100 
# 
# From -- ./inp_files/175391.got.cif
#   From: 2010.06.25/outbox.cif.g09.slc.cpg/sg12_88_cif.got.tgz:175391.got - 2010.06.28 00:19:55.
