data_PCOD8089043
_publ_section_title
;
Structure prediction by ZEFSAII (Michael W. Deem and Ramdas Pophale) SiO2 
 PCOD8089043
Probable space group: C 2/M
;
_chemical_formula_sum "Si O2"
_cell_formula_units_Z 64
_cell_length_a 23.331585
_cell_length_b 9.241176
_cell_length_c 17.776188
_cell_angle_alpha 90.000000
_cell_angle_beta 90.632372
_cell_angle_gamma 90.000000
_cell_volume 3832.513267
_symmetry_space_group_name_H-M "C 2/M"
_symmetry_group_IT_number 12
_symmetry_cell_setting 'monoclinic'
loop_
_space_group_symop_operation_xyz
x,y,z
-x,y,-z
-x,-y,-z
x,-y,z
1/2+x,1/2+y,z
1/2-x,1/2+y,-z
1/2-x,1/2-y,-z
1/2+x,1/2-y,z
loop_
_atom_site_type_symbol
_atom_site_label
_atom_site_fract_x
_atom_site_fract_y
_atom_site_fract_z
Si Si1 0.642349 0.833489 0.125730
Si Si2 0.249500 0.169266 0.077042
Si Si3 0.684598 0.662177 0.713112
Si Si4 0.934334 0.167397 0.992516
Si Si5 0.818183 0.337569 0.430015
Si Si6 0.816433 0.337238 0.715580
Si Si7 0.852628 0.837100 0.127965
Si Si8 0.318275 0.337513 0.571943
O O1 0.697289 0.733146 0.121380
O O2 0.636191 0.827761 0.216285
O O3 0.651805 0.000000 0.099308
O O4 0.592010 0.765029 0.074614
O O5 0.309151 0.206137 0.115927
O O6 0.241537 0.000000 0.066544
O O7 0.250000 0.250000 0.000000
O O8 0.684577 0.500000 0.680217
O O9 0.661290 0.766809 0.647792
O O10 0.750367 0.701795 0.739379
O O11 0.638716 0.671456 0.781727
O O12 0.906956 0.194639 0.074987
O O13 0.927479 0.000000 0.968818
O O14 0.000000 0.213607 0.000000
O O15 0.842263 0.500000 0.433702
O O16 0.749957 0.335038 0.432088
O O17 0.843588 0.249978 0.501289
O O18 0.815904 0.500000 0.683578
O O19 0.839011 0.233317 0.650164
O O20 0.829053 0.000000 0.108348
O O21 0.342315 0.500000 0.568962
#
# Coordination Sequence:
#
# PCOD8089043 Si02
#       8
#     8   8   8   8   8   8   8   8
#     4  11  21  34  51  72  96 126 161 200 245 289
#     4  12  22  31  47  71  97 123 154 195 242 292
#     4   9  16  27  42  62  90 122 155 191 233 278
#     4  10  22  38  54  71  93 126 165 204 246 291
#     4   9  16  25  37  56  85 122 159 191 224 265
#     4   9  17  28  42  63  92 121 153 192 234 279
#     4  10  19  33  50  69  95 126 159 200 244 288
#     4   9  16  25  38  57  84 122 161 189 221 268
#
# _framework density 16.699224000000001
#
# number of rings (size 3 to 8) (size 9 to 14) (size 15 to 20)
#    0.000    2.125    2.500    2.250    0.000    4.750 
#    0.000    0.000    0.000    0.000    0.000    0.000 
#    0.000    1.000    0.000   11.500    0.000    3.375 
#
# Total GULP energy -396426.905286 kJ/mol
# GULP energy per Si atom -12388.340790 kJ/mol
# Density = 1.666122 g / cm^3
# Si number density = 16.699224 Si / 1000 Ang^3
#
#
#
# Elastic Constant Matrix: (Units=GPa)
#
#
# Indices 1 2 3 4 5 6 
#
# 1 57.4497 34.8702 34.3323 0.0000 -0.5770 0.0000
# 2 34.8702 132.5192 71.4765 0.0000 -2.0873 0.0000
# 3 34.3323 71.4765 125.3538 0.0000 -6.4021 0.0000
# 4 0.0000 0.0000 0.0000 30.8423 0.0000 2.6145
# 5 -0.5770 -2.0873 -6.4021 0.0000 7.2034 0.0000
# 6 0.0000 0.0000 0.0000 2.6145 0.0000 13.4001
#
#
#
# Elastic Compliance Matrix: (Units=1/GPa)
#
#
# Indices 1 2 3 4 5 6 
#
# 1 0.022038 -0.003623 -0.004121 0.000000 -0.002947 0.000000
# 2 -0.003623 0.011536 -0.005688 0.000000 -0.002002 0.000000
# 3 -0.004121 -0.005688 0.012830 0.000000 0.009425 0.000000
# 4 0.000000 0.000000 0.000000 0.032968 0.000000 -0.006432
# 5 -0.002947 -0.002002 0.009425 0.000000 0.146384 0.000000
# 6 0.000000 0.000000 0.000000 -0.006432 0.000000 0.075881
#
#
# Mechanical properties :
#
#
# Convention : Reuss Voigt Hill
#
# Bulk Modulus (GPa) = 51.17162 66.29787 58.73474
# Shear Modulus (GPa) = 14.92472 21.93207 18.42839
#
# Velocity S-wave (km/s) = 2.99279 3.62796 3.32557
# Velocity P-wave (km/s) = 6.53085 7.57211 7.07067
#
# Compressibility (1/GPa) = 0.01954208
#
# Stress axis : x y z
#
# Youngs Moduli (GPa) = 45.37522 86.68877 77.93993
#
# Poissons Ratio (x) = 0.31407 0.32117
# Poissons Ratio (y) = 0.16439 0.44329
# Poissons Ratio (z) = 0.18698 0.49305
#
# Static dielectric constant tensor:
#      x y z
#    x 2.610800 0.000000 -0.080490 
#    y 0.000000 3.159680 0.000000 
#    z -0.080490 0.000000 3.281720 
# 
# 
# High freq. dielectric constant tensor:
#      x y z
#    x 1.563030 0.000000 -0.010600 
#    y 0.000000 1.656950 0.000000 
#    z -0.010600 0.000000 1.655040 
# 
# From -- ./inp_files/287718.got.cif
#   From: 2010.06.25/outbox.cif.g09.slc.cpg/sg12_144_cif.got.tgz:287718.got - 2010.06.28 00:19:55.
