data_PCOD8089333
_publ_section_title
;
Structure prediction by ZEFSAII (Michael W. Deem and Ramdas Pophale) SiO2 
 PCOD8089333
Probable space group: C 2/M
;
_chemical_formula_sum "Si O2"
_cell_formula_units_Z 56
_cell_length_a 14.223696
_cell_length_b 9.385710
_cell_length_c 32.007086
_cell_angle_alpha 90.000000
_cell_angle_beta 47.776903
_cell_angle_gamma 90.000000
_cell_volume 3164.248535
_symmetry_space_group_name_H-M "C 2/M"
_symmetry_group_IT_number 12
_symmetry_cell_setting 'monoclinic'
loop_
_space_group_symop_operation_xyz
x,y,z
-x,y,-z
-x,-y,-z
x,-y,z
1/2+x,1/2+y,z
1/2-x,1/2+y,-z
1/2-x,1/2-y,-z
1/2+x,1/2-y,z
loop_
_atom_site_type_symbol
_atom_site_label
_atom_site_fract_x
_atom_site_fract_y
_atom_site_fract_z
Si Si1 0.226971 0.833415 0.361342
Si Si2 0.180325 0.333038 0.148060
Si Si3 0.064979 0.162156 0.546963
Si Si4 0.872702 0.667081 0.148676
Si Si5 0.239437 0.334858 0.438706
Si Si6 0.896354 0.668837 0.234394
Si Si7 0.335704 0.835827 0.942907
O O1 0.279472 0.743145 0.384352
O O2 0.299661 0.777206 0.298639
O O3 0.078991 0.801197 0.398967
O O4 0.253343 0.000000 0.361537
O O5 0.195429 0.500000 0.152554
O O6 0.281099 0.249557 0.145235
O O7 0.204443 0.298258 0.092323
O O8 0.038820 0.278736 0.202375
O O9 0.112634 0.263469 0.495515
O O10 0.143555 0.189179 0.565350
O O11 0.080756 0.000000 0.526463
O O12 0.843813 0.500000 0.153649
O O13 0.849657 0.723269 0.202980
O O14 0.017278 0.701278 0.092991
O O15 0.211086 0.500000 0.438805
O O16 0.900521 0.500000 0.230528
O O17 0.310738 0.000000 0.959388
O O18 0.250000 0.750000 0.000000
#
# Coordination Sequence:
#
# PCOD8089333 Si02
#       7
#     8   8   8   8   8   8   8
#     4  10  19  33  53  72  93 127 165 197 237 293
#     4   9  18  34  53  73  99 131 164 200 245 290
#     4   9  19  34  50  69  95 128 162 193 236 297
#     4   9  18  34  54  74  98 132 169 202 239 286
#     4  10  20  33  49  72 100 125 155 201 248 287
#     4   8  17  34  52  70  96 129 163 199 241 290
#     4   9  19  34  51  74 105 135 165 202 242 287
#
# _framework density 17.697723
#
# number of rings (size 3 to 8) (size 9 to 14) (size 15 to 20)
#    0.000    2.857    0.000    2.571    0.000    5.714 
#    0.000    7.857    0.000    0.000    0.000    0.000 
#    0.000    0.000    0.000    0.000    0.000    0.000 
#
# Total GULP energy -347184.846120 kJ/mol
# GULP energy per Si atom -12399.458790 kJ/mol
# Density = 1.765744 g / cm^3
# Si number density = 17.697723 Si / 1000 Ang^3
#
#
#
# Elastic Constant Matrix: (Units=GPa)
#
#
# Indices 1 2 3 4 5 6 
#
# 1 125.1887 53.3077 65.8086 0.0000 7.3735 0.0000
# 2 53.3077 64.3259 59.2468 0.0000 5.4927 -0.0001
# 3 65.8086 59.2468 153.9109 0.0000 4.6359 0.0000
# 4 0.0000 0.0000 0.0000 26.3847 0.0000 5.0054
# 5 7.3735 5.4927 4.6359 0.0000 16.0694 0.0000
# 6 0.0000 -0.0001 0.0000 5.0054 0.0000 33.2299
#
#
#
# Elastic Compliance Matrix: (Units=1/GPa)
#
#
# Indices 1 2 3 4 5 6 
#
# 1 0.012876 -0.008462 -0.002176 0.000000 -0.002388 0.000000
# 2 -0.008462 0.030158 -0.007866 0.000000 -0.004156 0.000000
# 3 -0.002176 -0.007866 0.010435 0.000000 0.000677 0.000000
# 4 0.000000 0.000000 0.000000 0.039016 0.000000 -0.005877
# 5 -0.002388 -0.004156 0.000677 0.000000 0.064551 0.000000
# 6 0.000000 0.000000 0.000000 -0.005877 0.000000 0.030979
#
#
# Mechanical properties :
#
#
# Convention : Reuss Voigt Hill
#
# Bulk Modulus (GPa) = 60.74895 77.79464 69.27179
# Shear Modulus (GPa) = 21.69105 26.14096 23.91601
#
# Velocity S-wave (km/s) = 3.50471 3.84745 3.68007
# Velocity P-wave (km/s) = 7.12585 7.98687 7.56861
#
# Compressibility (1/GPa) = 0.01646119
#
# Stress axis : x y z
#
# Youngs Moduli (GPa) = 77.66473 33.15847 95.83036
#
# Poissons Ratio (x) = 0.28060 0.20852
# Poissons Ratio (y) = 0.65723 0.75377
# Poissons Ratio (z) = 0.16900 0.26081
#
# Static dielectric constant tensor:
#      x y z
#    x 3.311770 0.000000 0.037780 
#    y 0.000000 3.114930 0.000000 
#    z 0.037780 0.000000 3.463350 
# 
# 
# High freq. dielectric constant tensor:
#      x y z
#    x 1.690670 0.000000 0.002350 
#    y 0.000000 1.667860 0.000000 
#    z 0.002350 0.000000 1.686580 
# 
# From -- ./inp_files/337888.got.cif
#   From: 2010.06.25/outbox.cif.g09.slc.cpg/sg12_169_cif.got.tgz:337888.got - 2010.06.28 00:19:55.
