data_PCOD8089507
_publ_section_title
;
Structure prediction by ZEFSAII (Michael W. Deem and Ramdas Pophale) SiO2 
 PCOD8089507
Probable space group: C 2/M
;
_chemical_formula_sum "Si O2"
_cell_formula_units_Z 44
_cell_length_a 34.838967
_cell_length_b 13.064372
_cell_length_c 5.123503
_cell_angle_alpha 90.000000
_cell_angle_beta 97.024984
_cell_angle_gamma 90.000000
_cell_volume 2314.452211
_symmetry_space_group_name_H-M "C 2/M"
_symmetry_group_IT_number 12
_symmetry_cell_setting 'monoclinic'
loop_
_space_group_symop_operation_xyz
x,y,z
-x,y,-z
-x,-y,-z
x,-y,z
1/2+x,1/2+y,z
1/2-x,1/2+y,-z
1/2-x,1/2-y,-z
1/2+x,1/2-y,z
loop_
_atom_site_type_symbol
_atom_site_label
_atom_site_fract_x
_atom_site_fract_y
_atom_site_fract_z
Si Si1 0.206213 0.784690 0.948430
Si Si2 0.144036 0.617358 0.923273
Si Si3 0.025903 0.000000 0.271527
Si Si4 0.390736 0.794208 0.602501
Si Si5 0.526846 0.721103 0.272037
Si Si6 0.829756 0.119995 0.577612
O O1 0.193835 0.853871 0.181847
O O2 0.250000 0.750000 0.000000
O O3 0.183447 0.678457 0.917708
O O4 0.198145 0.851678 0.685177
O O5 0.153717 0.500000 0.880254
O O6 0.113119 0.658406 0.688116
O O7 0.127966 0.630987 0.200791
O O8 0.048048 0.891624 0.288909
O O9 0.000000 0.000000 0.500000
O O10 0.000000 0.000000 0.000000
O O11 0.436481 0.794789 0.698004
O O12 0.370046 0.682983 0.598799
O O13 0.500000 0.738515 0.500000
O O14 0.500000 0.740632 0.000000
O O15 0.840341 0.000000 0.580632
#
# Coordination Sequence:
#
# PCOD8089507 Si02
#       6
#     8   8   4   8   8   8
#     4  10  21  38  57  85 114 142 185 229 266 328
#     4  10  21  38  58  80 106 146 190 228 273 317
#     4   8  16  28  44  72 102 132 168 204 254 326
#     4  10  21  36  57  81 109 145 184 228 270 332
#     4  10  19  33  53  78 109 142 178 224 276 325
#     4  10  21  36  56  83 116 148 177 216 277 334
#
# _framework density 19.010977
#
# number of rings (size 3 to 8) (size 9 to 14) (size 15 to 20)
#    0.000    2.182    0.000    2.727    1.273    1.455 
#    0.000    0.000    0.000   10.909    0.000    0.000 
#    0.000    0.000    0.000    0.000    0.000    0.000 
#
# Total GULP energy -272686.420608 kJ/mol
# GULP energy per Si atom -12394.837300 kJ/mol
# Density = 1.896771 g / cm^3
# Si number density = 19.010977 Si / 1000 Ang^3
#
#
#
# Elastic Constant Matrix: (Units=GPa)
#
#
# Indices 1 2 3 4 5 6 
#
# 1 93.2930 36.1314 38.2073 0.0000 20.3669 0.0000
# 2 36.1314 118.9073 29.5118 0.0000 3.4287 0.0000
# 3 38.2073 29.5118 133.2724 0.0000 5.5667 0.0000
# 4 0.0000 0.0000 0.0000 15.4550 0.0000 1.2488
# 5 20.3669 3.4287 5.5667 0.0000 21.5252 0.0000
# 6 0.0000 0.0000 0.0000 1.2488 0.0000 11.3189
#
#
#
# Elastic Compliance Matrix: (Units=1/GPa)
#
#
# Indices 1 2 3 4 5 6 
#
# 1 0.016698 -0.003832 -0.003340 0.000000 -0.014326 0.000000
# 2 -0.003832 0.009796 -0.001170 0.000000 0.002368 0.000000
# 3 -0.003340 -0.001170 0.008674 0.000000 0.001104 0.000000
# 4 0.000000 0.000000 0.000000 0.065286 0.000000 -0.007203
# 5 -0.014326 0.002368 0.001104 0.000000 0.059349 0.000000
# 6 0.000000 0.000000 0.000000 -0.007203 0.000000 0.089142
#
#
# Mechanical properties :
#
#
# Convention : Reuss Voigt Hill
#
# Bulk Modulus (GPa) = 54.09791 61.46374 57.78082
# Shear Modulus (GPa) = 18.39645 25.76798 22.08221
#
# Velocity S-wave (km/s) = 3.11412 3.68561 3.41185
# Velocity P-wave (km/s) = 6.43803 7.10721 6.78088
#
# Compressibility (1/GPa) = 0.01848500
#
# Stress axis : x y z
#
# Youngs Moduli (GPa) = 59.88605 102.07942 115.28782
#
# Poissons Ratio (x) = 0.39116 0.38509
# Poissons Ratio (y) = 0.22948 0.13485
# Poissons Ratio (z) = 0.20004 0.11940
#
# Static dielectric constant tensor:
#      x y z
#    x 3.197950 0.000000 -0.058950 
#    y 0.000000 3.511580 0.000000 
#    z -0.058950 0.000000 3.947010 
# 
# 
# High freq. dielectric constant tensor:
#      x y z
#    x 1.722250 0.000000 -0.002690 
#    y 0.000000 1.732050 0.000000 
#    z -0.002690 0.000000 1.763880 
# 
# From -- ./inp_files/30898.got.cif
#   From: 2010.06.25/outbox.cif.g09.slc.cpg/sg12_16_cif.got.tgz:30898.got - 2010.06.28 00:19:55.
