data_PCOD8089499
_publ_section_title
;
Structure prediction by ZEFSAII (Michael W. Deem and Ramdas Pophale) SiO2 
 PCOD8089499
Probable space group: C 2/M
;
_chemical_formula_sum "Si O2"
_cell_formula_units_Z 64
_cell_length_a 11.473172
_cell_length_b 21.520636
_cell_length_c 18.518208
_cell_angle_alpha 90.000000
_cell_angle_beta 132.317192
_cell_angle_gamma 90.000000
_cell_volume 3380.913921
_symmetry_space_group_name_H-M "C 2/M"
_symmetry_group_IT_number 12
_symmetry_cell_setting 'monoclinic'
loop_
_space_group_symop_operation_xyz
x,y,z
-x,y,-z
-x,-y,-z
x,-y,z
1/2+x,1/2+y,z
1/2-x,1/2+y,-z
1/2-x,1/2-y,-z
1/2+x,1/2-y,z
loop_
_atom_site_type_symbol
_atom_site_label
_atom_site_fract_x
_atom_site_fract_y
_atom_site_fract_z
Si Si1 0.565508 0.070446 0.201986
Si Si2 0.112990 0.427290 0.383423
Si Si3 0.651784 0.427013 0.400247
Si Si4 0.959609 0.071611 0.113422
Si Si5 0.168405 0.112445 0.789622
Si Si6 0.765618 0.345098 0.051933
Si Si7 0.212998 0.572775 0.694783
Si Si8 0.313694 0.778329 0.924159
O O1 0.641513 0.087172 0.311369
O O2 0.698093 0.074211 0.196592
O O3 0.427506 0.118661 0.129029
O O4 0.497893 0.000000 0.175025
O O5 0.104053 0.500000 0.396581
O O6 0.260955 0.401865 0.491416
O O7 0.947398 0.396867 0.341072
O O8 0.606842 0.500000 0.385014
O O9 0.491652 0.387822 0.324012
O O10 0.770804 0.413969 0.383603
O O11 0.858190 0.078879 0.144786
O O12 0.134767 0.099986 0.199166
O O13 0.966759 0.000000 0.095511
O O14 0.878770 0.106180 0.011971
O O15 0.229889 0.183405 0.824554
O O16 0.739536 0.294018 0.104175
O O17 0.754115 0.308037 0.972896
O O18 0.212056 0.500000 0.709440
O O19 0.500000 0.784631 0.000000
#
# Coordination Sequence:
#
# PCOD8089499 Si02
#       8
#     8   8   8   8   8   8   8   8
#     4  11  21  33  51  81 118 146 170 210 274 333
#     4   9  18  29  45  74 112 146 172 207 265 334
#     4   9  16  29  51  77 105 139 178 221 268 315
#     4   9  17  30  51  80 109 137 173 217 270 320
#     4  10  19  33  53  78 106 143 181 223 261 310
#     4  10  21  34  53  77 103 138 177 223 263 311
#     4   8  14  27  46  70 104 142 177 210 251 311
#     4  10  20  38  55  72  98 136 191 226 256 302
#
# _framework density 18.929793
#
# number of rings (size 3 to 8) (size 9 to 14) (size 15 to 20)
#    0.000    2.500    1.250    2.625    0.000    3.000 
#    0.000    3.750    0.000    4.500    0.000    0.000 
#    0.000    0.000    0.000    0.000    0.000    0.000 
#
# Total GULP energy -396653.013557 kJ/mol
# GULP energy per Si atom -12395.406674 kJ/mol
# Density = 1.888671 g / cm^3
# Si number density = 18.929793 Si / 1000 Ang^3
#
#
#
# Elastic Constant Matrix: (Units=GPa)
#
#
# Indices 1 2 3 4 5 6 
#
# 1 57.9008 31.0119 35.8437 0.0000 19.6589 0.0000
# 2 31.0119 74.7835 47.8974 0.0000 7.8929 0.0000
# 3 35.8437 47.8974 104.0227 0.0000 20.1323 0.0000
# 4 0.0000 0.0000 0.0000 6.9504 0.0000 -9.0918
# 5 19.6589 7.8929 20.1323 0.0000 26.1501 0.0000
# 6 0.0000 0.0000 0.0000 -9.0918 0.0000 9.0997
#
#
#
# Elastic Compliance Matrix: (Units=1/GPa)
#
#
# Indices 1 2 3 4 5 6 
#
# 1 0.029556 -0.008587 -0.002857 0.000000 -0.017428 0.000000
# 2 -0.008587 0.021490 -0.008144 0.000000 0.006239 0.000000
# 3 -0.002857 -0.008144 0.015812 0.000000 -0.007567 0.000000
# 4 0.000000 0.000000 0.000000 -0.468708 0.000001 -0.468303
# 5 -0.017428 0.006239 -0.007567 0.000001 0.055285 0.000001
# 6 0.000000 0.000000 0.000000 -0.468303 0.000001 -0.358003
#
#
# Mechanical properties :
#
#
# Convention : Reuss Voigt Hill
#
# Bulk Modulus (GPa) = 36.12438 51.80146 43.96292
# Shear Modulus (GPa) = -7.62006 16.57032 4.47513
#
# Velocity S-wave (km/s) = -2.00852 2.96185 1.53922
# Velocity P-wave (km/s) = 3.70754 6.25469 5.14136
#
# Compressibility (1/GPa) = 0.02768214
#
# Stress axis : x y z
#
# Youngs Moduli (GPa) = 33.83365 46.53234 63.24194
#
# Poissons Ratio (x) = 0.39958 0.18071
# Poissons Ratio (y) = 0.29053 0.51503
# Poissons Ratio (z) = 0.09668 0.37895
#
# Static dielectric constant tensor:
#      x y z
#    x 3.481830 0.000000 0.120410 
#    y 0.000000 3.382650 0.000000 
#    z 0.120410 0.000000 3.581830 
# 
# 
# High freq. dielectric constant tensor:
#      x y z
#    x 1.737020 0.000000 0.008580 
#    y 0.000000 1.693930 0.000000 
#    z 0.008580 0.000000 1.732030 
# 
# From -- ./inp_files/265121.got.cif
#   From: 2010.06.25/outbox.cif.g09.slc.cpg/sg12_133_cif.got.tgz:265121.got - 2010.06.28 00:19:55.
