data_PCOD8089605
_publ_section_title
;
Structure prediction by ZEFSAII (Michael W. Deem and Ramdas Pophale) SiO2 
 PCOD8089605
Probable space group: C 2/M
;
_chemical_formula_sum "Si O2"
_cell_formula_units_Z 64
_cell_length_a 19.615107
_cell_length_b 9.542447
_cell_length_c 21.360859
_cell_angle_alpha 90.000000
_cell_angle_beta 117.799043
_cell_angle_gamma 90.000000
_cell_volume 3536.800559
_symmetry_space_group_name_H-M "C 2/M"
_symmetry_group_IT_number 12
_symmetry_cell_setting 'monoclinic'
loop_
_space_group_symop_operation_xyz
x,y,z
-x,y,-z
-x,-y,-z
x,-y,z
1/2+x,1/2+y,z
1/2-x,1/2+y,-z
1/2-x,1/2-y,-z
1/2+x,1/2-y,z
loop_
_atom_site_type_symbol
_atom_site_label
_atom_site_fract_x
_atom_site_fract_y
_atom_site_fract_z
Si Si1 0.192312 0.333751 0.159885
Si Si2 0.518807 0.834921 0.079040
Si Si3 0.356677 0.663167 0.582875
Si Si4 0.825752 0.166406 0.305634
Si Si5 0.264503 0.657096 0.065523
Si Si6 0.276995 0.337139 0.420362
Si Si7 0.522602 0.666238 0.697293
Si Si8 0.557005 0.657640 0.848654
O O1 0.199107 0.500000 0.161332
O O2 0.104831 0.287302 0.135536
O O3 0.250506 0.273260 0.237199
O O4 0.215930 0.276929 0.101736
O O5 0.461357 0.756741 0.100937
O O6 0.506435 0.000000 0.081883
O O7 0.500000 0.789587 0.000000
O O8 0.347367 0.500000 0.595771
O O9 0.336109 0.693073 0.501934
O O10 0.301104 0.749614 0.604749
O O11 0.443981 0.715540 0.630390
O O12 0.819391 0.212358 0.375241
O O13 0.904330 0.229677 0.309481
O O14 0.827511 0.000000 0.300760
O O15 0.236196 0.500000 0.037836
O O16 0.352415 0.656395 0.124246
O O17 0.250000 0.750000 0.000000
O O18 0.253589 0.500000 0.407206
O O19 0.530184 0.500000 0.700113
O O20 0.520538 0.717551 0.768609
O O21 0.527229 0.500000 0.850217
#
# Coordination Sequence:
#
# PCOD8089605 Si02
#       8
#     8   8   8   8   8   8   8   8
#     4   9  17  31  49  70  97 129 163 200 244 291
#     4  10  21  35  51  73 100 130 165 206 250 295
#     4   9  18  32  50  75 106 134 161 200 249 294
#     4   9  16  29  50  74  98 127 167 207 239 284
#     4  10  19  33  54  74  95 127 165 203 246 293
#     4   9  18  31  51  78 102 130 168 204 240 288
#     4   9  17  31  50  73 102 133 164 203 250 293
#     4  10  20  34  52  75 100 130 166 203 248 300
#
# _framework density 18.095452000000002
#
# number of rings (size 3 to 8) (size 9 to 14) (size 15 to 20)
#    0.000    2.625    1.250    0.750    1.750    2.250 
#    0.000    3.125    0.000    2.250    0.000    3.500 
#    0.000    0.000    0.000    0.000    0.000    0.000 
#
# Total GULP energy -396756.899978 kJ/mol
# GULP energy per Si atom -12398.653124 kJ/mol
# Density = 1.805427 g / cm^3
# Si number density = 18.095452 Si / 1000 Ang^3
#
#
#
# Elastic Constant Matrix: (Units=GPa)
#
#
# Indices 1 2 3 4 5 6 
#
# 1 88.6402 24.3621 40.2148 0.0000 -6.9172 0.0000
# 2 24.3621 31.7570 24.4114 0.0000 -5.8137 0.0000
# 3 40.2148 24.4114 102.7968 0.0000 -2.4511 0.0000
# 4 0.0000 0.0000 0.0000 17.5768 0.0000 -1.1568
# 5 -6.9172 -5.8137 -2.4511 0.0000 37.4860 0.0000
# 6 0.0000 0.0000 0.0000 -1.1568 0.0000 23.9613
#
#
#
# Elastic Compliance Matrix: (Units=1/GPa)
#
#
# Indices 1 2 3 4 5 6 
#
# 1 0.015573 -0.008629 -0.004013 0.000000 0.001273 0.000000
# 2 -0.008629 0.044419 -0.007057 0.000000 0.004835 0.000000
# 3 -0.004013 -0.007057 0.012950 0.000000 -0.000988 0.000000
# 4 0.000000 0.000000 0.000000 0.057075 0.000000 0.002756
# 5 0.001273 0.004835 -0.000988 0.000000 0.027597 0.000000
# 6 0.000000 0.000000 0.000000 0.002756 0.000000 0.041867
#
#
# Mechanical properties :
#
#
# Convention : Reuss Voigt Hill
#
# Bulk Modulus (GPa) = 29.81171 44.57451 37.19311
# Shear Modulus (GPa) = 19.99521 24.75185 22.37353
#
# Velocity S-wave (km/s) = 3.32774 3.70246 3.52009
# Velocity P-wave (km/s) = 5.59246 6.55470 6.09260
#
# Compressibility (1/GPa) = 0.03354386
#
# Stress axis : x y z
#
# Youngs Moduli (GPa) = 64.21329 22.51296 77.21967
#
# Poissons Ratio (x) = 0.19427 0.30986
# Poissons Ratio (y) = 0.55411 0.54495
# Poissons Ratio (z) = 0.25767 0.15888
#
# Static dielectric constant tensor:
#      x y z
#    x 3.470260 0.000000 0.076730 
#    y 0.000000 2.950030 0.000000 
#    z 0.076730 0.000000 3.518380 
# 
# 
# High freq. dielectric constant tensor:
#      x y z
#    x 1.707500 0.000000 0.000890 
#    y 0.000000 1.651110 0.000000 
#    z 0.000890 0.000000 1.713820 
# 
# From -- ./inp_files/315328.got.cif
#   From: 2010.06.25/outbox.cif.g09.slc.cpg/sg12_158_cif.got.tgz:315328.got - 2010.06.28 00:19:55.
