data_PCOD8089721
_publ_section_title
;
Structure prediction by ZEFSAII (Michael W. Deem and Ramdas Pophale) SiO2 
 PCOD8089721
Probable space group: C 2/M
;
_chemical_formula_sum "Si O2"
_cell_formula_units_Z 56
_cell_length_a 8.618000
_cell_length_b 18.124198
_cell_length_c 22.321696
_cell_angle_alpha 90.000000
_cell_angle_beta 54.214650
_cell_angle_gamma 90.000000
_cell_volume 2828.313665
_symmetry_space_group_name_H-M "C 2/M"
_symmetry_group_IT_number 12
_symmetry_cell_setting 'monoclinic'
loop_
_space_group_symop_operation_xyz
x,y,z
-x,y,-z
-x,-y,-z
x,-y,z
1/2+x,1/2+y,z
1/2-x,1/2+y,-z
1/2-x,1/2-y,-z
1/2+x,1/2-y,z
loop_
_atom_site_type_symbol
_atom_site_label
_atom_site_fract_x
_atom_site_fract_y
_atom_site_fract_z
Si Si1 0.102950 0.833363 0.138646
Si Si2 0.264623 0.917490 0.278860
Si Si3 0.179970 0.913066 0.999352
Si Si4 0.109344 0.082629 0.717684
Si Si5 0.527820 0.171160 0.862521
Si Si6 0.947188 0.167141 0.577107
Si Si7 0.684108 0.171935 0.423336
O O1 0.148378 0.886627 0.073661
O O2 0.287706 0.826634 0.137817
O O3 0.926530 0.869122 0.214853
O O4 0.045027 0.753459 0.129106
O O5 0.425132 0.865618 0.212446
O O6 0.081141 0.919574 0.278237
O O7 0.206864 0.886152 0.356856
O O8 0.347666 0.000000 0.268352
O O9 0.210951 0.000000 0.992538
O O10 0.368492 0.876739 0.930597
O O11 0.000000 0.889069 0.000000
O O12 0.280041 0.118830 0.641114
O O13 0.170868 0.000000 0.722306
O O14 0.138266 0.174133 0.572265
O O15 0.000000 0.134463 0.500000
O O16 0.850932 0.246583 0.593236
O O17 0.500000 0.141079 0.500000
#
# Coordination Sequence:
#
# PCOD8089721 Si02
#       7
#     8   8   8   8   8   8   8
#     4  11  22  38  61  85 112 147 188 229 272 327
#     4   9  19  35  55  80 109 142 181 226 275 325
#     4  11  24  41  60  85 117 147 180 227 278 327
#     4   9  19  35  55  80 109 142 181 226 275 325
#     4  11  22  38  61  85 112 147 188 229 272 327
#     4  10  19  33  54  78 107 141 179 223 269 322
#     4  10  19  33  54  78 107 141 179 223 269 322
#
# _framework density 19.799783999999999
#
# number of rings (size 3 to 8) (size 9 to 14) (size 15 to 20)
#    0.000    1.857    0.000    5.143    0.000    2.857 
#    0.000    4.286    0.000    9.429    0.000    0.000 
#    0.000    0.000    0.000    0.000    0.000    0.000 
#
# Total GULP energy -347275.830610 kJ/mol
# GULP energy per Si atom -12402.708236 kJ/mol
# Density = 1.975472 g / cm^3
# Si number density = 19.799784 Si / 1000 Ang^3
#
#
#
# Elastic Constant Matrix: (Units=GPa)
#
#
# Indices 1 2 3 4 5 6 
#
# 1 63.8116 20.2269 31.6281 -0.0007 11.3772 0.0007
# 2 20.2269 92.4791 50.9631 -0.0001 10.9972 0.0002
# 3 31.6281 50.9631 154.2913 -0.0005 7.1711 0.0004
# 4 -0.0007 -0.0001 -0.0005 37.1389 0.0007 3.1216
# 5 11.3772 10.9972 7.1711 0.0007 11.6598 -0.0007
# 6 0.0007 0.0002 0.0004 3.1216 -0.0007 16.9281
#
#
#
# Elastic Compliance Matrix: (Units=1/GPa)
#
#
# Indices 1 2 3 4 5 6 
#
# 1 0.020580 -0.000665 -0.003186 0.000001 -0.017495 -0.000002
# 2 -0.000665 0.014499 -0.004166 0.000000 -0.010464 -0.000001
# 3 -0.003186 -0.004166 0.008424 0.000000 0.001857 0.000000
# 4 0.000001 0.000000 0.000000 0.027350 -0.000003 -0.005043
# 5 -0.017495 -0.010464 0.001857 -0.000003 0.111563 0.000006
# 6 -0.000002 -0.000001 0.000000 -0.005043 0.000006 0.060003
#
#
# Mechanical properties :
#
#
# Convention : Reuss Voigt Hill
#
# Bulk Modulus (GPa) = 36.40539 57.35758 46.88149
# Shear Modulus (GPa) = 18.68386 26.99626 22.84006
#
# Velocity S-wave (km/s) = 3.07520 3.69652 3.40008
# Velocity P-wave (km/s) = 5.57098 6.87391 6.25646
#
# Compressibility (1/GPa) = 0.02746846
#
# Stress axis : x y z
#
# Youngs Moduli (GPa) = 48.59018 68.97006 118.70576
#
# Poissons Ratio (x) = 0.04588 0.37819
# Poissons Ratio (y) = 0.03232 0.49458
# Poissons Ratio (z) = 0.15480 0.28736
#
# Static dielectric constant tensor:
#      x y z
#    x 3.471130 0.000000 -0.011900 
#    y 0.000000 3.738070 0.000000 
#    z -0.011900 0.000000 3.950690 
# 
# 
# High freq. dielectric constant tensor:
#      x y z
#    x 1.757040 0.000000 -0.001900 
#    y 0.000000 1.780070 0.000000 
#    z -0.001900 0.000000 1.792630 
# 
# From -- ./inp_files/300661.got.cif
#   From: 2010.06.25/outbox.cif.g09.slc.cpg/sg12_151_cif.got.tgz:300661.got - 2010.06.28 00:19:55.
