data_PCOD8089135
_publ_section_title
;
Structure prediction by ZEFSAII (Michael W. Deem and Ramdas Pophale) SiO2 
 PCOD8089135
Probable space group: C 2/M
;
_chemical_formula_sum "Si O2"
_cell_formula_units_Z 56
_cell_length_a 19.798092
_cell_length_b 12.481177
_cell_length_c 13.916333
_cell_angle_alpha 90.000000
_cell_angle_beta 67.513995
_cell_angle_gamma 90.000000
_cell_volume 3177.334681
_symmetry_space_group_name_H-M "C 2/M"
_symmetry_group_IT_number 12
_symmetry_cell_setting 'monoclinic'
loop_
_space_group_symop_operation_xyz
x,y,z
-x,y,-z
-x,-y,-z
x,-y,z
1/2+x,1/2+y,z
1/2-x,1/2+y,-z
1/2-x,1/2-y,-z
1/2+x,1/2-y,z
loop_
_atom_site_type_symbol
_atom_site_label
_atom_site_fract_x
_atom_site_fract_y
_atom_site_fract_z
Si Si1 0.916314 0.373839 0.052923
Si Si2 0.263642 0.622772 0.105809
Si Si3 0.386738 0.623976 0.388739
Si Si4 0.445778 0.623947 0.716237
Si Si5 0.642939 0.742775 0.088026
Si Si6 0.178490 0.245784 0.754584
Si Si7 0.176646 0.875719 0.370841
O O1 0.906403 0.500000 0.061775
O O2 0.881331 0.325927 0.168399
O O3 0.876434 0.330886 0.980373
O O4 0.000000 0.338338 0.000000
O O5 0.239461 0.500000 0.119728
O O6 0.192727 0.698694 0.140366
O O7 0.307635 0.648756 0.179067
O O8 0.313525 0.645000 0.985148
O O9 0.376429 0.500000 0.365604
O O10 0.471841 0.650843 0.359194
O O11 0.353323 0.698725 0.325582
O O12 0.344723 0.651779 0.508935
O O13 0.437336 0.500000 0.748463
O O14 0.427155 0.693777 0.820637
O O15 0.391997 0.654785 0.658669
O O16 0.253198 0.307857 0.695215
O O17 0.196621 0.000000 0.347789
#
# Coordination Sequence:
#
# PCOD8089135 Si02
#       7
#     8   8   8   8   8   8   8
#     4  10  21  35  52  76 106 139 175 214 257 311
#     4  10  20  32  49  75 105 134 168 212 257 307
#     4  10  21  35  54  79 108 139 172 219 270 314
#     4  10  19  34  55  80 108 138 174 215 264 316
#     4  10  19  33  51  76 103 136 172 208 256 311
#     4  11  20  35  54  78 105 139 176 217 261 312
#     4  10  20  35  55  80 105 135 180 224 262 307
#
# _framework density 17.624835999999998
#
# number of rings (size 3 to 8) (size 9 to 14) (size 15 to 20)
#    0.000    1.857    1.429    3.429    0.000    1.714 
#    0.000    0.000    0.000    6.857    0.000    1.000 
#    0.000    0.000    0.000    0.000    0.000    0.000 
#
# Total GULP energy -347269.209694 kJ/mol
# GULP energy per Si atom -12402.471775 kJ/mol
# Density = 1.758472 g / cm^3
# Si number density = 17.624836 Si / 1000 Ang^3
#
#
#
# Elastic Constant Matrix: (Units=GPa)
#
#
# Indices 1 2 3 4 5 6 
#
# 1 96.7148 40.8971 39.4733 0.0000 -2.0815 0.0000
# 2 40.8971 74.1483 49.2729 0.0000 -1.9777 0.0000
# 3 39.4733 49.2729 93.6716 0.0000 -3.4543 0.0000
# 4 0.0000 0.0000 0.0000 23.8893 0.0000 -1.8278
# 5 -2.0815 -1.9777 -3.4543 0.0000 33.5068 0.0000
# 6 0.0000 0.0000 0.0000 -1.8278 0.0000 26.2219
#
#
#
# Elastic Compliance Matrix: (Units=1/GPa)
#
#
# Indices 1 2 3 4 5 6 
#
# 1 0.013953 -0.005824 -0.002808 0.000000 0.000234 0.000000
# 2 -0.005824 0.023165 -0.009731 0.000000 0.000002 0.000000
# 3 -0.002808 -0.009731 0.017015 0.000000 0.001005 0.000000
# 4 0.000000 0.000000 0.000000 0.042084 0.000000 0.002933
# 5 0.000234 0.000002 0.001005 0.000000 0.029963 0.000000
# 6 0.000000 0.000000 0.000000 0.002933 0.000000 0.038341
#
#
# Mechanical properties :
#
#
# Convention : Reuss Voigt Hill
#
# Bulk Modulus (GPa) = 57.44636 58.20236 57.82436
# Shear Modulus (GPa) = 24.14882 25.71634 24.93258
#
# Velocity S-wave (km/s) = 3.70558 3.82396 3.76523
# Velocity P-wave (km/s) = 7.13955 7.25200 7.19599
#
# Compressibility (1/GPa) = 0.01740754
#
# Stress axis : x y z
#
# Youngs Moduli (GPa) = 71.66666 43.16805 58.77321
#
# Poissons Ratio (x) = 0.25141 0.16503
# Poissons Ratio (y) = 0.41739 0.57192
# Poissons Ratio (z) = 0.20123 0.42007
#
# Static dielectric constant tensor:
#      x y z
#    x 3.347410 0.000000 -0.050530 
#    y 0.000000 3.104820 0.000000 
#    z -0.050530 0.000000 3.280000 
# 
# 
# High freq. dielectric constant tensor:
#      x y z
#    x 1.688400 0.000000 -0.000610 
#    y 0.000000 1.673730 0.000000 
#    z -0.000610 0.000000 1.687540 
# 
# From -- ./inp_files/165589.got.cif
#   From: 2010.06.25/outbox.cif.g09.slc.cpg/sg12_83_cif.got.tgz:165589.got - 2010.06.28 00:19:55.
