data_PCOD8089380
_publ_section_title
;
Structure prediction by ZEFSAII (Michael W. Deem and Ramdas Pophale) SiO2 
 PCOD8089380
Probable space group: C 2/M
;
_chemical_formula_sum "Si O2"
_cell_formula_units_Z 56
_cell_length_a 23.639387
_cell_length_b 9.272299
_cell_length_c 31.647127
_cell_angle_alpha 90.000000
_cell_angle_beta 153.277401
_cell_angle_gamma 90.000000
_cell_volume 3119.271163
_symmetry_space_group_name_H-M "C 2/M"
_symmetry_group_IT_number 12
_symmetry_cell_setting 'monoclinic'
loop_
_space_group_symop_operation_xyz
x,y,z
-x,y,-z
-x,-y,-z
x,-y,z
1/2+x,1/2+y,z
1/2-x,1/2+y,-z
1/2-x,1/2-y,-z
1/2+x,1/2-y,z
loop_
_atom_site_type_symbol
_atom_site_label
_atom_site_fract_x
_atom_site_fract_y
_atom_site_fract_z
Si Si1 0.414373 0.667005 0.546929
Si Si2 0.471510 0.169127 0.917333
Si Si3 0.917552 0.331057 0.404445
Si Si4 0.166379 0.332784 0.256350
Si Si5 0.522503 0.667285 0.708608
Si Si6 0.359610 0.832394 0.664554
Si Si7 0.800248 0.671417 0.877426
O O1 0.432480 0.500000 0.546461
O O2 0.521629 0.758048 0.595709
O O3 0.429945 0.691153 0.607240
O O4 0.277692 0.723543 0.441448
O O5 0.445643 0.206992 0.851121
O O6 0.359464 0.229655 0.872768
O O7 0.473521 0.000000 0.926252
O O8 0.608406 0.226707 0.023518
O O9 0.907008 0.500000 0.389104
O O10 0.781241 0.267679 0.321219
O O11 0.000000 0.293347 0.500000
O O12 0.207304 0.500000 0.279149
O O13 0.118934 0.300093 0.271736
O O14 0.532177 0.500000 0.726913
O O15 0.467578 0.748252 0.712258
O O16 0.660255 0.734139 0.790513
O O17 0.372436 0.000000 0.662302
O O18 0.788768 0.500000 0.868620
#
# Coordination Sequence:
#
# PCOD8089380 Si02
#       7
#     8   8   8   8   8   8   8
#     4  10  20  35  53  73  97 132 174 208 244 294
#     4   8  14  27  51  77  99 123 158 205 250 294
#     4  11  22  33  49  76 106 132 159 200 252 299
#     4  10  19  33  53  74  99 135 171 203 244 296
#     4  10  20  33  52  74  98 131 171 211 249 291
#     4  10  21  34  48  69 100 135 171 209 247 292
#     4   8  14  27  48  77 102 120 156 210 254 287
#
# _framework density 17.952912000000001
#
# number of rings (size 3 to 8) (size 9 to 14) (size 15 to 20)
#    0.000    2.429    1.429    2.571    0.000    4.571 
#    0.000    0.714    0.000    0.857    0.000    3.000 
#    0.000    0.000    0.000    0.000    0.000    0.000 
#
# Total GULP energy -347151.154093 kJ/mol
# GULP energy per Si atom -12398.255503 kJ/mol
# Density = 1.791205 g / cm^3
# Si number density = 17.952912 Si / 1000 Ang^3
#
#
#
# Elastic Constant Matrix: (Units=GPa)
#
#
# Indices 1 2 3 4 5 6 
#
# 1 113.9617 31.7516 56.4744 -0.0002 -6.1979 0.0003
# 2 31.7516 29.8516 20.0618 0.0119 -0.8708 -0.0056
# 3 56.4744 20.0618 107.5917 -0.0059 -13.7244 0.0020
# 4 -0.0002 0.0119 -0.0059 71.7149 -0.0009 -17.4042
# 5 -6.1979 -0.8708 -13.7244 -0.0009 27.9000 0.0002
# 6 0.0003 -0.0056 0.0020 -17.4042 0.0002 39.9878
#
#
#
# Elastic Compliance Matrix: (Units=1/GPa)
#
#
# Indices 1 2 3 4 5 6 
#
# 1 0.014911 -0.012132 -0.005538 0.000001 0.000210 -0.000001
# 2 -0.012132 0.048330 -0.002982 -0.000007 -0.002654 0.000004
# 3 -0.005538 -0.002982 0.013431 0.000002 0.005284 0.000000
# 4 0.000001 -0.000007 0.000002 0.015591 0.000001 0.006786
# 5 0.000210 -0.002654 0.005284 0.000001 0.038405 0.000000
# 6 -0.000001 0.000004 0.000000 0.006786 0.000000 0.027961
#
#
# Mechanical properties :
#
#
# Convention : Reuss Voigt Hill
#
# Bulk Modulus (GPa) = 28.27404 51.99785 40.13594
# Shear Modulus (GPa) = 23.61588 37.46170 30.53879
#
# Velocity S-wave (km/s) = 3.63083 4.57296 4.12885
# Velocity P-wave (km/s) = 5.77585 7.54380 6.71823
#
# Compressibility (1/GPa) = 0.03536814
#
# Stress axis : x y z
#
# Youngs Moduli (GPa) = 67.06606 20.69108 74.45394
#
# Poissons Ratio (x) = 0.25102 0.41230
# Poissons Ratio (y) = 0.81365 0.22203
# Poissons Ratio (z) = 0.37139 0.06170
#
# Static dielectric constant tensor:
#      x y z
#    x 3.328570 0.000000 -0.152500 
#    y 0.000000 2.980620 0.000000 
#    z -0.152500 0.000000 3.619910 
# 
# 
# High freq. dielectric constant tensor:
#      x y z
#    x 1.692880 0.000000 -0.008990 
#    y 0.000000 1.658190 0.000000 
#    z -0.008990 0.000000 1.699660 
# 
# From -- ./inp_files/237493.got.cif
#   From: 2010.06.25/outbox.cif.g09.slc.cpg/sg12_119_cif.got.tgz:237493.got - 2010.06.28 00:19:55.
