data_PCOD8089448
_publ_section_title
;
Structure prediction by ZEFSAII (Michael W. Deem and Ramdas Pophale) SiO2 
 PCOD8089448
Probable space group: C 2/M
;
_chemical_formula_sum "Si O2"
_cell_formula_units_Z 56
_cell_length_a 17.320078
_cell_length_b 14.067864
_cell_length_c 14.630049
_cell_angle_alpha 90.000000
_cell_angle_beta 56.979252
_cell_angle_gamma 90.000000
_cell_volume 2988.911229
_symmetry_space_group_name_H-M "C 2/M"
_symmetry_group_IT_number 12
_symmetry_cell_setting 'monoclinic'
loop_
_space_group_symop_operation_xyz
x,y,z
-x,y,-z
-x,-y,-z
x,-y,z
1/2+x,1/2+y,z
1/2-x,1/2+y,-z
1/2-x,1/2-y,-z
1/2+x,1/2-y,z
loop_
_atom_site_type_symbol
_atom_site_label
_atom_site_fract_x
_atom_site_fract_y
_atom_site_fract_z
Si Si1 0.936072 0.793333 0.621996
Si Si2 0.229779 0.268866 0.164700
Si Si3 0.514392 0.894427 0.097509
Si Si4 0.705594 0.395525 0.405386
Si Si5 0.419053 0.392987 0.345424
Si Si6 0.858159 0.257112 0.246628
Si Si7 0.275549 0.110156 0.001389
O O1 0.863829 0.718617 0.714273
O O2 0.876713 0.876620 0.613198
O O3 0.000000 0.745982 0.500000
O O4 0.996989 0.836455 0.663407
O O5 0.319629 0.262994 0.170554
O O6 0.247299 0.358587 0.087506
O O7 0.219108 0.172033 0.111829
O O8 0.449995 0.819166 0.188105
O O9 0.618019 0.866831 0.053002
O O10 0.491657 0.000000 0.149321
O O11 0.500000 0.890533 0.000000
O O12 0.746166 0.500000 0.355083
O O13 0.667660 0.395393 0.531758
O O14 0.783107 0.315470 0.352395
O O15 0.450623 0.500000 0.300124
O O16 0.383743 0.342207 0.276661
O O17 0.250133 0.000000 0.032078
#
# Coordination Sequence:
#
# PCOD8089448 Si02
#       7
#     8   8   8   8   8   8   8
#     4   9  18  34  56  78 103 135 173 217 259 301
#     4  10  21  35  54  79 103 136 176 212 256 310
#     4  10  19  33  53  76  98 123 161 214 265 296
#     4   9  18  32  52  78 103 131 172 214 253 297
#     4  10  20  33  49  74 108 141 168 202 251 306
#     4  11  20  32  53  76 105 135 168 210 256 307
#     4  10  21  37  55  75 104 138 174 215 257 305
#
# _framework density 18.735918999999999
#
# number of rings (size 3 to 8) (size 9 to 14) (size 15 to 20)
#    0.000    2.143    1.429    2.143    0.000    5.143 
#    0.000    0.000    0.000    0.857    0.000    0.000 
#    0.000    0.000    0.000    0.000    0.000    0.000 
#
# Total GULP energy -347143.300254 kJ/mol
# GULP energy per Si atom -12397.975009 kJ/mol
# Density = 1.869328 g / cm^3
# Si number density = 18.735919 Si / 1000 Ang^3
#
#
#
# Elastic Constant Matrix: (Units=GPa)
#
#
# Indices 1 2 3 4 5 6 
#
# 1 53.3132 26.0545 24.3225 0.0000 4.1797 0.0000
# 2 26.0545 52.0305 19.5179 0.0000 9.5760 0.0000
# 3 24.3225 19.5179 72.7307 0.0000 4.9503 0.0000
# 4 0.0000 0.0000 0.0000 22.7810 0.0000 0.5597
# 5 4.1797 9.5760 4.9503 0.0000 28.5545 0.0000
# 6 0.0000 0.0000 0.0000 0.5597 0.0000 25.7991
#
#
#
# Elastic Compliance Matrix: (Units=1/GPa)
#
#
# Indices 1 2 3 4 5 6 
#
# 1 0.027028 -0.011443 -0.006031 0.000000 0.000927 0.000000
# 2 -0.011443 0.027376 -0.003045 0.000000 -0.006978 0.000000
# 3 -0.006031 -0.003045 0.016650 0.000000 -0.000983 0.000000
# 4 0.000000 0.000000 0.000000 0.043920 0.000000 -0.000953
# 5 0.000927 -0.006978 -0.000983 0.000000 0.037396 0.000000
# 6 0.000000 0.000000 0.000000 -0.000953 0.000000 0.038782
#
#
# Mechanical properties :
#
#
# Convention : Reuss Voigt Hill
#
# Bulk Modulus (GPa) = 33.31446 35.31824 34.31635
# Shear Modulus (GPa) = 20.64464 22.63891 21.64178
#
# Velocity S-wave (km/s) = 3.32305 3.47986 3.40236
# Velocity P-wave (km/s) = 5.70467 5.91923 5.81294
#
# Compressibility (1/GPa) = 0.03001699
#
# Stress axis : x y z
#
# Youngs Moduli (GPa) = 36.99877 36.52848 60.05915
#
# Poissons Ratio (x) = 0.41798 0.36222
# Poissons Ratio (y) = 0.42336 0.18288
# Poissons Ratio (z) = 0.22314 0.11123
#
# Static dielectric constant tensor:
#      x y z
#    x 3.730500 0.000000 -0.129600 
#    y 0.000000 3.303390 0.000000 
#    z -0.129600 0.000000 3.512900 
# 
# 
# High freq. dielectric constant tensor:
#      x y z
#    x 1.729430 0.000000 -0.001620 
#    y 0.000000 1.704850 0.000000 
#    z -0.001620 0.000000 1.727320 
# 
# From -- ./inp_files/223732.got.cif
#   From: 2010.06.25/outbox.cif.g09.slc.cpg/sg12_112_cif.got.tgz:223732.got - 2010.06.28 00:19:55.
