data_PCOD8089856
_publ_section_title
;
Structure prediction by ZEFSAII (Michael W. Deem and Ramdas Pophale) SiO2 
 PCOD8089856
Probable space group: C 2/M
;
_chemical_formula_sum "Si O2"
_cell_formula_units_Z 56
_cell_length_a 28.850707
_cell_length_b 9.000239
_cell_length_c 19.701566
_cell_angle_alpha 90.000000
_cell_angle_beta 32.546184
_cell_angle_gamma 90.000000
_cell_volume 2752.179678
_symmetry_space_group_name_H-M "C 2/M"
_symmetry_group_IT_number 12
_symmetry_cell_setting 'monoclinic'
loop_
_space_group_symop_operation_xyz
x,y,z
-x,y,-z
-x,-y,-z
x,-y,z
1/2+x,1/2+y,z
1/2-x,1/2+y,-z
1/2-x,1/2-y,-z
1/2+x,1/2-y,z
loop_
_atom_site_type_symbol
_atom_site_label
_atom_site_fract_x
_atom_site_fract_y
_atom_site_fract_z
Si Si1 0.508030 0.169665 0.781571
Si Si2 0.684964 0.677673 0.528139
Si Si3 0.261914 0.669933 0.684852
Si Si4 0.273735 0.675669 0.900469
Si Si5 0.443967 0.330463 0.505997
Si Si6 0.061669 0.332577 0.275056
Si Si7 0.646746 0.823003 0.942019
O O1 0.588729 0.275037 0.668422
O O2 0.437893 0.177227 0.807208
O O3 0.541170 0.000000 0.749471
O O4 0.452082 0.222106 0.916960
O O5 0.688469 0.500000 0.526562
O O6 0.750000 0.750000 0.500000
O O7 0.713646 0.741259 0.418303
O O8 0.241988 0.500000 0.692957
O O9 0.340980 0.684725 0.641176
O O10 0.178243 0.737389 0.828434
O O11 0.266620 0.500000 0.915781
O O12 0.372285 0.724724 0.766909
O O13 0.213168 0.739624 0.916008
O O14 0.250000 0.750000 0.000000
O O15 0.500000 0.273040 0.500000
O O16 0.468211 0.500000 0.458650
O O17 0.467642 0.224598 0.413634
O O18 0.079324 0.500000 0.277065
O O19 0.654178 0.000000 0.932674
#
# Coordination Sequence:
#
# PCOD8089856 Si02
#       7
#     8   8   8   8   8   8   8
#     4  10  20  37  60  85 115 150 189 237 293 346
#     4  11  23  41  66  92 115 145 190 242 300 361
#     4   9  18  34  58  87 114 146 195 245 289 341
#     4  11  20  32  51  78 117 162 205 246 286 339
#     4  10  19  33  54  81 113 154 200 244 290 342
#     4  11  21  33  50  79 115 155 200 243 292 342
#     4   9  18  35  57  83 116 154 196 244 288 333
#
# _framework density 20.34751
#
# number of rings (size 3 to 8) (size 9 to 14) (size 15 to 20)
#    0.000    1.857    2.857    2.143    0.000    3.143 
#    0.000    0.714    0.000    9.429    0.000    0.000 
#    0.000    0.000    0.000    0.000    0.000    0.000 
#
# Total GULP energy -346909.860885 kJ/mol
# GULP energy per Si atom -12389.637889 kJ/mol
# Density = 2.030120 g / cm^3
# Si number density = 20.347510 Si / 1000 Ang^3
#
#
#
# Elastic Constant Matrix: (Units=GPa)
#
#
# Indices 1 2 3 4 5 6 
#
# 1 87.0170 22.4195 52.1486 -0.0018 5.2447 0.0010
# 2 22.4195 57.3629 34.3789 0.0149 1.0609 0.0001
# 3 52.1486 34.3789 163.5494 0.0079 23.6562 0.0006
# 4 -0.0018 0.0149 0.0079 30.5081 0.0007 -2.6866
# 5 5.2447 1.0609 23.6562 0.0007 26.2199 -0.0016
# 6 0.0010 0.0001 0.0006 -2.6866 -0.0016 22.6608
#
#
#
# Elastic Compliance Matrix: (Units=1/GPa)
#
#
# Indices 1 2 3 4 5 6 
#
# 1 0.014775 -0.003304 -0.004150 0.000004 0.000922 0.000000
# 2 -0.003304 0.020955 -0.003823 -0.000010 0.003262 -0.000001
# 3 -0.004150 -0.003823 0.009314 -0.000001 -0.007419 -0.000001
# 4 0.000004 -0.000010 -0.000001 0.033124 0.000000 0.003927
# 5 0.000922 0.003262 -0.007419 0.000000 0.044516 0.000003
# 6 0.000000 -0.000001 -0.000001 0.003927 0.000003 0.044595
#
#
# Mechanical properties :
#
#
# Convention : Reuss Voigt Hill
#
# Bulk Modulus (GPa) = 44.46526 58.42481 51.44504
# Shear Modulus (GPa) = 25.33824 29.14325 27.24074
#
# Velocity S-wave (km/s) = 3.53267 3.78865 3.66290
# Velocity P-wave (km/s) = 6.20807 6.92202 6.57474
#
# Compressibility (1/GPa) = 0.02248947
#
# Stress axis : x y z
#
# Youngs Moduli (GPa) = 67.68311 47.72051 107.36228
#
# Poissons Ratio (x) = 0.15769 0.44553
# Poissons Ratio (y) = 0.22366 0.41046
# Poissons Ratio (z) = 0.28087 0.18244
#
# Static dielectric constant tensor:
#      x y z
#    x 3.689210 -0.000010 0.035700 
#    y -0.000010 3.473090 -0.000010 
#    z 0.035700 -0.000010 4.357940 
# 
# 
# High freq. dielectric constant tensor:
#      x y z
#    x 1.769660 0.000000 0.010010 
#    y 0.000000 1.756490 0.000000 
#    z 0.010010 0.000000 1.817690 
# 
# From -- ./inp_files/329536.got.cif
#   From: 2010.06.25/outbox.cif.g09.slc.cpg/sg12_165_cif.got.tgz:329536.got - 2010.06.28 00:19:55.
