data_PCOD8089321
_publ_section_title
;
Structure prediction by ZEFSAII (Michael W. Deem and Ramdas Pophale) SiO2 
 PCOD8089321
Probable space group: C 2/M
;
_chemical_formula_sum "Si O2"
_cell_formula_units_Z 56
_cell_length_a 24.851068
_cell_length_b 9.107160
_cell_length_c 14.736648
_cell_angle_alpha 90.000000
_cell_angle_beta 121.120518
_cell_angle_gamma 90.000000
_cell_volume 2855.236773
_symmetry_space_group_name_H-M "C 2/M"
_symmetry_group_IT_number 12
_symmetry_cell_setting 'monoclinic'
loop_
_space_group_symop_operation_xyz
x,y,z
-x,y,-z
-x,-y,-z
x,-y,z
1/2+x,1/2+y,z
1/2-x,1/2+y,-z
1/2-x,1/2-y,-z
1/2+x,1/2-y,z
loop_
_atom_site_type_symbol
_atom_site_label
_atom_site_fract_x
_atom_site_fract_y
_atom_site_fract_z
Si Si1 0.764065 0.671210 0.918282
Si Si2 0.557493 0.833436 0.328946
Si Si3 0.063932 0.831697 0.707562
Si Si4 0.306380 0.824176 0.492889
Si Si5 0.173648 0.172803 0.677724
Si Si6 0.011647 0.659895 0.905174
Si Si7 0.378814 0.665358 0.055155
O O1 0.757706 0.500000 0.929168
O O2 0.721066 0.721919 0.798185
O O3 0.750000 0.750000 0.000000
O O4 0.835314 0.721320 0.961697
O O5 0.500007 0.758912 0.334305
O O6 0.626364 0.767831 0.409564
O O7 0.549269 0.819856 0.212559
O O8 0.556476 0.000000 0.362006
O O9 0.101670 0.792086 0.647554
O O10 0.116760 0.807586 0.832395
O O11 0.042360 0.000000 0.687923
O O12 0.250000 0.750000 0.500000
O O13 0.305497 0.770372 0.388672
O O14 0.298872 0.000000 0.491707
O O15 0.180730 0.000000 0.661379
O O16 0.041863 0.500000 0.904718
O O17 0.052421 0.802902 0.922154
O O18 0.000000 0.658366 0.000000
O O19 0.357996 0.500000 0.015207
#
# Coordination Sequence:
#
# PCOD8089321 Si02
#       7
#     8   8   8   8   8   8   8
#     4  11  21  35  56  84 120 157 192 234 290 348
#     4   9  20  38  59  84 115 150 190 243 297 348
#     4   9  18  35  58  86 118 150 188 236 293 353
#     4  11  25  44  63  85 116 156 202 251 299 350
#     4  10  22  40  60  86 120 158 201 246 294 352
#     4   9  18  34  56  82 111 149 195 236 288 352
#     4  10  19  33  52  81 119 153 190 235 287 346
#
# _framework density 19.613084000000001
#
# number of rings (size 3 to 8) (size 9 to 14) (size 15 to 20)
#    0.000    2.143    1.429    1.286    0.000    5.429 
#    0.000    5.714    0.000    0.000    0.000    0.000 
#    0.000    0.000    0.000    0.000    0.000    0.000 
#
# Total GULP energy -346906.013202 kJ/mol
# GULP energy per Si atom -12389.500471 kJ/mol
# Density = 1.956844 g / cm^3
# Si number density = 19.613084 Si / 1000 Ang^3
#
#
#
# Elastic Constant Matrix: (Units=GPa)
#
#
# Indices 1 2 3 4 5 6 
#
# 1 115.1615 51.9616 70.2950 0.0000 0.3453 0.0000
# 2 51.9616 72.0288 53.2101 0.0000 0.0677 0.0000
# 3 70.2950 53.2101 121.8892 0.0000 3.5577 0.0000
# 4 0.0000 0.0000 0.0000 29.5994 0.0000 2.8974
# 5 0.3453 0.0677 3.5577 0.0000 32.2217 0.0000
# 6 0.0000 0.0000 0.0000 2.8974 0.0000 21.3198
#
#
#
# Elastic Compliance Matrix: (Units=1/GPa)
#
#
# Indices 1 2 3 4 5 6 
#
# 1 0.015311 -0.006660 -0.005938 0.000000 0.000505 0.000000
# 2 -0.006660 0.023417 -0.006403 0.000000 0.000729 0.000000
# 3 -0.005938 -0.006403 0.014468 0.000000 -0.001520 0.000000
# 4 0.000000 0.000000 0.000000 0.034240 0.000000 -0.004653
# 5 0.000505 0.000729 -0.001520 0.000000 0.031196 0.000000
# 6 0.000000 0.000000 0.000000 -0.004653 0.000000 0.047537
#
#
# Mechanical properties :
#
#
# Convention : Reuss Voigt Hill
#
# Bulk Modulus (GPa) = 65.80909 73.33477 69.57193
# Shear Modulus (GPa) = 23.89647 25.53569 24.71608
#
# Velocity S-wave (km/s) = 3.49434 3.61220 3.55376
# Velocity P-wave (km/s) = 7.06449 7.40738 7.23796
#
# Compressibility (1/GPa) = 0.01519547
#
# Stress axis : x y z
#
# Youngs Moduli (GPa) = 65.31182 42.70373 69.11713
#
# Poissons Ratio (x) = 0.28439 0.41040
# Poissons Ratio (y) = 0.43495 0.44258
# Poissons Ratio (z) = 0.38780 0.27344
#
# Static dielectric constant tensor:
#      x y z
#    x 3.819250 0.000000 0.360370 
#    y 0.000000 0.137510 0.000000 
#    z 0.360370 0.000000 4.109310 
# 
# 
# High freq. dielectric constant tensor:
#      x y z
#    x 1.757910 0.000000 0.007300 
#    y 0.000000 1.763260 0.000000 
#    z 0.007300 0.000000 1.764100 
# 
# From -- ./inp_files/244289.got.cif
#   From: 2010.06.25/outbox.cif.g09.slc.cpg/sg12_123_cif.got.tgz:244289.got - 2010.06.28 00:19:55.
