data_PCOD8089271
_publ_section_title
;
Structure prediction by ZEFSAII (Michael W. Deem and Ramdas Pophale) SiO2 
 PCOD8089271
Probable space group: C 2/M
;
_chemical_formula_sum "Si O2"
_cell_formula_units_Z 56
_cell_length_a 16.179712
_cell_length_b 14.797079
_cell_length_c 30.235492
_cell_angle_alpha 90.000000
_cell_angle_beta 23.815330
_cell_angle_gamma 90.000000
_cell_volume 2922.937121
_symmetry_space_group_name_H-M "C 2/M"
_symmetry_group_IT_number 12
_symmetry_cell_setting 'monoclinic'
loop_
_space_group_symop_operation_xyz
x,y,z
-x,y,-z
-x,-y,-z
x,-y,z
1/2+x,1/2+y,z
1/2-x,1/2+y,-z
1/2-x,1/2-y,-z
1/2+x,1/2-y,z
loop_
_atom_site_type_symbol
_atom_site_label
_atom_site_fract_x
_atom_site_fract_y
_atom_site_fract_z
Si Si1 0.895648 0.762682 0.595322
Si Si2 0.905597 0.834777 0.420907
Si Si3 0.031328 0.823047 0.190357
Si Si4 0.884722 0.101862 0.173051
Si Si5 0.015369 0.596726 0.588051
Si Si6 0.811796 0.107015 0.795406
Si Si7 0.464280 0.250233 0.968717
O O1 0.652094 0.748215 0.709811
O O2 0.006201 0.667660 0.552496
O O3 0.000000 0.800537 0.500000
O O4 0.945274 0.835801 0.609578
O O5 0.750000 0.750000 0.500000
O O6 0.742279 0.916021 0.497927
O O7 0.047222 0.840380 0.308519
O O8 0.084551 0.881713 0.207460
O O9 0.972799 0.890176 0.179513
O O10 0.225326 0.766690 0.078722
O O11 0.642249 0.124482 0.295571
O O12 0.977989 0.173796 0.094438
O O13 0.925386 0.000000 0.135838
O O14 0.947788 0.500000 0.601493
O O15 0.591143 0.156441 0.901520
O O16 0.785205 0.000000 0.797856
O O17 0.500000 0.290770 0.000000
#
# Coordination Sequence:
#
# PCOD8089271 Si02
#       7
#     8   8   8   8   8   8   8
#     4  10  20  33  53  79 107 139 176 220 271 328
#     4  10  19  33  52  76 108 141 177 218 268 326
#     4  10  20  35  55  81 111 142 179 231 286 326
#     4  10  20  35  56  82 112 145 184 230 277 327
#     4   9  18  32  52  77 104 136 175 222 273 321
#     4  11  22  36  57  83 110 145 187 228 276 331
#     4  10  22  37  55  79 112 149 186 226 272 331
#
# _framework density 19.158809999999999
#
# number of rings (size 3 to 8) (size 9 to 14) (size 15 to 20)
#    0.000    2.000    0.000    5.571    0.000    5.429 
#    0.000    0.000    0.000    2.571    0.000    2.000 
#    0.000    0.000    0.000    0.000    0.000    0.000 
#
# Total GULP energy -346959.947946 kJ/mol
# GULP energy per Si atom -12391.426712 kJ/mol
# Density = 1.911520 g / cm^3
# Si number density = 19.158810 Si / 1000 Ang^3
#
#
#
# Elastic Constant Matrix: (Units=GPa)
#
#
# Indices 1 2 3 4 5 6 
#
# 1 85.4770 41.5728 59.9430 -0.0039 2.2134 0.0046
# 2 41.5728 54.2516 30.6065 0.0432 11.6832 0.0024
# 3 59.9430 30.6065 133.0850 -0.0086 -5.2072 0.0194
# 4 -0.0039 0.0432 -0.0086 14.2467 0.0175 2.9081
# 5 2.2134 11.6832 -5.2072 0.0175 42.5334 -0.0153
# 6 0.0046 0.0024 0.0194 2.9081 -0.0153 20.9912
#
#
#
# Elastic Compliance Matrix: (Units=1/GPa)
#
#
# Indices 1 2 3 4 5 6 
#
# 1 0.023873 -0.014558 -0.007332 0.000044 0.001859 -0.000002
# 2 -0.014558 0.031976 -0.001116 -0.000093 -0.008162 0.000007
# 3 -0.007332 -0.001116 0.011153 0.000007 0.002054 -0.000008
# 4 0.000044 -0.000093 0.000007 0.072235 -0.000009 -0.010007
# 5 0.001859 -0.008162 0.002054 -0.000009 0.025908 0.000019
# 6 -0.000002 0.000007 -0.000008 -0.010007 0.000019 0.049026
#
#
# Mechanical properties :
#
#
# Convention : Reuss Voigt Hill
#
# Bulk Modulus (GPa) = 47.64062 59.67314 53.65688
# Shear Modulus (GPa) = 18.71409 24.93368 21.82389
#
# Velocity S-wave (km/s) = 3.12875 3.61144 3.37872
# Velocity P-wave (km/s) = 6.16216 6.97167 6.57938
#
# Compressibility (1/GPa) = 0.02099049
#
# Stress axis : x y z
#
# Youngs Moduli (GPa) = 41.88833 31.27387 89.65838
#
# Poissons Ratio (x) = 0.45527 0.65738
# Poissons Ratio (y) = 0.60980 0.10007
# Poissons Ratio (z) = 0.30713 0.03490
#
# Static dielectric constant tensor:
#      x y z
#    x 3.677830 -0.000040 -0.292860 
#    y -0.000040 3.493530 0.000120 
#    z -0.292860 0.000120 3.854170 
# 
# 
# High freq. dielectric constant tensor:
#      x y z
#    x 1.738470 0.000000 -0.007980 
#    y 0.000000 1.723030 0.000000 
#    z -0.007980 0.000000 1.763490 
# 
# From -- ./inp_files/361394.got.cif
#   From: 2010.06.25/outbox.cif.g09.slc.cpg/sg12_181_cif.got.tgz:361394.got - 2010.06.28 00:19:55.
