data_PCOD8089433
_publ_section_title
;
Structure prediction by ZEFSAII (Michael W. Deem and Ramdas Pophale) SiO2 
 PCOD8089433
Probable space group: C 2/M
;
_chemical_formula_sum "Si O2"
_cell_formula_units_Z 64
_cell_length_a 14.915814
_cell_length_b 13.908255
_cell_length_c 21.515925
_cell_angle_alpha 90.000000
_cell_angle_beta 133.887571
_cell_angle_gamma 90.000000
_cell_volume 3216.881468
_symmetry_space_group_name_H-M "C 2/M"
_symmetry_group_IT_number 12
_symmetry_cell_setting 'monoclinic'
loop_
_space_group_symop_operation_xyz
x,y,z
-x,y,-z
-x,-y,-z
x,-y,z
1/2+x,1/2+y,z
1/2-x,1/2+y,-z
1/2-x,1/2-y,-z
1/2+x,1/2-y,z
loop_
_atom_site_type_symbol
_atom_site_label
_atom_site_fract_x
_atom_site_fract_y
_atom_site_fract_z
Si Si1 0.273045 0.390476 0.128293
Si Si2 0.129155 0.729813 0.531339
Si Si3 0.695894 0.110178 0.353435
Si Si4 0.516458 0.890476 0.371707
Si Si5 0.737759 0.112396 0.692555
Si Si6 0.489025 0.389822 0.146565
Si Si7 0.852649 0.387604 0.807445
Si Si8 0.933523 0.270187 0.031339
O O1 0.225912 0.500000 0.095388
O O2 0.418118 0.380721 0.179111
O O3 0.252642 0.363378 0.191147
O O4 0.196717 0.320975 0.045932
O O5 0.205758 0.828140 0.559553
O O6 0.206136 0.656863 0.611067
O O7 0.000000 0.758826 0.500000
O O8 0.104852 0.679025 0.454068
O O9 0.559895 0.119279 0.320889
O O10 0.691066 0.152004 0.280811
O O11 0.741542 0.000000 0.376094
O O12 0.370348 0.863378 0.308853
O O13 0.535135 0.000000 0.404612
O O14 0.870557 0.152004 0.780811
O O15 0.752592 0.000000 0.688245
O O16 0.489353 0.500000 0.123906
O O17 0.413348 0.328140 0.059553
O O18 0.876102 0.500000 0.811755
O O19 0.984002 0.343137 0.888933
O O20 0.000000 0.241174 0.000000
#
# Coordination Sequence:
#
# PCOD8089433 Si02
#       8
#     8   8   8   8   8   8   8   8
#     4   9  18  34  56  79 102 133 174 216 256 302
#     4  10  19  33  53  76 104 137 172 210 256 306
#     4  10  20  34  52  77 109 139 170 210 257 309
#     4   9  18  34  56  79 102 133 174 216 256 302
#     4   9  18  34  55  77 101 132 173 218 257 298
#     4  10  20  34  52  77 109 139 170 210 257 309
#     4   9  18  34  55  77 101 132 173 218 257 298
#     4  10  19  33  53  76 104 137 172 210 256 306
#
# _framework density 19.895045
#
# number of rings (size 3 to 8) (size 9 to 14) (size 15 to 20)
#    0.000    2.500    0.000    2.250    0.000    3.500 
#    0.000   12.500    0.000    6.000    0.000    0.000 
#    0.000    0.000    0.000    0.000    0.000    0.000 
#
# Total GULP energy -396719.406455 kJ/mol
# GULP energy per Si atom -12397.481452 kJ/mol
# Density = 1.984976 g / cm^3
# Si number density = 19.895045 Si / 1000 Ang^3
#
#
#
# Elastic Constant Matrix: (Units=GPa)
#
#
# Indices 1 2 3 4 5 6 
#
# 1 116.7097 46.2170 64.6606 0.0000 -0.0917 0.0000
# 2 46.2170 60.0497 41.2743 0.0000 -0.5849 0.0000
# 3 64.6606 41.2743 90.4854 0.0000 -3.0116 0.0000
# 4 0.0000 0.0000 0.0000 30.6486 0.0000 1.4552
# 5 -0.0917 -0.5849 -3.0116 0.0000 25.2914 0.0000
# 6 0.0000 0.0000 0.0000 1.4552 0.0000 18.3523
#
#
#
# Elastic Compliance Matrix: (Units=1/GPa)
#
#
# Indices 1 2 3 4 5 6 
#
# 1 0.015723 -0.006358 -0.008372 0.000000 -0.001087 0.000000
# 2 -0.006358 0.026844 -0.007712 0.000000 -0.000321 0.000000
# 3 -0.008372 -0.007712 0.020627 0.000000 0.002247 0.000000
# 4 0.000000 0.000000 0.000000 0.032751 0.000000 -0.002597
# 5 -0.001087 -0.000321 0.002247 0.000000 0.039795 0.000000
# 6 0.000000 0.000000 0.000000 -0.002597 0.000000 0.054695
#
#
# Mechanical properties :
#
#
# Convention : Reuss Voigt Hill
#
# Bulk Modulus (GPa) = 54.61415 63.50538 59.05977
# Shear Modulus (GPa) = 20.71058 22.53132 21.62095
#
# Velocity S-wave (km/s) = 3.22994 3.36893 3.30017
# Velocity P-wave (km/s) = 6.43590 6.86458 6.65369
#
# Compressibility (1/GPa) = 0.01831027
#
# Stress axis : x y z
#
# Youngs Moduli (GPa) = 63.59948 37.25277 48.48060
#
# Poissons Ratio (x) = 0.23684 0.40588
# Poissons Ratio (y) = 0.40434 0.37389
# Poissons Ratio (z) = 0.53246 0.28730
#
# Static dielectric constant tensor:
#      x y z
#    x 3.711320 0.000000 -0.029670 
#    y 0.000000 3.605590 0.000000 
#    z -0.029670 0.000000 3.460570 
# 
# 
# High freq. dielectric constant tensor:
#      x y z
#    x 1.781210 0.000000 -0.003810 
#    y 0.000000 1.784190 0.000000 
#    z -0.003810 0.000000 1.748990 
# 
# From -- ./inp_files/270703.got.cif
#   From: 2010.06.25/outbox.cif.g09.slc.cpg/sg12_136_cif.got.tgz:270703.got - 2010.06.28 00:19:55.
