data_PCOD8089377
_publ_section_title
;
Structure prediction by ZEFSAII (Michael W. Deem and Ramdas Pophale) SiO2 
 PCOD8089377
Probable space group: C 2/M
;
_chemical_formula_sum "Si O2"
_cell_formula_units_Z 40
_cell_length_a 27.138074
_cell_length_b 8.860896
_cell_length_c 11.605302
_cell_angle_alpha 90.000000
_cell_angle_beta 53.198349
_cell_angle_gamma 90.000000
_cell_volume 2234.552637
_symmetry_space_group_name_H-M "C 2/M"
_symmetry_group_IT_number 12
_symmetry_cell_setting 'monoclinic'
loop_
_space_group_symop_operation_xyz
x,y,z
-x,y,-z
-x,-y,-z
x,-y,z
1/2+x,1/2+y,z
1/2-x,1/2+y,-z
1/2-x,1/2-y,-z
1/2+x,1/2-y,z
loop_
_atom_site_type_symbol
_atom_site_label
_atom_site_fract_x
_atom_site_fract_y
_atom_site_fract_z
Si Si1 0.839164 0.676711 0.920103
Si Si2 0.927052 0.178537 0.204726
Si Si3 0.197935 0.177548 0.495735
Si Si4 0.052825 0.678915 0.064611
Si Si5 0.214858 0.178039 0.214502
O O1 0.834691 0.500000 0.905670
O O2 0.902563 0.722167 0.892821
O O3 0.836674 0.756297 0.799414
O O4 0.782451 0.731644 0.079270
O O5 0.868731 0.222400 0.363118
O O6 0.986820 0.247522 0.183869
O O7 0.935158 0.000000 0.179234
O O8 0.918570 0.252933 0.091762
O O9 0.250000 0.250000 0.500000
O O10 0.203170 0.241737 0.358779
O O11 0.208474 0.000000 0.483079
O O12 0.046440 0.500000 0.058230
O O13 0.208372 0.000000 0.222599
#
# Coordination Sequence:
#
# PCOD8089377 Si02
#       5
#     8   8   8   8   8
#     4   9  18  32  51  74  97 125 164 205 243 288
#     4  10  20  33  50  75 103 129 165 206 244 293
#     4  10  21  35  52  75 102 132 163 201 249 296
#     4  10  19  33  53  74  99 132 167 204 248 292
#     4   9  18  33  51  72  99 128 161 201 245 293
#
# _framework density 17.900675
#
# number of rings (size 3 to 8) (size 9 to 14) (size 15 to 20)
#    0.000    2.400    0.000    3.600    0.000    5.600 
#    0.000    5.000    0.000    6.000    0.000    0.000 
#    0.000    0.000    0.000    0.000    0.000    0.000 
#
# Total GULP energy -248024.805235 kJ/mol
# GULP energy per Si atom -12401.240262 kJ/mol
# Density = 1.785993 g / cm^3
# Si number density = 17.900675 Si / 1000 Ang^3
#
#
#
# Elastic Constant Matrix: (Units=GPa)
#
#
# Indices 1 2 3 4 5 6 
#
# 1 173.2784 50.5977 85.8921 0.0000 12.2669 0.0000
# 2 50.5977 51.4427 38.5969 0.0000 -0.5235 0.0000
# 3 85.8921 38.5969 136.1359 0.0000 8.9255 0.0000
# 4 0.0000 0.0000 0.0000 22.7894 0.0000 1.7979
# 5 12.2669 -0.5235 8.9255 0.0000 24.9312 0.0000
# 6 0.0000 0.0000 0.0000 1.7979 0.0000 34.4952
#
#
#
# Elastic Compliance Matrix: (Units=1/GPa)
#
#
# Indices 1 2 3 4 5 6 
#
# 1 0.010101 -0.006818 -0.004203 0.000000 -0.003608 0.000000
# 2 -0.006818 0.029529 -0.004435 0.000000 0.005562 0.000000
# 3 -0.004203 -0.004435 0.011393 0.000000 -0.002104 0.000000
# 4 0.000000 0.000000 0.000000 0.044061 0.000000 -0.002296
# 5 -0.003608 0.005562 -0.002104 0.000000 0.042756 0.000000
# 6 0.000000 0.000000 0.000000 -0.002296 0.000000 0.029109
#
#
# Mechanical properties :
#
#
# Convention : Reuss Voigt Hill
#
# Bulk Modulus (GPa) = 49.72581 79.00339 64.36460
# Shear Modulus (GPa) = 24.44202 28.82785 26.63494
#
# Velocity S-wave (km/s) = 3.69917 4.01737 3.86155
# Velocity P-wave (km/s) = 6.78854 8.10859 7.47775
#
# Compressibility (1/GPa) = 0.02011028
#
# Stress axis : x y z
#
# Youngs Moduli (GPa) = 99.00069 33.86469 87.77317
#
# Poissons Ratio (x) = 0.23089 0.36895
# Poissons Ratio (y) = 0.67498 0.38928
# Poissons Ratio (z) = 0.41614 0.15019
#
# Static dielectric constant tensor:
#      x y z
#    x 3.447650 0.000000 -0.048750 
#    y 0.000000 3.284600 0.000000 
#    z -0.048750 0.000000 3.466870 
# 
# 
# High freq. dielectric constant tensor:
#      x y z
#    x 1.701270 0.000000 0.000690 
#    y 0.000000 1.693660 0.000000 
#    z 0.000690 0.000000 1.682570 
# 
# From -- ./inp_files/162660.got.cif
#   From: 2010.06.25/outbox.cif.g09.slc.cpg/sg12_82_cif.got.tgz:162660.got - 2010.06.28 00:19:55.
