data_PCOD8089845
_publ_section_title
;
Structure prediction by ZEFSAII (Michael W. Deem and Ramdas Pophale) SiO2 
 PCOD8089845
Probable space group: C 2/M
;
_chemical_formula_sum "Si O2"
_cell_formula_units_Z 56
_cell_length_a 17.768912
_cell_length_b 13.109061
_cell_length_c 13.504425
_cell_angle_alpha 90.000000
_cell_angle_beta 65.306421
_cell_angle_gamma 90.000000
_cell_volume 2857.983660
_symmetry_space_group_name_H-M "C 2/M"
_symmetry_group_IT_number 12
_symmetry_cell_setting 'monoclinic'
loop_
_space_group_symop_operation_xyz
x,y,z
-x,y,-z
-x,-y,-z
x,-y,z
1/2+x,1/2+y,z
1/2-x,1/2+y,-z
1/2-x,1/2-y,-z
1/2+x,1/2-y,z
loop_
_atom_site_type_symbol
_atom_site_label
_atom_site_fract_x
_atom_site_fract_y
_atom_site_fract_z
Si Si1 0.578602 0.308361 0.790297
Si Si2 0.686374 0.614901 0.557281
Si Si3 0.639007 0.810399 0.482941
Si Si4 0.141801 0.308504 0.250285
Si Si5 0.100960 0.884365 0.159502
Si Si6 0.321268 0.618302 0.090419
Si Si7 0.027959 0.615346 0.709366
O O1 0.648326 0.361167 0.685055
O O2 0.492950 0.367050 0.823033
O O3 0.610990 0.317532 0.884587
O O4 0.570221 0.188788 0.767567
O O5 0.666328 0.500000 0.535378
O O6 0.647306 0.688953 0.496107
O O7 0.784593 0.629999 0.509919
O O8 0.633483 0.831045 0.370494
O O9 0.557576 0.852684 0.582748
O O10 0.127417 0.188853 0.235075
O O11 0.229446 0.343991 0.162231
O O12 0.071322 0.373299 0.232899
O O13 0.110582 0.000000 0.192146
O O14 0.161112 0.862288 0.034274
O O15 0.330745 0.500000 0.113562
O O16 0.052872 0.500000 0.722086
#
# Coordination Sequence:
#
# PCOD8089845 Si02
#       7
#     8   8   8   8   8   8   8
#     4  10  20  36  59  84 109 140 184 232 275 322
#     4  10  19  33  54  81 111 141 179 228 274 322
#     4  10  21  34  52  82 111 144 186 221 268 328
#     4  11  22  37  56  82 114 146 184 226 271 328
#     4  10  22  38  57  82 112 146 183 228 279 325
#     4  11  21  36  60  84 107 143 189 232 274 320
#     4  10  22  38  56  82 115 147 181 222 272 332
#
# _framework density 19.594234
#
# number of rings (size 3 to 8) (size 9 to 14) (size 15 to 20)
#    0.000    1.714    1.429    3.429    0.000    4.000 
#    0.000    0.714    0.000   12.857    0.000    0.000 
#    0.000    0.000    0.000    0.000    0.000    0.000 
#
# Total GULP energy -347300.767591 kJ/mol
# GULP energy per Si atom -12403.598843 kJ/mol
# Density = 1.954964 g / cm^3
# Si number density = 19.594234 Si / 1000 Ang^3
#
#
#
# Elastic Constant Matrix: (Units=GPa)
#
#
# Indices 1 2 3 4 5 6 
#
# 1 61.5493 22.0909 15.0093 0.0000 -10.7625 0.0000
# 2 22.0909 137.2874 18.3487 0.0000 -0.0074 0.0000
# 3 15.0093 18.3487 35.5722 0.0000 -6.9883 0.0000
# 4 0.0000 0.0000 0.0000 14.8820 0.0000 -0.3268
# 5 -10.7625 -0.0074 -6.9883 0.0000 15.6957 0.0000
# 6 0.0000 0.0000 0.0000 -0.3268 0.0000 17.5586
#
#
#
# Elastic Compliance Matrix: (Units=1/GPa)
#
#
# Indices 1 2 3 4 5 6 
#
# 1 0.020468 -0.002630 -0.004956 0.000000 0.011827 0.000000
# 2 -0.002630 0.008217 -0.003816 0.000000 -0.003499 0.000000
# 3 -0.004956 -0.003816 0.034523 0.000000 0.011971 0.000000
# 4 0.000000 0.000000 0.000000 0.067223 0.000000 0.001251
# 5 0.011827 -0.003499 0.011971 0.000000 0.077150 0.000000
# 6 0.000000 0.000000 0.000000 0.001251 0.000000 0.056975
#
#
# Mechanical properties :
#
#
# Convention : Reuss Voigt Hill
#
# Bulk Modulus (GPa) = 24.75047 38.36741 31.55894
# Shear Modulus (GPa) = 16.62078 21.55792 19.08935
#
# Velocity S-wave (km/s) = 2.91563 3.32055 3.12466
# Velocity P-wave (km/s) = 4.89831 5.85874 5.39992
#
# Compressibility (1/GPa) = 0.04040327
#
# Stress axis : x y z
#
# Youngs Moduli (GPa) = 48.85715 121.69769 28.96621
#
# Poissons Ratio (x) = 0.32012 0.14355
# Poissons Ratio (y) = 0.12852 0.11053
# Poissons Ratio (z) = 0.24213 0.46439
#
# Static dielectric constant tensor:
#      x y z
#    x 3.429380 0.000000 -0.243930 
#    y 0.000000 3.656210 0.000000 
#    z -0.243930 0.000000 3.605060 
# 
# 
# High freq. dielectric constant tensor:
#      x y z
#    x 1.756210 0.000000 -0.022980 
#    y 0.000000 1.765470 0.000000 
#    z -0.022980 0.000000 1.763340 
# 
# From -- ./inp_files/223716.got.cif
#   From: 2010.06.25/outbox.cif.g09.slc.cpg/sg12_112_cif.got.tgz:223716.got - 2010.06.28 00:19:55.
