data_PCOD8089505
_publ_section_title
;
Structure prediction by ZEFSAII (Michael W. Deem and Ramdas Pophale) SiO2 
 PCOD8089505
Probable space group: C 2/M
;
_chemical_formula_sum "Si O2"
_cell_formula_units_Z 56
_cell_length_a 24.588770
_cell_length_b 9.163465
_cell_length_c 31.968642
_cell_angle_alpha 90.000000
_cell_angle_beta 26.552415
_cell_angle_gamma 90.000000
_cell_volume 3219.912738
_symmetry_space_group_name_H-M "C 2/M"
_symmetry_group_IT_number 12
_symmetry_cell_setting 'monoclinic'
loop_
_space_group_symop_operation_xyz
x,y,z
-x,y,-z
-x,-y,-z
x,-y,z
1/2+x,1/2+y,z
1/2-x,1/2+y,-z
1/2-x,1/2-y,-z
1/2+x,1/2-y,z
loop_
_atom_site_type_symbol
_atom_site_label
_atom_site_fract_x
_atom_site_fract_y
_atom_site_fract_z
Si Si1 0.802289 0.668884 0.885962
Si Si2 0.979262 0.169032 0.221491
Si Si3 0.971999 0.165447 0.907012
Si Si4 0.301703 0.830604 0.401176
Si Si5 0.088652 0.327681 0.902002
Si Si6 0.912211 0.666697 0.414117
Si Si7 0.311204 0.169271 0.784368
O O1 0.843306 0.500000 0.859639
O O2 0.798958 0.723161 0.840446
O O3 0.896934 0.763128 0.846640
O O4 0.671678 0.695989 0.996486
O O5 0.861082 0.247406 0.321521
O O6 0.971529 0.191356 0.177251
O O7 0.977229 0.000000 0.235408
O O8 0.036487 0.276158 0.893815
O O9 0.994642 0.000000 0.907021
O O10 0.166040 0.770610 0.502148
O O11 0.385468 0.800259 0.383912
O O12 0.292759 0.000000 0.396334
O O13 0.100467 0.500000 0.893391
O O14 0.221752 0.260696 0.816759
O O15 0.000000 0.273341 0.000000
O O16 0.877412 0.500000 0.448198
O O17 0.053188 0.698172 0.325801
O O18 0.275768 0.000000 0.805582
#
# Coordination Sequence:
#
# PCOD8089505 Si02
#       7
#     8   8   8   8   8   8   8
#     4  10  19  34  54  78 108 144 181 215 260 320
#     4  11  22  34  52  80 111 144 180 220 264 315
#     4  10  22  38  55  75 105 148 188 217 260 318
#     4  10  19  33  53  78 108 142 176 214 266 321
#     4  11  23  36  53  80 108 138 181 229 269 305
#     4   9  18  33  52  79 107 137 177 217 263 317
#     4  10  19  34  57  79 107 144 178 216 264 319
#
# _framework density 17.391774999999999
#
# number of rings (size 3 to 8) (size 9 to 14) (size 15 to 20)
#    0.000    1.857    2.857    1.714    0.000    4.000 
#    0.000    0.000    0.000    0.857    0.000    6.000 
#    0.000    0.000    0.000    0.000    0.000    0.000 
#
# Total GULP energy -347344.815170 kJ/mol
# GULP energy per Si atom -12405.171970 kJ/mol
# Density = 1.735219 g / cm^3
# Si number density = 17.391775 Si / 1000 Ang^3
#
#
#
# Elastic Constant Matrix: (Units=GPa)
#
#
# Indices 1 2 3 4 5 6 
#
# 1 71.8899 48.5934 43.4589 0.0046 -0.1829 -0.0108
# 2 48.5934 92.6007 57.2713 0.0089 0.8264 -0.0107
# 3 43.4589 57.2713 106.6786 0.0017 4.3890 -0.0035
# 4 0.0046 0.0089 0.0017 32.3472 -0.0039 -2.3870
# 5 -0.1829 0.8264 4.3890 -0.0039 23.1670 0.0112
# 6 -0.0108 -0.0107 -0.0035 -2.3870 0.0112 29.4705
#
#
#
# Elastic Compliance Matrix: (Units=1/GPa)
#
#
# Indices 1 2 3 4 5 6 
#
# 1 0.022837 -0.009294 -0.004369 0.000000 0.001339 0.000004
# 2 -0.009294 0.019976 -0.006960 -0.000004 0.000533 0.000003
# 3 -0.004369 -0.006960 0.014998 0.000001 -0.002628 -0.000001
# 4 0.000000 -0.000004 0.000001 0.031100 0.000004 0.002519
# 5 0.001339 0.000533 -0.002628 0.000004 0.043654 -0.000016
# 6 0.000004 0.000003 -0.000001 0.002519 -0.000016 0.034136
#
#
# Mechanical properties :
#
#
# Convention : Reuss Voigt Hill
#
# Bulk Modulus (GPa) = 60.36600 63.31294 61.83947
# Shear Modulus (GPa) = 23.42256 25.11999 24.27127
#
# Velocity S-wave (km/s) = 3.67381 3.80460 3.73977
# Velocity P-wave (km/s) = 7.26503 7.46880 7.36762
#
# Compressibility (1/GPa) = 0.01656562
#
# Stress axis : x y z
#
# Youngs Moduli (GPa) = 43.78916 50.06025 66.67352
#
# Poissons Ratio (x) = 0.46525 0.29129
# Poissons Ratio (y) = 0.40696 0.46405
# Poissons Ratio (z) = 0.19131 0.34842
#
# Static dielectric constant tensor:
#      x y z
#    x 2.992590 0.000000 0.039600 
#    y 0.000000 3.259100 0.000000 
#    z 0.039600 0.000000 3.272120 
# 
# 
# High freq. dielectric constant tensor:
#      x y z
#    x 1.647330 0.000000 0.000670 
#    y 0.000000 1.677230 0.000000 
#    z 0.000670 0.000000 1.677390 
# 
# From -- ./inp_files/237406.got.cif
#   From: 2010.06.25/outbox.cif.g09.slc.cpg/sg12_119_cif.got.tgz:237406.got - 2010.06.28 00:19:55.
