data_PCOD8089841
_publ_section_title
;
Structure prediction by ZEFSAII (Michael W. Deem and Ramdas Pophale) SiO2 
 PCOD8089841
Probable space group: C 2/M
;
_chemical_formula_sum "Si O2"
_cell_formula_units_Z 64
_cell_length_a 32.326613
_cell_length_b 9.548173
_cell_length_c 24.802990
_cell_angle_alpha 90.000000
_cell_angle_beta 153.450799
_cell_angle_gamma 90.000000
_cell_volume 3421.835690
_symmetry_space_group_name_H-M "C 2/M"
_symmetry_group_IT_number 12
_symmetry_cell_setting 'monoclinic'
loop_
_space_group_symop_operation_xyz
x,y,z
-x,y,-z
-x,-y,-z
x,-y,z
1/2+x,1/2+y,z
1/2-x,1/2+y,-z
1/2-x,1/2-y,-z
1/2+x,1/2-y,z
loop_
_atom_site_type_symbol
_atom_site_label
_atom_site_fract_x
_atom_site_fract_y
_atom_site_fract_z
Si Si1 0.660898 0.337693 0.410895
Si Si2 0.803138 0.837856 0.734781
Si Si3 0.549368 0.664458 0.178673
Si Si4 0.148578 0.162141 0.087303
Si Si5 0.834763 0.339092 0.077435
Si Si6 0.569264 0.338911 0.732499
Si Si7 0.258209 0.657955 0.138200
Si Si8 0.636559 0.659010 0.505742
O O1 0.686711 0.500000 0.433812
O O2 0.750000 0.250000 0.500000
O O3 0.577638 0.297795 0.272838
O O4 0.629285 0.301684 0.434183
O O5 0.873210 0.774448 0.771947
O O6 0.849078 0.814481 0.846207
O O7 0.705829 0.758364 0.618353
O O8 0.781993 0.000000 0.698974
O O9 0.543833 0.500000 0.161477
O O10 0.448295 0.726698 0.047355
O O11 0.234673 0.242323 0.160647
O O12 0.159072 0.000000 0.084049
O O13 0.831088 0.500000 0.093214
O O14 0.923925 0.260879 0.206487
O O15 0.750000 0.250000 0.000000
O O16 0.827370 0.333109 0.004043
O O17 0.587782 0.500000 0.771939
O O18 0.644291 0.294071 0.774833
O O19 0.465924 0.321712 0.588500
O O20 0.268566 0.500000 0.171959
O O21 0.671112 0.500000 0.553010
#
# Coordination Sequence:
#
# PCOD8089841 Si02
#       8
#     8   8   8   8   8   8   8   8
#     4  10  19  33  54  81 110 140 173 214 267 321
#     4  10  20  37  57  78 106 140 179 223 269 318
#     4   9  18  34  56  80 107 138 173 217 268 318
#     4  10  21  35  57  82 102 137 186 226 264 314
#     4   9  17  30  49  74 104 139 175 213 264 317
#     4   9  19  35  54  76 107 144 182 220 263 319
#     4   9  19  35  51  74 108 141 174 219 270 314
#     4  10  21  35  55  82 109 142 183 219 262 324
#
# _framework density 18.703410999999999
#
# number of rings (size 3 to 8) (size 9 to 14) (size 15 to 20)
#    0.000    2.500    1.250    1.500    1.750    5.000 
#    0.000    1.875    0.000    5.250    0.000    0.000 
#    0.000    0.000    0.000    0.000    0.000    0.000 
#
# Total GULP energy -396700.526590 kJ/mol
# GULP energy per Si atom -12396.891456 kJ/mol
# Density = 1.866084 g / cm^3
# Si number density = 18.703411 Si / 1000 Ang^3
#
#
#
# Elastic Constant Matrix: (Units=GPa)
#
#
# Indices 1 2 3 4 5 6 
#
# 1 61.4267 26.5821 31.2545 0.0000 8.0196 0.0000
# 2 26.5821 61.2117 35.6936 0.0000 1.4565 0.0000
# 3 31.2545 35.6936 109.0041 0.0000 6.2785 0.0000
# 4 0.0000 0.0000 0.0000 28.4305 0.0000 -1.1397
# 5 8.0196 1.4565 6.2785 0.0000 26.2905 0.0000
# 6 0.0000 0.0000 0.0000 -1.1397 0.0000 27.6074
#
#
#
# Elastic Compliance Matrix: (Units=1/GPa)
#
#
# Indices 1 2 3 4 5 6 
#
# 1 0.021988 -0.007324 -0.003593 0.000000 -0.005443 0.000000
# 2 -0.007324 0.022638 -0.005444 0.000000 0.002280 0.000000
# 3 -0.003593 -0.005444 0.012072 0.000000 -0.001485 0.000000
# 4 0.000000 0.000000 0.000000 0.035232 0.000000 0.001454
# 5 -0.005443 0.002280 -0.001485 0.000000 0.039925 0.000000
# 6 0.000000 0.000000 0.000000 0.001454 0.000000 0.036282
#
#
# Mechanical properties :
#
#
# Convention : Reuss Voigt Hill
#
# Bulk Modulus (GPa) = 41.70825 46.52255 44.11540
# Shear Modulus (GPa) = 23.94057 25.67316 24.80687
#
# Velocity S-wave (km/s) = 3.58161 3.70894 3.64583
# Velocity P-wave (km/s) = 6.28109 6.57796 6.43124
#
# Compressibility (1/GPa) = 0.02397607
#
# Stress axis : x y z
#
# Youngs Moduli (GPa) = 45.48007 44.17439 82.83420
#
# Poissons Ratio (x) = 0.32353 0.29760
# Poissons Ratio (y) = 0.33310 0.45095
# Poissons Ratio (z) = 0.16340 0.24049
#
# Static dielectric constant tensor:
#      x y z
#    x 3.377010 0.000000 0.053760 
#    y 0.000000 3.433910 0.000000 
#    z 0.053760 0.000000 3.613060 
# 
# 
# High freq. dielectric constant tensor:
#      x y z
#    x 1.714490 0.000000 0.003360 
#    y 0.000000 1.710510 0.000000 
#    z 0.003360 0.000000 1.722330 
# 
# From -- ./inp_files/353476.got.cif
#   From: 2010.06.25/outbox.cif.g09.slc.cpg/sg12_177_cif.got.tgz:353476.got - 2010.06.28 00:19:55.
