data_PCOD8089012
_publ_section_title
;
Structure prediction by ZEFSAII (Michael W. Deem and Ramdas Pophale) SiO2 
 PCOD8089012
Probable space group: C 2/M
;
_chemical_formula_sum "Si O2"
_cell_formula_units_Z 44
_cell_length_a 25.618812
_cell_length_b 13.376656
_cell_length_c 15.252909
_cell_angle_alpha 90.000000
_cell_angle_beta 151.806971
_cell_angle_gamma 90.000000
_cell_volume 2469.500599
_symmetry_space_group_name_H-M "C 2/M"
_symmetry_group_IT_number 12
_symmetry_cell_setting 'monoclinic'
loop_
_space_group_symop_operation_xyz
x,y,z
-x,y,-z
-x,-y,-z
x,-y,z
1/2+x,1/2+y,z
1/2-x,1/2+y,-z
1/2-x,1/2-y,-z
1/2+x,1/2-y,z
loop_
_atom_site_type_symbol
_atom_site_label
_atom_site_fract_x
_atom_site_fract_y
_atom_site_fract_z
Si Si1 0.734875 0.000000 0.947060
Si Si2 0.216228 0.206809 0.045835
Si Si3 0.037954 0.000000 0.652541
Si Si4 0.943239 0.000000 0.780186
Si Si5 0.173959 0.000000 0.217909
Si Si6 0.471272 0.332219 0.684219
Si Si7 0.508310 0.000000 0.410312
Si Si8 0.829485 0.325820 0.385576
O O1 0.828631 0.000000 0.159980
O O2 0.755605 0.909979 0.911367
O O3 0.614730 0.000000 0.814501
O O4 0.289740 0.237592 0.239859
O O5 0.250000 0.250000 0.000000
O O6 0.086767 0.226682 0.874137
O O7 0.000000 0.000000 0.500000
O O8 0.995144 0.099280 0.635594
O O9 0.845826 0.000000 0.707099
O O10 0.931891 0.899492 0.706698
O O11 0.061456 0.000000 0.999207
O O12 0.234242 0.896176 0.283774
O O13 0.370801 0.256842 0.516164
O O14 0.500000 0.000000 0.500000
O O15 0.565503 0.102925 0.470431
#
# Coordination Sequence:
#
# PCOD8089012 Si02
#       8
#     4   8   4   4   4   8   4   8
#     4  10  19  33  47  69 105 159 199 226 252 316
#     4  11  21  32  51  77 119 155 187 227 268 332
#     4   9  21  34  49  72 116 160 191 219 272 340
#     4  10  20  43  65  83 107 144 194 251 303 328
#     4  10  21  41  68  81 105 148 192 255 294 335
#     4  10  22  35  55  85 113 144 195 237 275 350
#     4  11  19  31  51  75 112 152 191 229 269 326
#     4  11  22  35  55  87 113 147 197 233 287 347
#
# _framework density 17.817367000000001
#
# number of rings (size 3 to 8) (size 9 to 14) (size 15 to 20)
#    0.000    1.636    3.636    2.182    5.091    0.727 
#    0.000    0.000    0.000    0.000    0.000    1.273 
#    0.000    0.000    0.000    0.000    0.000    0.000 
#
# Total GULP energy -272604.210186 kJ/mol
# GULP energy per Si atom -12391.100463 kJ/mol
# Density = 1.777681 g / cm^3
# Si number density = 17.817367 Si / 1000 Ang^3
#
#
#
# Elastic Constant Matrix: (Units=GPa)
#
#
# Indices 1 2 3 4 5 6 
#
# 1 108.3751 33.8763 49.3046 0.0000 -6.8357 0.0000
# 2 33.8763 76.4039 38.0638 0.0000 -7.2380 0.0000
# 3 49.3046 38.0638 111.3672 0.0000 -7.5171 0.0000
# 4 0.0000 0.0000 0.0000 32.0203 0.0000 -2.9153
# 5 -6.8357 -7.2380 -7.5171 0.0000 25.1617 0.0000
# 6 0.0000 0.0000 0.0000 -2.9153 0.0000 9.6197
#
#
#
# Elastic Compliance Matrix: (Units=1/GPa)
#
#
# Indices 1 2 3 4 5 6 
#
# 1 0.012230 -0.003201 -0.004244 0.000000 0.001134 0.000000
# 2 -0.003201 0.016835 -0.004152 0.000000 0.002733 0.000000
# 3 -0.004244 -0.004152 0.012368 0.000000 0.001348 0.000000
# 4 0.000000 0.000000 0.000000 0.032116 0.000000 0.009733
# 5 0.001134 0.002733 0.001348 0.000000 0.041240 0.000000
# 6 0.000000 0.000000 0.000000 0.009733 0.000000 0.106903
#
#
# Mechanical properties :
#
#
# Convention : Reuss Voigt Hill
#
# Bulk Modulus (GPa) = 54.82760 59.84840 57.33800
# Shear Modulus (GPa) = 19.92294 25.02044 22.47169
#
# Velocity S-wave (km/s) = 3.34754 3.75143 3.55522
# Velocity P-wave (km/s) = 6.76611 7.24066 7.00740
#
# Compressibility (1/GPa) = 0.01823899
#
# Stress axis : x y z
#
# Youngs Moduli (GPa) = 81.76592 59.39944 80.85116
#
# Poissons Ratio (x) = 0.19013 0.34313
# Poissons Ratio (y) = 0.26172 0.33573
# Poissons Ratio (z) = 0.34701 0.24666
#
# Static dielectric constant tensor:
#      x y z
#    x 3.160780 0.000000 -0.074790 
#    y 0.000000 3.327850 0.000000 
#    z -0.074790 0.000000 3.158010 
# 
# 
# High freq. dielectric constant tensor:
#      x y z
#    x 1.662620 0.000000 -0.001090 
#    y 0.000000 1.685560 0.000000 
#    z -0.001090 0.000000 1.702760 
# 
# From -- ./inp_files/240380.got.cif
#   From: 2010.06.25/outbox.cif.g09.slc.cpg/sg12_121_cif.got.tgz:240380.got - 2010.06.28 00:19:55.
