data_PCOD8089572
_publ_section_title
;
Structure prediction by ZEFSAII (Michael W. Deem and Ramdas Pophale) SiO2 
 PCOD8089572
Probable space group: C 2/M
;
_chemical_formula_sum "Si O2"
_cell_formula_units_Z 56
_cell_length_a 25.012554
_cell_length_b 8.692317
_cell_length_c 25.434825
_cell_angle_alpha 90.000000
_cell_angle_beta 34.468546
_cell_angle_gamma 90.000000
_cell_volume 3129.704058
_symmetry_space_group_name_H-M "C 2/M"
_symmetry_group_IT_number 12
_symmetry_cell_setting 'monoclinic'
loop_
_space_group_symop_operation_xyz
x,y,z
-x,y,-z
-x,-y,-z
x,-y,z
1/2+x,1/2+y,z
1/2-x,1/2+y,-z
1/2-x,1/2-y,-z
1/2+x,1/2-y,z
loop_
_atom_site_type_symbol
_atom_site_label
_atom_site_fract_x
_atom_site_fract_y
_atom_site_fract_z
Si Si1 0.829817 0.179187 0.721142
Si Si2 0.140957 0.322570 0.713901
Si Si3 0.484112 0.820773 0.089342
Si Si4 0.022083 0.679284 0.597667
Si Si5 0.851552 0.321597 0.410363
Si Si6 0.678000 0.822847 0.385169
Si Si7 0.639758 0.319513 0.900173
O O1 0.830100 0.218763 0.659466
O O2 0.748315 0.271267 0.818258
O O3 0.927889 0.222798 0.668406
O O4 0.810573 0.000000 0.743492
O O5 0.171954 0.500000 0.695969
O O6 0.050756 0.284504 0.823437
O O7 0.109706 0.288059 0.679528
O O8 0.229157 0.216417 0.656885
O O9 0.402073 0.767776 0.116346
O O10 0.503609 0.000000 0.064836
O O11 0.581005 0.728756 0.999775
O O12 0.996117 0.500000 0.624060
O O13 0.074550 0.744279 0.607080
O O14 0.086687 0.708273 0.494546
O O15 0.839146 0.500000 0.432076
O O16 0.750000 0.250000 0.500000
O O17 0.683321 0.000000 0.363101
O O18 0.630387 0.500000 0.898631
#
# Coordination Sequence:
#
# PCOD8089572 Si02
#       7
#     8   8   8   8   8   8   8
#     4  12  24  37  54  78 109 146 183 226 274 327
#     4  10  20  33  55  82 113 145 178 220 269 318
#     4  10  19  33  53  81 112 142 176 220 270 322
#     4  10  22  38  54  77 110 148 186 225 267 317
#     4  10  20  36  56  80 109 145 185 225 267 312
#     4  11  21  34  54  80 111 146 181 220 268 324
#     4  11  21  34  54  79 108 142 178 221 272 328
#
# _framework density 17.893066000000001
#
# number of rings (size 3 to 8) (size 9 to 14) (size 15 to 20)
#    0.000    1.429    2.857    4.714    0.000    4.000 
#    0.000    0.000    0.000    0.857    0.000    0.000 
#    0.000    0.000    0.000    0.000    0.000    0.000 
#
# Total GULP energy -347293.029502 kJ/mol
# GULP energy per Si atom -12403.322482 kJ/mol
# Density = 1.785234 g / cm^3
# Si number density = 17.893066 Si / 1000 Ang^3
#
#
#
# Elastic Constant Matrix: (Units=GPa)
#
#
# Indices 1 2 3 4 5 6 
#
# 1 83.7981 21.7081 39.9479 0.0056 -7.4630 -0.0026
# 2 21.7081 52.1470 34.0146 0.0119 -2.5791 -0.0046
# 3 39.9479 34.0146 119.3800 0.0060 -2.8415 -0.0024
# 4 0.0056 0.0119 0.0060 28.0412 -0.0016 -5.1691
# 5 -7.4630 -2.5791 -2.8415 -0.0016 25.8606 -0.0001
# 6 -0.0026 -0.0046 -0.0024 -5.1691 -0.0001 24.9759
#
#
#
# Elastic Compliance Matrix: (Units=1/GPa)
#
#
# Indices 1 2 3 4 5 6 
#
# 1 0.015042 -0.003510 -0.003949 0.000000 0.003557 0.000000
# 2 -0.003510 0.024441 -0.005770 -0.000008 0.000790 0.000002
# 3 -0.003949 -0.005770 0.011331 0.000001 -0.000470 0.000000
# 4 0.000000 -0.000008 0.000001 0.037076 0.000001 0.007673
# 5 0.003557 0.000790 -0.000470 0.000001 0.039723 0.000001
# 6 0.000000 0.000002 0.000000 0.007673 0.000001 0.041627
#
#
# Mechanical properties :
#
#
# Convention : Reuss Voigt Hill
#
# Bulk Modulus (GPa) = 41.05912 49.62960 45.34436
# Shear Modulus (GPa) = 24.53191 26.41918 25.47554
#
# Velocity S-wave (km/s) = 3.70676 3.84670 3.77738
# Velocity P-wave (km/s) = 6.42782 6.89394 6.66496
#
# Compressibility (1/GPa) = 0.02435513
#
# Stress axis : x y z
#
# Youngs Moduli (GPa) = 66.48083 40.91511 88.25423
#
# Poissons Ratio (x) = 0.14362 0.34848
# Poissons Ratio (y) = 0.23336 0.50926
# Poissons Ratio (z) = 0.26251 0.23610
#
# Static dielectric constant tensor:
#      x y z
#    x 3.388600 -0.000010 0.165990 
#    y -0.000010 3.359910 0.000000 
#    z 0.165990 0.000000 3.575180 
# 
# 
# High freq. dielectric constant tensor:
#      x y z
#    x 1.668720 0.000000 0.001890 
#    y 0.000000 1.699520 0.000000 
#    z 0.001890 0.000000 1.699840 
# 
# From -- ./inp_files/348459.got.cif
#   From: 2010.06.25/outbox.cif.g09.slc.cpg/sg12_175_cif.got.tgz:348459.got - 2010.06.28 00:19:55.
