data_PCOD8089780
_publ_section_title
;
Structure prediction by ZEFSAII (Michael W. Deem and Ramdas Pophale) SiO2 
 PCOD8089780
Probable space group: C 2/M
;
_chemical_formula_sum "Si O2"
_cell_formula_units_Z 56
_cell_length_a 21.605603
_cell_length_b 12.727571
_cell_length_c 11.583809
_cell_angle_alpha 90.000000
_cell_angle_beta 109.955248
_cell_angle_gamma 90.000000
_cell_volume 2994.142312
_symmetry_space_group_name_H-M "C 2/M"
_symmetry_group_IT_number 12
_symmetry_cell_setting 'monoclinic'
loop_
_space_group_symop_operation_xyz
x,y,z
-x,y,-z
-x,-y,-z
x,-y,z
1/2+x,1/2+y,z
1/2-x,1/2+y,-z
1/2-x,1/2-y,-z
1/2+x,1/2-y,z
loop_
_atom_site_type_symbol
_atom_site_label
_atom_site_fract_x
_atom_site_fract_y
_atom_site_fract_z
Si Si1 0.816971 0.117957 0.214999
Si Si2 0.494315 0.383914 0.130896
Si Si3 0.917373 0.271286 0.691422
Si Si4 0.371730 0.765903 0.076574
Si Si5 0.426850 0.297541 0.448574
Si Si6 0.453193 0.118056 0.294885
Si Si7 0.171302 0.622046 0.182985
O O1 0.814256 0.202285 0.107780
O O2 0.877564 0.132713 0.341736
O O3 0.749654 0.131942 0.243515
O O4 0.820660 0.000000 0.165857
O O5 0.488242 0.500000 0.183124
O O6 0.559962 0.328332 0.218940
O O7 0.430739 0.317441 0.122057
O O8 0.500000 0.394727 0.000000
O O9 0.895164 0.224439 0.553726
O O10 0.858206 0.331718 0.717468
O O11 0.976945 0.353081 0.716868
O O12 0.395217 0.867304 0.163505
O O13 0.353204 0.805092 0.938345
O O14 0.500000 0.351966 0.500000
O O15 0.437352 0.184907 0.397279
O O16 0.454047 0.000000 0.338208
O O17 0.149787 0.500000 0.151909
#
# Coordination Sequence:
#
# PCOD8089780 Si02
#       7
#     8   8   8   8   8   8   8
#     4  10  22  38  56  77 103 141 183 220 263 317
#     4  10  19  33  54  80 107 135 172 215 263 314
#     4  10  20  34  53  81 111 141 171 217 265 312
#     4  10  19  35  54  78 107 139 175 224 264 307
#     4   9  20  36  56  80 105 134 177 222 269 312
#     4   9  18  32  54  81 107 137 176 217 260 310
#     4  11  22  35  53  78 109 145 180 214 262 321
#
# _framework density 18.703185000000001
#
# number of rings (size 3 to 8) (size 9 to 14) (size 15 to 20)
#    0.000    2.143    1.429    2.571    0.000    4.571 
#    0.000    2.143    0.000    4.286    0.000    0.000 
#    0.000    0.000    0.000    0.000    0.000    0.000 
#
# Total GULP energy -347082.108659 kJ/mol
# GULP energy per Si atom -12395.789595 kJ/mol
# Density = 1.866062 g / cm^3
# Si number density = 18.703185 Si / 1000 Ang^3
#
#
#
# Elastic Constant Matrix: (Units=GPa)
#
#
# Indices 1 2 3 4 5 6 
#
# 1 84.9979 33.4584 27.1236 0.0000 -11.8407 0.0000
# 2 33.4584 95.6265 17.7788 0.0000 -1.3742 0.0000
# 3 27.1236 17.7788 83.9710 0.0000 -10.8807 0.0000
# 4 0.0000 0.0000 0.0000 16.3925 0.0000 1.0051
# 5 -11.8407 -1.3742 -10.8807 0.0000 30.1185 0.0000
# 6 0.0000 0.0000 0.0000 1.0051 0.0000 26.4305
#
#
#
# Elastic Compliance Matrix: (Units=1/GPa)
#
#
# Indices 1 2 3 4 5 6 
#
# 1 0.015315 -0.004667 -0.003364 0.000000 0.004593 0.000000
# 2 -0.004667 0.012312 -0.001326 0.000000 -0.001752 0.000000
# 3 -0.003364 -0.001326 0.013740 0.000000 0.003581 0.000000
# 4 0.000000 0.000000 0.000000 0.061146 0.000000 -0.002325
# 5 0.004593 -0.001752 0.003581 0.000000 0.036222 0.000000
# 6 0.000000 0.000000 0.000000 -0.002325 0.000000 0.037923
#
#
# Mechanical properties :
#
#
# Convention : Reuss Voigt Hill
#
# Bulk Modulus (GPa) = 44.14431 46.81301 45.47866
# Shear Modulus (GPa) = 24.63980 27.00394 25.82187
#
# Velocity S-wave (km/s) = 3.63355 3.80388 3.71969
# Velocity P-wave (km/s) = 6.42319 6.66156 6.54346
#
# Compressibility (1/GPa) = 0.02265298
#
# Stress axis : x y z
#
# Youngs Moduli (GPa) = 65.29362 81.22320 72.77918
#
# Poissons Ratio (x) = 0.37909 0.24481
# Poissons Ratio (y) = 0.30474 0.09652
# Poissons Ratio (z) = 0.21963 0.10772
#
# Static dielectric constant tensor:
#      x y z
#    x 3.457930 0.000000 -0.059120 
#    y 0.000000 3.513440 0.000000 
#    z -0.059120 0.000000 3.700530 
# 
# 
# High freq. dielectric constant tensor:
#      x y z
#    x 1.716030 0.000000 -0.008790 
#    y 0.000000 1.727850 0.000000 
#    z -0.008790 0.000000 1.724330 
# 
# From -- ./inp_files/164836.got.cif
#   From: 2010.06.25/outbox.cif.g09.slc.cpg/sg12_83_cif.got.tgz:164836.got - 2010.06.28 00:19:55.
