data_PCOD8089245
_publ_section_title
;
Structure prediction by ZEFSAII (Michael W. Deem and Ramdas Pophale) SiO2 
 PCOD8089245
Probable space group: C 2/M
;
_chemical_formula_sum "Si O2"
_cell_formula_units_Z 48
_cell_length_a 20.432780
_cell_length_b 9.817499
_cell_length_c 20.163351
_cell_angle_alpha 90.000000
_cell_angle_beta 38.788751
_cell_angle_gamma 90.000000
_cell_volume 2533.833049
_symmetry_space_group_name_H-M "C 2/M"
_symmetry_group_IT_number 12
_symmetry_cell_setting 'monoclinic'
loop_
_space_group_symop_operation_xyz
x,y,z
-x,y,-z
-x,-y,-z
x,-y,z
1/2+x,1/2+y,z
1/2-x,1/2+y,-z
1/2-x,1/2-y,-z
1/2+x,1/2-y,z
loop_
_atom_site_type_symbol
_atom_site_label
_atom_site_fract_x
_atom_site_fract_y
_atom_site_fract_z
Si Si1 0.882381 0.352264 0.602934
Si Si2 0.395905 0.159256 0.113404
Si Si3 0.395542 0.153771 0.264376
Si Si4 0.333075 0.347010 0.525794
Si Si5 0.174827 0.843910 0.239024
Si Si6 0.003346 0.154677 0.718061
O O1 0.822864 0.500000 0.656299
O O2 0.840080 0.265615 0.576083
O O3 0.880359 0.261677 0.669762
O O4 0.000000 0.391046 0.500000
O O5 0.374487 0.209857 0.205830
O O6 0.298299 0.192941 0.141586
O O7 0.413680 0.000000 0.102895
O O8 0.500000 0.228577 0.000000
O O9 0.290714 0.156030 0.392496
O O10 0.483086 0.247396 0.229643
O O11 0.439928 0.000000 0.226237
O O12 0.363140 0.500000 0.527379
O O13 0.407336 0.308112 0.406201
O O14 0.114985 0.825661 0.216241
O O15 0.159601 0.000000 0.276137
O O16 0.019462 0.000000 0.729108
#
# Coordination Sequence:
#
# PCOD8089245 Si02
#       6
#     8   8   8   8   8   8
#     4  11  21  30  47  79 113 142 175 221 267 308
#     4   9  18  35  60  84 101 129 181 233 271 313
#     4  10  20  34  54  78 107 142 177 219 265 314
#     4  10  19  33  52  75 105 146 187 213 252 315
#     4  10  19  35  57  77 104 142 183 221 261 318
#     4  10  21  33  51  78 110 146 176 213 259 316
#
# _framework density 18.943632000000001
#
# number of rings (size 3 to 8) (size 9 to 14) (size 15 to 20)
#    0.000    2.000    3.333    1.000    0.000    2.667 
#    0.000    0.833    0.000    2.000    0.000    0.000 
#    0.000    0.000    0.000    0.000    0.000    0.000 
#
# Total GULP energy -297329.339366 kJ/mol
# GULP energy per Si atom -12388.722474 kJ/mol
# Density = 1.890052 g / cm^3
# Si number density = 18.943632 Si / 1000 Ang^3
#
#
#
# Elastic Constant Matrix: (Units=GPa)
#
#
# Indices 1 2 3 4 5 6 
#
# 1 123.9968 46.2920 37.5350 0.0000 -12.8859 0.0000
# 2 46.2920 83.7099 7.1695 -0.0001 -1.9110 0.0001
# 3 37.5350 7.1695 77.8727 0.0000 -17.8062 0.0000
# 4 0.0000 -0.0001 0.0000 12.5065 0.0000 0.6687
# 5 -12.8859 -1.9110 -17.8062 0.0000 20.2482 0.0000
# 6 0.0000 0.0001 0.0000 0.6687 0.0000 33.5278
#
#
#
# Elastic Compliance Matrix: (Units=1/GPa)
#
#
# Indices 1 2 3 4 5 6 
#
# 1 0.012086 -0.006224 -0.004541 0.000000 0.003111 0.000000
# 2 -0.006224 0.015247 0.001276 0.000000 -0.001400 0.000000
# 3 -0.004541 0.001276 0.017874 0.000000 0.012948 0.000000
# 4 0.000000 0.000000 0.000000 0.080044 0.000000 -0.001596
# 5 0.003111 -0.001400 0.012948 0.000000 0.062621 0.000000
# 6 0.000000 0.000000 0.000000 -0.001596 0.000000 0.029858
#
#
# Mechanical properties :
#
#
# Convention : Reuss Voigt Hill
#
# Bulk Modulus (GPa) = 38.12649 51.95249 45.03949
# Shear Modulus (GPa) = 20.37069 26.22866 23.29968
#
# Velocity S-wave (km/s) = 3.28278 3.72501 3.51087
# Velocity P-wave (km/s) = 5.87698 6.78124 6.34524
#
# Compressibility (1/GPa) = 0.02622848
#
# Stress axis : x y z
#
# Youngs Moduli (GPa) = 82.73875 65.58853 55.94826
#
# Poissons Ratio (x) = 0.40821 0.25408
# Poissons Ratio (y) = 0.51495 -0.07140
# Poissons Ratio (z) = 0.37574 -0.08370
#
# Static dielectric constant tensor:
#      x y z
#    x 3.391140 0.000000 -0.208790 
#    y 0.000000 3.465730 0.000000 
#    z -0.208790 0.000000 3.147170 
# 
# 
# High freq. dielectric constant tensor:
#      x y z
#    x 1.730990 0.000000 -0.015910 
#    y 0.000000 1.727550 0.000000 
#    z -0.015910 0.000000 1.701220 
# 
# From -- ./inp_files/249350.got.cif
#   From: 2010.06.25/outbox.cif.g09.slc.cpg/sg12_125_cif.got.tgz:249350.got - 2010.06.28 00:19:55.
