data_PCOD8089764
_publ_section_title
;
Structure prediction by ZEFSAII (Michael W. Deem and Ramdas Pophale) SiO2 
 PCOD8089764
Probable space group: C 2/M
;
_chemical_formula_sum "Si O2"
_cell_formula_units_Z 64
_cell_length_a 33.059127
_cell_length_b 14.439084
_cell_length_c 21.636846
_cell_angle_alpha 90.000000
_cell_angle_beta 161.759090
_cell_angle_gamma 90.000000
_cell_volume 3232.864754
_symmetry_space_group_name_H-M "C 2/M"
_symmetry_group_IT_number 12
_symmetry_cell_setting 'monoclinic'
loop_
_space_group_symop_operation_xyz
x,y,z
-x,y,-z
-x,-y,-z
x,-y,z
1/2+x,1/2+y,z
1/2-x,1/2+y,-z
1/2-x,1/2-y,-z
1/2+x,1/2-y,z
loop_
_atom_site_type_symbol
_atom_site_label
_atom_site_fract_x
_atom_site_fract_y
_atom_site_fract_z
Si Si1 0.286956 0.603926 0.904661
Si Si2 0.353913 0.218534 0.393854
Si Si3 0.853700 0.287656 0.537740
Si Si4 0.368805 0.395799 0.347129
Si Si5 0.101767 0.392752 0.744442
Si Si6 0.927381 0.102765 0.701804
Si Si7 0.111308 0.606933 0.899574
Si Si8 0.400503 0.606410 0.803986
O O1 0.243190 0.500000 0.821878
O O2 0.264222 0.674898 0.815585
O O3 0.217254 0.636500 0.866494
O O4 0.437932 0.605650 0.139333
O O5 0.330794 0.204110 0.431887
O O6 0.369269 0.328205 0.406209
O O7 0.477608 0.166146 0.545519
O O8 0.840571 0.183380 0.545512
O O9 0.737675 0.344024 0.399458
O O10 0.994026 0.331732 0.757402
O O11 0.500000 0.382163 0.500000
O O12 0.358252 0.500000 0.357285
O O13 0.245029 0.369123 0.126634
O O14 0.066012 0.500000 0.684903
O O15 0.140286 0.369382 0.870407
O O16 0.958004 0.118932 0.818815
O O17 0.863035 0.000000 0.599585
O O18 0.071681 0.500000 0.850702
O O19 0.375127 0.500000 0.784394
O O20 0.500000 0.648127 0.000000
#
# Coordination Sequence:
#
# PCOD8089764 Si02
#       8
#     8   8   8   8   8   8   8   8
#     4  10  19  33  54  79 109 141 174 221 277 326
#     4  11  21  32  50  78 109 142 181 221 266 321
#     4  11  22  36  58  82 110 144 175 219 270 320
#     4  10  21  36  52  71 105 153 196 230 259 299
#     4   9  18  32  52  78 107 139 176 224 278 325
#     4  10  22  38  56  80 109 141 178 217 261 320
#     4   9  19  35  54  79 107 140 186 228 267 316
#     4  10  21  39  63  88 110 133 168 219 277 330
#
# _framework density 19.796683999999999
#
# number of rings (size 3 to 8) (size 9 to 14) (size 15 to 20)
#    0.000    2.000    0.000    3.750    0.000    5.000 
#    0.000    5.625    0.000    0.375    0.000    0.000 
#    0.000    0.000    0.000    0.000    0.000    0.000 
#
# Total GULP energy -396783.249438 kJ/mol
# GULP energy per Si atom -12399.476545 kJ/mol
# Density = 1.975163 g / cm^3
# Si number density = 19.796684 Si / 1000 Ang^3
#
#
#
# Elastic Constant Matrix: (Units=GPa)
#
#
# Indices 1 2 3 4 5 6 
#
# 1 61.0968 29.4993 18.5809 0.0007 9.8233 0.0004
# 2 29.4993 97.2684 32.7791 0.0010 0.6621 0.0008
# 3 18.5809 32.7791 87.5991 0.0012 11.7151 0.0011
# 4 0.0007 0.0010 0.0012 21.4411 0.0013 -6.4365
# 5 9.8233 0.6621 11.7151 0.0013 19.4525 0.0008
# 6 0.0004 0.0008 0.0011 -6.4365 0.0008 30.3123
#
#
#
# Elastic Compliance Matrix: (Units=1/GPa)
#
#
# Indices 1 2 3 4 5 6 
#
# 1 0.021158 -0.006047 -0.000896 0.000000 -0.009939 0.000000
# 2 -0.006047 0.013601 -0.004517 -0.000001 0.005311 0.000000
# 3 -0.000896 -0.004517 0.014372 0.000000 -0.008050 0.000000
# 4 0.000000 -0.000001 0.000000 0.049815 -0.000004 0.010578
# 5 -0.009939 0.005311 -0.008050 -0.000004 0.061093 -0.000002
# 6 0.000000 0.000000 0.000000 0.010578 -0.000002 0.035236
#
#
# Mechanical properties :
#
#
# Convention : Reuss Voigt Hill
#
# Bulk Modulus (GPa) = 38.15177 45.29809 41.72493
# Shear Modulus (GPa) = 22.03306 25.24818 23.64062
#
# Velocity S-wave (km/s) = 3.33974 3.57511 3.45943
# Velocity P-wave (km/s) = 5.84683 6.32244 6.08928
#
# Compressibility (1/GPa) = 0.02621110
#
# Stress axis : x y z
#
# Youngs Moduli (GPa) = 47.26424 73.52491 69.57786
#
# Poissons Ratio (x) = 0.44461 0.06233
# Poissons Ratio (y) = 0.28581 0.31428
# Poissons Ratio (z) = 0.04234 0.33211
#
# Static dielectric constant tensor:
#      x y z
#    x 3.462700 0.000000 0.026520 
#    y 0.000000 3.775580 0.000000 
#    z 0.026520 0.000000 3.469540 
# 
# 
# High freq. dielectric constant tensor:
#      x y z
#    x 1.761710 0.000000 0.003970 
#    y 0.000000 1.779290 0.000000 
#    z 0.003970 0.000000 1.760790 
# 
# From -- ./inp_files/330420.got.cif
#   From: 2010.06.25/outbox.cif.g09.slc.cpg/sg12_166_cif.got.tgz:330420.got - 2010.06.28 00:19:55.
