data_PCOD8089332
_publ_section_title
;
Structure prediction by ZEFSAII (Michael W. Deem and Ramdas Pophale) SiO2 
 PCOD8089332
Probable space group: C 2/M
;
_chemical_formula_sum "Si O2"
_cell_formula_units_Z 48
_cell_length_a 8.278732
_cell_length_b 20.353251
_cell_length_c 16.087423
_cell_angle_alpha 90.000000
_cell_angle_beta 70.218637
_cell_angle_gamma 90.000000
_cell_volume 2550.759532
_symmetry_space_group_name_H-M "C 2/M"
_symmetry_group_IT_number 12
_symmetry_cell_setting 'monoclinic'
loop_
_space_group_symop_operation_xyz
x,y,z
-x,y,-z
-x,-y,-z
x,-y,z
1/2+x,1/2+y,z
1/2-x,1/2+y,-z
1/2-x,1/2-y,-z
1/2+x,1/2-y,z
loop_
_atom_site_type_symbol
_atom_site_label
_atom_site_fract_x
_atom_site_fract_y
_atom_site_fract_z
Si Si1 0.214426 0.922945 0.381762
Si Si2 0.029762 0.422873 0.217785
Si Si3 0.748423 0.839150 0.287234
Si Si4 0.543284 0.173819 0.896831
Si Si5 0.899463 0.771061 0.790907
Si Si6 0.326036 0.421836 0.423934
O O1 0.369244 0.893144 0.299922
O O2 0.234041 0.900444 0.473823
O O3 0.027911 0.904152 0.378067
O O4 0.233527 0.000000 0.375812
O O5 0.042004 0.500000 0.217038
O O6 0.205332 0.393243 0.224481
O O7 0.005964 0.398984 0.127176
O O8 0.637039 0.773238 0.286114
O O9 0.714514 0.875882 0.381256
O O10 0.947044 0.820836 0.251518
O O11 0.742031 0.183945 0.844078
O O12 0.432245 0.225591 0.864537
O O13 0.500000 0.180866 0.000000
O O14 0.293769 0.500000 0.413310
#
# Coordination Sequence:
#
# PCOD8089332 Si02
#       6
#     8   8   8   8   8   8
#     4   8  16  30  49  76 105 132 164 200 240 297
#     4  10  20  33  51  77 105 130 161 205 256 300
#     4  10  19  33  53  72 101 134 168 208 241 290
#     4  10  19  34  57  77  99 129 164 207 247 297
#     4   9  20  35  52  76  99 131 173 204 242 289
#     4   9  16  29  53  80 102 129 165 203 247 293
#
# _framework density 18.817923
#
# number of rings (size 3 to 8) (size 9 to 14) (size 15 to 20)
#    0.000    2.667    0.000    3.000    0.000    1.000 
#    0.000    3.333    0.000   35.000    0.000    0.000 
#    0.000    0.000    0.000    0.000    0.000    0.000 
#
# Total GULP energy -297398.780350 kJ/mol
# GULP energy per Si atom -12391.615848 kJ/mol
# Density = 1.877509 g / cm^3
# Si number density = 18.817923 Si / 1000 Ang^3
#
#
#
# Elastic Constant Matrix: (Units=GPa)
#
#
# Indices 1 2 3 4 5 6 
#
# 1 84.7284 39.8893 27.7849 0.0000 14.5722 0.0000
# 2 39.8893 73.1575 36.4970 0.0000 0.9167 0.0000
# 3 27.7849 36.4970 81.6354 0.0000 26.9057 0.0000
# 4 0.0000 0.0000 0.0000 20.1016 0.0000 3.8899
# 5 14.5722 0.9167 26.9057 0.0000 17.8332 0.0000
# 6 0.0000 0.0000 0.0000 3.8899 0.0000 30.0560
#
#
#
# Elastic Compliance Matrix: (Units=1/GPa)
#
#
# Indices 1 2 3 4 5 6 
#
# 1 0.022283 -0.017683 0.011981 0.000000 -0.035375 0.000000
# 2 -0.017683 0.037252 -0.029373 0.000000 0.056851 0.000000
# 3 0.011981 -0.029373 0.047803 0.000000 -0.080403 0.000000
# 4 0.000000 0.000000 0.000000 0.051025 0.000000 -0.006604
# 5 -0.035375 0.056851 -0.080403 0.000000 0.203366 0.000000
# 6 0.000000 0.000000 0.000000 -0.006604 0.000000 0.034126
#
#
# Mechanical properties :
#
#
# Convention : Reuss Voigt Hill
#
# Bulk Modulus (GPa) = 26.89131 49.76263 38.32697
# Shear Modulus (GPa) = 10.45145 22.62151 16.53648
#
# Velocity S-wave (km/s) = 2.35925 3.47093 2.96761
# Velocity P-wave (km/s) = 4.66290 6.52417 5.67043
#
# Compressibility (1/GPa) = 0.03718673
#
# Stress axis : x y z
#
# Youngs Moduli (GPa) = 44.87777 26.84396 20.91908
#
# Poissons Ratio (x) = 0.47469 -0.25063
# Poissons Ratio (y) = 0.79359 0.61446
# Poissons Ratio (z) = -0.53767 0.78849
#
# Static dielectric constant tensor:
#      x y z
#    x 3.708010 0.000000 -0.007920 
#    y 0.000000 3.335310 0.000000 
#    z -0.007920 0.000000 3.477630 
# 
# 
# High freq. dielectric constant tensor:
#      x y z
#    x 1.742820 0.000000 0.015070 
#    y 0.000000 1.721210 0.000000 
#    z 0.015070 0.000000 1.709090 
# 
# From -- ./inp_files/196915.got.cif
#   From: 2010.06.25/outbox.cif.g09.slc.cpg/sg12_99_cif.got.tgz:196915.got - 2010.06.28 00:19:55.
