data_PCOD8089001
_publ_section_title
;
Structure prediction by ZEFSAII (Michael W. Deem and Ramdas Pophale) SiO2 
 PCOD8089001
Probable space group: C 2/M
;
_chemical_formula_sum "Si O2"
_cell_formula_units_Z 48
_cell_length_a 9.345965
_cell_length_b 23.214441
_cell_length_c 16.114732
_cell_angle_alpha 90.000000
_cell_angle_beta 38.002145
_cell_angle_gamma 90.000000
_cell_volume 2152.624388
_symmetry_space_group_name_H-M "C 2/M"
_symmetry_group_IT_number 12
_symmetry_cell_setting 'monoclinic'
loop_
_space_group_symop_operation_xyz
x,y,z
-x,y,-z
-x,-y,-z
x,-y,z
1/2+x,1/2+y,z
1/2-x,1/2+y,-z
1/2-x,1/2-y,-z
1/2+x,1/2-y,z
loop_
_atom_site_type_symbol
_atom_site_label
_atom_site_fract_x
_atom_site_fract_y
_atom_site_fract_z
Si Si1 0.771373 0.825556 0.639955
Si Si2 0.014239 0.257909 0.902806
Si Si3 0.680613 0.145638 0.231966
Si Si4 0.333155 0.434930 0.707523
Si Si5 0.415281 0.566219 0.239756
Si Si6 0.810595 0.435817 0.928901
O O1 0.658062 0.796572 0.772681
O O2 0.580732 0.829099 0.653699
O O3 0.870199 0.888916 0.617836
O O4 0.000000 0.791811 0.500000
O O5 0.134031 0.196210 0.853052
O O6 0.000000 0.287666 0.000000
O O7 0.750000 0.250000 0.000000
O O8 0.704845 0.107364 0.305010
O O9 0.723861 0.106884 0.131501
O O10 0.390994 0.500000 0.650216
O O11 0.502107 0.417958 0.705949
O O12 0.062222 0.431268 0.857374
O O13 0.334378 0.500000 0.271887
O O14 0.627960 0.580312 0.082222
O O15 0.768524 0.500000 0.913083
#
# Coordination Sequence:
#
# PCOD8089001 Si02
#       6
#     8   8   8   8   8   8
#     4  11  27  47  68  95 132 178 225 271 327 395
#     4  12  26  46  71 102 130 172 219 278 332 393
#     4  11  23  39  62  91 132 170 222 265 330 390
#     4   9  20  37  61  93 128 173 218 263 324 393
#     4  10  19  32  58  97 134 168 212 274 333 385
#     4   9  17  31  56  92 133 171 212 266 327 392
#
# _framework density 22.298362999999998
#
# number of rings (size 3 to 8) (size 9 to 14) (size 15 to 20)
#    0.000    1.667    1.667    2.500    4.667    5.000 
#    0.000    0.833    0.000    2.000    0.000    0.000 
#    0.000    0.000    0.000    0.000    0.000    0.000 
#
# Total GULP energy -297487.836501 kJ/mol
# GULP energy per Si atom -12395.326521 kJ/mol
# Density = 2.224761 g / cm^3
# Si number density = 22.298363 Si / 1000 Ang^3
#
#
#
# Elastic Constant Matrix: (Units=GPa)
#
#
# Indices 1 2 3 4 5 6 
#
# 1 167.5855 55.2555 48.0874 0.0004 -14.3925 -0.0002
# 2 55.2555 93.1721 31.4441 0.0001 -6.3872 -0.0002
# 3 48.0874 31.4441 103.3726 0.0007 -19.1510 -0.0006
# 4 0.0004 0.0001 0.0007 12.7212 -0.0004 -2.2891
# 5 -14.3925 -6.3872 -19.1510 -0.0004 21.9521 0.0002
# 6 -0.0002 -0.0002 -0.0006 -2.2891 0.0002 40.6014
#
#
#
# Elastic Compliance Matrix: (Units=1/GPa)
#
#
# Indices 1 2 3 4 5 6 
#
# 1 0.008065 -0.003904 -0.002141 0.000000 0.002284 0.000000
# 2 -0.003904 0.013853 -0.002535 0.000000 -0.000740 0.000000
# 3 -0.002141 -0.002535 0.013173 0.000000 0.009351 0.000000
# 4 0.000000 0.000000 0.000000 0.079414 0.000001 0.004477
# 5 0.002284 -0.000740 0.009351 0.000001 0.054993 0.000000
# 6 0.000000 0.000000 0.000000 0.004477 0.000000 0.024882
#
#
# Mechanical properties :
#
#
# Convention : Reuss Voigt Hill
#
# Bulk Modulus (GPa) = 55.76859 70.41157 63.09008
# Shear Modulus (GPa) = 22.98674 30.34449 26.66561
#
# Velocity S-wave (km/s) = 3.21420 3.69296 3.46187
# Velocity P-wave (km/s) = 6.23211 7.05900 6.65841
#
# Compressibility (1/GPa) = 0.01793124
#
# Stress axis : x y z
#
# Youngs Moduli (GPa) = 123.99745 72.18853 75.91176
#
# Poissons Ratio (x) = 0.28180 0.16253
# Poissons Ratio (y) = 0.48404 0.19243
# Poissons Ratio (z) = 0.26549 0.18299
#
# Static dielectric constant tensor:
#      x y z
#    x 4.488970 0.000000 -0.190890 
#    y 0.000000 4.224440 0.000000 
#    z -0.190890 0.000000 3.693830 
# 
# 
# High freq. dielectric constant tensor:
#      x y z
#    x 1.893710 0.000000 -0.011800 
#    y 0.000000 1.879810 0.000000 
#    z -0.011800 0.000000 1.847090 
# 
# From -- ./inp_files/200156.got.cif
#   From: 2010.06.25/outbox.cif.g09.slc.cpg/sg12_101_cif.got.tgz:200156.got - 2010.06.28 00:19:55.
