data_PCOD8089512
_publ_section_title
;
Structure prediction by ZEFSAII (Michael W. Deem and Ramdas Pophale) SiO2 
 PCOD8089512
Probable space group: C 2/M
;
_chemical_formula_sum "Si O2"
_cell_formula_units_Z 64
_cell_length_a 17.566367
_cell_length_b 13.909863
_cell_length_c 14.603668
_cell_angle_alpha 90.000000
_cell_angle_beta 109.072166
_cell_angle_gamma 90.000000
_cell_volume 3372.469924
_symmetry_space_group_name_H-M "C 2/M"
_symmetry_group_IT_number 12
_symmetry_cell_setting 'monoclinic'
loop_
_space_group_symop_operation_xyz
x,y,z
-x,y,-z
-x,-y,-z
x,-y,z
1/2+x,1/2+y,z
1/2-x,1/2+y,-z
1/2-x,1/2-y,-z
1/2+x,1/2-y,z
loop_
_atom_site_type_symbol
_atom_site_label
_atom_site_fract_x
_atom_site_fract_y
_atom_site_fract_z
Si Si1 0.602375 0.388620 0.748838
Si Si2 0.090722 0.811581 0.550130
Si Si3 0.823714 0.393504 0.187683
Si Si4 0.357253 0.104318 0.412348
Si Si5 0.635211 0.390608 0.082226
Si Si6 0.163558 0.774706 0.927497
Si Si7 0.797404 0.839709 0.558459
Si Si8 0.924594 0.887688 0.746002
O O1 0.611800 0.500000 0.731722
O O2 0.620867 0.330421 0.664103
O O3 0.667626 0.356996 0.850602
O O4 0.513983 0.360903 0.750217
O O5 0.095451 0.696533 0.528356
O O6 0.147585 0.875390 0.505282
O O7 0.000000 0.847966 0.500000
O O8 0.848641 0.500000 0.165985
O O9 0.848040 0.374951 0.301371
O O10 0.728336 0.378518 0.144206
O O11 0.870673 0.320947 0.136786
O O12 0.270609 0.090060 0.428201
O O13 0.401138 0.000000 0.444637
O O14 0.617143 0.500000 0.042831
O O15 0.581727 0.364116 0.148988
O O16 0.610562 0.316983 0.990771
O O17 0.250000 0.750000 0.000000
O O18 0.750000 0.750000 0.500000
O O19 0.861297 0.820904 0.665781
O O20 0.904283 0.000000 0.719122
#
# Coordination Sequence:
#
# PCOD8089512 Si02
#       8
#     8   8   8   8   8   8   8   8
#     4  11  23  36  53  82 118 147 180 229 286 353
#     4  11  22  37  55  83 119 156 192 230 289 351
#     4   9  16  29  52  77  99 133 178 223 267 319
#     4  10  19  34  57  80 108 146 196 244 276 318
#     4   9  17  30  52  78 105 135 172 216 268 331
#     4  10  20  34  53  76 108 139 177 228 284 336
#     4  10  20  32  54  81 112 150 191 236 277 332
#     4  10  19  33  53  78 111 148 184 225 279 342
#
# _framework density 18.97719
#
# number of rings (size 3 to 8) (size 9 to 14) (size 15 to 20)
#    0.000    2.000    3.750    0.750    0.000    2.500 
#    0.000    1.875    0.000    0.000    0.000    3.500 
#    0.000    0.000    0.000    0.000    0.000    0.000 
#
# Total GULP energy -396425.631109 kJ/mol
# GULP energy per Si atom -12388.300972 kJ/mol
# Density = 1.893400 g / cm^3
# Si number density = 18.977190 Si / 1000 Ang^3
#
#
#
# Elastic Constant Matrix: (Units=GPa)
#
#
# Indices 1 2 3 4 5 6 
#
# 1 61.6064 19.3089 33.2333 0.0000 -13.1650 0.0000
# 2 19.3089 82.1866 30.6309 0.0000 -11.7258 0.0000
# 3 33.2333 30.6309 102.4536 0.0000 -22.0248 0.0000
# 4 0.0000 0.0000 0.0000 23.0324 0.0000 0.3597
# 5 -13.1650 -11.7258 -22.0248 0.0000 34.5977 0.0000
# 6 0.0000 0.0000 0.0000 0.3597 0.0000 11.4855
#
#
#
# Elastic Compliance Matrix: (Units=1/GPa)
#
#
# Indices 1 2 3 4 5 6 
#
# 1 0.020555 -0.002375 -0.005154 0.000000 0.003735 0.000000
# 2 -0.002375 0.014136 -0.003036 0.000000 0.001955 0.000000
# 3 -0.005154 -0.003036 0.013552 0.000000 0.005637 0.000000
# 4 0.000000 0.000000 0.000000 0.043438 0.000000 -0.001361
# 5 0.003735 0.001955 0.005637 0.000000 0.034576 0.000000
# 6 0.000000 0.000000 0.000000 -0.001361 0.000000 0.087109
#
#
# Mechanical properties :
#
#
# Convention : Reuss Voigt Hill
#
# Bulk Modulus (GPa) = 36.88366 45.84365 41.36365
# Shear Modulus (GPa) = 20.53103 24.69469 22.61286
#
# Velocity S-wave (km/s) = 3.29276 3.61124 3.45567
# Velocity P-wave (km/s) = 5.82532 6.44963 6.14541
#
# Compressibility (1/GPa) = 0.02711228
#
# Stress axis : x y z
#
# Youngs Moduli (GPa) = 48.64918 70.74298 73.79090
#
# Poissons Ratio (x) = 0.16803 0.38035
# Poissons Ratio (y) = 0.11555 0.22399
# Poissons Ratio (z) = 0.25076 0.21474
#
# Static dielectric constant tensor:
#      x y z
#    x 3.549390 0.000000 -0.281750 
#    y 0.000000 3.594120 0.000000 
#    z -0.281750 0.000000 3.709750 
# 
# 
# High freq. dielectric constant tensor:
#      x y z
#    x 1.713080 0.000000 -0.010380 
#    y 0.000000 1.725380 0.000000 
#    z -0.010380 0.000000 1.748860 
# 
# From -- ./inp_files/224826.got.cif
#   From: 2010.06.25/outbox.cif.g09.slc.cpg/sg12_113_cif.got.tgz:224826.got - 2010.06.28 00:19:55.
