data_PCOD8089655
_publ_section_title
;
Structure prediction by ZEFSAII (Michael W. Deem and Ramdas Pophale) SiO2 
 PCOD8089655
Probable space group: C 2/M
;
_chemical_formula_sum "Si O2"
_cell_formula_units_Z 56
_cell_length_a 19.097623
_cell_length_b 9.050376
_cell_length_c 19.862759
_cell_angle_alpha 90.000000
_cell_angle_beta 65.576971
_cell_angle_gamma 90.000000
_cell_volume 3125.891009
_symmetry_space_group_name_H-M "C 2/M"
_symmetry_group_IT_number 12
_symmetry_cell_setting 'monoclinic'
loop_
_space_group_symop_operation_xyz
x,y,z
-x,y,-z
-x,-y,-z
x,-y,z
1/2+x,1/2+y,z
1/2-x,1/2+y,-z
1/2-x,1/2-y,-z
1/2+x,1/2-y,z
loop_
_atom_site_type_symbol
_atom_site_label
_atom_site_fract_x
_atom_site_fract_y
_atom_site_fract_z
Si Si1 0.555826 0.174178 0.917687
Si Si2 0.505212 0.669825 0.802714
Si Si3 0.905263 0.325848 0.350058
Si Si4 0.186658 0.829628 0.935240
Si Si5 0.260854 0.669145 0.564250
Si Si6 0.072315 0.173701 0.515506
Si Si7 0.334264 0.333713 0.903420
O O1 0.530843 0.247260 0.858886
O O2 0.640896 0.230409 0.900509
O O3 0.555783 0.000000 0.907962
O O4 0.500000 0.225278 0.000000
O O5 0.531635 0.500000 0.796380
O O6 0.540020 0.745623 0.723782
O O7 0.413491 0.682407 0.832117
O O8 0.922443 0.500000 0.343166
O O9 0.815909 0.293186 0.361614
O O10 0.924669 0.262663 0.416061
O O11 0.275448 0.782260 0.894687
O O12 0.178606 0.000000 0.918280
O O13 0.153372 0.797220 0.022771
O O14 0.257424 0.500000 0.546112
O O15 0.250000 0.750000 0.500000
O O16 0.347083 0.704682 0.558491
O O17 0.000000 0.229704 0.500000
O O18 0.063126 0.000000 0.535301
O O19 0.300964 0.500000 0.910137
#
# Coordination Sequence:
#
# PCOD8089655 Si02
#       7
#     8   8   8   8   8   8   8
#     4  11  22  35  54  79 106 137 178 227 274 320
#     4  11  22  37  56  77 106 143 183 226 274 324
#     4  10  20  34  52  77 109 142 176 216 266 319
#     4  10  19  33  54  77 102 132 173 222 271 325
#     4   8  15  29  50  75 103 135 171 210 252 303
#     4   9  17  32  56  83 107 136 176 216 259 314
#     4   9  19  34  52  75 102 135 174 220 272 323
#
# _framework density 17.914892999999999
#
# number of rings (size 3 to 8) (size 9 to 14) (size 15 to 20)
#    0.000    2.286    1.429    1.714    0.000    3.143 
#    0.000    1.429    0.000    6.857    0.000    0.000 
#    0.000    0.000    0.000    0.000    0.000    0.000 
#
# Total GULP energy -346994.530386 kJ/mol
# GULP energy per Si atom -12392.661800 kJ/mol
# Density = 1.787412 g / cm^3
# Si number density = 17.914893 Si / 1000 Ang^3
#
#
#
# Elastic Constant Matrix: (Units=GPa)
#
#
# Indices 1 2 3 4 5 6 
#
# 1 116.2527 43.9844 43.3279 0.0000 -9.5914 0.0000
# 2 43.9844 74.1730 39.7451 0.0000 -2.7652 0.0001
# 3 43.3279 39.7451 79.7612 0.0000 -11.1272 0.0000
# 4 0.0000 0.0000 0.0000 21.6041 0.0000 1.8331
# 5 -9.5914 -2.7652 -11.1272 0.0000 23.7932 0.0000
# 6 0.0000 0.0001 0.0000 1.8331 0.0000 30.0512
#
#
#
# Elastic Compliance Matrix: (Units=1/GPa)
#
#
# Indices 1 2 3 4 5 6 
#
# 1 0.012122 -0.005125 -0.003672 0.000000 0.002574 0.000000
# 2 -0.005125 0.020678 -0.007995 0.000000 -0.003401 0.000000
# 3 -0.003672 -0.007995 0.019449 0.000000 0.006686 0.000000
# 4 0.000000 0.000000 0.000000 0.046528 0.000000 -0.002838
# 5 0.002574 -0.003401 0.006686 0.000000 0.045798 0.000000
# 6 0.000000 0.000000 0.000000 -0.002838 0.000000 0.033450
#
#
# Mechanical properties :
#
#
# Convention : Reuss Voigt Hill
#
# Bulk Modulus (GPa) = 53.57413 58.25572 55.91492
# Shear Modulus (GPa) = 22.95382 24.63167 23.79275
#
# Velocity S-wave (km/s) = 3.58337 3.71202 3.64826
# Velocity P-wave (km/s) = 6.86225 7.13868 7.00183
#
# Compressibility (1/GPa) = 0.01866573
#
# Stress axis : x y z
#
# Youngs Moduli (GPa) = 82.49601 48.36089 51.41728
#
# Poissons Ratio (x) = 0.24783 0.18882
# Poissons Ratio (y) = 0.42275 0.41106
# Poissons Ratio (z) = 0.30294 0.38663
#
# Static dielectric constant tensor:
#      x y z
#    x 3.883720 0.000000 -0.606040 
#    y 0.000000 3.526880 0.000000 
#    z -0.606040 0.000000 3.425340 
# 
# 
# High freq. dielectric constant tensor:
#      x y z
#    x 1.701790 0.000000 -0.019290 
#    y 0.000000 1.704840 0.000000 
#    z -0.019290 0.000000 1.661690 
# 
# From -- ./inp_files/275271.got.cif
#   From: 2010.06.25/outbox.cif.g09.slc.cpg/sg12_138_cif.got.tgz:275271.got - 2010.06.28 00:19:55.
