data_PCOD8089308
_publ_section_title
;
Structure prediction by ZEFSAII (Michael W. Deem and Ramdas Pophale) SiO2 
 PCOD8089308
Probable space group: C 2/M
;
_chemical_formula_sum "Si O2"
_cell_formula_units_Z 64
_cell_length_a 33.656888
_cell_length_b 9.272714
_cell_length_c 14.817203
_cell_angle_alpha 90.000000
_cell_angle_beta 133.918610
_cell_angle_gamma 90.000000
_cell_volume 3331.010912
_symmetry_space_group_name_H-M "C 2/M"
_symmetry_group_IT_number 12
_symmetry_cell_setting 'monoclinic'
loop_
_space_group_symop_operation_xyz
x,y,z
-x,y,-z
-x,-y,-z
x,-y,z
1/2+x,1/2+y,z
1/2-x,1/2+y,-z
1/2-x,1/2-y,-z
1/2+x,1/2-y,z
loop_
_atom_site_type_symbol
_atom_site_label
_atom_site_fract_x
_atom_site_fract_y
_atom_site_fract_z
Si Si1 0.263941 0.165315 0.679392
Si Si2 0.345352 0.170892 0.481907
Si Si3 0.115382 0.667319 0.842218
Si Si4 0.836787 0.333830 0.264070
Si Si5 0.769047 0.663243 0.900246
Si Si6 0.370786 0.666159 0.823844
Si Si7 0.444403 0.331422 0.106456
Si Si8 0.569193 0.335014 0.266163
O O1 0.209007 0.251427 0.563935
O O2 0.272127 0.176904 0.798199
O O3 0.317001 0.238672 0.716970
O O4 0.258824 0.000000 0.638287
O O5 0.355194 0.215686 0.392687
O O6 0.398051 0.227140 0.617934
O O7 0.339020 0.000000 0.484082
O O8 0.107108 0.500000 0.852604
O O9 0.114327 0.694576 0.731933
O O10 0.067307 0.754467 0.816399
O O11 0.174154 0.724382 0.970885
O O12 0.820284 0.500000 0.239415
O O13 0.782106 0.253957 0.143001
O O14 0.759950 0.500000 0.917660
O O15 0.352528 0.500000 0.806154
O O16 0.413264 0.685317 0.809292
O O17 0.401588 0.721872 0.962481
O O18 0.438168 0.500000 0.112170
O O19 0.505515 0.290802 0.171280
O O20 0.578977 0.500000 0.313272
#
# Coordination Sequence:
#
# PCOD8089308 Si02
#       8
#     8   8   8   8   8   8   8   8
#     4  10  19  33  55  84 116 146 175 219 273 324
#     4  10  21  38  57  80 110 146 189 227 264 316
#     4  10  19  33  52  79 112 143 176 219 270 324
#     4   9  19  33  52  77 108 144 181 220 264 317
#     4   9  17  29  48  77 112 143 173 213 266 322
#     4  10  20  36  59  84 110 139 176 224 277 331
#     4  10  21  37  58  83 110 140 179 226 274 326
#     4  10  22  40  59  79 105 143 186 228 275 322
#
# _framework density 19.213387000000001
#
# number of rings (size 3 to 8) (size 9 to 14) (size 15 to 20)
#    0.000    2.250    1.250    1.500    0.000    5.000 
#    0.000    0.625    0.000    6.000    0.000    0.000 
#    0.000    0.000    0.000    0.000    0.000    0.000 
#
# Total GULP energy -396837.267211 kJ/mol
# GULP energy per Si atom -12401.164600 kJ/mol
# Density = 1.916966 g / cm^3
# Si number density = 19.213387 Si / 1000 Ang^3
#
#
#
# Elastic Constant Matrix: (Units=GPa)
#
#
# Indices 1 2 3 4 5 6 
#
# 1 119.5463 49.6855 28.7208 0.0000 6.2093 0.0000
# 2 49.6855 76.5936 35.7090 0.0000 8.4745 0.0000
# 3 28.7208 35.7090 64.1123 0.0000 6.4453 0.0000
# 4 0.0000 0.0000 0.0000 27.5128 0.0000 2.7067
# 5 6.2093 8.4745 6.4453 0.0000 9.7265 0.0000
# 6 0.0000 0.0000 0.0000 2.7067 0.0000 32.8115
#
#
#
# Elastic Compliance Matrix: (Units=1/GPa)
#
#
# Indices 1 2 3 4 5 6 
#
# 1 0.011541 -0.006809 -0.001322 0.000000 -0.000560 0.000000
# 2 -0.006809 0.022509 -0.008520 0.000000 -0.009619 0.000000
# 3 -0.001322 -0.008520 0.021539 0.000000 -0.006006 0.000000
# 4 0.000000 0.000000 0.000000 0.036644 0.000000 -0.003023
# 5 -0.000560 -0.009619 -0.006006 0.000000 0.115531 0.000000
# 6 0.000000 0.000000 0.000000 -0.003023 0.000000 0.030727
#
#
# Mechanical properties :
#
#
# Convention : Reuss Voigt Hill
#
# Bulk Modulus (GPa) = 44.86545 54.27585 49.57065
# Shear Modulus (GPa) = 17.90700 23.75261 20.82980
#
# Velocity S-wave (km/s) = 3.05619 3.51985 3.29618
# Velocity P-wave (km/s) = 5.98795 6.69548 6.35158
#
# Compressibility (1/GPa) = 0.02228887
#
# Stress axis : x y z
#
# Youngs Moduli (GPa) = 86.64493 44.42679 46.42779
#
# Poissons Ratio (x) = 0.30248 0.06137
# Poissons Ratio (y) = 0.58993 0.39555
# Poissons Ratio (z) = 0.11452 0.37851
#
# Static dielectric constant tensor:
#      x y z
#    x 3.549190 0.000000 -0.093660 
#    y 0.000000 3.475750 0.000000 
#    z -0.093660 0.000000 3.380250 
# 
# 
# High freq. dielectric constant tensor:
#      x y z
#    x 1.751260 0.000000 -0.008820 
#    y 0.000000 1.742560 0.000000 
#    z -0.008820 0.000000 1.731950 
# 
# From -- ./inp_files/250090.got.cif
#   From: 2010.06.25/outbox.cif.g09.slc.cpg/sg12_126_cif.got.tgz:250090.got - 2010.06.28 00:19:55.
