data_PCOD8089349
_publ_section_title
;
Structure prediction by ZEFSAII (Michael W. Deem and Ramdas Pophale) SiO2 
 PCOD8089349
Probable space group: C 2/M
;
_chemical_formula_sum "Si O2"
_cell_formula_units_Z 64
_cell_length_a 8.576972
_cell_length_b 19.690662
_cell_length_c 24.499981
_cell_angle_alpha 90.000000
_cell_angle_beta 56.782166
_cell_angle_gamma 90.000000
_cell_volume 3461.582752
_symmetry_space_group_name_H-M "C 2/M"
_symmetry_group_IT_number 12
_symmetry_cell_setting 'monoclinic'
loop_
_space_group_symop_operation_xyz
x,y,z
-x,y,-z
-x,-y,-z
x,-y,z
1/2+x,1/2+y,z
1/2-x,1/2+y,-z
1/2-x,1/2-y,-z
1/2+x,1/2-y,z
loop_
_atom_site_type_symbol
_atom_site_label
_atom_site_fract_x
_atom_site_fract_y
_atom_site_fract_z
Si Si1 0.095178 0.325718 0.066735
Si Si2 0.894188 0.335842 0.575829
Si Si3 0.731198 0.664484 0.296669
Si Si4 0.445997 0.425160 0.816773
Si Si5 0.910968 0.078318 0.325400
Si Si6 0.206344 0.182835 0.079935
Si Si7 0.069440 0.575263 0.828460
Si Si8 0.929033 0.271728 0.357321
O O1 0.127562 0.258937 0.097110
O O2 0.893815 0.318266 0.078446
O O3 0.101792 0.391727 0.104917
O O4 0.254647 0.336528 0.990685
O O5 0.796940 0.405217 0.614940
O O6 0.732728 0.281195 0.598130
O O7 0.000000 0.351122 0.500000
O O8 0.041406 0.312729 0.592767
O O9 0.563683 0.610747 0.337125
O O10 0.873572 0.632797 0.226053
O O11 0.856017 0.675745 0.326157
O O12 0.622450 0.734778 0.300763
O O13 0.521970 0.500000 0.821340
O O14 0.563871 0.396040 0.742346
O O15 0.446402 0.369933 0.865764
O O16 0.235769 0.436125 0.838364
O O17 0.953681 0.000000 0.318721
O O18 0.014877 0.500000 0.814856
#
# Coordination Sequence:
#
# PCOD8089349 Si02
#       8
#     8   8   8   8   8   8   8   8
#     4   9  18  29  45  68  95 123 156 198 238 287
#     4  10  19  33  53  74 100 127 154 196 243 290
#     4   9  17  31  50  71  98 127 158 200 244 287
#     4   8  15  29  49  69  90 120 159 200 237 280
#     4   9  18  33  50  69  96 130 164 196 238 289
#     4   9  17  30  46  68  93 122 157 195 243 282
#     4   9  17  29  46  69  96 127 160 197 243 285
#     4   9  19  32  50  77  98 122 161 199 242 289
#
# _framework density 18.488651999999998
#
# number of rings (size 3 to 8) (size 9 to 14) (size 15 to 20)
#    0.000    3.000    0.000    1.500    0.000    5.750 
#    0.000    3.750    0.000    3.000    0.000    3.500 
#    0.000    0.000    0.000    0.000    0.000    0.000 
#
# Total GULP energy -396452.908538 kJ/mol
# GULP energy per Si atom -12389.153392 kJ/mol
# Density = 1.844657 g / cm^3
# Si number density = 18.488652 Si / 1000 Ang^3
#
#
#
# Elastic Constant Matrix: (Units=GPa)
#
#
# Indices 1 2 3 4 5 6 
#
# 1 54.5468 24.0330 32.9210 0.0000 9.7885 -0.0001
# 2 24.0330 93.8919 77.0396 0.0000 6.6009 0.0000
# 3 32.9210 77.0396 128.8094 0.0000 1.2174 0.0000
# 4 0.0000 0.0000 0.0000 18.2042 0.0000 1.3997
# 5 9.7885 6.6009 1.2174 0.0000 16.6973 0.0001
# 6 -0.0001 0.0000 0.0000 1.3997 0.0001 16.5608
#
#
#
# Elastic Compliance Matrix: (Units=1/GPa)
#
#
# Indices 1 2 3 4 5 6 
#
# 1 0.024553 -0.000541 -0.005822 0.000000 -0.013756 0.000000
# 2 -0.000541 0.021871 -0.012873 0.000000 -0.007391 0.000000
# 3 -0.005822 -0.012873 0.016882 0.000000 0.007271 0.000000
# 4 0.000000 0.000000 0.000000 0.055292 0.000000 -0.004673
# 5 -0.013756 -0.007391 0.007271 0.000000 0.070345 0.000000
# 6 0.000000 0.000000 0.000000 -0.004673 0.000000 0.060779
#
#
# Mechanical properties :
#
#
# Convention : Reuss Voigt Hill
#
# Bulk Modulus (GPa) = 40.26556 60.58172 50.42364
# Shear Modulus (GPa) = 16.86511 19.84275 18.35393
#
# Velocity S-wave (km/s) = 3.02352 3.27959 3.15415
# Velocity P-wave (km/s) = 5.83221 6.86870 6.37157
#
# Compressibility (1/GPa) = 0.02483512
#
# Stress axis : x y z
#
# Youngs Moduli (GPa) = 40.72766 45.72336 59.23611
#
# Poissons Ratio (x) = 0.02473 0.34487
# Poissons Ratio (y) = 0.02203 0.76252
# Poissons Ratio (z) = 0.23711 0.58858
#
# Static dielectric constant tensor:
#      x y z
#    x 3.156810 0.000000 -0.059400 
#    y 0.000000 3.638550 0.000000 
#    z -0.059400 0.000000 3.453270 
# 
# 
# High freq. dielectric constant tensor:
#      x y z
#    x 1.686240 0.000000 -0.004420 
#    y 0.000000 1.717890 0.000000 
#    z -0.004420 0.000000 1.709060 
# 
# From -- ./inp_files/333581.got.cif
#   From: 2010.06.25/outbox.cif.g09.slc.cpg/sg12_167_cif.got.tgz:333581.got - 2010.06.28 00:19:55.
