data_PCOD8089029
_publ_section_title
;
Structure prediction by ZEFSAII (Michael W. Deem and Ramdas Pophale) SiO2 
 PCOD8089029
Probable space group: C 2/M
;
_chemical_formula_sum "Si O2"
_cell_formula_units_Z 56
_cell_length_a 18.421180
_cell_length_b 12.196482
_cell_length_c 16.954167
_cell_angle_alpha 90.000000
_cell_angle_beta 124.260176
_cell_angle_gamma 90.000000
_cell_volume 3148.226494
_symmetry_space_group_name_H-M "C 2/M"
_symmetry_group_IT_number 12
_symmetry_cell_setting 'monoclinic'
loop_
_space_group_symop_operation_xyz
x,y,z
-x,y,-z
-x,-y,-z
x,-y,z
1/2+x,1/2+y,z
1/2-x,1/2+y,-z
1/2-x,1/2-y,-z
1/2+x,1/2-y,z
loop_
_atom_site_type_symbol
_atom_site_label
_atom_site_fract_x
_atom_site_fract_y
_atom_site_fract_z
Si Si1 0.359738 0.129787 0.386094
Si Si2 0.232509 0.124689 0.889384
Si Si3 0.376406 0.230439 0.073072
Si Si4 0.468659 0.871627 0.600768
Si Si5 0.602743 0.619554 0.057973
Si Si6 0.202514 0.273127 0.228939
Si Si7 0.053351 0.370881 0.237599
O O1 0.431281 0.154988 0.362021
O O2 0.399559 0.171602 0.493699
O O3 0.276610 0.205921 0.320070
O O4 0.335443 0.000000 0.372057
O O5 0.158569 0.215251 0.867023
O O6 0.259933 0.148175 0.816035
O O7 0.196884 0.000000 0.871659
O O8 0.313727 0.134402 0.000865
O O9 0.474360 0.185014 0.140991
O O10 0.368932 0.327991 0.006301
O O11 0.447807 0.822386 0.674131
O O12 0.455665 0.000000 0.595010
O O13 0.646988 0.500000 0.087992
O O14 0.635352 0.686263 0.152547
O O15 0.500000 0.610565 0.000000
O O16 0.147612 0.346029 0.257091
O O17 0.036043 0.500000 0.226561
#
# Coordination Sequence:
#
# PCOD8089029 Si02
#       7
#     8   8   8   8   8   8   8
#     4   9  17  34  56  79 102 128 169 218 256 295
#     4  10  21  35  51  75 104 135 171 215 252 297
#     4  10  20  35  53  74  97 137 180 208 252 301
#     4   8  17  33  55  77 100 129 166 214 260 297
#     4  10  19  33  49  71 103 135 171 214 248 286
#     4  11  21  32  51  78 105 139 172 200 255 313
#     4  11  21  34  51  76 105 136 169 208 253 307
#
# _framework density 17.787793000000001
#
# number of rings (size 3 to 8) (size 9 to 14) (size 15 to 20)
#    0.000    2.143    1.429    3.429    0.000    0.571 
#    0.000    6.429    0.000    0.000    0.000   20.000 
#    0.000    0.000    0.000    0.000    0.000    0.000 
#
# Total GULP energy -347109.279605 kJ/mol
# GULP energy per Si atom -12396.759986 kJ/mol
# Density = 1.774731 g / cm^3
# Si number density = 17.787793 Si / 1000 Ang^3
#
#
#
# Elastic Constant Matrix: (Units=GPa)
#
#
# Indices 1 2 3 4 5 6 
#
# 1 88.8997 19.3046 31.6857 0.0000 -5.7651 0.0000
# 2 19.3046 70.1504 22.0647 0.0000 2.3744 0.0000
# 3 31.6857 22.0647 73.7267 0.0000 -1.2792 0.0000
# 4 0.0000 0.0000 0.0000 33.4247 0.0000 7.1319
# 5 -5.7651 2.3744 -1.2792 0.0000 32.3205 0.0000
# 6 0.0000 0.0000 0.0000 7.1319 0.0000 26.0978
#
#
#
# Elastic Compliance Matrix: (Units=1/GPa)
#
#
# Indices 1 2 3 4 5 6 
#
# 1 0.013741 -0.002228 -0.005197 0.000000 0.002409 0.000000
# 2 -0.002228 0.016156 -0.003908 0.000000 -0.001739 0.000000
# 3 -0.005197 -0.003908 0.016967 0.000000 0.000032 0.000000
# 4 0.000000 0.000000 0.000000 0.031771 0.000000 -0.008682
# 5 0.002409 -0.001739 0.000032 0.000000 0.031499 0.000000
# 6 0.000000 0.000000 0.000000 -0.008682 0.000000 0.040690
#
#
# Mechanical properties :
#
#
# Convention : Reuss Voigt Hill
#
# Bulk Modulus (GPa) = 41.32458 42.09852 41.71155
# Shear Modulus (GPa) = 27.53978 29.01673 28.27825
#
# Velocity S-wave (km/s) = 3.93904 4.04328 3.99150
# Velocity P-wave (km/s) = 6.63102 6.74655 6.68904
#
# Compressibility (1/GPa) = 0.02419867
#
# Stress axis : x y z
#
# Youngs Moduli (GPa) = 72.77493 61.89548 58.93763
#
# Poissons Ratio (x) = 0.13792 0.30629
# Poissons Ratio (y) = 0.16217 0.23031
# Poissons Ratio (z) = 0.37820 0.24187
#
# Static dielectric constant tensor:
#      x y z
#    x 3.517090 0.000000 -0.126290 
#    y 0.000000 3.228810 0.000000 
#    z -0.126290 0.000000 3.501540 
# 
# 
# High freq. dielectric constant tensor:
#      x y z
#    x 1.691690 0.000000 -0.007520 
#    y 0.000000 1.672900 0.000000 
#    z -0.007520 0.000000 1.683670 
# 
# From -- ./inp_files/223173.got.cif
#   From: 2010.06.25/outbox.cif.g09.slc.cpg/sg12_112_cif.got.tgz:223173.got - 2010.06.28 00:19:55.
