data_PCOD8089351
_publ_section_title
;
Structure prediction by ZEFSAII (Michael W. Deem and Ramdas Pophale) SiO2 
 PCOD8089351
Probable space group: C 2/M
;
_chemical_formula_sum "Si O2"
_cell_formula_units_Z 56
_cell_length_a 19.830238
_cell_length_b 8.528466
_cell_length_c 23.302385
_cell_angle_alpha 90.000000
_cell_angle_beta 129.521384
_cell_angle_gamma 90.000000
_cell_volume 3039.986200
_symmetry_space_group_name_H-M "C 2/M"
_symmetry_group_IT_number 12
_symmetry_cell_setting 'monoclinic'
loop_
_space_group_symop_operation_xyz
x,y,z
-x,y,-z
-x,-y,-z
x,-y,z
1/2+x,1/2+y,z
1/2-x,1/2+y,-z
1/2-x,1/2-y,-z
1/2+x,1/2-y,z
loop_
_atom_site_type_symbol
_atom_site_label
_atom_site_fract_x
_atom_site_fract_y
_atom_site_fract_z
Si Si1 0.793815 0.315416 0.157607
Si Si2 0.944145 0.685115 0.155310
Si Si3 0.220608 0.685338 0.721820
Si Si4 0.761210 0.315055 0.443055
Si Si5 0.138774 0.314739 0.284150
Si Si6 0.400776 0.315731 0.436064
Si Si7 0.827552 0.183258 0.004669
O O1 0.807963 0.500000 0.168466
O O2 0.875702 0.245875 0.165412
O O3 0.792493 0.246909 0.221084
O O4 0.700107 0.277123 0.076152
O O5 0.943234 0.500000 0.155680
O O6 0.917289 0.739110 0.076050
O O7 0.040651 0.747868 0.221507
O O8 0.237488 0.500000 0.730269
O O9 0.304239 0.772083 0.740586
O O10 0.133996 0.724671 0.638671
O O11 0.775610 0.500000 0.451493
O O12 0.750000 0.250000 0.500000
O O13 0.675518 0.273140 0.359887
O O14 0.846001 0.232605 0.462146
O O15 0.142321 0.500000 0.296765
O O16 0.500000 0.264718 0.500000
O O17 0.391151 0.500000 0.420042
O O18 0.835813 0.000000 0.018494
O O19 0.750000 0.250000 0.000000
#
# Coordination Sequence:
#
# PCOD8089351 Si02
#       7
#     8   8   8   8   8   8   8
#     4   8  16  31  50  73  98 127 166 208 249 294
#     4   9  18  33  52  74 100 131 169 211 252 298
#     4  10  19  33  53  74 100 134 170 207 250 306
#     4  11  22  37  57  79 105 137 174 213 256 308
#     4  10  20  35  53  74 104 137 167 207 258 305
#     4  10  21  37  55  77 106 136 169 213 260 306
#     4   9  16  29  49  72 100 131 165 208 255 301
#
# _framework density 18.421137000000002
#
# number of rings (size 3 to 8) (size 9 to 14) (size 15 to 20)
#    0.000    2.429    0.000    5.571    0.000    3.429 
#    0.000    9.286    0.000    4.286    0.000    0.000 
#    0.000    0.000    0.000    0.000    0.000    0.000 
#
# Total GULP energy -347078.504607 kJ/mol
# GULP energy per Si atom -12395.660879 kJ/mol
# Density = 1.837921 g / cm^3
# Si number density = 18.421137 Si / 1000 Ang^3
#
#
#
# Elastic Constant Matrix: (Units=GPa)
#
#
# Indices 1 2 3 4 5 6 
#
# 1 87.8894 6.9528 87.5855 0.0000 4.0213 0.0000
# 2 6.9528 27.2272 12.7625 0.0000 3.1652 0.0000
# 3 87.5855 12.7625 147.8971 0.0000 2.1363 0.0000
# 4 0.0000 0.0000 0.0000 32.0397 0.0000 1.2653
# 5 4.0213 3.1652 2.1363 0.0000 38.1878 0.0000
# 6 0.0000 0.0000 0.0000 1.2653 0.0000 23.3185
#
#
#
# Elastic Compliance Matrix: (Units=1/GPa)
#
#
# Indices 1 2 3 4 5 6 
#
# 1 0.027936 0.000885 -0.016590 0.000000 -0.002087 0.000000
# 2 0.000885 0.038649 -0.003815 0.000000 -0.003083 0.000000
# 3 -0.016590 -0.003815 0.016899 0.000000 0.001118 0.000000
# 4 0.000000 0.000000 0.000000 0.031278 0.000000 -0.001697
# 5 -0.002087 -0.003083 0.001118 0.000000 0.026599 0.000000
# 6 0.000000 0.000000 0.000000 -0.001697 0.000000 0.042976
#
#
# Mechanical properties :
#
#
# Convention : Reuss Voigt Hill
#
# Bulk Modulus (GPa) = 22.49996 53.06835 37.78416
# Shear Modulus (GPa) = 20.99141 29.09007 25.04074
#
# Velocity S-wave (km/s) = 3.37935 3.97819 3.69093
# Velocity P-wave (km/s) = 5.24094 7.06910 6.22253
#
# Compressibility (1/GPa) = 0.04444452
#
# Stress axis : x y z
#
# Youngs Moduli (GPa) = 35.79568 25.87422 59.17380
#
# Poissons Ratio (x) = -0.02291 0.98171
# Poissons Ratio (y) = -0.03169 0.22574
# Poissons Ratio (z) = 0.59386 0.09871
#
# Static dielectric constant tensor:
#      x y z
#    x 3.429700 0.000000 0.012420 
#    y 0.000000 3.406330 0.000000 
#    z 0.012420 0.000000 3.860770 
# 
# 
# High freq. dielectric constant tensor:
#      x y z
#    x 1.693020 0.000000 0.002180 
#    y 0.000000 1.712040 0.000000 
#    z 0.002180 0.000000 1.729280 
# 
# From -- ./inp_files/342037.got.cif
#   From: 2010.06.25/outbox.cif.g09.slc.cpg/sg12_172_cif.got.tgz:342037.got - 2010.06.28 00:19:55.
