data_PCOD8089968
_publ_section_title
;
Structure prediction by ZEFSAII (Michael W. Deem and Ramdas Pophale) SiO2 
 PCOD8089968
Probable space group: C 2/M
;
_chemical_formula_sum "Si O2"
_cell_formula_units_Z 36
_cell_length_a 15.920513
_cell_length_b 17.333050
_cell_length_c 17.684610
_cell_angle_alpha 90.000000
_cell_angle_beta 156.954172
_cell_angle_gamma 90.000000
_cell_volume 1910.394196
_symmetry_space_group_name_H-M "C 2/M"
_symmetry_group_IT_number 12
_symmetry_cell_setting 'monoclinic'
loop_
_space_group_symop_operation_xyz
x,y,z
-x,y,-z
-x,-y,-z
x,-y,z
1/2+x,1/2+y,z
1/2-x,1/2+y,-z
1/2-x,1/2-y,-z
1/2+x,1/2-y,z
loop_
_atom_site_type_symbol
_atom_site_label
_atom_site_fract_x
_atom_site_fract_y
_atom_site_fract_z
Si Si1 0.536578 0.209655 0.173982
Si Si2 0.000000 0.199090 0.000000
Si Si3 0.580059 0.347708 0.825540
Si Si4 0.717212 0.911532 0.423772
Si Si5 0.726887 0.912992 0.868887
O O1 0.607735 0.247792 0.153917
O O2 0.543898 0.272282 0.247393
O O3 0.695603 0.140720 0.330330
O O4 0.295959 0.178309 0.962184
O O5 0.807595 0.146096 0.872155
O O6 0.438224 0.394075 0.648628
O O7 0.632886 0.403945 0.939172
O O8 0.520470 0.893725 0.317779
O O9 0.712805 0.000000 0.393525
O O10 0.752443 0.000000 0.859510
#
# Coordination Sequence:
#
# PCOD8089968 Si02
#       5
#     8   4   8   8   8
#     4   9  19  33  51  74 100 134 171 204 247 297
#     4  10  19  34  51  72 108 142 162 200 253 304
#     4   9  17  33  54  74  98 131 172 213 245 288
#     4  10  19  33  55  78  99 129 171 214 250 289
#     4   9  18  32  52  79 106 132 163 203 255 306
#
# _framework density 18.844280000000001
#
# number of rings (size 3 to 8) (size 9 to 14) (size 15 to 20)
#    0.000    2.667    0.000    3.000    0.000    0.889 
#    0.000   10.556    0.000   13.333    0.000    0.000 
#    0.000    0.000    0.000    0.000    0.000    0.000 
#
# Total GULP energy -223212.780355 kJ/mol
# GULP energy per Si atom -12400.710020 kJ/mol
# Density = 1.880139 g / cm^3
# Si number density = 18.844280 Si / 1000 Ang^3
#
#
#
# Elastic Constant Matrix: (Units=GPa)
#
#
# Indices 1 2 3 4 5 6 
#
# 1 75.1649 46.4672 27.1374 -0.0253 -15.9952 -0.0154
# 2 46.4672 104.7122 40.5113 0.0091 -9.7430 -0.0010
# 3 27.1374 40.5113 83.7623 -0.0996 -12.7392 -0.0277
# 4 -0.0253 0.0091 -0.0996 34.0998 -0.0689 -4.5917
# 5 -15.9952 -9.7430 -12.7392 -0.0689 14.9810 -0.0225
# 6 -0.0154 -0.0010 -0.0277 -4.5917 -0.0225 28.9181
#
#
#
# Elastic Compliance Matrix: (Units=1/GPa)
#
#
# Indices 1 2 3 4 5 6 
#
# 1 0.022313 -0.007978 -0.000616 0.000058 0.018111 0.000034
# 2 -0.007978 0.014738 -0.005032 -0.000033 -0.003212 -0.000016
# 3 -0.000616 -0.005032 0.016050 0.000072 0.009719 0.000034
# 4 0.000058 -0.000033 0.000072 0.029967 0.000247 0.004759
# 5 0.018111 -0.003212 0.009719 0.000247 0.092265 0.000130
# 6 0.000034 -0.000016 0.000034 0.004759 0.000130 0.035336
#
#
# Mechanical properties :
#
#
# Convention : Reuss Voigt Hill
#
# Bulk Modulus (GPa) = 38.68585 54.65236 46.66911
# Shear Modulus (GPa) = 20.28094 25.56802 22.92448
#
# Velocity S-wave (km/s) = 3.28417 3.68748 3.49165
# Velocity P-wave (km/s) = 5.91226 6.86987 6.40897
#
# Compressibility (1/GPa) = 0.02584924
#
# Stress axis : x y z
#
# Youngs Moduli (GPa) = 44.81784 67.85081 62.30582
#
# Poissons Ratio (x) = 0.54132 0.03836
# Poissons Ratio (y) = 0.35756 0.31352
# Poissons Ratio (z) = 0.02759 0.34142
#
# Static dielectric constant tensor:
#      x y z
#    x 3.217810 -0.000060 0.027920 
#    y -0.000060 3.663880 -0.000070 
#    z 0.027920 -0.000070 3.211680 
# 
# 
# High freq. dielectric constant tensor:
#      x y z
#    x 1.698630 -0.000010 -0.001550 
#    y -0.000010 1.748700 -0.000010 
#    z -0.001550 -0.000010 1.717940 
# 
# From -- ./inp_files/14935.got.cif
#   From: 2010.06.25/outbox.cif.g09.slc.cpg/sg12_8_cif.got.tgz:14935.got - 2010.06.28 00:19:55.
