data_PCOD8089412
_publ_section_title
;
Structure prediction by ZEFSAII (Michael W. Deem and Ramdas Pophale) SiO2 
 PCOD8089412
Probable space group: C 2/M
;
_chemical_formula_sum "Si O2"
_cell_formula_units_Z 48
_cell_length_a 32.985047
_cell_length_b 9.146169
_cell_length_c 9.035519
_cell_angle_alpha 90.000000
_cell_angle_beta 92.876718
_cell_angle_gamma 90.000000
_cell_volume 2722.461858
_symmetry_space_group_name_H-M "C 2/M"
_symmetry_group_IT_number 12
_symmetry_cell_setting 'monoclinic'
loop_
_space_group_symop_operation_xyz
x,y,z
-x,y,-z
-x,-y,-z
x,-y,z
1/2+x,1/2+y,z
1/2-x,1/2+y,-z
1/2-x,1/2-y,-z
1/2+x,1/2-y,z
loop_
_atom_site_type_symbol
_atom_site_label
_atom_site_fract_x
_atom_site_fract_y
_atom_site_fract_z
Si Si1 0.119060 0.664551 0.893263
Si Si2 0.540741 0.830813 0.079248
Si Si3 0.865415 0.170541 0.397207
Si Si4 0.414430 0.332392 0.680572
Si Si5 0.155805 0.663864 0.191507
Si Si6 0.208659 0.332197 0.463336
O O1 0.117396 0.500000 0.827448
O O2 0.123377 0.781554 0.765407
O O3 0.078214 0.699653 0.976838
O O4 0.157695 0.680521 0.013237
O O5 0.548425 0.758377 0.242081
O O6 0.534123 0.000000 0.109804
O O7 0.500000 0.763177 0.000000
O O8 0.905756 0.198543 0.505013
O O9 0.827254 0.263022 0.446744
O O10 0.853501 0.000000 0.397141
O O11 0.424315 0.500000 0.712225
O O12 0.372900 0.290386 0.753940
O O13 0.137740 0.500000 0.222359
O O14 0.198696 0.679779 0.284801
O O15 0.213492 0.500000 0.513186
O O16 0.250000 0.250000 0.500000
#
# Coordination Sequence:
#
# PCOD8089412 Si02
#       6
#     8   8   8   8   8   8
#     4   9  17  31  51  73  95 123 161 201 241 284
#     4   9  18  33  52  73  97 126 162 202 242 287
#     4  10  20  33  49  72 100 129 162 198 238 286
#     4   9  17  29  47  70  95 125 161 197 235 284
#     4   8  16  31  50  70  94 126 162 197 235 285
#     4  10  19  33  53  75  99 127 160 200 243 286
#
# _framework density 17.631101000000001
#
# number of rings (size 3 to 8) (size 9 to 14) (size 15 to 20)
#    0.000    2.833    0.000    2.500    0.000    5.667 
#    0.000    1.667    0.000    5.000    0.000    0.000 
#    0.000    0.000    0.000    0.000    0.000    0.000 
#
# Total GULP energy -297378.854258 kJ/mol
# GULP energy per Si atom -12390.785594 kJ/mol
# Density = 1.759097 g / cm^3
# Si number density = 17.631101 Si / 1000 Ang^3
#
#
#
# Elastic Constant Matrix: (Units=GPa)
#
#
# Indices 1 2 3 4 5 6 
#
# 1 81.5333 40.4208 46.7626 0.0000 30.3328 0.0000
# 2 40.4208 89.1463 58.7045 0.0000 15.2514 0.0000
# 3 46.7626 58.7045 119.1420 0.0000 26.2964 0.0000
# 4 0.0000 0.0000 0.0000 30.3776 0.0000 4.0669
# 5 30.3328 15.2514 26.2964 0.0000 28.1779 0.0000
# 6 0.0000 0.0000 0.0000 4.0669 0.0000 26.1275
#
#
#
# Elastic Compliance Matrix: (Units=1/GPa)
#
#
# Indices 1 2 3 4 5 6 
#
# 1 0.024176 -0.006177 -0.001812 0.000000 -0.020990 0.000000
# 2 -0.006177 0.018249 -0.007374 0.000000 0.003654 0.000000
# 3 -0.001812 -0.007374 0.014391 0.000000 -0.007488 0.000000
# 4 0.000000 0.000000 0.000000 0.033620 0.000000 -0.005233
# 5 -0.020990 0.003654 -0.007488 0.000000 0.063094 0.000000
# 6 0.000000 0.000000 0.000000 -0.005233 0.000000 0.039088
#
#
# Mechanical properties :
#
#
# Convention : Reuss Voigt Hill
#
# Bulk Modulus (GPa) = 38.33091 64.62193 51.47642
# Shear Modulus (GPa) = 21.54801 26.53216 24.04009
#
# Velocity S-wave (km/s) = 3.49973 3.88345 3.69657
# Velocity P-wave (km/s) = 6.17402 7.53923 6.89052
#
# Compressibility (1/GPa) = 0.02608860
#
# Stress axis : x y z
#
# Youngs Moduli (GPa) = 41.36393 54.79739 69.49016
#
# Poissons Ratio (x) = 0.33850 0.12594
# Poissons Ratio (y) = 0.25552 0.51240
# Poissons Ratio (z) = 0.07497 0.40406
#
# Static dielectric constant tensor:
#      x y z
#    x 3.101150 0.000000 0.469800 
#    y 0.000000 3.315610 0.000000 
#    z 0.469800 0.000000 3.466940 
# 
# 
# High freq. dielectric constant tensor:
#      x y z
#    x 1.647980 0.000000 0.037820 
#    y 0.000000 1.689680 0.000000 
#    z 0.037820 0.000000 1.680330 
# 
# From -- ./inp_files/108564.got.cif
#   From: 2010.06.25/outbox.cif.g09.slc.cpg/sg12_55_cif.got.tgz:108564.got - 2010.06.28 00:19:55.
