data_PCOD8089961
_publ_section_title
;
Structure prediction by ZEFSAII (Michael W. Deem and Ramdas Pophale) SiO2 
 PCOD8089961
Probable space group: C 2/M
;
_chemical_formula_sum "Si O2"
_cell_formula_units_Z 48
_cell_length_a 20.515273
_cell_length_b 9.049243
_cell_length_c 15.025361
_cell_angle_alpha 90.000000
_cell_angle_beta 111.267614
_cell_angle_gamma 90.000000
_cell_volume 2599.453793
_symmetry_space_group_name_H-M "C 2/M"
_symmetry_group_IT_number 12
_symmetry_cell_setting 'monoclinic'
loop_
_space_group_symop_operation_xyz
x,y,z
-x,y,-z
-x,-y,-z
x,-y,z
1/2+x,1/2+y,z
1/2-x,1/2+y,-z
1/2-x,1/2-y,-z
1/2+x,1/2-y,z
loop_
_atom_site_type_symbol
_atom_site_label
_atom_site_fract_x
_atom_site_fract_y
_atom_site_fract_z
Si Si1 0.176038 0.674500 0.240332
Si Si2 0.078720 0.325396 0.548139
Si Si3 0.322740 0.328334 0.056584
Si Si4 0.080700 0.325144 0.034053
Si Si5 0.178245 0.674039 0.440091
Si Si6 0.328323 0.329313 0.265565
O O1 0.179344 0.500000 0.232825
O O2 0.118467 0.733730 0.142424
O O3 0.154591 0.723224 0.329313
O O4 0.252500 0.738384 0.253623
O O5 0.080884 0.500000 0.560291
O O6 0.119327 0.273400 0.479728
O O7 0.111967 0.256881 0.652540
O O8 0.000000 0.266665 0.500000
O O9 0.315062 0.500000 0.028141
O O10 0.342441 0.306508 0.168858
O O11 0.250000 0.250000 0.000000
O O12 0.385544 0.255634 0.033146
O O13 0.090105 0.500000 0.025870
O O14 0.000000 0.279746 0.000000
O O15 0.190510 0.500000 0.450463
O O16 0.250000 0.750000 0.500000
O O17 0.331915 0.500000 0.295208
#
# Coordination Sequence:
#
# PCOD8089961 Si02
#       6
#     8   8   8   8   8   8
#     4   9  17  33  55  80 109 143 185 228 272 330
#     4  10  22  37  54  83 118 144 178 232 285 332
#     4  11  22  37  59  85 115 150 194 241 287 339
#     4  10  21  38  60  86 116 151 189 231 287 348
#     4  10  19  33  55  78 105 141 181 224 271 322
#     4  10  20  36  58  81 110 148 189 231 277 336
#
# _framework density 18.465416999999999
#
# number of rings (size 3 to 8) (size 9 to 14) (size 15 to 20)
#    0.000    2.000    3.333    0.500    0.000    3.333 
#    0.000    4.167    0.000    0.000    0.000    0.000 
#    0.000    0.000    0.000    0.000    0.000    0.000 
#
# Total GULP energy -297640.968371 kJ/mol
# GULP energy per Si atom -12401.707015 kJ/mol
# Density = 1.842339 g / cm^3
# Si number density = 18.465417 Si / 1000 Ang^3
#
#
#
# Elastic Constant Matrix: (Units=GPa)
#
#
# Indices 1 2 3 4 5 6 
#
# 1 169.3324 48.6309 84.6557 0.0000 5.1157 0.0000
# 2 48.6309 42.6949 37.8786 0.0000 -1.4514 0.0000
# 3 84.6557 37.8786 140.1381 0.0000 5.9312 0.0000
# 4 0.0000 0.0000 0.0000 28.8313 0.0000 -1.1742
# 5 5.1157 -1.4514 5.9312 0.0000 38.5362 0.0000
# 6 0.0000 0.0000 0.0000 -1.1742 0.0000 27.2315
#
#
#
# Elastic Compliance Matrix: (Units=1/GPa)
#
#
# Indices 1 2 3 4 5 6 
#
# 1 0.010272 -0.008250 -0.003930 0.000000 -0.001069 0.000000
# 2 -0.008250 0.037669 -0.005339 0.000000 0.003336 0.000000
# 3 -0.003930 -0.005339 0.011011 0.000000 -0.001374 0.000000
# 4 0.000000 0.000000 0.000000 0.034746 0.000000 0.001498
# 5 -0.001069 0.003336 -0.001374 0.000000 0.026429 0.000000
# 6 0.000000 0.000000 0.000000 0.001498 0.000000 0.036787
#
#
# Mechanical properties :
#
#
# Convention : Reuss Voigt Hill
#
# Bulk Modulus (GPa) = 41.81643 77.16619 59.49131
# Shear Modulus (GPa) = 25.00969 30.98650 27.99809
#
# Velocity S-wave (km/s) = 3.68422 4.10089 3.89812
# Velocity P-wave (km/s) = 6.38693 8.01893 7.24901
#
# Compressibility (1/GPa) = 0.02391405
#
# Stress axis : x y z
#
# Youngs Moduli (GPa) = 97.35361 26.54699 90.81616
#
# Poissons Ratio (x) = 0.21900 0.35691
# Poissons Ratio (y) = 0.80313 0.48491
# Poissons Ratio (z) = 0.38260 0.14175
#
# Static dielectric constant tensor:
#      x y z
#    x 3.300630 0.000000 0.282390 
#    y 0.000000 3.215160 0.000000 
#    z 0.282390 0.000000 3.405130 
# 
# 
# High freq. dielectric constant tensor:
#      x y z
#    x 1.718980 0.000000 -0.006100 
#    y 0.000000 1.694050 0.000000 
#    z -0.006100 0.000000 1.730740 
# 
# From -- ./inp_files/229891.got.cif
#   From: 2010.06.25/outbox.cif.g09.slc.cpg/sg12_115_cif.got.tgz:229891.got - 2010.06.28 00:19:55.
