data_PCOD8089313
_publ_section_title
;
Structure prediction by ZEFSAII (Michael W. Deem and Ramdas Pophale) SiO2 
 PCOD8089313
Probable space group: C 2/M
;
_chemical_formula_sum "Si O2"
_cell_formula_units_Z 64
_cell_length_a 24.182154
_cell_length_b 22.081734
_cell_length_c 6.727627
_cell_angle_alpha 90.000000
_cell_angle_beta 69.014934
_cell_angle_gamma 90.000000
_cell_volume 3354.171270
_symmetry_space_group_name_H-M "C 2/M"
_symmetry_group_IT_number 12
_symmetry_cell_setting 'monoclinic'
loop_
_space_group_symop_operation_xyz
x,y,z
-x,y,-z
-x,-y,-z
x,-y,z
1/2+x,1/2+y,z
1/2-x,1/2+y,-z
1/2-x,1/2-y,-z
1/2+x,1/2-y,z
loop_
_atom_site_type_symbol
_atom_site_label
_atom_site_fract_x
_atom_site_fract_y
_atom_site_fract_z
Si Si1 0.786177 0.569710 0.756986
Si Si2 0.352991 0.363822 0.525949
Si Si3 0.431894 0.212876 0.123484
Si Si4 0.340727 0.152678 0.982005
Si Si5 0.845703 0.930271 0.924534
Si Si6 0.569417 0.352998 0.922857
Si Si7 0.854898 0.732000 0.584140
Si Si8 0.270173 0.162191 0.455448
O O1 0.797518 0.500000 0.695967
O O2 0.829655 0.588753 0.884275
O O3 0.802418 0.607855 0.538525
O O4 0.718028 0.583994 0.899137
O O5 0.341158 0.417859 0.694191
O O6 0.407450 0.380673 0.314455
O O7 0.366376 0.301572 0.624293
O O8 0.299272 0.350365 0.442339
O O9 0.416268 0.281279 0.073316
O O10 0.410586 0.206233 0.381522
O O11 0.500000 0.199020 0.000000
O O12 0.400109 0.160321 0.035102
O O13 0.344285 0.202843 0.808858
O O14 0.286048 0.162874 0.201753
O O15 0.862677 0.000000 0.936749
O O16 0.898565 0.888702 0.940558
O O17 0.500000 0.365344 0.000000
O O18 0.794402 0.723848 0.529445
#
# Coordination Sequence:
#
# PCOD8089313 Si02
#       8
#     8   8   8   8   8   8   8   8
#     4  10  21  36  54  79 109 143 185 224 266 321
#     4  11  20  35  55  79 108 144 177 226 277 322
#     4   9  19  36  58  83 111 144 180 216 265 328
#     4  10  19  35  54  84 114 140 175 219 275 319
#     4  11  23  37  55  78 103 142 192 232 272 318
#     4  10  22  40  57  76 107 146 186 228 271 318
#     4   9  20  32  52  83 114 140 176 217 270 329
#     4  10  19  33  52  80 109 143 178 215 273 330
#
# _framework density 19.080719999999999
#
# number of rings (size 3 to 8) (size 9 to 14) (size 15 to 20)
#    0.000    2.000    2.500    1.125    0.000    3.250 
#    0.000    4.375    0.000    0.375    0.000    7.875 
#    0.000    0.000    0.000    0.000    0.000    0.000 
#
# Total GULP energy -396549.087869 kJ/mol
# GULP energy per Si atom -12392.158996 kJ/mol
# Density = 1.903729 g / cm^3
# Si number density = 19.080720 Si / 1000 Ang^3
#
#
#
# Elastic Constant Matrix: (Units=GPa)
#
#
# Indices 1 2 3 4 5 6 
#
# 1 84.7942 29.9164 29.0025 0.0000 -11.5168 0.0000
# 2 29.9164 53.2191 27.6472 0.0000 0.8081 0.0000
# 3 29.0025 27.6472 110.9823 0.0000 -3.5798 0.0000
# 4 0.0000 0.0000 0.0000 19.8341 0.0000 2.9672
# 5 -11.5168 0.8081 -3.5798 0.0000 24.9423 0.0000
# 6 0.0000 0.0000 0.0000 2.9672 0.0000 25.1767
#
#
#
# Elastic Compliance Matrix: (Units=1/GPa)
#
#
# Indices 1 2 3 4 5 6 
#
# 1 0.016436 -0.008328 -0.001976 0.000000 0.007575 0.000000
# 2 -0.008328 0.025857 -0.004437 0.000000 -0.005320 0.000000
# 3 -0.001976 -0.004437 0.010657 0.000000 0.000761 0.000000
# 4 0.000000 0.000000 0.000000 0.051323 0.000000 -0.006049
# 5 0.007575 -0.005320 0.000761 0.000000 0.043872 0.000000
# 6 0.000000 0.000000 0.000000 -0.006049 0.000000 0.040432
#
#
# Mechanical properties :
#
#
# Convention : Reuss Voigt Hill
#
# Bulk Modulus (GPa) = 42.61013 46.90310 44.75662
# Shear Modulus (GPa) = 22.13547 24.81924 23.47736
#
# Velocity S-wave (km/s) = 3.40971 3.61050 3.51154
# Velocity P-wave (km/s) = 6.15480 6.48196 6.32049
#
# Compressibility (1/GPa) = 0.02346860
#
# Stress axis : x y z
#
# Youngs Moduli (GPa) = 60.84121 38.67389 93.83772
#
# Poissons Ratio (x) = 0.32207 0.18545
# Poissons Ratio (y) = 0.50667 0.41633
# Poissons Ratio (z) = 0.12024 0.17159
#
# Static dielectric constant tensor:
#      x y z
#    x 3.407310 0.000000 -0.001450 
#    y 0.000000 3.381980 0.000000 
#    z -0.001450 0.000000 3.567720 
# 
# 
# High freq. dielectric constant tensor:
#      x y z
#    x 1.724660 0.000000 0.002600 
#    y 0.000000 1.722830 0.000000 
#    z 0.002600 0.000000 1.753620 
# 
# From -- ./inp_files/26089.got.cif
#   From: 2010.06.25/outbox.cif.g09.slc.cpg/sg12_14_cif.got.tgz:26089.got - 2010.06.28 00:19:55.
