data_PCOD8089719
_publ_section_title
;
Structure prediction by ZEFSAII (Michael W. Deem and Ramdas Pophale) SiO2 
 PCOD8089719
Probable space group: C 2/M
;
_chemical_formula_sum "Si O2"
_cell_formula_units_Z 48
_cell_length_a 13.950700
_cell_length_b 14.017908
_cell_length_c 12.750590
_cell_angle_alpha 90.000000
_cell_angle_beta 82.646671
_cell_angle_gamma 90.000000
_cell_volume 2472.993468
_symmetry_space_group_name_H-M "C 2/M"
_symmetry_group_IT_number 12
_symmetry_cell_setting 'monoclinic'
loop_
_space_group_symop_operation_xyz
x,y,z
-x,y,-z
-x,-y,-z
x,-y,z
1/2+x,1/2+y,z
1/2-x,1/2+y,-z
1/2-x,1/2-y,-z
1/2+x,1/2-y,z
loop_
_atom_site_type_symbol
_atom_site_label
_atom_site_fract_x
_atom_site_fract_y
_atom_site_fract_z
Si Si1 0.750582 0.396171 0.530575
Si Si2 0.640283 0.256599 0.138895
Si Si3 0.565100 0.291654 0.795799
Si Si4 0.698296 0.613276 0.942761
Si Si5 0.756037 0.777729 0.668889
Si Si6 0.968942 0.103475 0.397009
O O1 0.803460 0.500000 0.533215
O O2 0.795976 0.314709 0.598485
O O3 0.748153 0.366945 0.408933
O O4 0.644815 0.408370 0.590654
O O5 0.525153 0.233193 0.140427
O O6 0.700058 0.159785 0.107755
O O7 0.666592 0.294704 0.251205
O O8 0.669481 0.342353 0.057740
O O9 0.613337 0.364120 0.871562
O O10 0.648429 0.226975 0.733664
O O11 0.503905 0.344740 0.713730
O O12 0.711687 0.500000 0.950331
O O13 0.000000 0.159368 0.500000
O O14 0.021042 0.000000 0.391109
#
# Coordination Sequence:
#
# PCOD8089719 Si02
#       6
#     8   8   8   8   8   8
#     4   9  17  31  49  71 105 143 178 219 264 314
#     4  10  21  36  56  81 110 141 181 231 280 327
#     4  10  19  33  54  78 107 140 181 226 269 316
#     4  10  22  39  58  81 109 143 184 229 278 331
#     4   9  19  33  51  76 106 142 178 218 271 324
#     4   9  16  25  43  73 103 133 172 217 264 310
#
# _framework density 19.409675
#
# number of rings (size 3 to 8) (size 9 to 14) (size 15 to 20)
#    0.000    2.500    0.000    2.000    0.000    6.667 
#    0.000    0.833    0.000   14.000    0.000    0.000 
#    0.000    0.000    0.000    0.000    0.000    0.000 
#
# Total GULP energy -297317.440779 kJ/mol
# GULP energy per Si atom -12388.226699 kJ/mol
# Density = 1.936550 g / cm^3
# Si number density = 19.409675 Si / 1000 Ang^3
#
#
#
# Elastic Constant Matrix: (Units=GPa)
#
#
# Indices 1 2 3 4 5 6 
#
# 1 91.3920 44.1305 24.4623 0.0000 -9.0374 0.0000
# 2 44.1305 97.5280 42.4015 0.0000 1.2070 0.0000
# 3 24.4623 42.4015 106.3007 0.0000 19.1977 0.0000
# 4 0.0000 0.0000 0.0000 10.8222 0.0000 5.4820
# 5 -9.0374 1.2070 19.1977 0.0000 32.9456 0.0000
# 6 0.0000 0.0000 0.0000 5.4820 0.0000 16.9561
#
#
#
# Elastic Compliance Matrix: (Units=1/GPa)
#
#
# Indices 1 2 3 4 5 6 
#
# 1 0.014892 -0.005909 -0.002064 0.000000 0.005504 0.000000
# 2 -0.005909 0.014971 -0.004716 0.000000 0.000579 0.000000
# 3 -0.002064 -0.004716 0.013226 0.000000 -0.008101 0.000000
# 4 0.000000 0.000000 0.000000 0.110499 0.000000 -0.035725
# 5 0.005504 0.000579 -0.008101 0.000000 0.036562 0.000000
# 6 0.000000 0.000000 0.000000 -0.035725 0.000000 0.070526
#
#
# Mechanical properties :
#
#
# Convention : Reuss Voigt Hill
#
# Bulk Modulus (GPa) = 56.46462 57.46771 56.96617
# Shear Modulus (GPa) = 17.12572 24.42655 20.77614
#
# Velocity S-wave (km/s) = 2.97363 3.55134 3.27525
# Velocity P-wave (km/s) = 6.39875 6.81822 6.61181
#
# Compressibility (1/GPa) = 0.01771020
#
# Stress axis : x y z
#
# Youngs Moduli (GPa) = 67.14998 66.79747 75.60649
#
# Poissons Ratio (x) = 0.39473 0.15605
# Poissons Ratio (y) = 0.39681 0.35657
# Poissons Ratio (z) = 0.13859 0.31503
#
# Static dielectric constant tensor:
#      x y z
#    x 3.439270 0.000000 0.035300 
#    y 0.000000 3.775210 0.000000 
#    z 0.035300 0.000000 3.817350 
# 
# 
# High freq. dielectric constant tensor:
#      x y z
#    x 1.744170 0.000000 0.002680 
#    y 0.000000 1.722660 0.000000 
#    z 0.002680 0.000000 1.777730 
# 
# From -- ./inp_files/142880.got.cif
#   From: 2010.06.25/outbox.cif.g09.slc.cpg/sg12_72_cif.got.tgz:142880.got - 2010.06.28 00:19:55.
