data_PCOD8089920
_publ_section_title
;
Structure prediction by ZEFSAII (Michael W. Deem and Ramdas Pophale) SiO2 
 PCOD8089920
Probable space group: C 2/M
;
_chemical_formula_sum "Si O2"
_cell_formula_units_Z 56
_cell_length_a 28.539204
_cell_length_b 11.237670
_cell_length_c 26.155884
_cell_angle_alpha 90.000000
_cell_angle_beta 19.870318
_cell_angle_gamma 90.000000
_cell_volume 2851.208478
_symmetry_space_group_name_H-M "C 2/M"
_symmetry_group_IT_number 12
_symmetry_cell_setting 'monoclinic'
loop_
_space_group_symop_operation_xyz
x,y,z
-x,y,-z
-x,-y,-z
x,-y,z
1/2+x,1/2+y,z
1/2-x,1/2+y,-z
1/2-x,1/2-y,-z
1/2+x,1/2-y,z
loop_
_atom_site_type_symbol
_atom_site_label
_atom_site_fract_x
_atom_site_fract_y
_atom_site_fract_z
Si Si1 0.937674 0.752339 0.266951
Si Si2 0.270771 0.633288 0.668341
Si Si3 0.294019 0.361613 0.755897
Si Si4 0.154776 0.132659 0.107783
Si Si5 0.480811 0.298415 0.651263
Si Si6 0.850753 0.365153 0.455032
Si Si7 0.001266 0.362826 0.101233
O O1 0.916661 0.650794 0.331396
O O2 0.790708 0.792404 0.395967
O O3 0.023854 0.859723 0.204044
O O4 0.027752 0.699877 0.128404
O O5 0.227614 0.500000 0.727510
O O6 0.323972 0.687879 0.667803
O O7 0.387654 0.630521 0.505222
O O8 0.131894 0.696181 0.789978
O O9 0.340067 0.500000 0.716393
O O10 0.376848 0.278356 0.710642
O O11 0.132008 0.345215 0.931204
O O12 0.099520 0.129478 0.222501
O O13 0.223548 0.000000 0.028039
O O14 0.250000 0.250000 0.000000
O O15 0.539109 0.175926 0.615068
O O16 0.815651 0.500000 0.502161
O O17 0.971035 0.500000 0.144390
#
# Coordination Sequence:
#
# PCOD8089920 Si02
#       7
#     8   8   8   8   8   8   8
#     4  10  20  36  56  82 110 150 189 230 286 340
#     4  10  19  33  55  83 114 146 188 235 288 349
#     4  10  20  33  53  83 118 149 180 232 294 352
#     4  11  24  39  59  86 123 158 194 236 287 351
#     4  11  21  36  57  83 112 151 190 233 290 341
#     4  10  21  36  55  82 112 144 190 241 285 336
#     4  10  19  33  54  84 118 151 187 232 293 353
#
# _framework density 19.640796000000002
#
# number of rings (size 3 to 8) (size 9 to 14) (size 15 to 20)
#    0.000    1.714    1.429    3.857    0.000    6.857 
#    0.000    0.000    0.000    1.714    0.000    1.000 
#    0.000    0.000    0.000    0.000    0.000    0.000 
#
# Total GULP energy -347020.364099 kJ/mol
# GULP energy per Si atom -12393.584432 kJ/mol
# Density = 1.959609 g / cm^3
# Si number density = 19.640796 Si / 1000 Ang^3
#
#
#
# Elastic Constant Matrix: (Units=GPa)
#
#
# Indices 1 2 3 4 5 6 
#
# 1 130.4947 39.8437 37.3136 -0.0002 -1.4787 0.0001
# 2 39.8437 75.1457 24.6125 -0.0004 0.9394 0.0010
# 3 37.3136 24.6125 86.0759 0.0012 -2.7308 0.0013
# 4 -0.0002 -0.0004 0.0012 20.7633 0.0009 -1.3660
# 5 -1.4787 0.9394 -2.7308 0.0009 38.3868 -0.0005
# 6 0.0001 0.0010 0.0013 -1.3660 -0.0005 15.9758
#
#
#
# Elastic Compliance Matrix: (Units=1/GPa)
#
#
# Indices 1 2 3 4 5 6 
#
# 1 0.009824 -0.004215 -0.003045 0.000000 0.000265 0.000001
# 2 -0.004215 0.016507 -0.002918 0.000000 -0.000774 -0.000001
# 3 -0.003045 -0.002918 0.013802 -0.000001 0.000936 -0.000001
# 4 0.000000 0.000000 -0.000001 0.048434 -0.000001 0.004141
# 5 0.000265 -0.000774 0.000936 -0.000001 0.026146 0.000001
# 6 0.000001 -0.000001 -0.000001 0.004141 0.000001 0.062949
#
#
# Mechanical properties :
#
#
# Convention : Reuss Voigt Hill
#
# Bulk Modulus (GPa) = 50.56086 55.02845 52.79466
# Shear Modulus (GPa) = 24.43680 27.68830 26.06255
#
# Velocity S-wave (km/s) = 3.53113 3.75872 3.64670
# Velocity P-wave (km/s) = 6.51336 6.84949 6.68354
#
# Compressibility (1/GPa) = 0.01977814
#
# Stress axis : x y z
#
# Youngs Moduli (GPa) = 101.79460 60.57859 72.45538
#
# Poissons Ratio (x) = 0.25532 0.22063
# Poissons Ratio (y) = 0.42903 0.21140
# Poissons Ratio (z) = 0.30996 0.17675
#
# Static dielectric constant tensor:
#      x y z
#    x 3.800260 0.000000 -0.079980 
#    y 0.000000 3.107560 0.000000 
#    z -0.079980 0.000000 3.614150 
# 
# 
# High freq. dielectric constant tensor:
#      x y z
#    x 1.780940 0.000000 -0.005860 
#    y 0.000000 1.705920 0.000000 
#    z -0.005860 0.000000 1.777070 
# 
# From -- ./inp_files/369348.got.cif
#   From: 2010.06.25/outbox.cif.g09.slc.cpg/sg12_185_cif.got.tgz:369348.got - 2010.06.28 00:19:55.
