data_PCOD8089725
_publ_section_title
;
Structure prediction by ZEFSAII (Michael W. Deem and Ramdas Pophale) SiO2 
 PCOD8089725
Probable space group: C 2/M
;
_chemical_formula_sum "Si O2"
_cell_formula_units_Z 56
_cell_length_a 15.784461
_cell_length_b 9.317699
_cell_length_c 19.407107
_cell_angle_alpha 90.000000
_cell_angle_beta 89.076811
_cell_angle_gamma 90.000000
_cell_volume 2853.926970
_symmetry_space_group_name_H-M "C 2/M"
_symmetry_group_IT_number 12
_symmetry_cell_setting 'monoclinic'
loop_
_space_group_symop_operation_xyz
x,y,z
-x,y,-z
-x,-y,-z
x,-y,z
1/2+x,1/2+y,z
1/2-x,1/2+y,-z
1/2-x,1/2-y,-z
1/2+x,1/2-y,z
loop_
_atom_site_type_symbol
_atom_site_label
_atom_site_fract_x
_atom_site_fract_y
_atom_site_fract_z
Si Si1 0.093327 0.334340 0.839943
Si Si2 0.846286 0.836905 0.284924
Si Si3 0.598337 0.330828 0.422456
Si Si4 0.755340 0.828725 0.927790
Si Si5 0.093969 0.169748 0.572108
Si Si6 0.155976 0.339664 0.294837
Si Si7 0.404169 0.166226 0.850267
O O1 0.104030 0.500000 0.821292
O O2 0.096121 0.250835 0.768068
O O3 0.168892 0.285265 0.889367
O O4 0.000634 0.305819 0.875393
O O5 0.853043 0.774013 0.362967
O O6 0.749795 0.826369 0.261966
O O7 0.879921 0.000000 0.283656
O O8 0.607922 0.500000 0.415202
O O9 0.501974 0.278823 0.415860
O O10 0.630549 0.275352 0.497659
O O11 0.650879 0.263423 0.359950
O O12 0.839315 0.772250 0.888581
O O13 0.762397 0.000000 0.936888
O O14 0.750000 0.750000 0.000000
O O15 0.095497 0.000000 0.567352
O O16 0.138005 0.500000 0.321906
O O17 0.095089 0.300307 0.231847
O O18 0.377699 0.000000 0.864043
#
# Coordination Sequence:
#
# PCOD8089725 Si02
#       7
#     8   8   8   8   8   8   8
#     4  10  22  39  61  88 118 151 191 235 281 333
#     4  10  19  33  54  78 108 147 190 237 285 337
#     4   9  17  31  50  70  99 142 187 235 283 335
#     4  11  24  42  64  91 121 152 187 230 276 334
#     4   8  16  31  49  71 100 138 188 236 283 334
#     4  10  20  32  50  78 110 143 182 233 287 334
#     4  10  21  40  62  86 119 156 189 231 286 338
#
# _framework density 19.622085999999999
#
# number of rings (size 3 to 8) (size 9 to 14) (size 15 to 20)
#    0.000    2.286    1.429    2.143    0.000    3.429 
#    0.000    5.000    0.000    0.000    0.000    0.000 
#    0.000    0.000    0.000    0.000    0.000    0.000 
#
# Total GULP energy -347050.209338 kJ/mol
# GULP energy per Si atom -12394.650334 kJ/mol
# Density = 1.957743 g / cm^3
# Si number density = 19.622086 Si / 1000 Ang^3
#
#
#
# Elastic Constant Matrix: (Units=GPa)
#
#
# Indices 1 2 3 4 5 6 
#
# 1 101.4994 39.0286 51.2330 0.0000 3.9213 0.0000
# 2 39.0286 67.5507 56.0822 0.0000 -5.1272 0.0000
# 3 51.2330 56.0822 120.8868 0.0000 -0.8716 0.0000
# 4 0.0000 0.0000 0.0000 34.5489 0.0000 -5.1891
# 5 3.9213 -5.1272 -0.8716 0.0000 25.8046 0.0000
# 6 0.0000 0.0000 0.0000 -5.1891 0.0000 25.3211
#
#
#
# Elastic Compliance Matrix: (Units=1/GPa)
#
#
# Indices 1 2 3 4 5 6 
#
# 1 0.013747 -0.005424 -0.003334 0.000000 -0.003279 0.000000
# 2 -0.005424 0.026729 -0.010060 0.000000 0.005795 0.000000
# 3 -0.003334 -0.010060 0.014345 0.000000 -0.001008 0.000000
# 4 0.000000 0.000000 0.000000 0.029864 0.000000 0.006120
# 5 -0.003279 0.005795 -0.001008 0.000000 0.040369 0.000000
# 6 0.000000 0.000000 0.000000 0.006120 0.000000 0.040747
#
#
# Mechanical properties :
#
#
# Convention : Reuss Voigt Hill
#
# Bulk Modulus (GPa) = 58.18521 64.73607 61.46064
# Shear Modulus (GPa) = 23.90467 26.70779 25.30623
#
# Velocity S-wave (km/s) = 3.49414 3.69332 3.59511
# Velocity P-wave (km/s) = 6.78203 7.15895 6.97304
#
# Compressibility (1/GPa) = 0.01718650
#
# Stress axis : x y z
#
# Youngs Moduli (GPa) = 72.74172 37.41210 69.71225
#
# Poissons Ratio (x) = 0.20293 0.23239
# Poissons Ratio (y) = 0.39456 0.70129
# Poissons Ratio (z) = 0.24248 0.37636
#
# Static dielectric constant tensor:
#      x y z
#    x 3.636050 0.000000 0.208380 
#    y 0.000000 3.357360 0.000000 
#    z 0.208380 0.000000 3.686580 
# 
# 
# High freq. dielectric constant tensor:
#      x y z
#    x 1.764610 0.000000 0.008640 
#    y 0.000000 1.741270 0.000000 
#    z 0.008640 0.000000 1.768760 
# 
# From -- ./inp_files/308987.got.cif
#   From: 2010.06.25/outbox.cif.g09.slc.cpg/sg12_155_cif.got.tgz:308987.got - 2010.06.28 00:19:55.
