data_PCOD8089662
_publ_section_title
;
Structure prediction by ZEFSAII (Michael W. Deem and Ramdas Pophale) SiO2 
 PCOD8089662
Probable space group: C 2/M
;
_chemical_formula_sum "Si O2"
_cell_formula_units_Z 56
_cell_length_a 19.024818
_cell_length_b 9.339223
_cell_length_c 19.266874
_cell_angle_alpha 90.000000
_cell_angle_beta 120.999296
_cell_angle_gamma 90.000000
_cell_volume 2934.345954
_symmetry_space_group_name_H-M "C 2/M"
_symmetry_group_IT_number 12
_symmetry_cell_setting 'monoclinic'
loop_
_space_group_symop_operation_xyz
x,y,z
-x,y,-z
-x,-y,-z
x,-y,z
1/2+x,1/2+y,z
1/2-x,1/2+y,-z
1/2-x,1/2-y,-z
1/2+x,1/2-y,z
loop_
_atom_site_type_symbol
_atom_site_label
_atom_site_fract_x
_atom_site_fract_y
_atom_site_fract_z
Si Si1 0.198373 0.336377 0.183640
Si Si2 0.231756 0.835963 0.920820
Si Si3 0.454068 0.338818 0.173859
Si Si4 0.597097 0.330212 0.348774
Si Si5 0.488761 0.836688 0.918472
Si Si6 0.248371 0.671508 0.356633
Si Si7 0.577453 0.330742 0.496568
O O1 0.225092 0.500000 0.187893
O O2 0.218926 0.265054 0.119368
O O3 0.103589 0.319667 0.154018
O O4 0.244687 0.274085 0.274611
O O5 0.138359 0.828188 0.846069
O O6 0.257983 0.000000 0.948913
O O7 0.250000 0.750000 0.000000
O O8 0.478236 0.500000 0.166150
O O9 0.518711 0.281773 0.263378
O O10 0.453278 0.246169 0.104089
O O11 0.613764 0.500000 0.352737
O O12 0.678233 0.247157 0.366288
O O13 0.573819 0.282639 0.414762
O O14 0.518950 0.000000 0.935085
O O15 0.500000 0.768594 0.000000
O O16 0.235787 0.500000 0.355524
O O17 0.336541 0.723689 0.428346
O O18 0.500000 0.265282 0.500000
O O19 0.574027 0.500000 0.501108
#
# Coordination Sequence:
#
# PCOD8089662 Si02
#       7
#     8   8   8   8   8   8   8
#     4   9  18  32  52  77 102 133 175 218 256 302
#     4  10  21  37  54  75 104 139 178 220 266 313
#     4  10  21  34  52  78 108 140 171 213 268 316
#     4  10  20  35  54  80 112 141 171 214 265 313
#     4  10  19  33  54  77 102 135 176 218 257 306
#     4  10  19  34  57  81 105 139 179 217 260 312
#     4   9  19  33  55  85 109 135 176 220 259 307
#
# _framework density 19.084320999999999
#
# number of rings (size 3 to 8) (size 9 to 14) (size 15 to 20)
#    0.000    2.286    1.429    1.286    2.000    2.000 
#    0.000    1.429    0.000    1.714    0.000    0.000 
#    0.000    0.000    0.000    0.000    0.000    0.000 
#
# Total GULP energy -347096.387463 kJ/mol
# GULP energy per Si atom -12396.299552 kJ/mol
# Density = 1.904088 g / cm^3
# Si number density = 19.084321 Si / 1000 Ang^3
#
#
#
# Elastic Constant Matrix: (Units=GPa)
#
#
# Indices 1 2 3 4 5 6 
#
# 1 102.8747 24.1971 39.8983 0.0000 -10.3570 0.0000
# 2 24.1971 32.4531 22.0810 0.0000 -5.6354 0.0000
# 3 39.8983 22.0810 123.0708 0.0000 -8.8241 0.0000
# 4 0.0000 0.0000 0.0000 17.6675 0.0000 -1.8052
# 5 -10.3570 -5.6354 -8.8241 0.0000 39.3024 0.0000
# 6 0.0000 0.0000 0.0000 -1.8052 0.0000 26.3455
#
#
#
# Elastic Compliance Matrix: (Units=1/GPa)
#
#
# Indices 1 2 3 4 5 6 
#
# 1 0.012646 -0.007323 -0.002665 0.000000 0.001684 0.000000
# 2 -0.007323 0.039870 -0.004581 0.000000 0.002758 0.000000
# 3 -0.002665 -0.004581 0.009873 0.000000 0.000857 0.000000
# 4 0.000000 0.000000 0.000000 0.057000 0.000000 0.003906
# 5 0.001684 0.002758 0.000857 0.000000 0.026476 0.000000
# 6 0.000000 0.000000 0.000000 0.003906 0.000000 0.038225
#
#
# Mechanical properties :
#
#
# Convention : Reuss Voigt Hill
#
# Bulk Modulus (GPa) = 30.07562 47.86129 38.96845
# Shear Modulus (GPa) = 22.29033 28.14457 25.21745
#
# Velocity S-wave (km/s) = 3.42130 3.84441 3.63901
# Velocity P-wave (km/s) = 5.60362 6.69622 6.17413
#
# Compressibility (1/GPa) = 0.03324952
#
# Stress axis : x y z
#
# Youngs Moduli (GPa) = 79.07489 25.08141 101.28759
#
# Poissons Ratio (x) = 0.18368 0.26994
# Poissons Ratio (y) = 0.57909 0.46405
# Poissons Ratio (z) = 0.21074 0.11491
#
# Static dielectric constant tensor:
#      x y z
#    x 3.598320 0.000000 -0.011280 
#    y 0.000000 3.138100 0.000000 
#    z -0.011280 0.000000 3.684490 
# 
# 
# High freq. dielectric constant tensor:
#      x y z
#    x 1.750860 0.000000 0.001250 
#    y 0.000000 1.694580 0.000000 
#    z 0.001250 0.000000 1.760860 
# 
# From -- ./inp_files/275651.got.cif
#   From: 2010.06.25/outbox.cif.g09.slc.cpg/sg12_138_cif.got.tgz:275651.got - 2010.06.28 00:19:55.
