data_PCOD8089703
_publ_section_title
;
Structure prediction by ZEFSAII (Michael W. Deem and Ramdas Pophale) SiO2 
 PCOD8089703
Probable space group: C 2/M
;
_chemical_formula_sum "Si O2"
_cell_formula_units_Z 48
_cell_length_a 20.529192
_cell_length_b 8.989585
_cell_length_c 26.774951
_cell_angle_alpha 90.000000
_cell_angle_beta 30.007445
_cell_angle_gamma 90.000000
_cell_volume 2471.200126
_symmetry_space_group_name_H-M "C 2/M"
_symmetry_group_IT_number 12
_symmetry_cell_setting 'monoclinic'
loop_
_space_group_symop_operation_xyz
x,y,z
-x,y,-z
-x,-y,-z
x,-y,z
1/2+x,1/2+y,z
1/2-x,1/2+y,-z
1/2-x,1/2-y,-z
1/2+x,1/2-y,z
loop_
_atom_site_type_symbol
_atom_site_label
_atom_site_fract_x
_atom_site_fract_y
_atom_site_fract_z
Si Si1 0.006987 0.671622 0.608292
Si Si2 0.724018 0.676250 0.400440
Si Si3 0.493058 0.676561 0.949000
Si Si4 0.979576 0.676609 0.287756
Si Si5 0.254174 0.671585 0.275937
Si Si6 0.763005 0.676544 0.938159
O O1 0.050988 0.500000 0.575855
O O2 0.021213 0.735201 0.654909
O O3 0.857909 0.690186 0.690846
O O4 0.096308 0.767493 0.512896
O O5 0.722751 0.500000 0.400515
O O6 0.720584 0.733555 0.346566
O O7 0.851966 0.736781 0.344100
O O8 0.502401 0.500000 0.945722
O O9 0.613388 0.735671 0.836063
O O10 0.500000 0.744544 0.000000
O O11 0.358625 0.729798 0.014068
O O12 0.984409 0.500000 0.285222
O O13 0.106553 0.737413 0.174837
O O14 0.268886 0.500000 0.282329
O O15 0.765543 0.500000 0.942667
O O16 0.750000 0.750000 0.000000
#
# Coordination Sequence:
#
# PCOD8089703 Si02
#       6
#     8   8   8   8   8   8
#     4  10  20  36  56  75  99 133 174 215 252 295
#     4  11  22  35  52  75 105 137 169 208 254 304
#     4   9  17  31  54  81 103 128 169 215 251 290
#     4   9  19  35  54  76 102 135 171 208 253 300
#     4  10  20  34  54  79 104 132 168 210 254 299
#     4  10  19  33  54  78 105 135 167 205 251 303
#
# _framework density 19.423759
#
# number of rings (size 3 to 8) (size 9 to 14) (size 15 to 20)
#    0.000    2.167    0.000    3.500    0.000    6.667 
#    0.000    2.500    0.000    4.000    0.000    0.000 
#    0.000    0.000    0.000    0.000    0.000    0.000 
#
# Total GULP energy -297675.426918 kJ/mol
# GULP energy per Si atom -12403.142788 kJ/mol
# Density = 1.937955 g / cm^3
# Si number density = 19.423759 Si / 1000 Ang^3
#
#
#
# Elastic Constant Matrix: (Units=GPa)
#
#
# Indices 1 2 3 4 5 6 
#
# 1 106.1526 23.7044 23.1385 0.0012 9.7490 0.0001
# 2 23.7044 36.2663 22.4163 0.0006 1.7335 -0.0002
# 3 23.1385 22.4163 119.3016 0.0038 6.4227 -0.0001
# 4 0.0012 0.0006 0.0038 15.3377 -0.0004 -0.7542
# 5 9.7490 1.7335 6.4227 -0.0004 43.7641 -0.0001
# 6 0.0001 -0.0002 -0.0001 -0.7542 -0.0001 24.7506
#
#
#
# Elastic Compliance Matrix: (Units=1/GPa)
#
#
# Indices 1 2 3 4 5 6 
#
# 1 0.011308 -0.006794 -0.000802 0.000000 -0.002132 0.000000
# 2 -0.006794 0.035285 -0.005361 0.000000 0.000903 0.000000
# 3 -0.000802 -0.005361 0.009600 -0.000002 -0.001018 0.000000
# 4 0.000000 0.000000 -0.000002 0.065297 0.000001 0.001990
# 5 -0.002132 0.000903 -0.001018 0.000001 0.023438 0.000000
# 6 0.000000 0.000000 0.000000 0.001990 0.000000 0.040464
#
#
# Mechanical properties :
#
#
# Convention : Reuss Voigt Hill
#
# Bulk Modulus (GPa) = 33.02536 44.47099 38.74817
# Shear Modulus (GPa) = 22.58387 29.60124 26.09255
#
# Velocity S-wave (km/s) = 3.41353 3.90804 3.66913
# Velocity P-wave (km/s) = 5.70751 6.58092 6.15972
#
# Compressibility (1/GPa) = 0.03027976
#
# Stress axis : x y z
#
# Youngs Moduli (GPa) = 88.43244 28.34096 104.16967
#
# Poissons Ratio (x) = 0.19254 0.08354
# Poissons Ratio (y) = 0.60077 0.55843
# Poissons Ratio (z) = 0.07092 0.15193
#
# Static dielectric constant tensor:
#      x y z
#    x 3.468340 0.000000 0.107780 
#    y 0.000000 3.131660 0.000000 
#    z 0.107780 0.000000 3.677900 
# 
# 
# High freq. dielectric constant tensor:
#      x y z
#    x 1.774500 0.000000 -0.000940 
#    y 0.000000 1.712220 0.000000 
#    z -0.000940 0.000000 1.774740 
# 
# From -- ./inp_files/172118.got.cif
#   From: 2010.06.25/outbox.cif.g09.slc.cpg/sg12_87_cif.got.tgz:172118.got - 2010.06.28 00:19:55.
