data_PCOD8089284
_publ_section_title
;
Structure prediction by ZEFSAII (Michael W. Deem and Ramdas Pophale) SiO2 
 PCOD8089284
Probable space group: C 2/M
;
_chemical_formula_sum "Si O2"
_cell_formula_units_Z 56
_cell_length_a 23.221027
_cell_length_b 9.276400
_cell_length_c 15.342160
_cell_angle_alpha 90.000000
_cell_angle_beta 116.616825
_cell_angle_gamma 90.000000
_cell_volume 2954.581340
_symmetry_space_group_name_H-M "C 2/M"
_symmetry_group_IT_number 12
_symmetry_cell_setting 'monoclinic'
loop_
_space_group_symop_operation_xyz
x,y,z
-x,y,-z
-x,-y,-z
x,-y,z
1/2+x,1/2+y,z
1/2-x,1/2+y,-z
1/2-x,1/2-y,-z
1/2+x,1/2-y,z
loop_
_atom_site_type_symbol
_atom_site_label
_atom_site_fract_x
_atom_site_fract_y
_atom_site_fract_z
Si Si1 0.992096 0.832701 0.135974
Si Si2 0.862514 0.170176 0.326841
Si Si3 0.587410 0.836987 0.475552
Si Si4 0.304558 0.834547 0.586487
Si Si5 0.962116 0.667274 0.287413
Si Si6 0.786173 0.331574 0.767915
Si Si7 0.896624 0.166085 0.920535
O O1 0.991000 0.732622 0.219280
O O2 0.053632 0.785963 0.120865
O O3 0.996704 0.000000 0.166527
O O4 0.927651 0.805623 0.035992
O O5 0.890487 0.224021 0.437556
O O6 0.897837 0.247766 0.270564
O O7 0.787863 0.211934 0.268320
O O8 0.873845 0.000000 0.328885
O O9 0.627281 0.811601 0.413924
O O10 0.512887 0.813532 0.400812
O O11 0.598484 0.000000 0.518318
O O12 0.250000 0.750000 0.500000
O O13 0.309347 0.777722 0.688477
O O14 0.282543 0.000000 0.572716
O O15 0.946234 0.500000 0.261113
O O16 0.796352 0.500000 0.786673
O O17 0.830379 0.254343 0.869588
O O18 0.879420 0.000000 0.897157
#
# Coordination Sequence:
#
# PCOD8089284 Si02
#       7
#     8   8   8   8   8   8   8
#     4   9  19  38  60  86 115 140 176 225 274 326
#     4  11  23  38  55  77 110 150 190 231 271 321
#     4  10  21  36  55  79 110 145 184 231 277 324
#     4  10  19  33  52  77 109 142 177 221 268 319
#     4  11  23  38  57  81 109 145 188 230 276 326
#     4  10  21  36  54  81 115 147 184 227 273 325
#     4   9  19  36  61  88 113 142 176 220 275 332
#
# _framework density 18.953614999999999
#
# number of rings (size 3 to 8) (size 9 to 14) (size 15 to 20)
#    0.000    2.000    1.429    3.000    0.000    6.857 
#    0.000    2.143    0.000    0.000    0.000    0.000 
#    0.000    0.000    0.000    0.000    0.000    0.000 
#
# Total GULP energy -347287.838032 kJ/mol
# GULP energy per Si atom -12403.137073 kJ/mol
# Density = 1.891048 g / cm^3
# Si number density = 18.953615 Si / 1000 Ang^3
#
#
#
# Elastic Constant Matrix: (Units=GPa)
#
#
# Indices 1 2 3 4 5 6 
#
# 1 74.9266 41.5213 21.9348 0.0000 9.9360 0.0000
# 2 41.5213 81.2860 39.9142 0.0000 5.8207 0.0000
# 3 21.9348 39.9142 70.2911 0.0000 11.4879 0.0000
# 4 0.0000 0.0000 0.0000 34.4834 0.0000 0.3562
# 5 9.9360 5.8207 11.4879 0.0000 26.7565 0.0000
# 6 0.0000 0.0000 0.0000 0.3562 0.0000 30.6487
#
#
#
# Elastic Compliance Matrix: (Units=1/GPa)
#
#
# Indices 1 2 3 4 5 6 
#
# 1 0.019281 -0.009622 0.000296 0.000000 -0.005194 0.000000
# 2 -0.009622 0.021866 -0.009916 0.000000 0.003074 0.000000
# 3 0.000296 -0.009916 0.020897 0.000000 -0.006925 0.000000
# 4 0.000000 0.000000 0.000000 0.029003 0.000000 -0.000337
# 5 -0.005194 0.003074 -0.006925 0.000000 0.041607 0.000000
# 6 0.000000 0.000000 0.000000 -0.000337 0.000000 0.032632
#
#
# Mechanical properties :
#
#
# Convention : Reuss Voigt Hill
#
# Bulk Modulus (GPa) = 42.44673 48.13824 45.29248
# Shear Modulus (GPa) = 23.62686 26.58663 25.10674
#
# Velocity S-wave (km/s) = 3.53450 3.74935 3.64351
# Velocity P-wave (km/s) = 6.25305 6.64805 6.45357
#
# Compressibility (1/GPa) = 0.02355894
#
# Stress axis : x y z
#
# Youngs Moduli (GPa) = 51.86545 45.73222 47.85417
#
# Poissons Ratio (x) = 0.44004 -0.01416
# Poissons Ratio (y) = 0.49905 0.47454
# Poissons Ratio (z) = -0.01535 0.45350
#
# Static dielectric constant tensor:
#      x y z
#    x 3.605740 0.000000 -0.021710 
#    y 0.000000 3.410480 0.000000 
#    z -0.021710 0.000000 3.361450 
# 
# 
# High freq. dielectric constant tensor:
#      x y z
#    x 1.740360 0.000000 0.003500 
#    y 0.000000 1.735900 0.000000 
#    z 0.003500 0.000000 1.727800 
# 
# From -- ./inp_files/238273.got.cif
#   From: 2010.06.25/outbox.cif.g09.slc.cpg/sg12_120_cif.got.tgz:238273.got - 2010.06.28 00:19:55.
