data_PCOD8089081
_publ_section_title
;
Structure prediction by ZEFSAII (Michael W. Deem and Ramdas Pophale) SiO2 
 PCOD8089081
Probable space group: C 2/M
;
_chemical_formula_sum "Si O2"
_cell_formula_units_Z 40
_cell_length_a 24.784232
_cell_length_b 8.727578
_cell_length_c 21.169538
_cell_angle_alpha 90.000000
_cell_angle_beta 149.405914
_cell_angle_gamma 90.000000
_cell_volume 2330.547157
_symmetry_space_group_name_H-M "C 2/M"
_symmetry_group_IT_number 12
_symmetry_cell_setting 'monoclinic'
loop_
_space_group_symop_operation_xyz
x,y,z
-x,y,-z
-x,-y,-z
x,-y,z
1/2+x,1/2+y,z
1/2-x,1/2+y,-z
1/2-x,1/2-y,-z
1/2+x,1/2-y,z
loop_
_atom_site_type_symbol
_atom_site_label
_atom_site_fract_x
_atom_site_fract_y
_atom_site_fract_z
Si Si1 0.577294 0.181119 0.990959
Si Si2 0.863047 0.319401 0.409909
Si Si3 0.648377 0.180980 0.199474
Si Si4 0.252164 0.180364 0.933539
Si Si5 0.427744 0.680881 0.343764
O O1 0.453026 0.225698 0.859065
O O2 0.588488 0.000000 0.004430
O O3 0.624362 0.241157 0.104540
O O4 0.646097 0.247568 0.002187
O O5 0.870654 0.500000 0.409430
O O6 0.751666 0.269915 0.329246
O O7 0.871472 0.239117 0.350460
O O8 0.958497 0.261801 0.550934
O O9 0.669726 0.000000 0.222864
O O10 0.144826 0.225741 0.788824
O O11 0.262642 0.000000 0.950318
O O12 0.250000 0.250000 0.000000
O O13 0.443387 0.500000 0.365248
#
# Coordination Sequence:
#
# PCOD8089081 Si02
#       5
#     8   8   8   8   8
#     4   8  15  29  50  73  95 126 169 203 234 287
#     4  11  20  29  46  75 107 128 153 204 260 294
#     4   9  15  29  52  72  96 129 163 201 241 294
#     4  10  20  34  52  74  99 130 166 203 241 287
#     4  10  19  33  51  69  95 133 174 200 232 295
#
# _framework density 17.163352
#
# number of rings (size 3 to 8) (size 9 to 14) (size 15 to 20)
#    0.000    2.400    2.000    4.800    0.000    1.600 
#    0.000    3.000    0.000    1.200    0.000    0.000 
#    0.000    0.000    0.000    0.000    0.000    0.000 
#
# Total GULP energy -247911.357687 kJ/mol
# GULP energy per Si atom -12395.567884 kJ/mol
# Density = 1.712429 g / cm^3
# Si number density = 17.163352 Si / 1000 Ang^3
#
#
#
# Elastic Constant Matrix: (Units=GPa)
#
#
# Indices 1 2 3 4 5 6 
#
# 1 110.0447 11.2818 65.5306 0.0000 15.2416 0.0000
# 2 11.2818 10.4364 21.6792 0.0000 6.6101 0.0000
# 3 65.5306 21.6792 120.2523 0.0000 20.2340 0.0000
# 4 0.0000 0.0000 0.0000 15.9350 0.0000 -4.7351
# 5 15.2416 6.6101 20.2340 0.0000 34.7341 0.0000
# 6 0.0000 0.0000 0.0000 -4.7351 0.0000 18.1842
#
#
#
# Elastic Compliance Matrix: (Units=1/GPa)
#
#
# Indices 1 2 3 4 5 6 
#
# 1 0.013582 0.002023 -0.007426 0.000000 -0.002019 0.000000
# 2 0.002023 0.160353 -0.027414 0.000000 -0.015434 0.000000
# 3 -0.007426 -0.027414 0.017604 0.000000 -0.001780 0.000000
# 4 0.000000 0.000000 0.000000 0.068018 0.000000 0.017712
# 5 -0.002019 -0.015434 -0.001780 0.000000 0.033650 0.000000
# 6 0.000000 0.000000 0.000000 0.017712 0.000000 0.059605
#
#
# Mechanical properties :
#
#
# Convention : Reuss Voigt Hill
#
# Bulk Modulus (GPa) = 7.94254 48.63519 28.28887
# Shear Modulus (GPa) = 10.85979 23.25346 17.05662
#
# Velocity S-wave (km/s) = 2.51814 3.68480 3.15585
# Velocity P-wave (km/s) = 3.61834 6.81922 5.45867
#
# Compressibility (1/GPa) = 0.12590425
#
# Stress axis : x y z
#
# Youngs Moduli (GPa) = 73.62842 6.23625 56.80371
#
# Poissons Ratio (x) = -0.01262 0.42184
# Poissons Ratio (y) = -0.14897 1.55723
# Poissons Ratio (z) = 0.54679 0.17096
#
# Static dielectric constant tensor:
#      x y z
#    x 3.534270 0.000000 0.331080 
#    y 0.000000 2.970490 0.000000 
#    z 0.331080 0.000000 3.332980 
# 
# 
# High freq. dielectric constant tensor:
#      x y z
#    x 1.638110 0.000000 0.034760 
#    y 0.000000 1.646320 0.000000 
#    z 0.034760 0.000000 1.659150 
# 
# From -- ./inp_files/171394.got.cif
#   From: 2010.06.25/outbox.cif.g09.slc.cpg/sg12_86_cif.got.tgz:171394.got - 2010.06.28 00:19:55.
