data_PCOD8089002
_publ_section_title
;
Structure prediction by ZEFSAII (Michael W. Deem and Ramdas Pophale) SiO2 
 PCOD8089002
Probable space group: C 2/M
;
_chemical_formula_sum "Si O2"
_cell_formula_units_Z 60
_cell_length_a 17.873660
_cell_length_b 13.696848
_cell_length_c 13.188903
_cell_angle_alpha 90.000000
_cell_angle_beta 72.669469
_cell_angle_gamma 90.000000
_cell_volume 3082.231361
_symmetry_space_group_name_H-M "C 2/M"
_symmetry_group_IT_number 12
_symmetry_cell_setting 'monoclinic'
loop_
_space_group_symop_operation_xyz
x,y,z
-x,y,-z
-x,-y,-z
x,-y,z
1/2+x,1/2+y,z
1/2-x,1/2+y,-z
1/2-x,1/2-y,-z
1/2+x,1/2-y,z
loop_
_atom_site_type_symbol
_atom_site_label
_atom_site_fract_x
_atom_site_fract_y
_atom_site_fract_z
Si Si1 0.719371 0.311968 0.105292
Si Si2 0.664103 0.110524 0.665108
Si Si3 0.123085 0.393800 0.903886
Si Si4 0.453247 0.614005 0.837550
Si Si5 0.546817 0.385753 0.387072
Si Si6 0.306099 0.266411 0.666085
Si Si7 0.588264 0.112689 0.486335
Si Si8 0.500000 0.739973 0.000000
O O1 0.785200 0.392134 0.104589
O O2 0.638936 0.365887 0.109828
O O3 0.711154 0.243177 0.208528
O O4 0.750000 0.250000 0.000000
O O5 0.612921 0.119487 0.787467
O O6 0.729716 0.195999 0.636334
O O7 0.604143 0.129782 0.598209
O O8 0.699945 0.000000 0.642503
O O9 0.090462 0.500000 0.950444
O O10 0.076248 0.308323 0.979300
O O11 0.469223 0.500000 0.848198
O O12 0.482194 0.647897 0.713407
O O13 0.504394 0.673164 0.898381
O O14 0.500000 0.336176 0.500000
O O15 0.537939 0.500000 0.397513
O O16 0.636896 0.359021 0.363377
O O17 0.345892 0.170636 0.603341
O O18 0.500000 0.149961 0.500000
O O19 0.596889 0.000000 0.450630
#
# Coordination Sequence:
#
# PCOD8089002 Si02
#       8
#     8   8   8   8   8   8   8   4
#     4  10  19  38  59  80 108 142 187 235 275 327
#     4   9  19  36  58  80 108 145 187 229 279 331
#     4  10  21  37  57  82 110 146 188 236 280 321
#     4  10  21  37  58  81 112 152 183 225 287 339
#     4   9  18  33  55  84 111 138 183 233 278 330
#     4  10  19  32  59  82 106 141 187 231 277 322
#     4  10  21  37  54  79 117 155 185 222 275 338
#     4  12  22  34  56  82 120 144 188 232 272 350
#
# _framework density 19.466415999999999
#
# number of rings (size 3 to 8) (size 9 to 14) (size 15 to 20)
#    0.000    2.133    1.333    2.000    0.000    6.400 
#    0.000    1.333    0.000    1.600    0.000    0.000 
#    0.000    0.000    0.000    0.000    0.000    0.000 
#
# Total GULP energy -371860.785272 kJ/mol
# GULP energy per Si atom -12395.359509 kJ/mol
# Density = 1.942211 g / cm^3
# Si number density = 19.466416 Si / 1000 Ang^3
#
#
#
# Elastic Constant Matrix: (Units=GPa)
#
#
# Indices 1 2 3 4 5 6 
#
# 1 73.7421 30.5793 33.3334 0.0000 9.1488 0.0000
# 2 30.5793 84.3498 47.0875 0.0000 4.1306 0.0000
# 3 33.3334 47.0875 129.4773 0.0000 7.2135 0.0000
# 4 0.0000 0.0000 0.0000 23.6127 0.0000 -6.7831
# 5 9.1488 4.1306 7.2135 0.0000 29.2793 0.0000
# 6 0.0000 0.0000 0.0000 -6.7831 0.0000 23.8046
#
#
#
# Elastic Compliance Matrix: (Units=1/GPa)
#
#
# Indices 1 2 3 4 5 6 
#
# 1 0.017108 -0.004605 -0.002502 0.000000 -0.004079 0.000000
# 2 -0.004605 0.016133 -0.004699 0.000000 0.000321 0.000000
# 3 -0.002502 -0.004699 0.010135 0.000000 -0.001052 0.000000
# 4 0.000000 0.000000 0.000000 0.046126 0.000000 0.013144
# 5 -0.004079 0.000321 -0.001052 0.000000 0.035642 0.000000
# 6 0.000000 0.000000 0.000000 0.013144 0.000000 0.045754
#
#
# Mechanical properties :
#
#
# Convention : Reuss Voigt Hill
#
# Bulk Modulus (GPa) = 50.60282 56.61886 53.61084
# Shear Modulus (GPa) = 24.86341 27.11058 25.98699
#
# Velocity S-wave (km/s) = 3.57774 3.73592 3.65768
# Velocity P-wave (km/s) = 6.56645 6.91072 6.74078
#
# Compressibility (1/GPa) = 0.01976174
#
# Stress axis : x y z
#
# Youngs Moduli (GPa) = 58.45313 61.98632 98.66674
#
# Poissons Ratio (x) = 0.28548 0.24688
# Poissons Ratio (y) = 0.26921 0.46366
# Poissons Ratio (z) = 0.14626 0.29129
#
# Static dielectric constant tensor:
#      x y z
#    x 3.441540 0.000000 0.059980 
#    y 0.000000 3.433690 0.000000 
#    z 0.059980 0.000000 3.833760 
# 
# 
# High freq. dielectric constant tensor:
#      x y z
#    x 1.748540 0.000000 0.007250 
#    y 0.000000 1.752990 0.000000 
#    z 0.007250 0.000000 1.762690 
# 
# From -- ./inp_files/156602.got.cif
#   From: 2010.06.25/outbox.cif.g09.slc.cpg/sg12_79_cif.got.tgz:156602.got - 2010.06.28 00:19:55.
