data_PCOD8089853
_publ_section_title
;
Structure prediction by ZEFSAII (Michael W. Deem and Ramdas Pophale) SiO2 
 PCOD8089853
Probable space group: C 2/M
;
_chemical_formula_sum "Si O2"
_cell_formula_units_Z 64
_cell_length_a 27.820938
_cell_length_b 8.832774
_cell_length_c 17.890868
_cell_angle_alpha 90.000000
_cell_angle_beta 46.443785
_cell_angle_gamma 90.000000
_cell_volume 3186.087890
_symmetry_space_group_name_H-M "C 2/M"
_symmetry_group_IT_number 12
_symmetry_cell_setting 'monoclinic'
loop_
_space_group_symop_operation_xyz
x,y,z
-x,y,-z
-x,-y,-z
x,-y,z
1/2+x,1/2+y,z
1/2-x,1/2+y,-z
1/2-x,1/2-y,-z
1/2+x,1/2-y,z
loop_
_atom_site_type_symbol
_atom_site_label
_atom_site_fract_x
_atom_site_fract_y
_atom_site_fract_z
Si Si1 0.838184 0.180254 0.190262
Si Si2 0.799061 0.670259 0.725004
Si Si3 0.924464 0.171614 0.806581
Si Si4 0.941934 0.172772 0.956087
Si Si5 0.943832 0.324766 0.366731
Si Si6 0.200084 0.671001 0.108100
Si Si7 0.931025 0.821534 0.536184
Si Si8 0.420190 0.178587 0.226044
O O1 0.762841 0.237512 0.256047
O O2 0.859294 0.245841 0.247623
O O3 0.838752 0.000000 0.190150
O O4 0.890121 0.239968 0.071797
O O5 0.816369 0.500000 0.679721
O O6 0.771508 0.667643 0.838909
O O7 0.866145 0.767548 0.650061
O O8 0.906866 0.183063 0.912985
O O9 0.863358 0.221504 0.822531
O O10 0.979172 0.292595 0.725779
O O11 0.946035 0.000000 0.762073
O O12 0.010440 0.264694 0.882925
O O13 0.960493 0.000000 0.955820
O O14 0.931764 0.500000 0.396667
O O15 0.918341 0.230687 0.464639
O O16 0.909943 0.275646 0.324312
O O17 0.184436 0.500000 0.097197
O O18 0.250000 0.750000 0.000000
O O19 0.000000 0.758074 0.500000
O O20 0.933965 0.000000 0.535167
O O21 0.418307 0.000000 0.218429
#
# Coordination Sequence:
#
# PCOD8089853 Si02
#       8
#     8   8   8   8   8   8   8   8
#     4  10  20  36  56  78 109 151 194 231 275 333
#     4  10  23  41  59  82 113 150 191 232 279 339
#     4  10  19  33  54  81 113 146 185 233 281 332
#     4   9  18  33  54  80 113 154 193 228 272 331
#     4  10  21  38  59  83 112 145 183 227 278 337
#     4  11  22  36  55  80 113 152 190 227 273 331
#     4  11  24  41  63  90 115 141 180 232 285 336
#     4  10  21  35  54  84 116 146 187 236 280 324
#
# _framework density 20.087330000000001
#
# number of rings (size 3 to 8) (size 9 to 14) (size 15 to 20)
#    0.000    1.875    0.000    3.750    0.000   10.500 
#    0.000    1.875    0.000    0.000    0.000    0.000 
#    0.000    0.000    0.000    0.000    0.000    0.000 
#
# Total GULP energy -396721.555731 kJ/mol
# GULP energy per Si atom -12397.548617 kJ/mol
# Density = 2.004161 g / cm^3
# Si number density = 20.087330 Si / 1000 Ang^3
#
#
#
# Elastic Constant Matrix: (Units=GPa)
#
#
# Indices 1 2 3 4 5 6 
#
# 1 130.0814 38.5246 44.4360 -0.0197 -8.2500 0.0059
# 2 38.5246 56.7718 30.0979 -0.0637 -1.1606 0.0332
# 3 44.4360 30.0979 92.9511 -0.0355 3.9779 0.0228
# 4 -0.0197 -0.0637 -0.0355 28.3836 0.0228 2.2851
# 5 -8.2500 -1.1606 3.9779 0.0228 26.4646 -0.0084
# 6 0.0059 0.0332 0.0228 2.2851 -0.0084 30.7958
#
#
#
# Elastic Compliance Matrix: (Units=1/GPa)
#
#
# Indices 1 2 3 4 5 6 
#
# 1 0.010704 -0.005304 -0.003555 -0.000012 0.003638 0.000008
# 2 -0.005304 0.023997 -0.005243 0.000045 0.000187 -0.000024
# 3 -0.003555 -0.005243 0.014305 0.000007 -0.003488 -0.000006
# 4 -0.000012 0.000045 0.000007 0.035443 -0.000034 -0.002630
# 5 0.003638 0.000187 -0.003488 -0.000034 0.039453 0.000015
# 6 0.000008 -0.000024 -0.000006 -0.002630 0.000015 0.032667
#
#
# Mechanical properties :
#
#
# Convention : Reuss Voigt Hill
#
# Bulk Modulus (GPa) = 48.07334 56.21347 52.14340
# Shear Modulus (GPa) = 26.08151 28.24517 27.16334
#
# Velocity S-wave (km/s) = 3.60725 3.75389 3.68130
# Velocity P-wave (km/s) = 6.42914 6.84355 6.63958
#
# Compressibility (1/GPa) = 0.02080155
#
# Stress axis : x y z
#
# Youngs Moduli (GPa) = 93.42694 41.67196 69.90678
#
# Poissons Ratio (x) = 0.22103 0.24853
# Poissons Ratio (y) = 0.49555 0.36649
# Poissons Ratio (z) = 0.33215 0.21847
#
# Static dielectric constant tensor:
#      x y z
#    x 3.898510 -0.000020 0.206610 
#    y -0.000020 3.614710 0.000050 
#    z 0.206610 0.000050 3.501260 
# 
# 
# High freq. dielectric constant tensor:
#      x y z
#    x 1.789470 0.000000 0.010910 
#    y 0.000000 1.779940 0.000000 
#    z 0.010910 0.000000 1.772100 
# 
# From -- ./inp_files/295487.got.cif
#   From: 2010.06.25/outbox.cif.g09.slc.cpg/sg12_148_cif.got.tgz:295487.got - 2010.06.28 00:19:55.
