data_PCOD8089749
_publ_section_title
;
Structure prediction by ZEFSAII (Michael W. Deem and Ramdas Pophale) SiO2 
 PCOD8089749
Probable space group: C 2/M
;
_chemical_formula_sum "Si O2"
_cell_formula_units_Z 56
_cell_length_a 15.420761
_cell_length_b 9.469730
_cell_length_c 27.887275
_cell_angle_alpha 90.000000
_cell_angle_beta 40.934177
_cell_angle_gamma 90.000000
_cell_volume 2668.196313
_symmetry_space_group_name_H-M "C 2/M"
_symmetry_group_IT_number 12
_symmetry_cell_setting 'monoclinic'
loop_
_space_group_symop_operation_xyz
x,y,z
-x,y,-z
-x,-y,-z
x,-y,z
1/2+x,1/2+y,z
1/2-x,1/2+y,-z
1/2-x,1/2-y,-z
1/2+x,1/2-y,z
loop_
_atom_site_type_symbol
_atom_site_label
_atom_site_fract_x
_atom_site_fract_y
_atom_site_fract_z
Si Si1 0.200671 0.155074 0.478428
Si Si2 0.855036 0.838071 0.764266
Si Si3 0.400374 0.159829 0.836546
Si Si4 0.663539 0.336882 0.999314
Si Si5 0.085780 0.153908 0.363939
Si Si6 0.552090 0.834733 0.869825
Si Si7 0.851484 0.657003 0.582033
O O1 0.250000 0.250000 0.500000
O O2 0.232931 0.238054 0.416125
O O3 0.045686 0.133900 0.550424
O O4 0.269488 0.000000 0.448737
O O5 0.919110 0.751738 0.780996
O O6 0.941203 0.805922 0.680312
O O7 0.705708 0.797184 0.811324
O O8 0.862602 0.000000 0.777039
O O9 0.497255 0.209166 0.839699
O O10 0.436470 0.000000 0.808021
O O11 0.244292 0.171459 0.915768
O O12 0.645920 0.500000 0.022487
O O13 0.521646 0.258139 0.058107
O O14 0.750000 0.250000 0.000000
O O15 0.164449 0.279006 0.357778
O O16 0.160842 0.000000 0.333484
O O17 0.521878 0.000000 0.891286
O O18 0.788867 0.500000 0.608473
O O19 0.000000 0.647170 0.500000
#
# Coordination Sequence:
#
# PCOD8089749 Si02
#       7
#     8   8   8   8   8   8   8
#     4  10  19  33  54  79 107 136 172 219 267 314
#     4  10  21  37  56  77 108 147 184 220 265 326
#     4   9  19  35  53  76 108 141 177 224 272 315
#     4   9  17  31  53  79 107 139 178 227 276 321
#     4   9  19  36  54  74 105 140 174 215 264 316
#     4   9  19  36  55  77 107 142 181 223 270 327
#     4   9  17  31  53  77 101 130 167 209 254 308
#
# _framework density 20.987962
#
# number of rings (size 3 to 8) (size 9 to 14) (size 15 to 20)
#    0.000    2.714    0.000    2.143    0.000    6.857 
#    2.571    2.857    0.000    0.000    0.000    0.000 
#    0.000    0.000    0.000    0.000    0.000    0.000 
#
# Total GULP energy -346928.399806 kJ/mol
# GULP energy per Si atom -12390.299993 kJ/mol
# Density = 2.094019 g / cm^3
# Si number density = 20.987962 Si / 1000 Ang^3
#
#
#
# Elastic Constant Matrix: (Units=GPa)
#
#
# Indices 1 2 3 4 5 6 
#
# 1 64.4007 34.3354 -3.3130 0.0000 20.1965 -0.0001
# 2 34.3354 137.7405 11.9580 0.0000 24.3564 -0.0002
# 3 -3.3130 11.9580 27.5062 0.0000 18.7407 -0.0001
# 4 0.0000 0.0000 0.0000 26.6224 0.0000 11.6497
# 5 20.1965 24.3564 18.7407 0.0000 30.2965 0.0000
# 6 -0.0001 -0.0002 -0.0001 11.6497 0.0000 32.5536
#
#
#
# Elastic Compliance Matrix: (Units=1/GPa)
#
#
# Indices 1 2 3 4 5 6 
#
# 1 0.030011 -0.003832 0.029059 0.000000 -0.034901 0.000000
# 2 -0.003832 0.008996 -0.002049 0.000000 -0.003410 0.000000
# 3 0.029059 -0.002049 0.091301 0.000000 -0.074201 0.000000
# 4 0.000000 0.000000 0.000000 0.044537 0.000000 -0.015938
# 5 -0.034901 -0.003410 -0.074201 0.000000 0.104913 0.000000
# 6 0.000000 0.000000 0.000000 -0.015938 0.000000 0.036422
#
#
# Mechanical properties :
#
#
# Convention : Reuss Voigt Hill
#
# Bulk Modulus (GPa) = 5.66047 35.06758 20.36402
# Shear Modulus (GPa) = 15.21082 30.33896 22.77489
#
# Velocity S-wave (km/s) = 2.69502 3.80615 3.29772
# Velocity P-wave (km/s) = 3.51952 6.00503 4.92176
#
# Compressibility (1/GPa) = 0.17666391
#
# Stress axis : x y z
#
# Youngs Moduli (GPa) = 33.32111 111.15748 10.95273
#
# Poissons Ratio (x) = 0.42600 -0.31828
# Poissons Ratio (y) = 0.12770 0.02245
# Poissons Ratio (z) = -0.96829 0.22780
#
# Static dielectric constant tensor:
#      x y z
#    x 2.917170 0.000000 0.945380 
#    y 0.000000 4.162130 0.000000 
#    z 0.945380 0.000000 2.654460 
# 
# 
# High freq. dielectric constant tensor:
#      x y z
#    x 1.800440 0.000000 0.012370 
#    y 0.000000 1.829570 0.000000 
#    z 0.012370 0.000000 1.802170 
# 
# From -- ./inp_files/377687.got.cif
#   From: 2010.06.25/outbox.cif.g09.slc.cpg/sg12_189_cif.got.tgz:377687.got - 2010.06.28 00:19:55.
