data_PCOD8089958
_publ_section_title
;
Structure prediction by ZEFSAII (Michael W. Deem and Ramdas Pophale) SiO2 
 PCOD8089958
Probable space group: C 2/M
;
_chemical_formula_sum "Si O2"
_cell_formula_units_Z 64
_cell_length_a 28.951436
_cell_length_b 9.360074
_cell_length_c 13.124912
_cell_angle_alpha 90.000000
_cell_angle_beta 70.899372
_cell_angle_gamma 90.000000
_cell_volume 3360.875875
_symmetry_space_group_name_H-M "C 2/M"
_symmetry_group_IT_number 12
_symmetry_cell_setting 'monoclinic'
loop_
_space_group_symop_operation_xyz
x,y,z
-x,y,-z
-x,-y,-z
x,-y,z
1/2+x,1/2+y,z
1/2-x,1/2+y,-z
1/2-x,1/2-y,-z
1/2+x,1/2-y,z
loop_
_atom_site_type_symbol
_atom_site_label
_atom_site_fract_x
_atom_site_fract_y
_atom_site_fract_z
Si Si1 0.599792 0.834132 0.677766
Si Si2 0.609905 0.842957 0.067245
Si Si3 0.922696 0.831758 0.725064
Si Si4 0.158264 0.667943 0.320801
Si Si5 0.550467 0.165938 0.916953
Si Si6 0.510885 0.159566 0.609962
Si Si7 0.210692 0.344441 0.080425
Si Si8 0.300216 0.169216 0.488963
O O1 0.570904 0.764868 0.796021
O O2 0.567304 0.809022 0.599269
O O3 0.654848 0.775148 0.615742
O O4 0.606774 0.000000 0.695845
O O5 0.595596 0.714648 0.151324
O O6 0.667971 0.853935 0.027952
O O7 0.587972 0.000000 0.115447
O O8 0.593549 0.805226 0.965594
O O9 0.892473 0.754206 0.656087
O O10 0.978593 0.780979 0.685504
O O11 0.918674 0.000000 0.713240
O O12 0.145346 0.500000 0.322684
O O13 0.192906 0.716609 0.202241
O O14 0.184994 0.706771 0.405996
O O15 0.539858 0.000000 0.904002
O O16 0.500000 0.233990 0.000000
O O17 0.500000 0.170751 0.500000
O O18 0.497232 0.000000 0.659367
O O19 0.233602 0.500000 0.083461
O O20 0.250000 0.250000 0.000000
O O21 0.250000 0.250000 0.500000
O O22 0.291793 0.000000 0.482505
#
# Coordination Sequence:
#
# PCOD8089958 Si02
#       8
#     8   8   8   8   8   8   8   8
#     4   9  18  32  53  82 108 137 185 231 263 314
#     4   9  18  33  51  71  99 137 174 208 256 322
#     4  11  21  32  51  80 109 135 168 217 271 317
#     4   9  19  37  56  74 103 145 185 219 263 326
#     4   9  16  28  51  80 106 134 173 222 266 307
#     4  10  19  33  55  78 103 140 179 214 259 318
#     4   9  18  31  49  73 100 131 171 219 270 322
#     4  10  21  38  59  81 107 141 184 229 271 318
#
# _framework density 19.042655
#
# number of rings (size 3 to 8) (size 9 to 14) (size 15 to 20)
#    0.000    2.500    0.000    3.375    0.000    7.750 
#    0.000    1.875    0.000    4.125    0.000    0.000 
#    0.000    0.000    0.000    0.000    0.000    0.000 
#
# Total GULP energy -396480.642797 kJ/mol
# GULP energy per Si atom -12390.020087 kJ/mol
# Density = 1.899931 g / cm^3
# Si number density = 19.042655 Si / 1000 Ang^3
#
#
#
# Elastic Constant Matrix: (Units=GPa)
#
#
# Indices 1 2 3 4 5 6 
#
# 1 125.1841 36.5351 71.0273 0.0000 -3.5215 0.0000
# 2 36.5351 65.7859 24.2593 0.0000 -7.5062 0.0000
# 3 71.0273 24.2593 112.1566 0.0000 -3.8191 0.0000
# 4 0.0000 0.0000 0.0000 16.0648 0.0000 -1.6540
# 5 -3.5215 -7.5062 -3.8191 0.0000 37.2838 0.0000
# 6 0.0000 0.0000 0.0000 -1.6540 0.0000 24.1036
#
#
#
# Elastic Compliance Matrix: (Units=1/GPa)
#
#
# Indices 1 2 3 4 5 6 
#
# 1 0.013744 -0.004858 -0.007669 0.000000 -0.000465 0.000000
# 2 -0.004858 0.018570 -0.000831 0.000000 0.003195 0.000000
# 3 -0.007669 -0.000831 0.013971 0.000000 0.000539 0.000000
# 4 0.000000 0.000000 0.000000 0.062691 0.000000 0.004302
# 5 -0.000465 0.003195 0.000539 0.000000 0.027476 0.000000
# 6 0.000000 0.000000 0.000000 0.004302 0.000000 0.041783
#
#
# Mechanical properties :
#
#
# Convention : Reuss Voigt Hill
#
# Bulk Modulus (GPa) = 51.10338 62.97442 57.03890
# Shear Modulus (GPa) = 23.64353 26.91078 25.27715
#
# Velocity S-wave (km/s) = 3.52747 3.76331 3.64730
# Velocity P-wave (km/s) = 6.59433 7.21286 6.91052
#
# Compressibility (1/GPa) = 0.01956818
#
# Stress axis : x y z
#
# Youngs Moduli (GPa) = 72.75728 53.85065 71.57661
#
# Poissons Ratio (x) = 0.26161 0.54893
# Poissons Ratio (y) = 0.35346 0.05950
# Poissons Ratio (z) = 0.55799 0.04476
#
# Static dielectric constant tensor:
#      x y z
#    x 4.103460 0.000000 0.163000 
#    y 0.000000 3.129170 0.000000 
#    z 0.163000 0.000000 3.703920 
# 
# 
# High freq. dielectric constant tensor:
#      x y z
#    x 1.745170 0.000000 0.002490 
#    y 0.000000 1.693120 0.000000 
#    z 0.002490 0.000000 1.741400 
# 
# From -- ./inp_files/243841.got.cif
#   From: 2010.06.25/outbox.cif.g09.slc.cpg/sg12_122_cif.got.tgz:243841.got - 2010.06.28 00:19:55.
