data_PCOD8089492
_publ_section_title
;
Structure prediction by ZEFSAII (Michael W. Deem and Ramdas Pophale) SiO2 
 PCOD8089492
Probable space group: C 2/M
;
_chemical_formula_sum "Si O2"
_cell_formula_units_Z 64
_cell_length_a 23.325404
_cell_length_b 8.674374
_cell_length_c 23.103587
_cell_angle_alpha 90.000000
_cell_angle_beta 133.388346
_cell_angle_gamma 90.000000
_cell_volume 3397.116979
_symmetry_space_group_name_H-M "C 2/M"
_symmetry_group_IT_number 12
_symmetry_cell_setting 'monoclinic'
loop_
_space_group_symop_operation_xyz
x,y,z
-x,y,-z
-x,-y,-z
x,-y,z
1/2+x,1/2+y,z
1/2-x,1/2+y,-z
1/2-x,1/2-y,-z
1/2+x,1/2-y,z
loop_
_atom_site_type_symbol
_atom_site_label
_atom_site_fract_x
_atom_site_fract_y
_atom_site_fract_z
Si Si1 0.969131 0.683527 0.066654
Si Si2 0.706869 0.818872 0.606615
Si Si3 0.099143 0.818480 0.440055
Si Si4 0.379019 0.816993 0.894468
Si Si5 0.429436 0.681269 0.281005
Si Si6 0.024674 0.679378 0.801525
Si Si7 0.211020 0.183814 0.734269
Si Si8 0.149004 0.679472 0.360458
O O1 0.973808 0.500000 0.072218
O O2 0.952074 0.747790 0.119237
O O3 0.053920 0.745281 0.102826
O O4 0.900419 0.737764 0.974776
O O5 0.629290 0.771703 0.517084
O O6 0.691767 0.767427 0.661394
O O7 0.782265 0.729252 0.634722
O O8 0.721528 0.000000 0.612961
O O9 0.154193 0.776094 0.423466
O O10 0.010306 0.759040 0.366524
O O11 0.103551 0.000000 0.454734
O O12 0.294148 0.753321 0.816565
O O13 0.377547 0.000000 0.891965
O O14 0.431868 0.500000 0.279320
O O15 0.421629 0.742221 0.210146
O O16 0.355365 0.738640 0.266605
O O17 0.042509 0.500000 0.810705
O O18 0.932704 0.715284 0.728317
O O19 0.210896 0.000000 0.725198
O O20 0.158072 0.500000 0.381895
#
# Coordination Sequence:
#
# PCOD8089492 Si02
#       8
#     8   8   8   8   8   8   8   8
#     4   8  13  24  46  79 106 127 159 202 246 290
#     4  12  24  35  50  75 102 130 163 206 256 306
#     4  10  20  36  54  73  99 132 167 207 250 297
#     4   8  14  26  48  75 104 130 160 203 247 290
#     4   9  20  36  53  71  96 131 171 210 251 293
#     4   9  17  30  52  77 102 132 169 206 244 290
#     4  10  20  36  54  72  96 132 173 211 248 293
#     4  10  19  33  53  78 105 133 164 203 248 297
#
# _framework density 18.839504999999999
#
# number of rings (size 3 to 8) (size 9 to 14) (size 15 to 20)
#    0.000    2.500    0.000    3.750    0.000    4.000 
#    0.000    3.125    0.000    0.750    0.000    2.625 
#    0.000    0.000    0.000    0.000    0.000    0.000 
#
# Total GULP energy -396776.123279 kJ/mol
# GULP energy per Si atom -12399.253852 kJ/mol
# Density = 1.879663 g / cm^3
# Si number density = 18.839505 Si / 1000 Ang^3
#
#
#
# Elastic Constant Matrix: (Units=GPa)
#
#
# Indices 1 2 3 4 5 6 
#
# 1 127.3424 15.0447 71.8976 0.0000 -16.6563 0.0000
# 2 15.0447 27.9406 19.5077 0.0000 -3.1114 0.0000
# 3 71.8976 19.5077 116.7589 0.0000 -30.4311 0.0000
# 4 0.0000 0.0000 0.0000 15.8925 0.0000 -5.1466
# 5 -16.6563 -3.1114 -30.4311 0.0000 27.2388 0.0000
# 6 0.0000 0.0000 0.0000 -5.1466 0.0000 23.1895
#
#
#
# Elastic Compliance Matrix: (Units=1/GPa)
#
#
# Indices 1 2 3 4 5 6 
#
# 1 0.012118 -0.001396 -0.007532 0.000000 -0.001164 0.000000
# 2 -0.001396 0.041011 -0.007045 0.000000 -0.004040 0.000000
# 3 -0.007532 -0.007045 0.018298 0.000000 0.015031 0.000000
# 4 0.000000 0.000000 0.000000 0.067795 0.000000 0.015046
# 5 -0.001164 -0.004040 0.015031 0.000000 0.052332 0.000000
# 6 0.000000 0.000000 0.000000 0.015046 0.000000 0.046462
#
#
# Mechanical properties :
#
#
# Convention : Reuss Voigt Hill
#
# Bulk Modulus (GPa) = 25.32956 53.88242 39.60599
# Shear Modulus (GPa) = 17.66015 24.30365 20.98190
#
# Velocity S-wave (km/s) = 3.06502 3.59560 3.34086
# Velocity P-wave (km/s) = 5.09901 6.77500 5.99586
#
# Compressibility (1/GPa) = 0.03947956
#
# Stress axis : x y z
#
# Youngs Moduli (GPa) = 82.52008 24.38381 54.65144
#
# Poissons Ratio (x) = 0.03403 0.41166
# Poissons Ratio (y) = 0.11518 0.38504
# Poissons Ratio (z) = 0.62158 0.17179
#
# Static dielectric constant tensor:
#      x y z
#    x 3.538240 0.000000 -0.075010 
#    y 0.000000 3.143930 0.000000 
#    z -0.075010 0.000000 3.741800 
# 
# 
# High freq. dielectric constant tensor:
#      x y z
#    x 1.726250 0.000000 -0.010560 
#    y 0.000000 1.702720 0.000000 
#    z -0.010560 0.000000 1.736980 
# 
# From -- ./inp_files/346181.got.cif
#   From: 2010.06.25/outbox.cif.g09.slc.cpg/sg12_174_cif.got.tgz:346181.got - 2010.06.28 00:19:55.
