data_PCOD8089010
_publ_section_title
;
Structure prediction by ZEFSAII (Michael W. Deem and Ramdas Pophale) SiO2 
 PCOD8089010
Probable space group: C 2/M
;
_chemical_formula_sum "Si O2"
_cell_formula_units_Z 60
_cell_length_a 12.852402
_cell_length_b 23.267319
_cell_length_c 22.911897
_cell_angle_alpha 90.000000
_cell_angle_beta 154.499128
_cell_angle_gamma 90.000000
_cell_volume 2949.781862
_symmetry_space_group_name_H-M "C 2/M"
_symmetry_group_IT_number 12
_symmetry_cell_setting 'monoclinic'
loop_
_space_group_symop_operation_xyz
x,y,z
-x,y,-z
-x,-y,-z
x,-y,z
1/2+x,1/2+y,z
1/2-x,1/2+y,-z
1/2-x,1/2-y,-z
1/2+x,1/2-y,z
loop_
_atom_site_type_symbol
_atom_site_label
_atom_site_fract_x
_atom_site_fract_y
_atom_site_fract_z
Si Si1 0.770643 0.154810 0.644798
Si Si2 0.710240 0.063673 0.916268
Si Si3 0.151097 0.934304 0.632191
Si Si4 0.000000 0.608867 0.000000
Si Si5 0.136827 0.812716 0.013827
Si Si6 0.350629 0.653229 0.266590
Si Si7 0.611413 0.751029 0.214463
Si Si8 0.414468 0.437906 0.144311
O O1 0.500000 0.132405 0.500000
O O2 0.760514 0.217577 0.668179
O O3 0.920657 0.158079 0.660621
O O4 0.885219 0.110965 0.749726
O O5 0.432058 0.070934 0.758210
O O6 0.858765 0.118749 0.968733
O O7 0.802084 0.000000 0.940284
O O8 0.742012 0.066821 0.001526
O O9 0.092053 0.898927 0.660627
O O10 0.000000 0.910978 0.500000
O O11 0.078172 0.000000 0.608637
O O12 0.093571 0.647769 0.101617
O O13 0.228711 0.568844 0.103422
O O14 0.407810 0.789911 0.142325
O O15 0.000000 0.783767 0.000000
O O16 0.993805 0.796591 0.882980
O O17 0.315965 0.710765 0.286986
O O18 0.543174 0.500000 0.213257
#
# Coordination Sequence:
#
# PCOD8089010 Si02
#       8
#     8   8   8   4   8   8   8   8
#     4  11  26  44  60  90 130 167 214 269 320 385
#     4  10  19  38  62  91 124 159 208 258 309 373
#     4  10  21  40  64  95 132 167 210 263 317 381
#     4  10  19  32  62 104 126 148 211 274 314 370
#     4  11  22  37  63  94 124 163 203 261 322 377
#     4  11  23  40  68  95 124 170 216 264 323 382
#     4  11  23  41  62  90 126 167 212 262 314 384
#     4  10  19  35  62  90 123 161 200 260 320 371
#
# _framework density 20.340488000000001
#
# number of rings (size 3 to 8) (size 9 to 14) (size 15 to 20)
#    0.000    1.467    4.000    1.000    6.533    3.733 
#    2.400    0.000    0.000    0.000    0.000    0.000 
#    0.000    0.000    0.000    0.000    0.000    0.000 
#
# Total GULP energy -371804.083963 kJ/mol
# GULP energy per Si atom -12393.469465 kJ/mol
# Density = 2.029419 g / cm^3
# Si number density = 20.340488 Si / 1000 Ang^3
#
#
#
# Elastic Constant Matrix: (Units=GPa)
#
#
# Indices 1 2 3 4 5 6 
#
# 1 99.7167 44.2246 42.7487 0.0250 0.7036 0.0041
# 2 44.2246 111.6537 47.5238 0.0937 -4.6788 0.0048
# 3 42.7487 47.5238 104.2062 -0.1771 -4.6749 0.1040
# 4 0.0250 0.0937 -0.1771 16.4402 0.0628 -7.8228
# 5 0.7036 -4.6788 -4.6749 0.0628 30.8510 0.0199
# 6 0.0041 0.0048 0.1040 -7.8228 0.0199 21.8780
#
#
#
# Elastic Compliance Matrix: (Units=1/GPa)
#
#
# Indices 1 2 3 4 5 6 
#
# 1 0.013329 -0.003704 -0.003844 -0.000032 -0.001448 0.000007
# 2 -0.003704 0.012169 -0.003971 -0.000125 0.001329 -0.000029
# 3 -0.003844 -0.003971 0.013050 0.000162 0.001463 -0.000004
# 4 -0.000032 -0.000125 0.000162 0.073301 -0.000160 0.026209
# 5 -0.001448 0.001329 0.001463 -0.000160 0.032870 -0.000094
# 6 0.000007 -0.000029 -0.000004 0.026209 -0.000094 0.055080
#
#
# Mechanical properties :
#
#
# Convention : Reuss Voigt Hill
#
# Bulk Modulus (GPa) = 64.47066 64.95230 64.71148
# Shear Modulus (GPa) = 21.92908 25.90581 23.91745
#
# Velocity S-wave (km/s) = 3.28701 3.57264 3.43279
# Velocity P-wave (km/s) = 6.79488 7.00144 6.89893
#
# Compressibility (1/GPa) = 0.01551093
#
# Stress axis : x y z
#
# Youngs Moduli (GPa) = 75.02271 82.17339 76.62781
#
# Poissons Ratio (x) = 0.30438 0.29454
# Poissons Ratio (y) = 0.27790 0.30428
# Poissons Ratio (z) = 0.28837 0.32631
#
# Static dielectric constant tensor:
#      x y z
#    x 3.518270 -0.000040 -0.192470 
#    y -0.000040 3.914260 -0.000180 
#    z -0.192470 -0.000180 3.560800 
# 
# 
# High freq. dielectric constant tensor:
#      x y z
#    x 1.784900 0.000000 -0.010940 
#    y 0.000000 1.806350 -0.000010 
#    z -0.010940 -0.000010 1.775830 
# 
# From -- ./inp_files/307321.got.cif
#   From: 2010.06.25/outbox.cif.g09.slc.cpg/sg12_154_cif.got.tgz:307321.got - 2010.06.28 00:19:55.
