data_PCOD8089661
_publ_section_title
;
Structure prediction by ZEFSAII (Michael W. Deem and Ramdas Pophale) SiO2 
 PCOD8089661
Probable space group: C 2/M
;
_chemical_formula_sum "Si O2"
_cell_formula_units_Z 40
_cell_length_a 23.144968
_cell_length_b 8.682066
_cell_length_c 28.922365
_cell_angle_alpha 90.000000
_cell_angle_beta 158.024242
_cell_angle_gamma 90.000000
_cell_volume 2174.872541
_symmetry_space_group_name_H-M "C 2/M"
_symmetry_group_IT_number 12
_symmetry_cell_setting 'monoclinic'
loop_
_space_group_symop_operation_xyz
x,y,z
-x,y,-z
-x,-y,-z
x,-y,z
1/2+x,1/2+y,z
1/2-x,1/2+y,-z
1/2-x,1/2-y,-z
1/2+x,1/2-y,z
loop_
_atom_site_type_symbol
_atom_site_label
_atom_site_fract_x
_atom_site_fract_y
_atom_site_fract_z
Si Si1 0.881979 0.179642 0.655352
Si Si2 0.463613 0.178513 0.621664
Si Si3 0.018642 0.817321 0.944400
Si Si4 0.087274 0.181042 0.892555
Si Si5 0.729544 0.818908 0.177471
O O1 0.700379 0.217147 0.523458
O O2 0.962438 0.275993 0.674578
O O3 0.957808 0.232425 0.759674
O O4 0.909372 0.000000 0.665036
O O5 0.590366 0.276138 0.687955
O O6 0.506212 0.000000 0.649338
O O7 0.033354 0.760165 0.902667
O O8 0.853248 0.762682 0.840693
O O9 0.032701 0.000000 0.959757
O O10 0.156275 0.739497 0.075212
O O11 0.106264 0.000000 0.906985
O O12 0.250000 0.250000 0.000000
O O13 0.706257 0.000000 0.164567
#
# Coordination Sequence:
#
# PCOD8089661 Si02
#       5
#     8   8   8   8   8
#     4   9  19  35  53  76 105 134 169 210 252 300
#     4  10  19  33  54  77 102 135 172 210 251 297
#     4  10  20  35  54  77 103 132 171 211 250 301
#     4  10  21  35  53  77 104 134 165 204 254 303
#     4  11  21  34  53  76 103 135 170 210 256 300
#
# _framework density 18.391883
#
# number of rings (size 3 to 8) (size 9 to 14) (size 15 to 20)
#    0.000    2.000    0.000    5.400    0.000    6.400 
#    0.000    1.000    0.000    6.000    0.000    0.000 
#    0.000    0.000    0.000    0.000    0.000    0.000 
#
# Total GULP energy -248069.405034 kJ/mol
# GULP energy per Si atom -12403.470252 kJ/mol
# Density = 1.835002 g / cm^3
# Si number density = 18.391883 Si / 1000 Ang^3
#
#
#
# Elastic Constant Matrix: (Units=GPa)
#
#
# Indices 1 2 3 4 5 6 
#
# 1 127.1485 13.2841 71.5651 -0.0034 -8.8538 0.0006
# 2 13.2841 35.4234 17.9307 -0.0042 -2.0498 0.0017
# 3 71.5651 17.9307 108.8798 -0.0043 2.9610 0.0010
# 4 -0.0034 -0.0042 -0.0043 27.5366 -0.0012 6.6532
# 5 -8.8538 -2.0498 2.9610 -0.0012 33.2604 0.0005
# 6 0.0006 0.0017 0.0010 6.6532 0.0005 29.0064
#
#
#
# Elastic Compliance Matrix: (Units=1/GPa)
#
#
# Indices 1 2 3 4 5 6 
#
# 1 0.013058 -0.000272 -0.008653 0.000000 0.004230 0.000000
# 2 -0.000272 0.030988 -0.004986 0.000005 0.002281 -0.000003
# 3 -0.008653 -0.004986 0.015802 0.000001 -0.004018 0.000000
# 4 0.000000 0.000005 0.000001 0.038446 0.000002 -0.008818
# 5 0.004230 0.002281 -0.004018 0.000002 0.031690 -0.000001
# 6 0.000000 -0.000003 0.000000 -0.008818 -0.000001 0.036498
#
#
# Mechanical properties :
#
#
# Convention : Reuss Voigt Hill
#
# Bulk Modulus (GPa) = 31.22530 53.00126 42.11328
# Shear Modulus (GPa) = 24.39253 29.20547 26.79900
#
# Velocity S-wave (km/s) = 3.64574 3.98924 3.82135
# Velocity P-wave (km/s) = 5.89377 7.07806 6.51289
#
# Compressibility (1/GPa) = 0.03202531
#
# Stress axis : x y z
#
# Youngs Moduli (GPa) = 76.58033 32.27059 63.28124
#
# Poissons Ratio (x) = 0.00878 0.54758
# Poissons Ratio (y) = 0.02084 0.31554
# Poissons Ratio (z) = 0.66266 0.16091
#
# Static dielectric constant tensor:
#      x y z
#    x 3.502940 -0.000010 0.001510 
#    y -0.000010 3.426620 -0.000010 
#    z 0.001510 -0.000010 3.433380 
# 
# 
# High freq. dielectric constant tensor:
#      x y z
#    x 1.709450 0.000000 0.010750 
#    y 0.000000 1.719270 0.000000 
#    z 0.010750 0.000000 1.713510 
# 
# From -- ./inp_files/162714.got.cif
#   From: 2010.06.25/outbox.cif.g09.slc.cpg/sg12_82_cif.got.tgz:162714.got - 2010.06.28 00:19:55.
