data_PCOD8089444
_publ_section_title
;
Structure prediction by ZEFSAII (Michael W. Deem and Ramdas Pophale) SiO2 
 PCOD8089444
Probable space group: C 2/M
;
_chemical_formula_sum "Si O2"
_cell_formula_units_Z 64
_cell_length_a 20.596128
_cell_length_b 8.749498
_cell_length_c 21.667511
_cell_angle_alpha 90.000000
_cell_angle_beta 61.847313
_cell_angle_gamma 90.000000
_cell_volume 3442.669394
_symmetry_space_group_name_H-M "C 2/M"
_symmetry_group_IT_number 12
_symmetry_cell_setting 'monoclinic'
loop_
_space_group_symop_operation_xyz
x,y,z
-x,y,-z
-x,-y,-z
x,-y,z
1/2+x,1/2+y,z
1/2-x,1/2+y,-z
1/2-x,1/2-y,-z
1/2+x,1/2-y,z
loop_
_atom_site_type_symbol
_atom_site_label
_atom_site_fract_x
_atom_site_fract_y
_atom_site_fract_z
Si Si1 0.089490 0.681625 0.840175
Si Si2 0.079211 0.178510 0.449225
Si Si3 0.668232 0.818240 0.928633
Si Si4 0.727288 0.681610 0.445284
Si Si5 0.334695 0.323880 0.707232
Si Si6 0.701314 0.320673 0.702660
Si Si7 0.665205 0.677549 0.153336
Si Si8 0.077617 0.319670 0.084831
O O1 0.095604 0.500000 0.830086
O O2 0.130435 0.741360 0.883148
O O3 0.124382 0.761431 0.764623
O O4 0.005709 0.738565 0.882807
O O5 0.145407 0.241708 0.462805
O O6 0.097875 0.212356 0.369173
O O7 0.000000 0.256580 0.500000
O O8 0.072952 0.000000 0.464924
O O9 0.752091 0.759946 0.893550
O O10 0.665867 0.000000 0.929700
O O11 0.624937 0.749988 0.007006
O O12 0.729344 0.500000 0.447338
O O13 0.750000 0.750000 0.500000
O O14 0.785422 0.737545 0.368344
O O15 0.308594 0.500000 0.711304
O O16 0.265324 0.218722 0.722671
O O17 0.360836 0.291805 0.764885
O O18 0.697689 0.500000 0.692600
O O19 0.660620 0.500000 0.138366
O O20 0.610306 0.769981 0.135238
O O21 0.079815 0.500000 0.079293
#
# Coordination Sequence:
#
# PCOD8089444 Si02
#       8
#     8   8   8   8   8   8   8   8
#     4  10  19  36  57  76 105 141 181 223 271 326
#     4   8  15  30  54  81 106 135 176 216 254 306
#     4   9  17  33  57  78  98 138 188 221 264 330
#     4  10  20  36  58  83 114 146 181 221 266 318
#     4   9  17  33  56  78 103 143 183 217 261 319
#     4  11  21  34  56  83 108 139 183 228 270 318
#     4  10  19  33  53  76 107 144 178 217 268 329
#     4  10  21  34  52  79 108 138 176 228 276 322
#
# _framework density 18.590225
#
# number of rings (size 3 to 8) (size 9 to 14) (size 15 to 20)
#    0.000    2.375    1.250    3.000    0.000    2.500 
#    2.250    0.625    0.000   10.875    0.000    0.000 
#    0.000    0.000    0.000    0.000    0.000    0.000 
#
# Total GULP energy -396787.774362 kJ/mol
# GULP energy per Si atom -12399.617949 kJ/mol
# Density = 1.854791 g / cm^3
# Si number density = 18.590225 Si / 1000 Ang^3
#
#
#
# Elastic Constant Matrix: (Units=GPa)
#
#
# Indices 1 2 3 4 5 6 
#
# 1 102.5806 20.9758 61.3729 0.0002 3.2171 0.0001
# 2 20.9758 38.4612 27.2392 -0.0001 -1.6602 -0.0007
# 3 61.3729 27.2392 142.6231 0.0002 1.0974 0.0000
# 4 0.0002 -0.0001 0.0002 20.4666 0.0001 7.1968
# 5 3.2171 -1.6602 1.0974 0.0001 32.4846 -0.0001
# 6 0.0001 -0.0007 0.0000 7.1968 -0.0001 23.4539
#
#
#
# Elastic Compliance Matrix: (Units=1/GPa)
#
#
# Indices 1 2 3 4 5 6 
#
# 1 0.013649 -0.003875 -0.005123 0.000000 -0.001377 0.000000
# 2 -0.003875 0.031265 -0.004320 0.000000 0.002128 0.000001
# 3 -0.005123 -0.004320 0.010041 0.000000 -0.000053 0.000000
# 4 0.000000 0.000000 0.000000 0.054770 0.000000 -0.016806
# 5 -0.001377 0.002128 -0.000053 0.000000 0.031031 0.000000
# 6 0.000000 0.000001 0.000000 -0.016806 0.000000 0.047794
#
#
# Mechanical properties :
#
#
# Convention : Reuss Voigt Hill
#
# Bulk Modulus (GPa) = 35.31135 55.87120 45.59127
# Shear Modulus (GPa) = 22.25937 26.88616 24.57277
#
# Velocity S-wave (km/s) = 3.46406 3.80709 3.63962
# Velocity P-wave (km/s) = 5.91907 7.03168 6.49923
#
# Compressibility (1/GPa) = 0.02831951
#
# Stress axis : x y z
#
# Youngs Moduli (GPa) = 73.26658 31.98458 99.58877
#
# Poissons Ratio (x) = 0.12395 0.51015
# Poissons Ratio (y) = 0.28392 0.43023
# Poissons Ratio (z) = 0.37531 0.13818
#
# Static dielectric constant tensor:
#      x y z
#    x 3.463330 0.000000 -0.132190 
#    y 0.000000 3.082190 0.000000 
#    z -0.132190 0.000000 3.710560 
# 
# 
# High freq. dielectric constant tensor:
#      x y z
#    x 1.713150 0.000000 -0.001540 
#    y 0.000000 1.688580 0.000000 
#    z -0.001540 0.000000 1.736670 
# 
# From -- ./inp_files/319917.got.cif
#   From: 2010.06.25/outbox.cif.g09.slc.cpg/sg12_160_cif.got.tgz:319917.got - 2010.06.28 00:19:55.
