data_PCOD8089570
_publ_section_title
;
Structure prediction by ZEFSAII (Michael W. Deem and Ramdas Pophale) SiO2 
 PCOD8089570
Probable space group: C 2/M
;
_chemical_formula_sum "Si O2"
_cell_formula_units_Z 48
_cell_length_a 9.185154
_cell_length_b 20.589181
_cell_length_c 15.178379
_cell_angle_alpha 90.000000
_cell_angle_beta 63.878291
_cell_angle_gamma 90.000000
_cell_volume 2577.270055
_symmetry_space_group_name_H-M "C 2/M"
_symmetry_group_IT_number 12
_symmetry_cell_setting 'monoclinic'
loop_
_space_group_symop_operation_xyz
x,y,z
-x,y,-z
-x,-y,-z
x,-y,z
1/2+x,1/2+y,z
1/2-x,1/2+y,-z
1/2-x,1/2-y,-z
1/2+x,1/2-y,z
loop_
_atom_site_type_symbol
_atom_site_label
_atom_site_fract_x
_atom_site_fract_y
_atom_site_fract_z
Si Si1 0.998351 0.328379 0.597109
Si Si2 0.209344 0.500000 0.875750
Si Si3 0.658094 0.694701 0.407599
Si Si4 0.338533 0.000000 0.915091
Si Si5 0.782786 0.634865 0.205607
Si Si6 0.869912 0.372890 0.808433
Si Si7 0.682196 0.746319 0.924066
O O1 0.179789 0.304751 0.575088
O O2 0.000000 0.363278 0.500000
O O3 0.879498 0.266563 0.618785
O O4 0.923741 0.376414 0.690973
O O5 0.280108 0.565831 0.814643
O O6 0.021375 0.500000 0.900601
O O7 0.258108 0.500000 0.966482
O O8 0.500000 0.667806 0.500000
O O9 0.680887 0.645945 0.320704
O O10 0.293345 0.939659 0.864235
O O11 0.750918 0.690644 0.143695
O O12 0.973826 0.640564 0.173406
O O13 0.737717 0.316648 0.854541
O O14 0.500000 0.743940 0.000000
O O15 0.750000 0.750000 0.000000
#
# Coordination Sequence:
#
# PCOD8089570 Si02
#       7
#     8   4   8   4   8   8   8
#     4  10  19  33  54  81 109 139 179 224 276 322
#     4   9  18  32  55  80 108 146 187 227 258 317
#     4  10  19  33  53  81 111 139 176 225 277 325
#     4   9  18  34  56  76 110 148 187 220 263 324
#     4  10  20  35  55  82 110 143 185 224 275 318
#     4  10  20  36  55  81 109 146 181 226 272 322
#     4  12  22  34  53  83 112 140 180 227 272 322
#
# _framework density 18.624357
#
# number of rings (size 3 to 8) (size 9 to 14) (size 15 to 20)
#    0.000    1.833    3.333    3.000    2.333    0.000 
#    3.000    1.250    0.000    0.000    0.000    0.000 
#    0.000    0.000    0.000    0.000    0.000    0.000 
#
# Total GULP energy -297348.979763 kJ/mol
# GULP energy per Si atom -12389.540823 kJ/mol
# Density = 1.858197 g / cm^3
# Si number density = 18.624357 Si / 1000 Ang^3
#
#
#
# Elastic Constant Matrix: (Units=GPa)
#
#
# Indices 1 2 3 4 5 6 
#
# 1 67.7799 19.7545 34.8890 0.0000 11.0171 0.0000
# 2 19.7545 130.3455 68.2410 0.0000 10.3950 0.0000
# 3 34.8890 68.2410 140.5169 0.0000 18.9814 0.0000
# 4 0.0000 0.0000 0.0000 35.0516 0.0000 3.9748
# 5 11.0171 10.3950 18.9814 0.0000 31.6425 0.0000
# 6 0.0000 0.0000 0.0000 3.9748 0.0000 16.2415
#
#
#
# Elastic Compliance Matrix: (Units=1/GPa)
#
#
# Indices 1 2 3 4 5 6 
#
# 1 0.017336 -0.000456 -0.003578 0.000000 -0.003740 0.000000
# 2 -0.000456 0.010305 -0.004848 0.000000 -0.000318 0.000000
# 3 -0.003578 -0.004848 0.010856 0.000000 -0.003674 0.000000
# 4 0.000000 0.000000 0.000000 0.029344 0.000000 -0.007181
# 5 -0.003740 -0.000318 -0.003674 0.000000 0.035213 0.000000
# 6 0.000000 0.000000 0.000000 -0.007181 0.000000 0.063328
#
#
# Mechanical properties :
#
#
# Convention : Reuss Voigt Hill
#
# Bulk Modulus (GPa) = 48.23347 64.93458 56.58402
# Shear Modulus (GPa) = 26.17031 30.97097 28.57064
#
# Velocity S-wave (km/s) = 3.75262 4.08233 3.92094
# Velocity P-wave (km/s) = 6.68809 7.56053 7.13765
#
# Compressibility (1/GPa) = 0.02073249
#
# Stress axis : x y z
#
# Youngs Moduli (GPa) = 57.68328 97.04406 92.11838
#
# Poissons Ratio (x) = 0.04425 0.32957
# Poissons Ratio (y) = 0.02631 0.44660
# Poissons Ratio (z) = 0.20637 0.47048
#
# Static dielectric constant tensor:
#      x y z
#    x 3.213220 0.000000 0.132700 
#    y 0.000000 3.338820 0.000000 
#    z 0.132700 0.000000 3.753440 
# 
# 
# High freq. dielectric constant tensor:
#      x y z
#    x 1.705530 0.000000 0.010740 
#    y 0.000000 1.700200 0.000000 
#    z 0.010740 0.000000 1.744000 
# 
# From -- ./inp_files/196951.got.cif
#   From: 2010.06.25/outbox.cif.g09.slc.cpg/sg12_99_cif.got.tgz:196951.got - 2010.06.28 00:19:55.
