data_PCOD8089722
_publ_section_title
;
Structure prediction by ZEFSAII (Michael W. Deem and Ramdas Pophale) SiO2 
 PCOD8089722
Probable space group: C 2/M
;
_chemical_formula_sum "Si O2"
_cell_formula_units_Z 56
_cell_length_a 30.029077
_cell_length_b 8.664055
_cell_length_c 16.801432
_cell_angle_alpha 90.000000
_cell_angle_beta 45.937665
_cell_angle_gamma 90.000000
_cell_volume 3141.136406
_symmetry_space_group_name_H-M "C 2/M"
_symmetry_group_IT_number 12
_symmetry_cell_setting 'monoclinic'
loop_
_space_group_symop_operation_xyz
x,y,z
-x,y,-z
-x,-y,-z
x,-y,z
1/2+x,1/2+y,z
1/2-x,1/2+y,-z
1/2-x,1/2-y,-z
1/2+x,1/2-y,z
loop_
_atom_site_type_symbol
_atom_site_label
_atom_site_fract_x
_atom_site_fract_y
_atom_site_fract_z
Si Si1 0.996737 0.177291 0.287464
Si Si2 0.308987 0.681667 0.100459
Si Si3 0.372230 0.180645 0.869697
Si Si4 0.829811 0.681945 0.750797
Si Si5 0.410495 0.180845 0.076712
Si Si6 0.058225 0.820806 0.477576
Si Si7 0.030722 0.178524 0.852956
O O1 0.951338 0.212326 0.417244
O O2 0.958305 0.208131 0.254287
O O3 0.054565 0.291317 0.219628
O O4 0.020486 0.000000 0.260771
O O5 0.314151 0.500000 0.108062
O O6 0.238188 0.739989 0.189524
O O7 0.343028 0.768893 0.130412
O O8 0.339045 0.722215 0.978919
O O9 0.345903 0.243836 0.818803
O O10 0.359147 0.000000 0.899261
O O11 0.832517 0.500000 0.749516
O O12 0.878545 0.739535 0.625509
O O13 0.418852 0.225024 0.159230
O O14 0.420032 0.000000 0.053214
O O15 0.461311 0.269399 0.960957
O O16 0.000000 0.753416 0.500000
O O17 0.065293 0.000000 0.449199
O O18 0.038293 0.000000 0.865745
#
# Coordination Sequence:
#
# PCOD8089722 Si02
#       7
#     8   8   8   8   8   8   8
#     4  10  20  34  54  80 110 143 178 216 263 318
#     4  11  22  37  54  75 109 147 182 217 268 328
#     4  11  21  33  52  80 110 141 179 220 267 314
#     4  10  23  38  53  77 108 146 184 222 266 318
#     4  11  21  33  52  80 110 136 176 223 269 318
#     4  10  20  35  56  80 106 142 183 223 263 309
#     4  10  19  33  54  78 108 144 177 212 268 324
#
# _framework density 17.827943999999999
#
# number of rings (size 3 to 8) (size 9 to 14) (size 15 to 20)
#    0.000    1.571    2.857    3.857    0.000    3.143 
#    0.000    0.000    0.000    0.857    0.000    0.000 
#    0.000    0.000    0.000    0.000    0.000    0.000 
#
# Total GULP energy -347284.353949 kJ/mol
# GULP energy per Si atom -12403.012641 kJ/mol
# Density = 1.778737 g / cm^3
# Si number density = 17.827944 Si / 1000 Ang^3
#
#
#
# Elastic Constant Matrix: (Units=GPa)
#
#
# Indices 1 2 3 4 5 6 
#
# 1 138.6042 23.7343 68.3094 -0.0001 8.6000 -0.0002
# 2 23.7343 33.5047 12.3720 -0.0054 0.4371 0.0051
# 3 68.3094 12.3720 78.8716 -0.0005 -2.8732 0.0021
# 4 -0.0001 -0.0054 -0.0005 25.0138 0.0002 -0.5057
# 5 8.6000 0.4371 -2.8732 0.0002 30.2056 0.0001
# 6 -0.0002 0.0051 0.0021 -0.5057 0.0001 26.2827
#
#
#
# Elastic Compliance Matrix: (Units=1/GPa)
#
#
# Indices 1 2 3 4 5 6 
#
# 1 0.014235 -0.005729 -0.011615 -0.000001 -0.005075 0.000002
# 2 -0.005729 0.034013 -0.000334 0.000007 0.001107 -0.000006
# 3 -0.011615 -0.000334 0.022991 0.000000 0.005499 -0.000002
# 4 -0.000001 0.000007 0.000000 0.039994 0.000000 0.000770
# 5 -0.005075 0.001107 0.005499 0.000000 0.035058 -0.000001
# 6 0.000002 -0.000006 -0.000002 0.000770 -0.000001 0.038063
#
#
# Mechanical properties :
#
#
# Convention : Reuss Voigt Hill
#
# Bulk Modulus (GPa) = 27.86680 51.09019 39.47850
# Shear Modulus (GPa) = 21.58247 26.07140 23.82693
#
# Velocity S-wave (km/s) = 3.48314 3.82827 3.65977
# Velocity P-wave (km/s) = 5.64280 6.94697 6.32857
#
# Compressibility (1/GPa) = 0.03588499
#
# Stress axis : x y z
#
# Youngs Moduli (GPa) = 70.25010 29.40016 43.49554
#
# Poissons Ratio (x) = 0.16842 0.50519
# Poissons Ratio (y) = 0.40244 0.01451
# Poissons Ratio (z) = 0.81594 0.00981
#
# Static dielectric constant tensor:
#      x y z
#    x 3.570970 -0.000010 0.063400 
#    y -0.000010 3.273580 0.000010 
#    z 0.063400 0.000010 3.181150 
# 
# 
# High freq. dielectric constant tensor:
#      x y z
#    x 1.696210 0.000000 0.011170 
#    y 0.000000 1.694410 0.000000 
#    z 0.011170 0.000000 1.665040 
# 
# From -- ./inp_files/295088.got.cif
#   From: 2010.06.25/outbox.cif.g09.slc.cpg/sg12_148_cif.got.tgz:295088.got - 2010.06.28 00:19:55.
