data_PCOD8089192
_publ_section_title
;
Structure prediction by ZEFSAII (Michael W. Deem and Ramdas Pophale) SiO2 
 PCOD8089192
Probable space group: C 2/M
;
_chemical_formula_sum "Si O2"
_cell_formula_units_Z 56
_cell_length_a 28.652245
_cell_length_b 17.527639
_cell_length_c 8.614519
_cell_angle_alpha 90.000000
_cell_angle_beta 141.004236
_cell_angle_gamma 90.000000
_cell_volume 2722.358148
_symmetry_space_group_name_H-M "C 2/M"
_symmetry_group_IT_number 12
_symmetry_cell_setting 'monoclinic'
loop_
_space_group_symop_operation_xyz
x,y,z
-x,y,-z
-x,-y,-z
x,-y,z
1/2+x,1/2+y,z
1/2-x,1/2+y,-z
1/2-x,1/2-y,-z
1/2+x,1/2-y,z
loop_
_atom_site_type_symbol
_atom_site_label
_atom_site_fract_x
_atom_site_fract_y
_atom_site_fract_z
Si Si1 0.456012 0.416800 0.726420
Si Si2 0.341761 0.760786 0.106508
Si Si3 0.174821 0.867806 0.425010
Si Si4 0.933301 0.195086 0.081205
Si Si5 0.329848 0.085171 0.894077
Si Si6 0.185249 0.717764 0.626108
Si Si7 0.924186 0.349008 0.875560
O O1 0.465361 0.500000 0.672373
O O2 0.370028 0.404428 0.546225
O O3 0.500000 0.410855 0.000000
O O4 0.489276 0.351233 0.700076
O O5 0.361238 0.760406 0.339217
O O6 0.410821 0.726439 0.191447
O O7 0.327860 0.849424 0.021188
O O8 0.270934 0.704081 0.897063
O O9 0.128760 0.864534 0.144902
O O10 0.251425 0.913127 0.598887
O O11 0.193053 0.781710 0.516096
O O12 0.942926 0.263638 0.983331
O O13 0.396729 0.099197 0.946621
O O14 0.340789 0.000000 0.993977
O O15 0.140412 0.650195 0.424109
O O16 0.000000 0.383604 0.000000
#
# Coordination Sequence:
#
# PCOD8089192 Si02
#       7
#     8   8   8   8   8   8   8
#     4   9  16  26  44  72 104 132 157 191 236 287
#     4   9  18  32  53  75  99 129 166 207 246 292
#     4   9  16  29  50  72  97 127 164 203 238 287
#     4   9  16  29  48  73 100 128 163 200 239 287
#     4  10  20  33  50  72  97 127 164 207 254 298
#     4   9  17  32  53  76  96 125 167 208 246 286
#     4  10  19  33  52  73  97 126 164 208 250 292
#
# _framework density 20.570401
#
# number of rings (size 3 to 8) (size 9 to 14) (size 15 to 20)
#    0.000    2.714    0.000    3.429    0.000    4.286 
#    0.000    7.143    0.000   10.286    0.000    0.000 
#    0.000    0.000    0.000    0.000    0.000    0.000 
#
# Total GULP energy -346936.864549 kJ/mol
# GULP energy per Si atom -12390.602305 kJ/mol
# Density = 2.052358 g / cm^3
# Si number density = 20.570401 Si / 1000 Ang^3
#
#
#
# Elastic Constant Matrix: (Units=GPa)
#
#
# Indices 1 2 3 4 5 6 
#
# 1 108.5890 19.1290 8.3398 0.0000 12.4119 0.0000
# 2 19.1290 72.7512 2.3904 0.0000 11.8275 0.0000
# 3 8.3398 2.3904 23.6148 0.0000 3.9942 0.0000
# 4 0.0000 0.0000 0.0000 7.5670 0.0000 2.8544
# 5 12.4119 11.8275 3.9942 0.0000 32.4053 0.0000
# 6 0.0000 0.0000 0.0000 2.8544 0.0000 22.2924
#
#
#
# Elastic Compliance Matrix: (Units=1/GPa)
#
#
# Indices 1 2 3 4 5 6 
#
# 1 0.010118 -0.002119 -0.002895 0.000000 -0.002745 0.000000
# 2 -0.002119 0.015064 0.000017 0.000000 -0.004689 0.000000
# 3 -0.002895 0.000017 0.044100 0.000000 -0.004333 0.000000
# 4 0.000000 0.000000 0.000000 0.138859 0.000000 -0.017780
# 5 -0.002745 -0.004689 -0.004333 0.000000 0.034156 0.000000
# 6 0.000000 0.000000 0.000000 -0.017780 0.000000 0.047135
#
#
# Mechanical properties :
#
#
# Convention : Reuss Voigt Hill
#
# Bulk Modulus (GPa) = 16.86671 29.40814 23.13743
# Shear Modulus (GPa) = 15.66465 24.12599 19.89532
#
# Velocity S-wave (km/s) = 2.76255 3.42840 3.11333
# Velocity P-wave (km/s) = 4.28869 5.47716 4.91895
#
# Compressibility (1/GPa) = 0.05928838
#
# Stress axis : x y z
#
# Youngs Moduli (GPa) = 98.82946 66.38170 22.67588
#
# Poissons Ratio (x) = 0.14067 0.06564
# Poissons Ratio (y) = 0.20943 -0.00038
# Poissons Ratio (z) = 0.28607 -0.00110
#
# Static dielectric constant tensor:
#      x y z
#    x 3.780930 0.000000 0.228590 
#    y 0.000000 3.530980 0.000000 
#    z 0.228590 0.000000 3.613590 
# 
# 
# High freq. dielectric constant tensor:
#      x y z
#    x 1.807090 0.000000 0.020620 
#    y 0.000000 1.765750 0.000000 
#    z 0.020620 0.000000 1.777130 
# 
# From -- ./inp_files/112645.got.cif
#   From: 2010.06.25/outbox.cif.g09.slc.cpg/sg12_57_cif.got.tgz:112645.got - 2010.06.28 00:19:55.
