data_PCOD8089807
_publ_section_title
;
Structure prediction by ZEFSAII (Michael W. Deem and Ramdas Pophale) SiO2 
 PCOD8089807
Probable space group: C 2/M
;
_chemical_formula_sum "Si O2"
_cell_formula_units_Z 64
_cell_length_a 23.949647
_cell_length_b 9.185152
_cell_length_c 16.315162
_cell_angle_alpha 90.000000
_cell_angle_beta 92.297597
_cell_angle_gamma 90.000000
_cell_volume 3586.142766
_symmetry_space_group_name_H-M "C 2/M"
_symmetry_group_IT_number 12
_symmetry_cell_setting 'monoclinic'
loop_
_space_group_symop_operation_xyz
x,y,z
-x,y,-z
-x,-y,-z
x,-y,z
1/2+x,1/2+y,z
1/2-x,1/2+y,-z
1/2-x,1/2-y,-z
1/2+x,1/2-y,z
loop_
_atom_site_type_symbol
_atom_site_label
_atom_site_fract_x
_atom_site_fract_y
_atom_site_fract_z
Si Si1 0.965981 0.666477 0.741453
Si Si2 0.879741 0.670126 0.879454
Si Si3 0.938177 0.170270 0.022729
Si Si4 0.573758 0.329039 0.789368
Si Si5 0.201350 0.832404 0.236817
Si Si6 0.697000 0.832648 0.531123
Si Si7 0.636936 0.833758 0.366926
Si Si8 0.673647 0.832698 0.710952
O O1 0.986164 0.500000 0.742832
O O2 0.930701 0.702197 0.820847
O O3 0.927230 0.701619 0.660172
O O4 0.019951 0.767402 0.738988
O O5 0.868559 0.500000 0.890074
O O6 0.823677 0.743316 0.840907
O O7 0.893249 0.740324 0.967713
O O8 0.929164 0.214817 0.115886
O O9 0.928548 0.000000 0.006424
O O10 0.000000 0.218081 0.000000
O O11 0.573979 0.500000 0.776883
O O12 0.629761 0.264776 0.755687
O O13 0.179346 0.770941 0.321856
O O14 0.267890 0.816042 0.238503
O O15 0.182846 0.000000 0.228709
O O16 0.750000 0.750000 0.500000
O O17 0.645494 0.813399 0.464643
O O18 0.678255 0.772189 0.618223
O O19 0.714879 0.000000 0.542062
O O20 0.650143 0.000000 0.340064
O O21 0.653561 0.000000 0.709416
#
# Coordination Sequence:
#
# PCOD8089807 Si02
#       8
#     8   8   8   8   8   8   8   8
#     4   9  18  33  52  78 110 142 176 218 270 325
#     4  10  20  33  55  85 111 140 180 224 272 322
#     4  10  20  36  56  81 111 139 179 232 279 323
#     4  11  23  37  56  80 107 146 184 223 276 327
#     4  10  19  33  54  80 111 145 180 220 273 324
#     4  10  19  34  56  83 112 142 184 229 272 319
#     4   9  18  32  54  83 111 140 179 228 272 318
#     4  10  22  38  55  79 112 150 184 221 273 329
#
# _framework density 17.846473
#
# number of rings (size 3 to 8) (size 9 to 14) (size 15 to 20)
#    0.000    2.125    2.500    1.875    0.000    4.750 
#    0.000    1.250    0.000    3.750    0.000    0.000 
#    0.000    0.000    0.000    0.000    0.000    0.000 
#
# Total GULP energy -396877.671895 kJ/mol
# GULP energy per Si atom -12402.427247 kJ/mol
# Density = 1.780585 g / cm^3
# Si number density = 17.846473 Si / 1000 Ang^3
#
#
#
# Elastic Constant Matrix: (Units=GPa)
#
#
# Indices 1 2 3 4 5 6 
#
# 1 105.3924 57.0187 63.2205 0.0000 4.7526 0.0000
# 2 57.0187 82.6183 51.3663 0.0000 2.8376 0.0000
# 3 63.2205 51.3663 113.3740 0.0000 7.8625 0.0000
# 4 0.0000 0.0000 0.0000 27.4914 0.0000 0.5837
# 5 4.7526 2.8376 7.8625 0.0000 30.3155 0.0000
# 6 0.0000 0.0000 0.0000 0.5837 0.0000 33.0647
#
#
#
# Elastic Compliance Matrix: (Units=1/GPa)
#
#
# Indices 1 2 3 4 5 6 
#
# 1 0.017682 -0.008460 -0.005998 0.000000 -0.000425 0.000000
# 2 -0.008460 0.020903 -0.004796 0.000000 0.000613 0.000000
# 3 -0.005998 -0.004796 0.014502 0.000000 -0.002372 0.000000
# 4 0.000000 0.000000 0.000000 0.036389 0.000000 -0.000642
# 5 -0.000425 0.000613 -0.002372 0.000000 0.033611 0.000000
# 6 0.000000 0.000000 0.000000 -0.000642 0.000000 0.030255
#
#
# Mechanical properties :
#
#
# Convention : Reuss Voigt Hill
#
# Bulk Modulus (GPa) = 68.58271 71.62173 70.10222
# Shear Modulus (GPa) = 25.41840 26.82626 26.12233
#
# Velocity S-wave (km/s) = 3.77806 3.88128 3.83002
# Velocity P-wave (km/s) = 7.58580 7.76563 7.67624
#
# Compressibility (1/GPa) = 0.01458093
#
# Stress axis : x y z
#
# Youngs Moduli (GPa) = 56.55433 47.84053 68.95543
#
# Poissons Ratio (x) = 0.40472 0.41358
# Poissons Ratio (y) = 0.47843 0.33068
# Poissons Ratio (z) = 0.33920 0.22942
#
# Static dielectric constant tensor:
#      x y z
#    x 3.172580 0.000000 0.259730 
#    y 0.000000 3.321940 0.000000 
#    z 0.259730 0.000000 3.396890 
# 
# 
# High freq. dielectric constant tensor:
#      x y z
#    x 1.678660 0.000000 0.024460 
#    y 0.000000 1.695150 0.000000 
#    z 0.024460 0.000000 1.686130 
# 
# From -- ./inp_files/281319.got.cif
#   From: 2010.06.25/outbox.cif.g09.slc.cpg/sg12_141_cif.got.tgz:281319.got - 2010.06.28 00:19:55.
