data_PCOD8089833
_publ_section_title
;
Structure prediction by ZEFSAII (Michael W. Deem and Ramdas Pophale) SiO2 
 PCOD8089833
Probable space group: C 2/M
;
_chemical_formula_sum "Si O2"
_cell_formula_units_Z 64
_cell_length_a 21.399028
_cell_length_b 17.990452
_cell_length_c 15.891441
_cell_angle_alpha 90.000000
_cell_angle_beta 147.383081
_cell_angle_gamma 90.000000
_cell_volume 3297.645021
_symmetry_space_group_name_H-M "C 2/M"
_symmetry_group_IT_number 12
_symmetry_cell_setting 'monoclinic'
loop_
_space_group_symop_operation_xyz
x,y,z
-x,y,-z
-x,-y,-z
x,-y,z
1/2+x,1/2+y,z
1/2-x,1/2+y,-z
1/2-x,1/2-y,-z
1/2+x,1/2-y,z
loop_
_atom_site_type_symbol
_atom_site_label
_atom_site_fract_x
_atom_site_fract_y
_atom_site_fract_z
Si Si1 0.491620 0.689032 0.313987
Si Si2 0.912606 0.278098 0.836787
Si Si3 0.634844 0.912894 0.472047
Si Si4 0.292340 0.918803 0.745716
Si Si5 0.679233 0.776552 0.625764
Si Si6 0.158676 0.917786 0.420118
Si Si7 0.211476 0.166218 0.801835
Si Si8 0.548310 0.175980 0.834323
O O1 0.587081 0.718232 0.486600
O O2 0.549215 0.637914 0.305965
O O3 0.393099 0.645901 0.254463
O O4 0.422745 0.759089 0.198184
O O5 0.895940 0.359947 0.858842
O O6 0.793896 0.232763 0.699430
O O7 0.959264 0.284719 0.796533
O O8 0.000000 0.236245 0.000000
O O9 0.639435 0.862214 0.563286
O O10 0.749719 0.894074 0.547907
O O11 0.518999 0.892383 0.287270
O O12 0.628578 0.000000 0.489466
O O13 0.223934 0.919400 0.581791
O O14 0.204416 0.894297 0.719746
O O15 0.344451 0.000000 0.824088
O O16 0.701724 0.750590 0.748796
O O17 0.110171 0.000000 0.343702
O O18 0.333102 0.151889 0.987370
#
# Coordination Sequence:
#
# PCOD8089833 Si02
#       8
#     8   8   8   8   8   8   8   8
#     4  11  21  36  56  77 109 149 191 226 262 326
#     4  11  18  33  54  84 115 138 179 230 284 332
#     4  10  21  37  59  86 112 140 185 239 288 333
#     4  10  20  32  51  80 111 144 174 210 270 332
#     4  10  20  35  58  79 107 147 188 230 277 324
#     4  10  19  33  54  81 109 140 176 220 271 330
#     4  11  22  37  52  81 114 148 186 225 270 327
#     4  11  21  34  56  83 108 143 182 231 286 325
#
# _framework density 19.407789000000001
#
# number of rings (size 3 to 8) (size 9 to 14) (size 15 to 20)
#    0.000    1.500    6.250    1.500    0.000    3.250 
#    0.000    1.250    0.000    7.125    0.000    0.000 
#    0.000    0.000    0.000    0.000    0.000    0.000 
#
# Total GULP energy -396484.524615 kJ/mol
# GULP energy per Si atom -12390.141394 kJ/mol
# Density = 1.936362 g / cm^3
# Si number density = 19.407789 Si / 1000 Ang^3
#
#
#
# Elastic Constant Matrix: (Units=GPa)
#
#
# Indices 1 2 3 4 5 6 
#
# 1 47.2820 16.3755 15.7863 0.0000 10.1956 0.0000
# 2 16.3755 95.2137 28.8176 0.0000 -0.5562 0.0000
# 3 15.7863 28.8176 66.2718 0.0000 10.7011 0.0000
# 4 0.0000 0.0000 0.0000 10.0516 0.0000 -3.2715
# 5 10.1956 -0.5562 10.7011 0.0000 23.7961 0.0000
# 6 0.0000 0.0000 0.0000 -3.2715 0.0000 9.2421
#
#
#
# Elastic Compliance Matrix: (Units=1/GPa)
#
#
# Indices 1 2 3 4 5 6 
#
# 1 0.025445 -0.003535 -0.002966 0.000000 -0.009651 0.000000
# 2 -0.003535 0.012768 -0.005395 0.000000 0.004239 0.000000
# 3 -0.002966 -0.005395 0.019363 0.000000 -0.007563 0.000000
# 4 0.000000 0.000000 0.000000 0.112440 0.000000 0.039801
# 5 -0.009651 0.004239 -0.007563 0.000000 0.049659 0.000000
# 6 0.000000 0.000000 0.000000 0.039801 0.000000 0.122289
#
#
# Mechanical properties :
#
#
# Convention : Reuss Voigt Hill
#
# Bulk Modulus (GPa) = 29.59822 36.74738 33.17280
# Shear Modulus (GPa) = 13.26204 18.47050 15.86627
#
# Velocity S-wave (km/s) = 2.61691 3.08832 2.86233
# Velocity P-wave (km/s) = 4.94113 5.62960 5.29656
#
# Compressibility (1/GPa) = 0.03378582
#
# Stress axis : x y z
#
# Youngs Moduli (GPa) = 39.29997 78.31984 51.64559
#
# Poissons Ratio (x) = 0.27687 0.15316
# Poissons Ratio (y) = 0.13893 0.27860
# Poissons Ratio (z) = 0.11655 0.42250
#
# Static dielectric constant tensor:
#      x y z
#    x 3.511650 0.000000 0.017500 
#    y 0.000000 3.637560 0.000000 
#    z 0.017500 0.000000 3.424040 
# 
# 
# High freq. dielectric constant tensor:
#      x y z
#    x 1.747400 0.000000 0.005380 
#    y 0.000000 1.735450 0.000000 
#    z 0.005380 0.000000 1.745490 
# 
# From -- ./inp_files/290453.got.cif
#   From: 2010.06.25/outbox.cif.g09.slc.cpg/sg12_146_cif.got.tgz:290453.got - 2010.06.28 00:19:55.
