data_PCOD8089318
_publ_section_title
;
Structure prediction by ZEFSAII (Michael W. Deem and Ramdas Pophale) SiO2 
 PCOD8089318
Probable space group: C 2/M
;
_chemical_formula_sum "Si O2"
_cell_formula_units_Z 64
_cell_length_a 12.670233
_cell_length_b 18.976863
_cell_length_c 25.255661
_cell_angle_alpha 90.000000
_cell_angle_beta 35.210663
_cell_angle_gamma 90.000000
_cell_volume 3501.310584
_symmetry_space_group_name_H-M "C 2/M"
_symmetry_group_IT_number 12
_symmetry_cell_setting 'monoclinic'
loop_
_space_group_symop_operation_xyz
x,y,z
-x,y,-z
-x,-y,-z
x,-y,z
1/2+x,1/2+y,z
1/2-x,1/2+y,-z
1/2-x,1/2-y,-z
1/2+x,1/2-y,z
loop_
_atom_site_type_symbol
_atom_site_label
_atom_site_fract_x
_atom_site_fract_y
_atom_site_fract_z
Si Si1 0.744824 0.784743 0.750283
Si Si2 0.186382 0.302851 0.071535
Si Si3 0.989539 0.730041 0.443923
Si Si4 0.103958 0.922340 0.338092
Si Si5 0.110281 0.578998 0.688006
Si Si6 0.250907 0.864455 0.476237
Si Si7 0.727021 0.822333 0.170013
Si Si8 0.047183 0.078482 0.041635
O O1 0.529694 0.795446 0.835853
O O2 0.831605 0.861280 0.728232
O O3 0.814182 0.736838 0.769970
O O4 0.822238 0.753997 0.662658
O O5 0.276716 0.286243 0.092612
O O6 0.250000 0.250000 0.000000
O O7 0.257942 0.382153 0.027921
O O8 0.848809 0.794281 0.502417
O O9 0.916806 0.659831 0.445273
O O10 0.000000 0.706388 0.500000
O O11 0.211592 0.909585 0.348972
O O12 0.887720 0.915810 0.436379
O O13 0.145394 0.000000 0.297605
O O14 0.032804 0.500000 0.726104
O O15 0.166972 0.591026 0.604865
O O16 0.951725 0.632027 0.770201
O O17 0.886184 0.871326 0.130269
O O18 0.053085 0.000000 0.065622
O O19 0.000000 0.068827 0.000000
#
# Coordination Sequence:
#
# PCOD8089318 Si02
#       8
#     8   8   8   8   8   8   8   8
#     4  11  21  36  58  85 114 151 189 239 284 339
#     4  11  22  36  58  85 117 147 187 234 282 346
#     4  10  21  34  56  83 115 152 194 234 287 339
#     4  10  21  35  54  84 116 150 190 239 293 341
#     4  11  20  33  56  86 116 147 188 243 295 342
#     4  10  19  33  52  81 115 150 189 237 291 339
#     4  11  21  36  58  87 116 147 192 232 291 344
#     4   9  19  35  56  84 117 146 178 231 293 345
#
# _framework density 18.278870000000001
#
# number of rings (size 3 to 8) (size 9 to 14) (size 15 to 20)
#    0.000    1.625    3.750    2.625    0.000    2.000 
#    0.000    0.000    0.000    2.250    0.000    1.750 
#    0.000    0.000    0.000    0.000    0.000    0.000 
#
# Total GULP energy -396597.428272 kJ/mol
# GULP energy per Si atom -12393.669633 kJ/mol
# Density = 1.823727 g / cm^3
# Si number density = 18.278870 Si / 1000 Ang^3
#
#
#
# Elastic Constant Matrix: (Units=GPa)
#
#
# Indices 1 2 3 4 5 6 
#
# 1 46.7923 48.7587 35.2804 -0.0083 -3.3952 -0.0035
# 2 48.7587 131.9293 48.1876 -0.0056 6.9105 -0.0009
# 3 35.2804 48.1876 104.9445 -0.0258 -6.5426 0.0062
# 4 -0.0083 -0.0056 -0.0258 27.2882 0.0071 -2.6545
# 5 -3.3952 6.9105 -6.5426 0.0071 32.7130 0.0016
# 6 -0.0035 -0.0009 0.0062 -2.6545 0.0016 25.4346
#
#
#
# Elastic Compliance Matrix: (Units=1/GPa)
#
#
# Indices 1 2 3 4 5 6 
#
# 1 0.040432 -0.012470 -0.007535 0.000002 0.005324 0.000007
# 2 -0.012470 0.013213 -0.002156 -0.000002 -0.004517 -0.000001
# 3 -0.007535 -0.002156 0.013196 0.000009 0.002313 -0.000004
# 4 0.000002 -0.000002 0.000009 0.037022 -0.000006 0.003864
# 5 0.005324 -0.004517 0.002313 -0.000006 0.032538 -0.000003
# 6 0.000007 -0.000001 -0.000004 0.003864 -0.000003 0.039720
#
#
# Mechanical properties :
#
#
# Convention : Reuss Voigt Hill
#
# Bulk Modulus (GPa) = 44.40677 60.90217 52.65447
# Shear Modulus (GPa) = 21.93474 27.18311 24.55892
#
# Velocity S-wave (km/s) = 3.46787 3.86052 3.66945
# Velocity P-wave (km/s) = 6.35465 7.29809 6.84265
#
# Compressibility (1/GPa) = 0.02251909
#
# Stress axis : x y z
#
# Youngs Moduli (GPa) = 24.73280 75.68543 75.77891
#
# Poissons Ratio (x) = 0.94377 0.57099
# Poissons Ratio (y) = 0.30841 0.16341
# Poissons Ratio (z) = 0.18636 0.16321
#
# Static dielectric constant tensor:
#      x y z
#    x 3.233970 -0.000010 -0.150610 
#    y -0.000010 3.619780 0.000080 
#    z -0.150610 0.000080 3.670450 
# 
# 
# High freq. dielectric constant tensor:
#      x y z
#    x 1.676280 0.000000 -0.015940 
#    y 0.000000 1.709640 0.000000 
#    z -0.015940 0.000000 1.715070 
# 
# From -- ./inp_files/336669.got.cif
#   From: 2010.06.25/outbox.cif.g09.slc.cpg/sg12_169_cif.got.tgz:336669.got - 2010.06.28 00:19:55.
