data_PCOD8089542
_publ_section_title
;
Structure prediction by ZEFSAII (Michael W. Deem and Ramdas Pophale) SiO2 
 PCOD8089542
Probable space group: C 2/M
;
_chemical_formula_sum "Si O2"
_cell_formula_units_Z 64
_cell_length_a 24.962617
_cell_length_b 9.012854
_cell_length_c 29.330008
_cell_angle_alpha 90.000000
_cell_angle_beta 149.995521
_cell_angle_gamma 90.000000
_cell_volume 3299.844184
_symmetry_space_group_name_H-M "C 2/M"
_symmetry_group_IT_number 12
_symmetry_cell_setting 'monoclinic'
loop_
_space_group_symop_operation_xyz
x,y,z
-x,y,-z
-x,-y,-z
x,-y,z
1/2+x,1/2+y,z
1/2-x,1/2+y,-z
1/2-x,1/2-y,-z
1/2+x,1/2-y,z
loop_
_atom_site_type_symbol
_atom_site_label
_atom_site_fract_x
_atom_site_fract_y
_atom_site_fract_z
Si Si1 0.607694 0.829216 0.208720
Si Si2 0.489060 0.837376 0.439007
Si Si3 0.505942 0.823360 0.700899
Si Si4 0.448505 0.825763 0.009927
Si Si5 0.260045 0.825765 0.161410
Si Si6 0.285046 0.330275 0.270341
Si Si7 0.391488 0.676949 0.694664
Si Si8 0.338072 0.171586 0.502855
O O1 0.523781 0.783838 0.107812
O O2 0.725122 0.801413 0.273859
O O3 0.594276 0.726721 0.242797
O O4 0.592952 0.000000 0.212607
O O5 0.500000 0.850894 0.500000
O O6 0.409254 0.706436 0.367724
O O7 0.603608 0.798513 0.502187
O O8 0.450490 0.000000 0.391013
O O9 0.622385 0.772557 0.768514
O O10 0.488083 0.746359 0.736561
O O11 0.412689 0.761644 0.598090
O O12 0.501172 0.000000 0.702321
O O13 0.429071 0.000000 0.992439
O O14 0.500000 0.769330 0.000000
O O15 0.335096 0.747885 0.937868
O O16 0.237447 0.774072 0.196291
O O17 0.249535 0.000000 0.149588
O O18 0.270312 0.500000 0.243890
O O19 0.395483 0.500000 0.696356
O O20 0.280508 0.740887 0.590441
O O21 0.323261 0.000000 0.502405
#
# Coordination Sequence:
#
# PCOD8089542 Si02
#       8
#     8   8   8   8   8   8   8   8
#     4  10  22  40  60  83 119 160 189 229 298 357
#     4  10  19  33  53  79 117 159 194 234 292 351
#     4  10  21  40  61  81 117 159 196 239 293 350
#     4  10  20  39  63  88 120 155 190 234 293 352
#     4  11  22  37  61  90 117 150 193 239 289 346
#     4  11  21  35  56  83 118 154 193 237 286 349
#     4  11  23  38  60  88 115 149 201 251 288 338
#     4   9  18  35  56  82 116 154 194 238 290 343
#
# _framework density 19.394856000000001
#
# number of rings (size 3 to 8) (size 9 to 14) (size 15 to 20)
#    0.000    1.750    2.500    2.250    0.000    4.000 
#    0.000    2.500    0.000    0.000    0.000    0.000 
#    0.000    0.000    0.000    0.000    0.000    0.000 
#
# Total GULP energy -396718.063401 kJ/mol
# GULP energy per Si atom -12397.439481 kJ/mol
# Density = 1.935071 g / cm^3
# Si number density = 19.394856 Si / 1000 Ang^3
#
#
#
# Elastic Constant Matrix: (Units=GPa)
#
#
# Indices 1 2 3 4 5 6 
#
# 1 116.4347 40.6923 38.4314 0.0000 3.4471 0.0001
# 2 40.6923 50.7335 37.3426 -0.0003 4.3367 0.0012
# 3 38.4314 37.3426 99.7824 0.0001 6.3402 0.0001
# 4 0.0000 -0.0003 0.0001 37.6377 0.0000 7.4694
# 5 3.4471 4.3367 6.3402 0.0000 19.0895 0.0000
# 6 0.0001 0.0012 0.0001 7.4694 0.0000 39.3257
#
#
#
# Elastic Compliance Matrix: (Units=1/GPa)
#
#
# Indices 1 2 3 4 5 6 
#
# 1 0.012078 -0.008659 -0.001428 0.000000 0.000260 0.000000
# 2 -0.008659 0.033566 -0.009032 0.000001 -0.003062 -0.000001
# 3 -0.001428 -0.009032 0.014103 0.000000 -0.002374 0.000000
# 4 0.000000 0.000001 0.000000 0.027610 0.000000 -0.005244
# 5 0.000260 -0.003062 -0.002374 0.000000 0.053822 0.000000
# 6 0.000000 -0.000001 0.000000 -0.005244 0.000000 0.026425
#
#
# Mechanical properties :
#
#
# Convention : Reuss Voigt Hill
#
# Bulk Modulus (GPa) = 46.49241 55.54257 51.01749
# Shear Modulus (GPa) = 23.47295 29.24288 26.35792
#
# Velocity S-wave (km/s) = 3.48266 3.88721 3.69048
# Velocity P-wave (km/s) = 6.33999 6.98907 6.67243
#
# Compressibility (1/GPa) = 0.02150889
#
# Stress axis : x y z
#
# Youngs Moduli (GPa) = 82.79304 29.79222 70.90768
#
# Poissons Ratio (x) = 0.25797 0.10126
# Poissons Ratio (y) = 0.71690 0.64045
# Poissons Ratio (z) = 0.11823 0.26909
#
# Static dielectric constant tensor:
#      x y z
#    x 3.550100 0.000000 0.120660 
#    y 0.000000 3.466940 0.000000 
#    z 0.120660 0.000000 3.853620 
# 
# 
# High freq. dielectric constant tensor:
#      x y z
#    x 1.754680 0.000000 0.005160 
#    y 0.000000 1.738810 0.000000 
#    z 0.005160 0.000000 1.753460 
# 
# From -- ./inp_files/382552.got.cif
#   From: 2010.06.25/outbox.cif.g09.slc.cpg/sg12_192_cif.got.tgz:382552.got - 2010.06.28 00:19:55.
