data_PCOD8089964
_publ_section_title
;
Structure prediction by ZEFSAII (Michael W. Deem and Ramdas Pophale) SiO2 
 PCOD8089964
Probable space group: C 2/M
;
_chemical_formula_sum "Si O2"
_cell_formula_units_Z 64
_cell_length_a 19.897480
_cell_length_b 8.960236
_cell_length_c 24.315397
_cell_angle_alpha 90.000000
_cell_angle_beta 125.511445
_cell_angle_gamma 90.000000
_cell_volume 3528.767386
_symmetry_space_group_name_H-M "C 2/M"
_symmetry_group_IT_number 12
_symmetry_cell_setting 'monoclinic'
loop_
_space_group_symop_operation_xyz
x,y,z
-x,y,-z
-x,-y,-z
x,-y,z
1/2+x,1/2+y,z
1/2-x,1/2+y,-z
1/2-x,1/2-y,-z
1/2+x,1/2-y,z
loop_
_atom_site_type_symbol
_atom_site_label
_atom_site_fract_x
_atom_site_fract_y
_atom_site_fract_z
Si Si1 0.788390 0.826707 0.326107
Si Si2 0.221803 0.172483 0.187719
Si Si3 0.373343 0.827942 0.689047
Si Si4 0.885593 0.670459 0.208412
Si Si5 0.481479 0.323908 0.655723
Si Si6 0.991921 0.671948 0.159395
Si Si7 0.461467 0.675961 0.925779
Si Si8 0.461589 0.174668 0.423181
O O1 0.746975 0.775549 0.250066
O O2 0.722730 0.800726 0.343983
O O3 0.868048 0.730970 0.377725
O O4 0.812580 0.000000 0.332325
O O5 0.288003 0.194531 0.169989
O O6 0.133780 0.227047 0.123210
O O7 0.218752 0.000000 0.205518
O O8 0.399871 0.732073 0.648772
O O9 0.427666 0.778398 0.767541
O O10 0.392263 0.000000 0.684842
O O11 0.911443 0.500000 0.234344
O O12 0.934828 0.775094 0.273882
O O13 0.910380 0.706726 0.157248
O O14 0.478652 0.500000 0.650112
O O15 0.481852 0.256280 0.594906
O O16 0.997757 0.500000 0.145403
O O17 0.986355 0.765759 0.101160
O O18 0.469327 0.500000 0.929727
O O19 0.500000 0.743191 0.000000
O O20 0.500000 0.213544 0.500000
O O21 0.461427 0.000000 0.410488
#
# Coordination Sequence:
#
# PCOD8089964 Si02
#       8
#     8   8   8   8   8   8   8   8
#     4  11  21  35  58  87 113 139 183 238 277 319
#     4  10  19  33  55  78 106 147 186 224 273 331
#     4   9  19  35  55  81 114 145 177 227 281 328
#     4   9  18  33  53  77 106 141 181 226 276 328
#     4  11  21  33  55  85 113 143 183 230 274 322
#     4   9  17  32  52  75 104 139 181 224 273 328
#     4  10  21  35  51  76 110 146 185 229 277 329
#     4  11  24  41  59  80 113 154 187 219 272 337
#
# _framework density 18.136645000000001
#
# number of rings (size 3 to 8) (size 9 to 14) (size 15 to 20)
#    0.000    2.000    2.500    2.625    0.000    4.250 
#    0.000    1.250    0.000    0.000    0.000    0.000 
#    0.000    0.000    0.000    0.000    0.000    0.000 
#
# Total GULP energy -396842.345775 kJ/mol
# GULP energy per Si atom -12401.323305 kJ/mol
# Density = 1.809537 g / cm^3
# Si number density = 18.136645 Si / 1000 Ang^3
#
#
#
# Elastic Constant Matrix: (Units=GPa)
#
#
# Indices 1 2 3 4 5 6 
#
# 1 119.3336 40.7949 54.5046 0.0000 -19.8061 0.0000
# 2 40.7949 73.3243 46.3809 0.0000 -16.4672 0.0000
# 3 54.5046 46.3809 103.5423 0.0000 -17.2820 0.0000
# 4 0.0000 0.0000 0.0000 14.3610 0.0000 -6.9227
# 5 -19.8061 -16.4672 -17.2820 0.0000 24.1804 0.0000
# 6 0.0000 0.0000 0.0000 -6.9227 0.0000 29.9467
#
#
#
# Elastic Compliance Matrix: (Units=1/GPa)
#
#
# Indices 1 2 3 4 5 6 
#
# 1 0.012148 -0.002975 -0.004246 0.000000 0.004890 0.000000
# 2 -0.002975 0.021148 -0.006711 0.000000 0.007169 0.000000
# 3 -0.004246 -0.006711 0.015392 0.000000 0.002953 0.000000
# 4 0.000000 0.000000 0.000000 0.078365 0.000000 0.018115
# 5 0.004890 0.007169 0.002953 0.000000 0.052354 0.000000
# 6 0.000000 0.000000 0.000000 0.018115 0.000000 0.037580
#
#
# Mechanical properties :
#
#
# Convention : Reuss Voigt Hill
#
# Bulk Modulus (GPa) = 48.01916 64.39567 56.20742
# Shear Modulus (GPa) = 19.85779 23.99895 21.92837
#
# Velocity S-wave (km/s) = 3.31251 3.64157 3.48093
# Velocity P-wave (km/s) = 6.41593 7.29824 6.87126
#
# Compressibility (1/GPa) = 0.02082502
#
# Stress axis : x y z
#
# Youngs Moduli (GPa) = 82.32073 47.28618 64.97008
#
# Poissons Ratio (x) = 0.14066 0.27586
# Poissons Ratio (y) = 0.24487 0.43598
# Poissons Ratio (z) = 0.34953 0.31732
#
# Static dielectric constant tensor:
#      x y z
#    x 3.670510 0.000000 -0.006390 
#    y 0.000000 3.296600 0.000000 
#    z -0.006390 0.000000 3.193330 
# 
# 
# High freq. dielectric constant tensor:
#      x y z
#    x 1.720850 0.000000 -0.006600 
#    y 0.000000 1.702140 0.000000 
#    z -0.006600 0.000000 1.668940 
# 
# From -- ./inp_files/346195.got.cif
#   From: 2010.06.25/outbox.cif.g09.slc.cpg/sg12_174_cif.got.tgz:346195.got - 2010.06.28 00:19:55.
