data_PCOD8089870
_publ_section_title
;
Structure prediction by ZEFSAII (Michael W. Deem and Ramdas Pophale) SiO2 
 PCOD8089870
Probable space group: C 2/M
;
_chemical_formula_sum "Si O2"
_cell_formula_units_Z 64
_cell_length_a 24.127302
_cell_length_b 8.850971
_cell_length_c 20.535573
_cell_angle_alpha 90.000000
_cell_angle_beta 127.309811
_cell_angle_gamma 90.000000
_cell_volume 3487.992541
_symmetry_space_group_name_H-M "C 2/M"
_symmetry_group_IT_number 12
_symmetry_cell_setting 'monoclinic'
loop_
_space_group_symop_operation_xyz
x,y,z
-x,y,-z
-x,-y,-z
x,-y,z
1/2+x,1/2+y,z
1/2-x,1/2+y,-z
1/2-x,1/2-y,-z
1/2+x,1/2-y,z
loop_
_atom_site_type_symbol
_atom_site_label
_atom_site_fract_x
_atom_site_fract_y
_atom_site_fract_z
Si Si1 0.549152 0.320789 0.222977
Si Si2 0.811629 0.175045 0.123044
Si Si3 0.318251 0.177488 0.628627
Si Si4 0.043285 0.179033 0.724152
Si Si5 0.469647 0.174771 0.049389
Si Si6 0.675100 0.822792 0.516305
Si Si7 0.170053 0.174395 0.015347
Si Si8 0.462644 0.323018 0.540453
O O1 0.553619 0.500000 0.228131
O O2 0.626364 0.253495 0.283918
O O3 0.502632 0.255603 0.249244
O O4 0.515823 0.271137 0.131669
O O5 0.876575 0.233052 0.212713
O O6 0.833346 0.202964 0.064036
O O7 0.794106 0.000000 0.122602
O O8 0.744642 0.271895 0.095921
O O9 0.336142 0.222578 0.567052
O O10 0.242448 0.239894 0.593420
O O11 0.319307 0.000000 0.640482
O O12 0.012275 0.236252 0.633835
O O13 0.042157 0.000000 0.728128
O O14 0.389932 0.229462 0.992994
O O15 0.472825 0.000000 0.071695
O O16 0.500000 0.203260 0.000000
O O17 0.609272 0.767275 0.510402
O O18 0.685711 0.000000 0.532140
O O19 0.159176 0.000000 0.025116
O O20 0.500000 0.284877 0.500000
O O21 0.446651 0.500000 0.536906
#
# Coordination Sequence:
#
# PCOD8089870 Si02
#       8
#     8   8   8   8   8   8   8   8
#     4  11  20  35  59  85 112 142 183 236 281 328
#     4   9  17  32  53  79 109 142 178 224 277 326
#     4  10  20  34  55  84 113 144 186 234 282 334
#     4   9  17  32  54  81 110 140 181 227 273 324
#     4  11  24  40  57  80 113 151 187 226 275 334
#     4  10  20  34  54  81 112 149 189 234 282 327
#     4  10  19  33  54  82 109 140 182 227 276 325
#     4  10  20  35  56  81 112 151 188 226 278 338
#
# _framework density 18.348662999999998
#
# number of rings (size 3 to 8) (size 9 to 14) (size 15 to 20)
#    0.000    2.000    2.500    1.875    0.000    2.750 
#    0.000    1.875    0.000    6.000    0.000    0.000 
#    0.000    0.000    0.000    0.000    0.000    0.000 
#
# Total GULP energy -396915.206462 kJ/mol
# GULP energy per Si atom -12403.600202 kJ/mol
# Density = 1.830690 g / cm^3
# Si number density = 18.348663 Si / 1000 Ang^3
#
#
#
# Elastic Constant Matrix: (Units=GPa)
#
#
# Indices 1 2 3 4 5 6 
#
# 1 103.4899 45.3454 62.5549 0.0000 19.0641 0.0000
# 2 45.3454 68.0592 37.2311 0.0000 7.0981 0.0000
# 3 62.5549 37.2311 117.0725 0.0000 21.1285 0.0000
# 4 0.0000 0.0000 0.0000 27.7761 0.0000 6.4049
# 5 19.0641 7.0981 21.1285 0.0000 31.1565 0.0000
# 6 0.0000 0.0000 0.0000 6.4049 0.0000 29.6986
#
#
#
# Elastic Compliance Matrix: (Units=1/GPa)
#
#
# Indices 1 2 3 4 5 6 
#
# 1 0.017722 -0.007990 -0.006039 0.000000 -0.004928 0.000000
# 2 -0.007990 0.021391 -0.002890 0.000000 0.001975 0.000000
# 3 -0.006039 -0.002890 0.013562 0.000000 -0.004843 0.000000
# 4 0.000000 0.000000 0.000000 0.037886 0.000000 -0.008171
# 5 -0.004928 0.001975 -0.004843 0.000000 0.037946 0.000000
# 6 0.000000 0.000000 0.000000 -0.008171 0.000000 0.035434
#
#
# Mechanical properties :
#
#
# Convention : Reuss Voigt Hill
#
# Bulk Modulus (GPa) = 53.08698 64.32050 58.70374
# Shear Modulus (GPa) = 24.50294 27.29226 25.89760
#
# Velocity S-wave (km/s) = 3.65829 3.86090 3.76096
# Velocity P-wave (km/s) = 6.84392 7.41661 7.13601
#
# Compressibility (1/GPa) = 0.01883701
#
# Stress axis : x y z
#
# Youngs Moduli (GPa) = 56.42816 46.74763 73.73750
#
# Poissons Ratio (x) = 0.37351 0.44529
# Poissons Ratio (y) = 0.45085 0.21311
# Poissons Ratio (z) = 0.34076 0.13511
#
# Static dielectric constant tensor:
#      x y z
#    x 3.287760 0.000000 0.207970 
#    y 0.000000 3.280290 0.000000 
#    z 0.207970 0.000000 3.438960 
# 
# 
# High freq. dielectric constant tensor:
#      x y z
#    x 1.701400 0.000000 0.024000 
#    y 0.000000 1.707300 0.000000 
#    z 0.024000 0.000000 1.708340 
# 
# From -- ./inp_files/324261.got.cif
#   From: 2010.06.25/outbox.cif.g09.slc.cpg/sg12_163_cif.got.tgz:324261.got - 2010.06.28 00:19:55.
