data_PCOD8089197
_publ_section_title
;
Structure prediction by ZEFSAII (Michael W. Deem and Ramdas Pophale) SiO2 
 PCOD8089197
Probable space group: C 2/M
;
_chemical_formula_sum "Si O2"
_cell_formula_units_Z 56
_cell_length_a 19.081082
_cell_length_b 9.233919
_cell_length_c 21.225386
_cell_angle_alpha 90.000000
_cell_angle_beta 121.325630
_cell_angle_gamma 90.000000
_cell_volume 3194.608324
_symmetry_space_group_name_H-M "C 2/M"
_symmetry_group_IT_number 12
_symmetry_cell_setting 'monoclinic'
loop_
_space_group_symop_operation_xyz
x,y,z
-x,y,-z
-x,-y,-z
x,-y,z
1/2+x,1/2+y,z
1/2-x,1/2+y,-z
1/2-x,1/2-y,-z
1/2+x,1/2-y,z
loop_
_atom_site_type_symbol
_atom_site_label
_atom_site_fract_x
_atom_site_fract_y
_atom_site_fract_z
Si Si1 0.912891 0.170374 0.484274
Si Si2 0.965422 0.334960 0.917335
Si Si3 0.757179 0.331117 0.354333
Si Si4 0.134836 0.661681 0.938536
Si Si5 0.696342 0.328491 0.189586
Si Si6 0.824824 0.834350 0.562206
Si Si7 0.260618 0.667094 0.104343
O O1 0.838462 0.244972 0.412292
O O2 0.905202 0.204103 0.556929
O O3 0.000000 0.231820 0.500000
O O4 0.907559 0.000000 0.467877
O O5 0.931994 0.500000 0.908611
O O6 0.895187 0.229973 0.860634
O O7 0.037540 0.326422 0.899758
O O8 0.000000 0.279670 0.000000
O O9 0.780214 0.500000 0.365473
O O10 0.729919 0.279390 0.272940
O O11 0.677652 0.301623 0.363662
O O12 0.160733 0.500000 0.928834
O O13 0.162017 0.777325 0.899451
O O14 0.177305 0.693472 0.025882
O O15 0.695622 0.500000 0.180923
O O16 0.756098 0.257854 0.166145
O O17 0.750000 0.750000 0.500000
O O18 0.804397 0.000000 0.540782
O O19 0.274731 0.500000 0.127476
#
# Coordination Sequence:
#
# PCOD8089197 Si02
#       7
#     8   8   8   8   8   8   8
#     4   9  17  30  52  81 105 128 165 209 249 295
#     4  10  19  35  54  74 100 131 170 216 263 309
#     4   9  19  34  50  71 102 138 170 204 249 301
#     4   9  18  33  52  73  98 126 164 215 263 312
#     4  11  22  34  50  74 104 137 176 219 262 308
#     4   8  14  28  49  70  96 129 162 198 238 286
#     4  10  19  33  52  73  98 131 169 210 262 316
#
# _framework density 17.529534999999999
#
# number of rings (size 3 to 8) (size 9 to 14) (size 15 to 20)
#    0.000    2.571    1.429    0.857    0.000    2.857 
#    0.000    1.429    0.000    1.714    0.000    0.000 
#    0.000    0.000    0.000    0.000    0.000    0.000 
#
# Total GULP energy -346974.444227 kJ/mol
# GULP energy per Si atom -12391.944437 kJ/mol
# Density = 1.748964 g / cm^3
# Si number density = 17.529535 Si / 1000 Ang^3
#
#
#
# Elastic Constant Matrix: (Units=GPa)
#
#
# Indices 1 2 3 4 5 6 
#
# 1 118.9047 43.7471 58.7137 0.0000 -17.0392 0.0000
# 2 43.7471 67.3948 47.0907 0.0000 -9.8871 0.0000
# 3 58.7137 47.0907 105.3935 0.0000 -19.4794 0.0000
# 4 0.0000 0.0000 0.0000 23.5064 0.0000 -0.7250
# 5 -17.0392 -9.8871 -19.4794 0.0000 25.1724 0.0000
# 6 0.0000 0.0000 0.0000 -0.7250 0.0000 28.4097
#
#
#
# Elastic Compliance Matrix: (Units=1/GPa)
#
#
# Indices 1 2 3 4 5 6 
#
# 1 0.012812 -0.004754 -0.004383 0.000000 0.003414 0.000000
# 2 -0.004754 0.023367 -0.007807 0.000000 -0.000081 0.000000
# 3 -0.004383 -0.007807 0.016690 0.000000 0.006882 0.000000
# 4 0.000000 0.000000 0.000000 0.042575 0.000000 0.001086
# 5 0.003414 -0.000081 0.006882 0.000000 0.047331 0.000000
# 6 0.000000 0.000000 0.000000 0.001086 0.000000 0.035227
#
#
# Mechanical properties :
#
#
# Convention : Reuss Voigt Hill
#
# Bulk Modulus (GPa) = 52.68102 65.64401 59.16252
# Shear Modulus (GPa) = 22.91294 24.89380 23.90337
#
# Velocity S-wave (km/s) = 3.61931 3.77252 3.69671
# Velocity P-wave (km/s) = 6.89811 7.51697 7.21418
#
# Compressibility (1/GPa) = 0.01898217
#
# Stress axis : x y z
#
# Youngs Moduli (GPa) = 78.04950 42.79566 59.91515
#
# Poissons Ratio (x) = 0.20343 0.26259
# Poissons Ratio (y) = 0.37101 0.46778
# Poissons Ratio (z) = 0.34207 0.33412
#
# Static dielectric constant tensor:
#      x y z
#    x 3.554730 0.000000 -0.438550 
#    y 0.000000 3.302530 0.000000 
#    z -0.438550 0.000000 3.165690 
# 
# 
# High freq. dielectric constant tensor:
#      x y z
#    x 1.685690 0.000000 -0.025860 
#    y 0.000000 1.680170 0.000000 
#    z -0.025860 0.000000 1.647080 
# 
# From -- ./inp_files/319339.got.cif
#   From: 2010.06.25/outbox.cif.g09.slc.cpg/sg12_160_cif.got.tgz:319339.got - 2010.06.28 00:19:55.
