data_PCOD8089754
_publ_section_title
;
Structure prediction by ZEFSAII (Michael W. Deem and Ramdas Pophale) SiO2 
 PCOD8089754
Probable space group: C 2/M
;
_chemical_formula_sum "Si O2"
_cell_formula_units_Z 48
_cell_length_a 5.295612
_cell_length_b 25.798333
_cell_length_c 16.596427
_cell_angle_alpha 90.000000
_cell_angle_beta 87.898576
_cell_angle_gamma 90.000000
_cell_volume 2265.845185
_symmetry_space_group_name_H-M "C 2/M"
_symmetry_group_IT_number 12
_symmetry_cell_setting 'monoclinic'
loop_
_space_group_symop_operation_xyz
x,y,z
-x,y,-z
-x,-y,-z
x,-y,z
1/2+x,1/2+y,z
1/2-x,1/2+y,-z
1/2-x,1/2-y,-z
1/2+x,1/2-y,z
loop_
_atom_site_type_symbol
_atom_site_label
_atom_site_fract_x
_atom_site_fract_y
_atom_site_fract_z
Si Si1 0.771188 0.620445 0.326029
Si Si2 0.746073 0.809198 0.534076
Si Si3 0.751471 0.728900 0.090061
Si Si4 0.795308 0.942828 0.137255
Si Si5 0.296913 0.883998 0.135881
Si Si6 0.730515 0.441582 0.672020
O O1 0.764899 0.677666 0.369739
O O2 0.784543 0.629882 0.230651
O O3 0.520178 0.588628 0.353963
O O4 0.014088 0.588663 0.355596
O O5 0.500000 0.836810 0.500000
O O6 0.750000 0.750000 0.500000
O O7 0.000000 0.836834 0.500000
O O8 0.489727 0.746582 0.135866
O O9 0.773656 0.667758 0.085256
O O10 0.750000 0.750000 0.000000
O O11 0.560947 0.909635 0.106742
O O12 0.773942 0.946068 0.232564
O O13 0.065768 0.919600 0.109905
O O14 0.778038 0.000000 0.099444
O O15 0.732977 0.500000 0.635295
#
# Coordination Sequence:
#
# PCOD8089754 Si02
#       6
#     8   8   8   8   8   8
#     4  10  19  33  54  79 107 140 180 229 263 317
#     4  10  21  38  54  71  98 142 188 215 278 325
#     4  10  21  38  56  80 111 152 192 220 275 327
#     4   9  17  30  52  84 120 146 174 224 282 330
#     4  10  19  33  54  86 114 141 189 230 269 322
#     4   9  17  30  52  80 110 141 173 218 277 325
#
# _framework density 21.184149999999999
#
# number of rings (size 3 to 8) (size 9 to 14) (size 15 to 20)
#    0.000    2.333    0.000    3.000    0.000    4.000 
#    6.000    0.000    0.000   10.000    0.000   46.667 
#    0.000    0.000    0.000    0.000    0.000    1.000 
#
# Total GULP energy -297331.394697 kJ/mol
# GULP energy per Si atom -12388.808112 kJ/mol
# Density = 2.113593 g / cm^3
# Si number density = 21.184150 Si / 1000 Ang^3
#
#
#
# Elastic Constant Matrix: (Units=GPa)
#
#
# Indices 1 2 3 4 5 6 
#
# 1 207.4227 45.8381 13.0635 0.0000 11.2938 0.0000
# 2 45.8381 143.2619 33.5286 0.0000 10.0386 0.0000
# 3 13.0635 33.5286 31.1981 0.0000 5.1316 0.0000
# 4 0.0000 0.0000 0.0000 27.0974 0.0000 6.3789
# 5 11.2938 10.0386 5.1316 0.0000 6.9682 0.0000
# 6 0.0000 0.0000 0.0000 6.3789 0.0000 17.0513
#
#
#
# Elastic Compliance Matrix: (Units=1/GPa)
#
#
# Indices 1 2 3 4 5 6 
#
# 1 0.005487 -0.001323 0.000311 0.000000 -0.007216 0.000000
# 2 -0.001323 0.009945 -0.009250 0.000000 -0.005371 0.000000
# 3 0.000311 -0.009250 0.045235 0.000000 -0.020490 0.000000
# 4 0.000000 0.000000 0.000000 0.040468 0.000000 -0.015139
# 5 -0.007216 -0.005371 -0.020490 0.000000 0.178030 0.000000
# 6 0.000000 0.000000 0.000000 -0.015139 0.000000 0.064310
#
#
# Mechanical properties :
#
#
# Convention : Reuss Voigt Hill
#
# Bulk Modulus (GPa) = 24.91162 62.97144 43.94153
# Shear Modulus (GPa) = 13.24930 29.52022 21.38476
#
# Velocity S-wave (km/s) = 2.50358 3.73702 3.18066
# Velocity P-wave (km/s) = 4.48802 6.95778 5.85461
#
# Compressibility (1/GPa) = 0.04014190
#
# Stress axis : x y z
#
# Youngs Moduli (GPa) = 182.25945 100.55639 22.10701
#
# Poissons Ratio (x) = 0.13300 -0.00687
# Poissons Ratio (y) = 0.24107 0.20450
# Poissons Ratio (z) = -0.05668 0.93018
#
# Static dielectric constant tensor:
#      x y z
#    x 6.361960 0.000000 -0.093490 
#    y 0.000000 3.814150 0.000000 
#    z -0.093490 0.000000 3.357220 
# 
# 
# High freq. dielectric constant tensor:
#      x y z
#    x 1.867840 0.000000 0.003020 
#    y 0.000000 1.823970 0.000000 
#    z 0.003020 0.000000 1.780890 
# 
# From -- ./inp_files/253157.got.cif
#   From: 2010.06.25/outbox.cif.g09.slc.cpg/sg12_127_cif.got.tgz:253157.got - 2010.06.28 00:19:55.
