data_PCOD8089386
_publ_section_title
;
Structure prediction by ZEFSAII (Michael W. Deem and Ramdas Pophale) SiO2 
 PCOD8089386
Probable space group: C 2/M
;
_chemical_formula_sum "Si O2"
_cell_formula_units_Z 56
_cell_length_a 19.912572
_cell_length_b 8.869996
_cell_length_c 19.173676
_cell_angle_alpha 90.000000
_cell_angle_beta 96.459733
_cell_angle_gamma 90.000000
_cell_volume 3365.039102
_symmetry_space_group_name_H-M "C 2/M"
_symmetry_group_IT_number 12
_symmetry_cell_setting 'monoclinic'
loop_
_space_group_symop_operation_xyz
x,y,z
-x,y,-z
-x,-y,-z
x,-y,z
1/2+x,1/2+y,z
1/2-x,1/2+y,-z
1/2-x,1/2-y,-z
1/2+x,1/2-y,z
loop_
_atom_site_type_symbol
_atom_site_label
_atom_site_fract_x
_atom_site_fract_y
_atom_site_fract_z
Si Si1 0.209167 0.175433 0.597643
Si Si2 0.609289 0.677932 0.832410
Si Si3 0.990594 0.825533 0.578802
Si Si4 0.305100 0.168857 0.052318
Si Si5 0.452594 0.169798 0.054015
Si Si6 0.603597 0.177595 0.682238
Si Si7 0.163531 0.173047 0.438687
O O1 0.172180 0.266728 0.653962
O O2 0.171708 0.214833 0.520980
O O3 0.287563 0.224723 0.602845
O O4 0.204988 0.000000 0.615221
O O5 0.612934 0.500000 0.828035
O O6 0.679834 0.741980 0.873371
O O7 0.546586 0.729415 0.875241
O O8 0.596606 0.745796 0.755850
O O9 0.913370 0.797221 0.593014
O O10 0.000000 0.778474 0.500000
O O11 0.037805 0.720898 0.630479
O O12 0.011644 0.000000 0.591551
O O13 0.375258 0.164806 0.016557
O O14 0.280377 0.000000 0.067457
O O15 0.250000 0.250000 0.000000
O O16 0.477804 0.000000 0.074641
O O17 0.500000 0.242897 0.000000
O O18 0.606900 0.000000 0.692049
O O19 0.184403 0.000000 0.429741
#
# Coordination Sequence:
#
# PCOD8089386 Si02
#       7
#     8   8   8   8   8   8   8
#     4  10  19  33  53  75 101 135 173 215 268 320
#     4  10  20  34  54  79 108 141 178 217 264 315
#     4  10  19  35  55  77 105 138 178 223 271 319
#     4   9  17  31  53  81 108 136 169 208 252 302
#     4   8  16  32  54  79 108 139 171 210 253 303
#     4  12  23  35  53  77 106 140 181 224 271 322
#     4   9  18  33  52  75 102 131 169 220 269 317
#
# _framework density 16.64171
#
# number of rings (size 3 to 8) (size 9 to 14) (size 15 to 20)
#    0.857    1.429    1.429    3.000    0.000    1.714 
#    0.000    0.000    3.143    0.000    0.000    0.000 
#    0.000    0.000    0.000    0.000    0.000    0.000 
#
# Total GULP energy -347058.931438 kJ/mol
# GULP energy per Si atom -12394.961837 kJ/mol
# Density = 1.660383 g / cm^3
# Si number density = 16.641710 Si / 1000 Ang^3
#
#
#
# Elastic Constant Matrix: (Units=GPa)
#
#
# Indices 1 2 3 4 5 6 
#
# 1 76.2281 41.6657 44.0257 0.0000 -7.5639 0.0000
# 2 41.6657 127.7416 59.5917 0.0000 -6.3250 0.0000
# 3 44.0257 59.5917 102.9049 0.0000 -9.1456 0.0000
# 4 0.0000 0.0000 0.0000 28.4721 0.0000 1.6198
# 5 -7.5639 -6.3250 -9.1456 0.0000 23.2857 0.0000
# 6 0.0000 0.0000 0.0000 1.6198 0.0000 28.8364
#
#
#
# Elastic Compliance Matrix: (Units=1/GPa)
#
#
# Indices 1 2 3 4 5 6 
#
# 1 0.018501 -0.003177 -0.005821 0.000000 0.002860 0.000000
# 2 -0.003177 0.011277 -0.005171 0.000000 0.000000 0.000000
# 3 -0.005821 -0.005171 0.015449 0.000000 0.002772 0.000000
# 4 0.000000 0.000000 0.000000 0.035235 0.000000 -0.001979
# 5 0.002860 0.000000 0.002772 0.000000 0.044963 0.000000
# 6 0.000000 0.000000 0.000000 -0.001979 0.000000 0.034790
#
#
# Mechanical properties :
#
#
# Convention : Reuss Voigt Hill
#
# Bulk Modulus (GPa) = 59.21335 66.38230 62.79783
# Shear Modulus (GPa) = 25.74898 26.89161 26.32030
#
# Velocity S-wave (km/s) = 3.93778 4.02421 3.98123
# Velocity P-wave (km/s) = 7.50556 7.84653 7.67794
#
# Compressibility (1/GPa) = 0.01688808
#
# Stress axis : x y z
#
# Youngs Moduli (GPa) = 54.05098 88.67627 64.72884
#
# Poissons Ratio (x) = 0.28175 0.37679
# Poissons Ratio (y) = 0.17174 0.33472
# Poissons Ratio (z) = 0.31464 0.45855
#
# Static dielectric constant tensor:
#      x y z
#    x 3.101120 0.000000 -0.051220 
#    y 0.000000 3.169490 0.000000 
#    z -0.051220 0.000000 2.925710 
# 
# 
# High freq. dielectric constant tensor:
#      x y z
#    x 1.633330 0.000000 -0.005130 
#    y 0.000000 1.649760 0.000000 
#    z -0.005130 0.000000 1.615180 
# 
# From -- ./inp_files/280378.got.cif
#   From: 2010.06.25/outbox.cif.g09.slc.cpg/sg12_141_cif.got.tgz:280378.got - 2010.06.28 00:19:55.
