data_PCOD8089252
_publ_section_title
;
Structure prediction by ZEFSAII (Michael W. Deem and Ramdas Pophale) SiO2 
 PCOD8089252
Probable space group: C 2/M
;
_chemical_formula_sum "Si O2"
_cell_formula_units_Z 48
_cell_length_a 20.419043
_cell_length_b 9.009952
_cell_length_c 15.262563
_cell_angle_alpha 90.000000
_cell_angle_beta 67.843988
_cell_angle_gamma 90.000000
_cell_volume 2600.587888
_symmetry_space_group_name_H-M "C 2/M"
_symmetry_group_IT_number 12
_symmetry_cell_setting 'monoclinic'
loop_
_space_group_symop_operation_xyz
x,y,z
-x,y,-z
-x,-y,-z
x,-y,z
1/2+x,1/2+y,z
1/2-x,1/2+y,-z
1/2-x,1/2-y,-z
1/2+x,1/2-y,z
loop_
_atom_site_type_symbol
_atom_site_label
_atom_site_fract_x
_atom_site_fract_y
_atom_site_fract_z
Si Si1 0.910208 0.827314 0.413024
Si Si2 0.430603 0.327126 0.723937
Si Si3 0.353653 0.824191 0.607953
Si Si4 0.194118 0.176500 0.684907
Si Si5 0.902437 0.176543 0.114589
Si Si6 0.944687 0.175926 0.909540
O O1 0.903114 0.740305 0.507297
O O2 0.852421 0.765839 0.373243
O O3 0.987368 0.796470 0.336234
O O4 0.898384 0.000000 0.438524
O O5 0.412595 0.500000 0.719503
O O6 0.381047 0.230028 0.687556
O O7 0.414366 0.270998 0.831291
O O8 0.273754 0.764360 0.635130
O O9 0.356842 0.000000 0.603347
O O10 0.161174 0.238575 0.792940
O O11 0.192175 0.000000 0.687120
O O12 0.976399 0.239225 0.115009
O O13 0.903384 0.000000 0.119147
O O14 0.894474 0.226708 0.016342
O O15 0.950823 0.000000 0.903722
#
# Coordination Sequence:
#
# PCOD8089252 Si02
#       6
#     8   8   8   8   8   8
#     4  10  19  34  55  73  91 124 169 211 242 273
#     4  10  19  33  52  75  99 125 160 203 245 282
#     4  11  23  34  46  69 103 137 162 192 240 295
#     4   9  17  31  49  71  99 128 159 198 245 289
#     4   8  12  23  46  75  99 117 150 202 247 280
#     4   8  13  23  46  77  99 116 150 203 248 277
#
# _framework density 18.457363999999998
#
# number of rings (size 3 to 8) (size 9 to 14) (size 15 to 20)
#    0.000    2.667    1.667    2.500    0.000    2.667 
#    0.000    1.667    0.000    0.000    0.000    4.667 
#    0.000    0.000    0.000    0.000    0.000    0.000 
#
# Total GULP energy -297473.771590 kJ/mol
# GULP energy per Si atom -12394.740483 kJ/mol
# Density = 1.841535 g / cm^3
# Si number density = 18.457364 Si / 1000 Ang^3
#
#
#
# Elastic Constant Matrix: (Units=GPa)
#
#
# Indices 1 2 3 4 5 6 
#
# 1 73.7173 18.5836 19.7032 0.0000 21.3133 0.0000
# 2 18.5836 24.4797 17.1282 0.0000 3.7270 0.0000
# 3 19.7032 17.1282 119.1184 0.0000 24.2948 0.0000
# 4 0.0000 0.0000 0.0000 8.0085 0.0000 2.0274
# 5 21.3133 3.7270 24.2948 0.0000 28.5124 0.0000
# 6 0.0000 0.0000 0.0000 2.0274 0.0000 20.1974
#
#
#
# Elastic Compliance Matrix: (Units=1/GPa)
#
#
# Indices 1 2 3 4 5 6 
#
# 1 0.021397 -0.015142 0.001811 0.000000 -0.015558 0.000000
# 2 -0.015142 0.056140 -0.007722 0.000000 0.010560 0.000000
# 3 0.001811 -0.007722 0.011227 0.000000 -0.009911 0.000000
# 4 0.000000 0.000000 0.000000 0.128123 0.000000 -0.012861
# 5 -0.015558 0.010560 -0.009911 0.000000 0.053767 0.000000
# 6 0.000000 0.000000 0.000000 -0.012861 0.000000 0.050802
#
#
# Mechanical properties :
#
#
# Convention : Reuss Voigt Hill
#
# Bulk Modulus (GPa) = 21.43180 36.46060 28.94620
# Shear Modulus (GPa) = 13.18866 22.13702 17.66284
#
# Velocity S-wave (km/s) = 2.67600 3.46693 3.09682
# Velocity P-wave (km/s) = 4.60268 5.98523 5.33890
#
# Compressibility (1/GPa) = 0.04665965
#
# Stress axis : x y z
#
# Youngs Moduli (GPa) = 46.73644 17.81260 89.07010
#
# Poissons Ratio (x) = 0.26971 -0.16133
# Poissons Ratio (y) = 0.70767 0.68776
# Poissons Ratio (z) = -0.08465 0.13754
#
# Static dielectric constant tensor:
#      x y z
#    x 3.415670 0.000000 0.055730 
#    y 0.000000 2.828240 0.000000 
#    z 0.055730 0.000000 3.855460 
# 
# 
# High freq. dielectric constant tensor:
#      x y z
#    x 1.701930 0.000000 0.007200 
#    y 0.000000 1.657280 0.000000 
#    z 0.007200 0.000000 1.737980 
# 
# From -- ./inp_files/229813.got.cif
#   From: 2010.06.25/outbox.cif.g09.slc.cpg/sg12_115_cif.got.tgz:229813.got - 2010.06.28 00:19:55.
