data_PCOD8089990
_publ_section_title
;
Structure prediction by ZEFSAII (Michael W. Deem and Ramdas Pophale) SiO2 
 PCOD8089990
Probable space group: C 2/M
;
_chemical_formula_sum "Si O2"
_cell_formula_units_Z 56
_cell_length_a 18.023976
_cell_length_b 9.034411
_cell_length_c 18.601178
_cell_angle_alpha 90.000000
_cell_angle_beta 76.548170
_cell_angle_gamma 90.000000
_cell_volume 2945.845085
_symmetry_space_group_name_H-M "C 2/M"
_symmetry_group_IT_number 12
_symmetry_cell_setting 'monoclinic'
loop_
_space_group_symop_operation_xyz
x,y,z
-x,y,-z
-x,-y,-z
x,-y,z
1/2+x,1/2+y,z
1/2-x,1/2+y,-z
1/2-x,1/2-y,-z
1/2+x,1/2-y,z
loop_
_atom_site_type_symbol
_atom_site_label
_atom_site_fract_x
_atom_site_fract_y
_atom_site_fract_z
Si Si1 0.742732 0.824603 0.713440
Si Si2 0.373542 0.828038 0.141573
Si Si3 0.412905 0.666845 0.995669
Si Si4 0.021648 0.670365 0.577126
Si Si5 0.412488 0.324817 0.711226
Si Si6 0.545136 0.172026 0.150761
Si Si7 0.305230 0.825607 0.431458
O O1 0.688110 0.763086 0.788663
O O2 0.828400 0.770497 0.708022
O O3 0.714256 0.763009 0.643278
O O4 0.736424 0.000000 0.714282
O O5 0.362316 0.741616 0.069283
O O6 0.456206 0.800615 0.156820
O O7 0.360342 0.000000 0.127962
O O8 0.384095 0.500000 0.989580
O O9 0.500000 0.670431 0.000000
O O10 0.403637 0.757679 0.924048
O O11 0.008656 0.500000 0.603122
O O12 0.108649 0.717997 0.569124
O O13 0.000000 0.697001 0.500000
O O14 0.969849 0.775805 0.636484
O O15 0.416294 0.500000 0.719655
O O16 0.434501 0.250036 0.780294
O O17 0.564932 0.000000 0.151200
O O18 0.250000 0.750000 0.500000
O O19 0.292035 0.000000 0.439000
#
# Coordination Sequence:
#
# PCOD8089990 Si02
#       7
#     8   8   8   8   8   8   8
#     4   9  19  35  53  74 103 139 176 215 260 310
#     4   9  17  33  56  77 100 136 179 217 259 315
#     4   9  17  30  50  79 111 136 167 217 268 312
#     4  10  21  37  57  81 109 140 174 214 261 314
#     4  11  22  35  53  77 106 139 176 219 264 309
#     4  10  19  33  55  79 104 138 178 217 262 317
#     4  10  20  36  57  80 107 139 175 215 259 308
#
# _framework density 19.009823999999998
#
# number of rings (size 3 to 8) (size 9 to 14) (size 15 to 20)
#    0.000    2.286    0.000    3.000    0.000    5.429 
#    0.000    3.571    0.000    0.000    0.000    0.000 
#    0.000    0.000    0.000    0.000    0.000    0.000 
#
# Total GULP energy -347273.570300 kJ/mol
# GULP energy per Si atom -12402.627511 kJ/mol
# Density = 1.896656 g / cm^3
# Si number density = 19.009824 Si / 1000 Ang^3
#
#
#
# Elastic Constant Matrix: (Units=GPa)
#
#
# Indices 1 2 3 4 5 6 
#
# 1 96.5918 53.0630 67.7386 0.0000 -8.7920 0.0000
# 2 53.0630 84.6109 65.3727 0.0000 1.0026 0.0000
# 3 67.7386 65.3727 168.6062 0.0000 -13.9126 0.0000
# 4 0.0000 0.0000 0.0000 38.6840 0.0000 0.0313
# 5 -8.7920 1.0026 -13.9126 0.0000 28.6090 0.0000
# 6 0.0000 0.0000 0.0000 0.0313 0.0000 16.2649
#
#
#
# Elastic Compliance Matrix: (Units=1/GPa)
#
#
# Indices 1 2 3 4 5 6 
#
# 1 0.017898 -0.008533 -0.003546 0.000000 0.004075 0.000000
# 2 -0.008533 0.021377 -0.005353 0.000000 -0.005975 0.000000
# 3 -0.003546 -0.005353 0.009748 0.000000 0.003838 0.000000
# 4 0.000000 0.000000 0.000000 0.025850 0.000000 -0.000050
# 5 0.004075 -0.005975 0.003838 0.000000 0.038282 0.000000
# 6 0.000000 0.000000 0.000000 -0.000050 0.000000 0.061482
#
#
# Mechanical properties :
#
#
# Convention : Reuss Voigt Hill
#
# Bulk Modulus (GPa) = 70.62899 80.23973 75.43436
# Shear Modulus (GPa) = 23.34016 27.62054 25.48035
#
# Velocity S-wave (km/s) = 3.50779 3.81591 3.66509
# Velocity P-wave (km/s) = 7.32398 7.85596 7.59463
#
# Compressibility (1/GPa) = 0.01415849
#
# Stress axis : x y z
#
# Youngs Moduli (GPa) = 55.87113 46.77865 102.58692
#
# Poissons Ratio (x) = 0.39918 0.36376
# Poissons Ratio (y) = 0.47677 0.54916
# Poissons Ratio (z) = 0.19811 0.25041
#
# Static dielectric constant tensor:
#      x y z
#    x 3.473440 0.000000 0.044850 
#    y 0.000000 3.400590 0.000000 
#    z 0.044850 0.000000 3.982210 
# 
# 
# High freq. dielectric constant tensor:
#      x y z
#    x 1.728170 0.000000 0.002170 
#    y 0.000000 1.726930 0.000000 
#    z 0.002170 0.000000 1.758710 
# 
# From -- ./inp_files/275340.got.cif
#   From: 2010.06.25/outbox.cif.g09.slc.cpg/sg12_138_cif.got.tgz:275340.got - 2010.06.28 00:19:55.
