data_PCOD8089049
_publ_section_title
;
Structure prediction by ZEFSAII (Michael W. Deem and Ramdas Pophale) SiO2 
 PCOD8089049
Probable space group: C 2/M
;
_chemical_formula_sum "Si O2"
_cell_formula_units_Z 56
_cell_length_a 13.167082
_cell_length_b 10.473769
_cell_length_c 25.846739
_cell_angle_alpha 90.000000
_cell_angle_beta 58.583024
_cell_angle_gamma 90.000000
_cell_volume 3041.929124
_symmetry_space_group_name_H-M "C 2/M"
_symmetry_group_IT_number 12
_symmetry_cell_setting 'monoclinic'
loop_
_space_group_symop_operation_xyz
x,y,z
-x,y,-z
-x,-y,-z
x,-y,z
1/2+x,1/2+y,z
1/2-x,1/2+y,-z
1/2-x,1/2-y,-z
1/2+x,1/2-y,z
loop_
_atom_site_type_symbol
_atom_site_label
_atom_site_fract_x
_atom_site_fract_y
_atom_site_fract_z
Si Si1 0.632696 0.143829 0.482419
Si Si2 0.595175 0.140815 0.014658
Si Si3 0.576198 0.643412 0.794984
Si Si4 0.230066 0.645337 0.177088
Si Si5 0.335954 0.707838 0.904751
Si Si6 0.532755 0.854731 0.724342
Si Si7 0.311448 0.855812 0.415030
O O1 0.500000 0.165507 0.500000
O O2 0.633218 0.166785 0.543510
O O3 0.710785 0.249405 0.431791
O O4 0.677367 0.000000 0.456941
O O5 0.598430 0.216217 0.067102
O O6 0.547393 0.000000 0.040448
O O7 0.500000 0.205058 0.000000
O O8 0.728153 0.125484 0.956084
O O9 0.616241 0.500000 0.766262
O O10 0.661431 0.698970 0.817404
O O11 0.440313 0.626887 0.850389
O O12 0.589920 0.747970 0.746233
O O13 0.257400 0.500000 0.158895
O O14 0.225667 0.704002 0.121534
O O15 0.108435 0.667158 0.241158
O O16 0.583365 0.834494 0.653703
O O17 0.560122 0.000000 0.737102
O O18 0.258375 0.000000 0.424080
#
# Coordination Sequence:
#
# PCOD8089049 Si02
#       7
#     8   8   8   8   8   8   8
#     4   9  18  32  52  77 103 134 171 208 247 291
#     4  10  20  32  48  71  97 127 162 199 243 296
#     4  10  20  34  53  76  99 126 166 213 252 288
#     4   9  18  33  52  72  96 130 167 201 246 301
#     4  10  19  33  50  70  98 128 161 202 248 295
#     4   9  19  35  52  72 101 135 167 200 246 303
#     4   9  18  33  51  73 103 135 167 205 247 293
#
# _framework density 18.409371
#
# number of rings (size 3 to 8) (size 9 to 14) (size 15 to 20)
#    0.000    2.571    0.000    1.714    0.000    2.571 
#    0.000    6.429    0.000    6.857    0.000    0.000 
#    0.000    0.000    0.000    0.000    0.000    0.000 
#
# Total GULP energy -347027.292559 kJ/mol
# GULP energy per Si atom -12393.831877 kJ/mol
# Density = 1.836747 g / cm^3
# Si number density = 18.409371 Si / 1000 Ang^3
#
#
#
# Elastic Constant Matrix: (Units=GPa)
#
#
# Indices 1 2 3 4 5 6 
#
# 1 98.7218 38.1427 13.1168 0.0000 7.8301 0.0000
# 2 38.1427 87.5268 32.2996 0.0000 2.5950 0.0000
# 3 13.1168 32.2996 72.0000 0.0000 -0.0926 0.0000
# 4 0.0000 0.0000 0.0000 30.7558 0.0000 -10.8153
# 5 7.8301 2.5950 -0.0926 0.0000 17.5943 0.0000
# 6 0.0000 0.0000 0.0000 -10.8153 0.0000 28.0466
#
#
#
# Elastic Compliance Matrix: (Units=1/GPa)
#
#
# Indices 1 2 3 4 5 6 
#
# 1 0.012573 -0.005380 0.000117 0.000000 -0.004802 0.000000
# 2 -0.005380 0.016068 -0.006228 0.000000 -0.000008 0.000000
# 3 0.000117 -0.006228 0.016663 0.000000 0.000954 0.000000
# 4 0.000000 0.000000 0.000000 0.037615 0.000000 0.014505
# 5 -0.004802 -0.000008 0.000954 0.000000 0.058980 0.000000
# 6 0.000000 0.000000 0.000000 0.014505 0.000000 0.041248
#
#
# Mechanical properties :
#
#
# Convention : Reuss Voigt Hill
#
# Bulk Modulus (GPa) = 44.79975 47.26298 46.03137
# Shear Modulus (GPa) = 23.41145 26.92531 25.16838
#
# Velocity S-wave (km/s) = 3.56998 3.82853 3.70151
# Velocity P-wave (km/s) = 6.43282 6.72849 6.58231
#
# Compressibility (1/GPa) = 0.02232155
#
# Stress axis : x y z
#
# Youngs Moduli (GPa) = 79.53268 62.23472 60.01376
#
# Poissons Ratio (x) = 0.33482 -0.00700
# Poissons Ratio (y) = 0.42789 0.37378
# Poissons Ratio (z) = -0.00928 0.38761
#
# Static dielectric constant tensor:
#      x y z
#    x 3.442260 0.000000 0.036130 
#    y 0.000000 3.421440 0.000000 
#    z 0.036130 0.000000 3.296510 
# 
# 
# High freq. dielectric constant tensor:
#      x y z
#    x 1.715000 0.000000 0.000630 
#    y 0.000000 1.713950 0.000000 
#    z 0.000630 0.000000 1.705160 
# 
# From -- ./inp_files/304239.got.cif
#   From: 2010.06.25/outbox.cif.g09.slc.cpg/sg12_153_cif.got.tgz:304239.got - 2010.06.28 00:19:55.
