data_PCOD8089123
_publ_section_title
;
Structure prediction by ZEFSAII (Michael W. Deem and Ramdas Pophale) SiO2 
 PCOD8089123
Probable space group: C 2/M
;
_chemical_formula_sum "Si O2"
_cell_formula_units_Z 64
_cell_length_a 13.433494
_cell_length_b 10.387166
_cell_length_c 26.499859
_cell_angle_alpha 90.000000
_cell_angle_beta 68.116350
_cell_angle_gamma 90.000000
_cell_volume 3431.237332
_symmetry_space_group_name_H-M "C 2/M"
_symmetry_group_IT_number 12
_symmetry_cell_setting 'monoclinic'
loop_
_space_group_symop_operation_xyz
x,y,z
-x,y,-z
-x,-y,-z
x,-y,z
1/2+x,1/2+y,z
1/2-x,1/2+y,-z
1/2-x,1/2-y,-z
1/2+x,1/2-y,z
loop_
_atom_site_type_symbol
_atom_site_label
_atom_site_fract_x
_atom_site_fract_y
_atom_site_fract_z
Si Si1 0.509509 0.852794 0.372546
Si Si2 0.433968 0.147795 0.752767
Si Si3 0.291200 0.353441 0.160001
Si Si4 0.899135 0.641851 0.988495
Si Si5 0.494808 0.355159 0.182264
Si Si6 0.197055 0.791097 0.085369
Si Si7 0.431961 0.357030 0.561156
Si Si8 0.778896 0.359923 0.455539
O O1 0.536277 0.822753 0.310041
O O2 0.570127 0.749061 0.395029
O O3 0.385181 0.826199 0.405200
O O4 0.542213 0.000000 0.380506
O O5 0.306628 0.168721 0.782728
O O6 0.497776 0.250658 0.774551
O O7 0.464741 0.000000 0.762045
O O8 0.314148 0.500000 0.144414
O O9 0.400783 0.298446 0.163867
O O10 0.263119 0.298342 0.110812
O O11 0.936962 0.500000 0.965173
O O12 0.873661 0.716995 0.942505
O O13 0.789825 0.626121 0.041583
O O14 0.000000 0.706157 0.000000
O O15 0.465504 0.500000 0.207830
O O16 0.608824 0.372313 0.132417
O O17 0.500000 0.307737 0.500000
O O18 0.474958 0.500000 0.569955
O O19 0.309081 0.369574 0.570614
O O20 0.788870 0.500000 0.481291
O O21 0.750000 0.250000 0.500000
#
# Coordination Sequence:
#
# PCOD8089123 Si02
#       8
#     8   8   8   8   8   8   8   8
#     4  10  21  36  55  78 106 138 175 216 257 311
#     4   9  20  38  55  76 106 138 171 213 266 320
#     4   9  18  34  55  75 101 137 176 215 264 322
#     4  10  20  32  48  73 106 141 178 216 259 309
#     4  10  20  35  56  80 103 132 176 223 264 309
#     4  10  19  33  51  74 105 139 175 219 263 307
#     4  10  20  34  52  76 106 138 172 212 258 307
#     4  10  20  34  52  75 104 137 172 211 255 305
#
# _framework density 18.652163000000002
#
# number of rings (size 3 to 8) (size 9 to 14) (size 15 to 20)
#    0.000    2.250    1.250    1.500    0.000    2.750 
#    0.000    3.125    0.000    6.000    0.000    0.000 
#    0.000    0.000    0.000    0.000    0.000    0.000 
#
# Total GULP energy -396540.547790 kJ/mol
# GULP energy per Si atom -12391.892118 kJ/mol
# Density = 1.860971 g / cm^3
# Si number density = 18.652163 Si / 1000 Ang^3
#
#
#
# Elastic Constant Matrix: (Units=GPa)
#
#
# Indices 1 2 3 4 5 6 
#
# 1 102.3384 41.1583 25.3753 0.0000 14.0016 0.0000
# 2 41.1583 98.9030 49.8725 0.0000 19.4575 0.0000
# 3 25.3753 49.8725 92.2723 0.0000 10.2668 0.0000
# 4 0.0000 0.0000 0.0000 63.5655 0.0000 -1.7725
# 5 14.0016 19.4575 10.2668 0.0000 26.3073 0.0000
# 6 0.0000 0.0000 0.0000 -1.7725 0.0000 25.4352
#
#
#
# Elastic Compliance Matrix: (Units=1/GPa)
#
#
# Indices 1 2 3 4 5 6 
#
# 1 0.011997 -0.003970 -0.000805 0.000000 -0.003135 0.000000
# 2 -0.003970 0.016875 -0.007188 0.000000 -0.007563 0.000000
# 3 -0.000805 -0.007188 0.014954 0.000000 -0.000092 0.000000
# 4 0.000000 0.000000 0.000000 0.015762 0.000000 0.001098
# 5 -0.003135 -0.007563 -0.000092 0.000000 0.045310 0.000000
# 6 0.000000 0.000000 0.000000 0.001098 0.000000 0.039392
#
#
# Mechanical properties :
#
#
# Convention : Reuss Voigt Hill
#
# Bulk Modulus (GPa) = 50.24801 58.48066 54.36434
# Shear Modulus (GPa) = 28.59611 34.86878 31.73244
#
# Velocity S-wave (km/s) = 3.91976 4.32837 4.12913
# Velocity P-wave (km/s) = 6.89087 7.51007 7.20712
#
# Compressibility (1/GPa) = 0.01990129
#
# Stress axis : x y z
#
# Youngs Moduli (GPa) = 83.35764 59.25779 66.87241
#
# Poissons Ratio (x) = 0.23525 0.05381
# Poissons Ratio (y) = 0.33092 0.48066
# Poissons Ratio (z) = 0.06707 0.42593
#
# Static dielectric constant tensor:
#      x y z
#    x 3.581910 0.000000 -0.059230 
#    y 0.000000 3.539500 0.000000 
#    z -0.059230 0.000000 3.281820 
# 
# 
# High freq. dielectric constant tensor:
#      x y z
#    x 1.731630 0.000000 -0.009560 
#    y 0.000000 1.725240 0.000000 
#    z -0.009560 0.000000 1.711490 
# 
# From -- ./inp_files/335632.got.cif
#   From: 2010.06.25/outbox.cif.g09.slc.cpg/sg12_168_cif.got.tgz:335632.got - 2010.06.28 00:19:55.
