data_PCOD8089821
_publ_section_title
;
Structure prediction by ZEFSAII (Michael W. Deem and Ramdas Pophale) SiO2 
 PCOD8089821
Probable space group: C 2/M
;
_chemical_formula_sum "Si O2"
_cell_formula_units_Z 64
_cell_length_a 28.125698
_cell_length_b 9.410914
_cell_length_c 15.232216
_cell_angle_alpha 90.000000
_cell_angle_beta 57.208990
_cell_angle_gamma 90.000000
_cell_volume 3389.333016
_symmetry_space_group_name_H-M "C 2/M"
_symmetry_group_IT_number 12
_symmetry_cell_setting 'monoclinic'
loop_
_space_group_symop_operation_xyz
x,y,z
-x,y,-z
-x,-y,-z
x,-y,z
1/2+x,1/2+y,z
1/2-x,1/2+y,-z
1/2-x,1/2-y,-z
1/2+x,1/2-y,z
loop_
_atom_site_type_symbol
_atom_site_label
_atom_site_fract_x
_atom_site_fract_y
_atom_site_fract_z
Si Si1 0.370342 0.336420 0.986075
Si Si2 0.140045 0.163687 0.518627
Si Si3 0.870342 0.836420 0.273240
Si Si4 0.936646 0.831058 0.563354
Si Si5 0.140045 0.163687 0.201282
Si Si6 0.743742 0.836264 0.154210
Si Si7 0.743742 0.163736 0.358305
Si Si8 0.566727 0.162584 0.933273
O O1 0.377015 0.500000 0.009762
O O2 0.306228 0.285578 0.065683
O O3 0.411462 0.239025 0.001219
O O4 0.387383 0.317786 0.867273
O O5 0.112617 0.182214 0.642039
O O6 0.096041 0.223972 0.490655
O O7 0.198995 0.246408 0.458042
O O8 0.154010 0.000000 0.484868
O O9 0.806228 0.785578 0.321861
O O10 0.911462 0.739025 0.175856
O O11 0.877015 0.000000 0.236207
O O12 0.903959 0.776028 0.682738
O O13 0.000000 0.766571 0.500000
O O14 0.940100 0.000000 0.559900
O O15 0.198995 0.246408 0.143968
O O16 0.154010 0.000000 0.207111
O O17 0.733228 0.807899 0.266772
O O18 0.735331 0.000000 0.137563
O O19 0.735331 0.000000 0.391775
O O20 0.587646 0.000000 0.912354
O O21 0.500000 0.172643 0.000000
#
# Coordination Sequence:
#
# PCOD8089821 Si02
#       8
#     8   8   8   8   8   8   8   8
#     4  10  21  38  59  84 112 146 188 231 277 336
#     4  10  20  34  57  85 111 145 187 229 279 332
#     4  10  21  38  59  84 112 146 188 231 277 336
#     4   9  18  33  51  76 110 141 178 229 272 315
#     4  10  20  34  57  85 111 145 187 229 279 332
#     4  10  19  33  54  80 115 150 180 224 282 335
#     4  10  19  33  54  80 115 150 180 224 282 335
#     4  11  25  42  59  82 112 147 188 237 288 333
#
# _framework density 18.882771999999999
#
# number of rings (size 3 to 8) (size 9 to 14) (size 15 to 20)
#    0.000    2.000    2.500    1.125    0.000    4.000 
#    0.000    2.500    0.000    1.500    0.000    0.000 
#    0.000    0.000    0.000    0.000    0.000    0.000 
#
# Total GULP energy -396907.375175 kJ/mol
# GULP energy per Si atom -12403.355474 kJ/mol
# Density = 1.883979 g / cm^3
# Si number density = 18.882772 Si / 1000 Ang^3
#
#
#
# Elastic Constant Matrix: (Units=GPa)
#
#
# Indices 1 2 3 4 5 6 
#
# 1 93.4205 47.5267 55.6205 0.0000 -6.0812 0.0000
# 2 47.5267 69.4412 44.6843 0.0000 -2.4613 0.0002
# 3 55.6205 44.6843 92.4234 0.0000 5.2180 0.0000
# 4 0.0000 0.0000 0.0000 22.9230 0.0000 -0.8846
# 5 -6.0812 -2.4613 5.2180 0.0000 25.1743 0.0000
# 6 0.0000 0.0002 0.0000 -0.8846 0.0000 23.9445
#
#
#
# Elastic Compliance Matrix: (Units=1/GPa)
#
#
# Indices 1 2 3 4 5 6 
#
# 1 0.020411 -0.008187 -0.008659 0.000000 0.005925 0.000000
# 2 -0.008187 0.024634 -0.007090 0.000000 0.001900 0.000000
# 3 -0.008659 -0.007090 0.019848 0.000000 -0.006899 0.000000
# 4 0.000000 0.000000 0.000000 0.043687 0.000000 0.001614
# 5 0.005925 0.001900 -0.006899 0.000000 0.042770 0.000000
# 6 0.000000 0.000000 0.000000 0.001614 0.000000 0.041823
#
#
# Mechanical properties :
#
#
# Convention : Reuss Voigt Hill
#
# Bulk Modulus (GPa) = 58.75576 61.21648 59.98612
# Shear Modulus (GPa) = 20.26597 21.57193 20.91895
#
# Velocity S-wave (km/s) = 3.27961 3.38363 3.33202
# Velocity P-wave (km/s) = 6.74720 6.91049 6.82933
#
# Compressibility (1/GPa) = 0.01701961
#
# Stress axis : x y z
#
# Youngs Moduli (GPa) = 48.99376 40.59460 50.38206
#
# Poissons Ratio (x) = 0.33236 0.43628
# Poissons Ratio (y) = 0.40112 0.35721
# Poissons Ratio (z) = 0.42426 0.28782
#
# Static dielectric constant tensor:
#      x y z
#    x 3.460490 0.000000 0.084270 
#    y 0.000000 3.297830 0.000000 
#    z 0.084270 0.000000 3.557800 
# 
# 
# High freq. dielectric constant tensor:
#      x y z
#    x 1.732410 0.000000 0.009620 
#    y 0.000000 1.712340 0.000000 
#    z 0.009620 0.000000 1.743520 
# 
# From -- ./inp_files/249091.got.cif
#   From: 2010.06.25/outbox.cif.g09.slc.cpg/sg12_125_cif.got.tgz:249091.got - 2010.06.28 00:19:55.
