data_PCOD8089730
_publ_section_title
;
Structure prediction by ZEFSAII (Michael W. Deem and Ramdas Pophale) SiO2 
 PCOD8089730
Probable space group: C 2/M
;
_chemical_formula_sum "Si O2"
_cell_formula_units_Z 64
_cell_length_a 17.960579
_cell_length_b 21.267249
_cell_length_c 10.873399
_cell_angle_alpha 90.000000
_cell_angle_beta 126.157521
_cell_angle_gamma 90.000000
_cell_volume 3353.394316
_symmetry_space_group_name_H-M "C 2/M"
_symmetry_group_IT_number 12
_symmetry_cell_setting 'monoclinic'
loop_
_space_group_symop_operation_xyz
x,y,z
-x,y,-z
-x,-y,-z
x,-y,z
1/2+x,1/2+y,z
1/2-x,1/2+y,-z
1/2-x,1/2-y,-z
1/2+x,1/2-y,z
loop_
_atom_site_type_symbol
_atom_site_label
_atom_site_fract_x
_atom_site_fract_y
_atom_site_fract_z
Si Si1 0.380389 0.426295 0.496616
Si Si2 0.795754 0.257686 0.237688
Si Si3 0.071151 0.658410 0.471876
Si Si4 0.915959 0.073734 0.259942
Si Si5 0.357871 0.831186 0.842085
Si Si6 0.145026 0.816309 0.940601
Si Si7 0.984991 0.715464 0.158261
Si Si8 0.316050 0.074367 0.605271
O O1 0.388415 0.500000 0.490492
O O2 0.477423 0.403534 0.647483
O O3 0.372752 0.402799 0.347663
O O4 0.293633 0.408407 0.498885
O O5 0.864405 0.289711 0.400866
O O6 0.742939 0.200018 0.252563
O O7 0.844677 0.229264 0.167036
O O8 0.724986 0.310832 0.119469
O O9 0.134067 0.606750 0.462705
O O10 0.000000 0.626023 0.500000
O O11 0.002137 0.695221 0.314635
O O12 0.861351 0.110480 0.100233
O O13 0.902874 0.000000 0.223481
O O14 0.418290 0.785504 0.816413
O O15 0.355106 0.899681 0.773794
O O16 0.408199 0.833500 0.024634
O O17 0.049809 0.786846 0.897858
O O18 0.333488 0.000000 0.616156
#
# Coordination Sequence:
#
# PCOD8089730 Si02
#       8
#     8   8   8   8   8   8   8   8
#     4   8  16  31  49  78 112 140 175 220 272 325
#     4  10  21  35  53  81 108 145 182 230 278 323
#     4  11  22  38  56  80 111 147 192 235 276 337
#     4   9  17  30  53  83 115 144 175 221 275 341
#     4   9  19  36  56  82 109 138 185 234 275 334
#     4  10  19  33  54  78 110 146 182 219 276 334
#     4   9  19  35  54  79 110 143 175 236 284 321
#     4  10  21  37  59  82 113 152 184 232 284 331
#
# _framework density 19.085141
#
# number of rings (size 3 to 8) (size 9 to 14) (size 15 to 20)
#    0.000    2.500    1.250    1.500    0.000    6.250 
#    0.000    5.625    0.000    0.000    0.000    9.625 
#    0.000    0.000    0.000    0.000    0.000    0.000 
#
# Total GULP energy -396417.529957 kJ/mol
# GULP energy per Si atom -12388.047811 kJ/mol
# Density = 1.904170 g / cm^3
# Si number density = 19.085141 Si / 1000 Ang^3
#
#
#
# Elastic Constant Matrix: (Units=GPa)
#
#
# Indices 1 2 3 4 5 6 
#
# 1 100.6657 26.2876 30.2693 0.0000 3.7812 0.0000
# 2 26.2876 71.4758 43.6227 0.0000 0.6377 0.0000
# 3 30.2693 43.6227 105.9589 0.0000 -4.5976 0.0000
# 4 0.0000 0.0000 0.0000 30.3098 0.0000 -2.6716
# 5 3.7812 0.6377 -4.5976 0.0000 19.1574 0.0000
# 6 0.0000 0.0000 0.0000 -2.6716 0.0000 24.7983
#
#
#
# Elastic Compliance Matrix: (Units=1/GPa)
#
#
# Indices 1 2 3 4 5 6 
#
# 1 0.011442 -0.002828 -0.002221 0.000000 -0.002697 0.000000
# 2 -0.002828 0.019504 -0.007302 0.000000 -0.001843 0.000000
# 3 -0.002221 -0.007302 0.013246 0.000000 0.003860 0.000000
# 4 0.000000 0.000000 0.000000 0.033309 0.000000 0.003588
# 5 -0.002697 -0.001843 0.003860 0.000000 0.053719 0.000000
# 6 0.000000 0.000000 0.000000 0.003588 0.000000 0.040712
#
#
# Mechanical properties :
#
#
# Convention : Reuss Voigt Hill
#
# Bulk Modulus (GPa) = 51.31150 53.16217 52.23684
# Shear Modulus (GPa) = 24.61482 26.71449 25.66465
#
# Velocity S-wave (km/s) = 3.59519 3.74539 3.67106
# Velocity P-wave (km/s) = 6.64664 6.82786 6.73786
#
# Compressibility (1/GPa) = 0.01948881
#
# Stress axis : x y z
#
# Youngs Moduli (GPa) = 87.39992 51.27240 75.49653
#
# Poissons Ratio (x) = 0.14502 0.16769
# Poissons Ratio (y) = 0.24720 0.55124
# Poissons Ratio (z) = 0.19413 0.37437
#
# Static dielectric constant tensor:
#      x y z
#    x 3.856760 0.000000 0.079360 
#    y 0.000000 3.203540 0.000000 
#    z 0.079360 0.000000 3.569380 
# 
# 
# High freq. dielectric constant tensor:
#      x y z
#    x 1.759880 0.000000 0.008600 
#    y 0.000000 1.712050 0.000000 
#    z 0.008600 0.000000 1.730040 
# 
# From -- ./inp_files/159263.got.cif
#   From: 2010.06.25/outbox.cif.g09.slc.cpg/sg12_80_cif.got.tgz:159263.got - 2010.06.28 00:19:55.
