data_PCOD8089074
_publ_section_title
;
Structure prediction by ZEFSAII (Michael W. Deem and Ramdas Pophale) SiO2 
 PCOD8089074
Probable space group: C 2/M
;
_chemical_formula_sum "Si O2"
_cell_formula_units_Z 64
_cell_length_a 25.060743
_cell_length_b 10.995005
_cell_length_c 25.636037
_cell_angle_alpha 90.000000
_cell_angle_beta 152.420169
_cell_angle_gamma 90.000000
_cell_volume 3270.440803
_symmetry_space_group_name_H-M "C 2/M"
_symmetry_group_IT_number 12
_symmetry_cell_setting 'monoclinic'
loop_
_space_group_symop_operation_xyz
x,y,z
-x,y,-z
-x,-y,-z
x,-y,z
1/2+x,1/2+y,z
1/2-x,1/2+y,-z
1/2-x,1/2-y,-z
1/2+x,1/2-y,z
loop_
_atom_site_type_symbol
_atom_site_label
_atom_site_fract_x
_atom_site_fract_y
_atom_site_fract_z
Si Si1 0.903852 0.370197 0.142223
Si Si2 0.404394 0.361879 0.303425
Si Si3 0.145425 0.141681 0.233766
Si Si4 0.763790 0.200182 0.087092
Si Si5 0.398545 0.639623 0.991498
Si Si6 0.719658 0.142547 0.749050
Si Si7 0.855190 0.279792 0.661850
Si Si8 0.380232 0.635298 0.577367
O O1 0.904639 0.500000 0.172819
O O2 0.875670 0.260411 0.156828
O O3 0.029261 0.353761 0.224579
O O4 0.806157 0.383757 0.013107
O O5 0.410852 0.500000 0.334617
O O6 0.307861 0.375158 0.174735
O O7 0.371201 0.248668 0.313063
O O8 0.525980 0.320725 0.383972
O O9 0.251212 0.168275 0.286075
O O10 0.174889 0.193472 0.315921
O O11 0.130582 0.000000 0.228699
O O12 0.027116 0.196758 0.106346
O O13 0.679016 0.307956 0.029782
O O14 0.408936 0.500000 0.013582
O O15 0.339255 0.661063 0.884088
O O16 0.675939 0.000000 0.719096
O O17 0.744731 0.365051 0.558250
O O18 0.881134 0.212739 0.630277
O O19 0.413262 0.500000 0.623056
#
# Coordination Sequence:
#
# PCOD8089074 Si02
#       8
#     8   8   8   8   8   8   8   8
#     4  11  21  32  49  80 116 149 185 234 287 339
#     4  10  20  38  60  83 113 154 195 234 283 344
#     4  10  19  34  57  84 115 148 190 236 282 339
#     4  10  19  33  50  80 114 152 183 230 275 349
#     4   9  16  29  53  81 113 150 187 228 276 335
#     4   9  19  35  58  88 118 151 191 237 284 336
#     4  11  21  38  57  82 111 147 189 237 289 338
#     4  10  22  40  59  79 108 148 195 239 285 341
#
# _framework density 19.569227999999999
#
# number of rings (size 3 to 8) (size 9 to 14) (size 15 to 20)
#    0.000    2.000    2.500    1.875    0.000    2.000 
#    0.000    3.125    0.000    4.500    0.000    0.000 
#    0.000    0.000    0.000    0.000    0.000    0.000 
#
# Total GULP energy -396480.802166 kJ/mol
# GULP energy per Si atom -12390.025068 kJ/mol
# Density = 1.952469 g / cm^3
# Si number density = 19.569228 Si / 1000 Ang^3
#
#
#
# Elastic Constant Matrix: (Units=GPa)
#
#
# Indices 1 2 3 4 5 6 
#
# 1 96.5329 47.1787 30.0627 0.0008 13.5826 0.0004
# 2 47.1787 81.5393 32.2877 0.0012 11.7838 0.0008
# 3 30.0627 32.2877 59.8699 0.0010 17.5909 0.0007
# 4 0.0008 0.0012 0.0010 19.9967 0.0005 3.4571
# 5 13.5826 11.7838 17.5909 0.0005 20.1209 0.0002
# 6 0.0004 0.0008 0.0007 3.4571 0.0002 22.3692
#
#
#
# Elastic Compliance Matrix: (Units=1/GPa)
#
#
# Indices 1 2 3 4 5 6 
#
# 1 0.015245 -0.007228 -0.002661 0.000000 -0.003732 0.000000
# 2 -0.007228 0.019107 -0.006487 -0.000001 -0.000639 0.000000
# 3 -0.002661 -0.006487 0.026770 0.000000 -0.017809 0.000000
# 4 0.000000 -0.000001 0.000000 0.051381 -0.000001 -0.007941
# 5 -0.003732 -0.000639 -0.017809 -0.000001 0.068163 0.000000
# 6 0.000000 0.000000 0.000000 -0.007941 0.000000 0.045932
#
#
# Mechanical properties :
#
#
# Convention : Reuss Voigt Hill
#
# Bulk Modulus (GPa) = 35.24733 50.77781 43.01257
# Shear Modulus (GPa) = 18.60071 21.05824 19.82947
#
# Velocity S-wave (km/s) = 3.08638 3.28394 3.18669
# Velocity P-wave (km/s) = 5.54542 6.35477 5.96384
#
# Compressibility (1/GPa) = 0.02837094
#
# Stress axis : x y z
#
# Youngs Moduli (GPa) = 65.59313 52.33568 37.35544
#
# Poissons Ratio (x) = 0.37829 0.09939
# Poissons Ratio (y) = 0.47412 0.24233
# Poissons Ratio (z) = 0.17451 0.33951
#
# Static dielectric constant tensor:
#      x y z
#    x 3.469510 0.000000 0.168060 
#    y 0.000000 3.416950 0.000000 
#    z 0.168060 0.000000 3.603230 
# 
# 
# High freq. dielectric constant tensor:
#      x y z
#    x 1.751450 0.000000 0.012440 
#    y 0.000000 1.751770 0.000000 
#    z 0.012440 0.000000 1.756110 
# 
# From -- ./inp_files/367777.got.cif
#   From: 2010.06.25/outbox.cif.g09.slc.cpg/sg12_184_cif.got.tgz:367777.got - 2010.06.28 00:19:55.
