data_PCOD8089164
_publ_section_title
;
Structure prediction by ZEFSAII (Michael W. Deem and Ramdas Pophale) SiO2 
 PCOD8089164
Probable space group: C 2/M
;
_chemical_formula_sum "Si O2"
_cell_formula_units_Z 64
_cell_length_a 20.384342
_cell_length_b 9.237662
_cell_length_c 19.023221
_cell_angle_alpha 90.000000
_cell_angle_beta 90.521049
_cell_angle_gamma 90.000000
_cell_volume 3581.994045
_symmetry_space_group_name_H-M "C 2/M"
_symmetry_group_IT_number 12
_symmetry_cell_setting 'monoclinic'
loop_
_space_group_symop_operation_xyz
x,y,z
-x,y,-z
-x,-y,-z
x,-y,z
1/2+x,1/2+y,z
1/2-x,1/2+y,-z
1/2-x,1/2-y,-z
1/2+x,1/2-y,z
loop_
_atom_site_type_symbol
_atom_site_label
_atom_site_fract_x
_atom_site_fract_y
_atom_site_fract_z
Si Si1 0.240303 0.830617 0.339969
Si Si2 0.449097 0.330019 0.058441
Si Si3 0.049862 0.664689 0.801644
Si Si4 0.012049 0.328001 0.650983
Si Si5 0.636776 0.827812 0.569639
Si Si6 0.297967 0.163337 0.191748
Si Si7 0.625697 0.828381 0.410782
Si Si8 0.798443 0.829376 0.053176
O O1 0.298919 0.771551 0.389597
O O2 0.254988 0.797584 0.258918
O O3 0.175458 0.743862 0.357565
O O4 0.229365 0.000000 0.352925
O O5 0.455022 0.500000 0.069312
O O6 0.470814 0.258421 0.131608
O O7 0.374314 0.287533 0.036876
O O8 0.500000 0.274620 0.000000
O O9 0.029565 0.500000 0.817804
O O10 0.013116 0.725726 0.732052
O O11 0.126634 0.676437 0.785353
O O12 0.018161 0.500000 0.651522
O O13 0.072831 0.262503 0.607607
O O14 0.946204 0.275703 0.612712
O O15 0.639040 0.771805 0.489661
O O16 0.633152 0.000000 0.571273
O O17 0.279871 0.276351 0.130867
O O18 0.282915 0.000000 0.165246
O O19 0.632679 0.000000 0.405473
O O20 0.787042 0.000000 0.047891
O O21 0.750000 0.750000 0.000000
#
# Coordination Sequence:
#
# PCOD8089164 Si02
#       8
#     8   8   8   8   8   8   8   8
#     4  10  19  33  52  72 100 136 173 209 252 306
#     4   9  19  36  55  76 104 134 164 201 246 300
#     4   9  16  30  54  77  97 127 171 215 246 286
#     4   9  16  30  51  75 101 129 169 215 254 295
#     4   9  16  30  53  75  95 132 178 212 249 301
#     4   9  17  32  54  75  97 133 176 212 246 293
#     4  10  20  31  48  76 107 132 163 214 264 302
#     4  10  20  35  56  80 106 134 167 207 248 297
#
# _framework density 17.867142999999999
#
# number of rings (size 3 to 8) (size 9 to 14) (size 15 to 20)
#    0.000    2.625    1.250    1.125    0.000    2.750 
#    2.250    0.625    0.000    3.000    0.000    0.000 
#    0.000    0.000    0.000    0.000    0.000    0.000 
#
# Total GULP energy -396795.461269 kJ/mol
# GULP energy per Si atom -12399.858165 kJ/mol
# Density = 1.782648 g / cm^3
# Si number density = 17.867143 Si / 1000 Ang^3
#
#
#
# Elastic Constant Matrix: (Units=GPa)
#
#
# Indices 1 2 3 4 5 6 
#
# 1 85.2619 29.6231 51.5573 0.0000 -9.1477 0.0000
# 2 29.6231 38.7798 38.8179 0.0000 -0.8727 0.0000
# 3 51.5573 38.8179 117.3581 0.0000 -6.3654 0.0000
# 4 0.0000 0.0000 0.0000 24.8468 0.0000 -4.4471
# 5 -9.1477 -0.8727 -6.3654 0.0000 34.9202 0.0000
# 6 0.0000 0.0000 0.0000 -4.4471 0.0000 22.2285
#
#
#
# Elastic Compliance Matrix: (Units=1/GPa)
#
#
# Indices 1 2 3 4 5 6 
#
# 1 0.018142 -0.008964 -0.004807 0.000000 0.003652 0.000000
# 2 -0.008964 0.043045 -0.010472 0.000000 -0.003181 0.000000
# 3 -0.004807 -0.010472 0.014154 0.000000 0.001059 0.000000
# 4 0.000000 0.000000 0.000000 0.041741 0.000000 0.008351
# 5 0.003652 -0.003181 0.001059 0.000000 0.029707 0.000000
# 6 0.000000 0.000000 0.000000 0.008351 0.000000 0.046658
#
#
# Mechanical properties :
#
#
# Convention : Reuss Voigt Hill
#
# Bulk Modulus (GPa) = 37.23827 53.48848 45.36338
# Shear Modulus (GPa) = 19.92949 24.49253 22.21101
#
# Velocity S-wave (km/s) = 3.34342 3.70647 3.52962
# Velocity P-wave (km/s) = 5.98261 6.95118 6.48501
#
# Compressibility (1/GPa) = 0.02685409
#
# Stress axis : x y z
#
# Youngs Moduli (GPa) = 55.12220 23.23145 70.65204
#
# Poissons Ratio (x) = 0.20825 0.33960
# Poissons Ratio (y) = 0.49413 0.73988
# Poissons Ratio (z) = 0.26496 0.24328
#
# Static dielectric constant tensor:
#      x y z
#    x 3.312720 0.000000 0.019860 
#    y 0.000000 3.010900 0.000000 
#    z 0.019860 0.000000 3.438290 
# 
# 
# High freq. dielectric constant tensor:
#      x y z
#    x 1.686690 0.000000 0.000180 
#    y 0.000000 1.659740 0.000000 
#    z 0.000180 0.000000 1.702970 
# 
# From -- ./inp_files/281309.got.cif
#   From: 2010.06.25/outbox.cif.g09.slc.cpg/sg12_141_cif.got.tgz:281309.got - 2010.06.28 00:19:55.
