data_PCOD8089701
_publ_section_title
;
Structure prediction by ZEFSAII (Michael W. Deem and Ramdas Pophale) SiO2 
 PCOD8089701
Probable space group: C 2/M
;
_chemical_formula_sum "Si O2"
_cell_formula_units_Z 56
_cell_length_a 9.671442
_cell_length_b 17.953302
_cell_length_c 16.986536
_cell_angle_alpha 90.000000
_cell_angle_beta 98.206049
_cell_angle_gamma 90.000000
_cell_volume 2919.246731
_symmetry_space_group_name_H-M "C 2/M"
_symmetry_group_IT_number 12
_symmetry_cell_setting 'monoclinic'
loop_
_space_group_symop_operation_xyz
x,y,z
-x,y,-z
-x,-y,-z
x,-y,z
1/2+x,1/2+y,z
1/2-x,1/2+y,-z
1/2-x,1/2-y,-z
1/2+x,1/2-y,z
loop_
_atom_site_type_symbol
_atom_site_label
_atom_site_fract_x
_atom_site_fract_y
_atom_site_fract_z
Si Si1 0.549445 0.914383 0.592452
Si Si2 0.208966 0.174735 0.317736
Si Si3 0.863361 0.415140 0.035708
Si Si4 0.845873 0.342812 0.700926
Si Si5 0.419993 0.583720 0.065565
Si Si6 0.884903 0.316523 0.186488
Si Si7 0.583412 0.649598 0.769681
O O1 0.500000 0.905251 0.500000
O O2 0.694386 0.867496 0.610448
O O3 0.420988 0.886174 0.636234
O O4 0.580885 0.000000 0.616727
O O5 0.211823 0.263208 0.335059
O O6 0.278389 0.150414 0.241248
O O7 0.046750 0.150828 0.301717
O O8 0.868296 0.500000 0.070376
O O9 0.841379 0.353990 0.101377
O O10 0.744018 0.406629 0.960965
O O11 0.000000 0.393935 0.000000
O O12 0.711815 0.384878 0.728711
O O13 0.955029 0.334940 0.780916
O O14 0.472503 0.500000 0.064492
O O15 0.460854 0.604669 0.157214
O O16 0.500000 0.627016 0.000000
O O17 0.868445 0.227890 0.188491
#
# Coordination Sequence:
#
# PCOD8089701 Si02
#       7
#     8   8   8   8   8   8   8
#     4  10  22  40  61  87 117 147 181 220 267 331
#     4   9  19  36  57  82 111 144 182 223 273 335
#     4  10  20  32  46  68 100 139 185 232 276 325
#     4   9  19  36  57  83 112 142 182 228 273 327
#     4  10  21  33  44  65  99 136 176 224 276 326
#     4   9  18  32  51  75 103 138 183 229 272 325
#     4  10  19  33  54  78 104 137 182 232 275 321
#
# _framework density 19.183029999999999
#
# number of rings (size 3 to 8) (size 9 to 14) (size 15 to 20)
#    0.000    2.429    0.000    2.571    0.000    5.143 
#    0.000    0.714    0.000    1.714    0.000    0.000 
#    0.000    0.000    0.000    0.000    0.000    0.000 
#
# Total GULP energy -346950.904035 kJ/mol
# GULP energy per Si atom -12391.103716 kJ/mol
# Density = 1.913937 g / cm^3
# Si number density = 19.183030 Si / 1000 Ang^3
#
#
#
# Elastic Constant Matrix: (Units=GPa)
#
#
# Indices 1 2 3 4 5 6 
#
# 1 87.3830 7.4444 9.1450 0.0000 -6.7075 0.0000
# 2 7.4444 58.1513 30.5603 0.0000 3.3562 0.0000
# 3 9.1450 30.5603 69.3659 0.0000 -4.3116 0.0000
# 4 0.0000 0.0000 0.0000 21.0770 0.0000 -4.0970
# 5 -6.7075 3.3562 -4.3116 0.0000 22.4525 0.0000
# 6 0.0000 0.0000 0.0000 -4.0970 0.0000 22.7606
#
#
#
# Elastic Compliance Matrix: (Units=1/GPa)
#
#
# Indices 1 2 3 4 5 6 
#
# 1 0.011914 -0.001336 -0.000758 0.000000 0.003613 0.000000
# 2 -0.001336 0.023169 -0.010395 0.000000 -0.005859 0.000000
# 3 -0.000758 -0.010395 0.019410 0.000000 0.005055 0.000000
# 4 0.000000 0.000000 0.000000 0.049165 0.000000 0.008850
# 5 0.003613 -0.005859 0.005055 0.000000 0.047464 0.000000
# 6 0.000000 0.000000 0.000000 0.008850 0.000000 0.045528
#
#
# Mechanical properties :
#
#
# Convention : Reuss Voigt Hill
#
# Bulk Modulus (GPa) = 33.88014 34.35553 34.11784
# Shear Modulus (GPa) = 21.60128 24.44140 23.02134
#
# Velocity S-wave (km/s) = 3.35933 3.57335 3.46799
# Velocity P-wave (km/s) = 5.72247 5.91382 5.81893
#
# Compressibility (1/GPa) = 0.02951582
#
# Stress axis : x y z
#
# Youngs Moduli (GPa) = 83.93257 43.16157 51.51904
#
# Poissons Ratio (x) = 0.05765 0.03904
# Poissons Ratio (y) = 0.11210 0.53556
# Poissons Ratio (z) = 0.06360 0.44868
#
# Static dielectric constant tensor:
#      x y z
#    x 3.703710 0.000000 -0.004420 
#    y 0.000000 3.423640 0.000000 
#    z -0.004420 0.000000 3.378910 
# 
# 
# High freq. dielectric constant tensor:
#      x y z
#    x 1.764610 0.000000 0.003680 
#    y 0.000000 1.728070 0.000000 
#    z 0.003680 0.000000 1.724940 
# 
# From -- ./inp_files/257146.got.cif
#   From: 2010.06.25/outbox.cif.g09.slc.cpg/sg12_129_cif.got.tgz:257146.got - 2010.06.28 00:19:55.
