data_PCOD8089304
_publ_section_title
;
Structure prediction by ZEFSAII (Michael W. Deem and Ramdas Pophale) SiO2 
 PCOD8089304
Probable space group: C 2/M
;
_chemical_formula_sum "Si O2"
_cell_formula_units_Z 64
_cell_length_a 13.147078
_cell_length_b 13.375804
_cell_length_c 19.087484
_cell_angle_alpha 90.000000
_cell_angle_beta 98.411233
_cell_angle_gamma 90.000000
_cell_volume 3320.481796
_symmetry_space_group_name_H-M "C 2/M"
_symmetry_group_IT_number 12
_symmetry_cell_setting 'monoclinic'
loop_
_space_group_symop_operation_xyz
x,y,z
-x,y,-z
-x,-y,-z
x,-y,z
1/2+x,1/2+y,z
1/2-x,1/2+y,-z
1/2-x,1/2-y,-z
1/2+x,1/2-y,z
loop_
_atom_site_type_symbol
_atom_site_label
_atom_site_fract_x
_atom_site_fract_y
_atom_site_fract_z
Si Si1 0.314243 0.298197 0.786751
Si Si2 0.606565 0.771993 0.541561
Si Si3 0.893406 0.614113 0.721517
Si Si4 0.589648 0.388417 0.918803
Si Si5 0.148147 0.886784 0.068792
Si Si6 0.098953 0.699617 0.697936
Si Si7 0.471666 0.617180 0.233510
Si Si8 0.217109 0.384169 0.433790
O O1 0.341352 0.181792 0.776434
O O2 0.296312 0.316530 0.868265
O O3 0.211182 0.330020 0.736461
O O4 0.406438 0.366476 0.765486
O O5 0.500000 0.732224 0.500000
O O6 0.592343 0.824142 0.615221
O O7 0.677337 0.675511 0.555481
O O8 0.651306 0.856662 0.495216
O O9 0.870785 0.500000 0.739324
O O10 0.845792 0.644784 0.642017
O O11 0.015688 0.632693 0.730726
O O12 0.632623 0.500000 0.917544
O O13 0.470728 0.391549 0.925441
O O14 0.594425 0.341660 0.841052
O O15 0.655437 0.339303 0.989863
O O16 0.193677 0.000000 0.076475
O O17 0.072052 0.817557 0.706842
O O18 0.452495 0.500000 0.246293
O O19 0.244397 0.500000 0.438690
#
# Coordination Sequence:
#
# PCOD8089304 Si02
#       8
#     8   8   8   8   8   8   8   8
#     4  10  19  33  52  79 108 137 174 222 264 301
#     4  11  22  39  60  78 109 135 171 224 263 313
#     4  10  21  37  54  74 104 142 178 213 257 315
#     4   7  11  24  46  75 105 136 170 210 256 307
#     4   8  13  24  48  77 106 136 171 213 262 309
#     4  11  22  35  53  82 107 138 176 216 266 311
#     4   9  19  34  55  81 110 138 173 218 264 313
#     4  10  22  39  59  79 101 136 175 215 266 315
#
# _framework density 19.274311000000001
#
# number of rings (size 3 to 8) (size 9 to 14) (size 15 to 20)
#    0.000    2.500    2.500    1.875    0.000    3.000 
#    0.000    1.875    0.000    0.000    0.000   15.750 
#    0.000    0.000    0.000    0.000    0.000    0.000 
#
# Total GULP energy -396536.598114 kJ/mol
# GULP energy per Si atom -12391.768691 kJ/mol
# Density = 1.923044 g / cm^3
# Si number density = 19.274311 Si / 1000 Ang^3
#
#
#
# Elastic Constant Matrix: (Units=GPa)
#
#
# Indices 1 2 3 4 5 6 
#
# 1 56.0225 2.8890 30.6614 0.0000 20.0073 0.0000
# 2 2.8890 67.1573 31.0879 0.0000 9.1522 0.0000
# 3 30.6614 31.0879 116.8344 0.0000 20.6545 0.0000
# 4 0.0000 0.0000 0.0000 14.0189 0.0000 4.6396
# 5 20.0073 9.1522 20.6545 0.0000 20.9300 0.0000
# 6 0.0000 0.0000 0.0000 4.6396 0.0000 9.3232
#
#
#
# Elastic Compliance Matrix: (Units=1/GPa)
#
#
# Indices 1 2 3 4 5 6 
#
# 1 0.029019 0.004173 -0.004239 0.000000 -0.025381 0.000000
# 2 0.004173 0.017808 -0.004545 0.000000 -0.007291 0.000000
# 3 -0.004239 -0.004545 0.011887 0.000000 -0.005691 0.000000
# 4 0.000000 0.000000 0.000000 0.085397 0.000000 -0.042498
# 5 -0.025381 -0.007291 -0.005691 0.000000 0.080845 0.000000
# 6 0.000000 0.000000 0.000000 -0.042498 0.000000 0.128409
#
#
# Mechanical properties :
#
#
# Convention : Reuss Voigt Hill
#
# Bulk Modulus (GPa) = 20.20489 41.03230 30.61860
# Shear Modulus (GPa) = 13.18967 20.54614 16.86791
#
# Velocity S-wave (km/s) = 2.61878 3.26849 2.96150
# Velocity P-wave (km/s) = 4.43278 5.96480 5.25492
#
# Compressibility (1/GPa) = 0.04949296
#
# Stress axis : x y z
#
# Youngs Moduli (GPa) = 34.45994 56.15348 84.12594
#
# Poissons Ratio (x) = -0.23432 0.35661
# Poissons Ratio (y) = -0.14380 0.38232
# Poissons Ratio (z) = 0.14607 0.25520
#
# Static dielectric constant tensor:
#      x y z
#    x 3.311480 0.000000 -0.035850 
#    y 0.000000 3.259540 0.000000 
#    z -0.035850 0.000000 4.098800 
# 
# 
# High freq. dielectric constant tensor:
#      x y z
#    x 1.731820 0.000000 0.003100 
#    y 0.000000 1.723580 0.000000 
#    z 0.003100 0.000000 1.763160 
# 
# From -- ./inp_files/305458.got.cif
#   From: 2010.06.25/outbox.cif.g09.slc.cpg/sg12_153_cif.got.tgz:305458.got - 2010.06.28 00:19:55.
