data_PCOD8089063
_publ_section_title
;
Structure prediction by ZEFSAII (Michael W. Deem and Ramdas Pophale) SiO2 
 PCOD8089063
Probable space group: C 2/M
;
_chemical_formula_sum "Si O2"
_cell_formula_units_Z 64
_cell_length_a 29.367068
_cell_length_b 8.426206
_cell_length_c 15.623732
_cell_angle_alpha 90.000000
_cell_angle_beta 62.227373
_cell_angle_gamma 90.000000
_cell_volume 3420.773877
_symmetry_space_group_name_H-M "C 2/M"
_symmetry_group_IT_number 12
_symmetry_cell_setting 'monoclinic'
loop_
_space_group_symop_operation_xyz
x,y,z
-x,y,-z
-x,-y,-z
x,-y,z
1/2+x,1/2+y,z
1/2-x,1/2+y,-z
1/2-x,1/2-y,-z
1/2+x,1/2-y,z
loop_
_atom_site_type_symbol
_atom_site_label
_atom_site_fract_x
_atom_site_fract_y
_atom_site_fract_z
Si Si1 0.890492 0.686262 0.643720
Si Si2 0.541528 0.181255 0.263178
Si Si3 0.076749 0.314270 0.893173
Si Si4 0.176611 0.812335 0.728313
Si Si5 0.149913 0.684412 0.568811
Si Si6 0.210951 0.314660 0.350610
Si Si7 0.945866 0.817475 0.435766
Si Si8 0.521635 0.683504 0.101061
O O1 0.893854 0.500000 0.618320
O O2 0.906703 0.719012 0.727608
O O3 0.832241 0.751454 0.678094
O O4 0.929497 0.775863 0.546422
O O5 0.493895 0.209905 0.367558
O O6 0.540065 0.292975 0.181755
O O7 0.541107 0.000000 0.232124
O O8 0.080684 0.500000 0.872288
O O9 0.132418 0.234828 0.833666
O O10 0.037238 0.240417 0.858666
O O11 0.058004 0.282789 0.005889
O O12 0.168613 0.724847 0.646213
O O13 0.231537 0.748682 0.717136
O O14 0.177144 0.000000 0.712597
O O15 0.135158 0.500000 0.575008
O O16 0.194591 0.728133 0.461988
O O17 0.099689 0.786504 0.591489
O O18 0.213544 0.500000 0.334741
O O19 0.962492 0.000000 0.415909
O O20 0.525753 0.500000 0.072657
#
# Coordination Sequence:
#
# PCOD8089063 Si02
#       8
#     8   8   8   8   8   8   8   8
#     4   9  19  36  54  73 101 139 178 213 253 301
#     4  11  21  34  54  77 103 137 174 210 253 307
#     4  11  22  38  57  79 107 136 167 202 250 309
#     4  11  20  32  52  78 105 134 171 213 258 302
#     4  10  19  33  50  72 104 140 177 212 253 305
#     4   8  17  33  52  73 101 137 175 215 255 297
#     4  11  21  32  48  74 107 139 174 215 257 300
#     4  11  22  38  58  81 107 132 164 207 256 304
#
# _framework density 18.709216999999999
#
# number of rings (size 3 to 8) (size 9 to 14) (size 15 to 20)
#    0.000    1.750    0.000    7.500    0.000    2.500 
#    0.000    5.625    0.000    0.750    0.000    0.000 
#    0.000    0.000    0.000    0.000    0.000    0.000 
#
# Total GULP energy -396806.041410 kJ/mol
# GULP energy per Si atom -12400.188794 kJ/mol
# Density = 1.866663 g / cm^3
# Si number density = 18.709217 Si / 1000 Ang^3
#
#
#
# Elastic Constant Matrix: (Units=GPa)
#
#
# Indices 1 2 3 4 5 6 
#
# 1 92.4633 5.9242 56.5675 0.0000 6.7304 0.0000
# 2 5.9242 51.0967 9.0305 0.0000 5.4749 -0.0001
# 3 56.5675 9.0305 70.8937 0.0000 -1.3987 0.0000
# 4 0.0000 0.0000 0.0000 25.8605 0.0000 2.2894
# 5 6.7304 5.4749 -1.3987 0.0000 29.3722 0.0000
# 6 0.0000 -0.0001 0.0000 2.2894 0.0000 19.6845
#
#
#
# Elastic Compliance Matrix: (Units=1/GPa)
#
#
# Indices 1 2 3 4 5 6 
#
# 1 0.022188 0.001268 -0.017988 0.000000 -0.006177 0.000000
# 2 0.001268 0.020540 -0.003713 0.000000 -0.004296 0.000000
# 3 -0.017988 -0.003713 0.029054 0.000000 0.006197 0.000000
# 4 0.000000 0.000000 0.000000 0.039071 0.000000 -0.004544
# 5 -0.006177 -0.004296 0.006197 0.000000 0.036557 0.000000
# 6 0.000000 0.000000 0.000000 -0.004544 0.000000 0.051330
#
#
# Mechanical properties :
#
#
# Convention : Reuss Voigt Hill
#
# Bulk Modulus (GPa) = 32.34493 39.72201 36.03347
# Shear Modulus (GPa) = 20.00711 24.51221 22.25966
#
# Velocity S-wave (km/s) = 3.27367 3.62355 3.45305
# Velocity P-wave (km/s) = 5.62272 6.22769 5.93292
#
# Compressibility (1/GPa) = 0.03091675
#
# Stress axis : x y z
#
# Youngs Moduli (GPa) = 45.06928 48.68492 34.41910
#
# Poissons Ratio (x) = -0.06175 0.61912
# Poissons Ratio (y) = -0.05717 0.12781
# Poissons Ratio (z) = 0.81069 0.18078
#
# Static dielectric constant tensor:
#      x y z
#    x 3.860960 0.000000 -0.131050 
#    y 0.000000 3.377190 0.000000 
#    z -0.131050 0.000000 3.218250 
# 
# 
# High freq. dielectric constant tensor:
#      x y z
#    x 1.729770 0.000000 0.000130 
#    y 0.000000 1.726630 0.000000 
#    z 0.000130 0.000000 1.701280 
# 
# From -- ./inp_files/249036.got.cif
#   From: 2010.06.25/outbox.cif.g09.slc.cpg/sg12_125_cif.got.tgz:249036.got - 2010.06.28 00:19:55.
