data_PCOD8089424
_publ_section_title
;
Structure prediction by ZEFSAII (Michael W. Deem and Ramdas Pophale) SiO2 
 PCOD8089424
Probable space group: C 2/M
;
_chemical_formula_sum "Si O2"
_cell_formula_units_Z 56
_cell_length_a 15.335431
_cell_length_b 9.090512
_cell_length_c 21.481143
_cell_angle_alpha 90.000000
_cell_angle_beta 89.620765
_cell_angle_gamma 90.000000
_cell_volume 2994.554377
_symmetry_space_group_name_H-M "C 2/M"
_symmetry_group_IT_number 12
_symmetry_cell_setting 'monoclinic'
loop_
_space_group_symop_operation_xyz
x,y,z
-x,y,-z
-x,-y,-z
x,-y,z
1/2+x,1/2+y,z
1/2-x,1/2+y,-z
1/2-x,1/2-y,-z
1/2+x,1/2-y,z
loop_
_atom_site_type_symbol
_atom_site_label
_atom_site_fract_x
_atom_site_fract_y
_atom_site_fract_z
Si Si1 0.835716 0.674667 0.632765
Si Si2 0.989616 0.326645 0.147959
Si Si3 0.851992 0.329372 0.941151
Si Si4 0.501951 0.174435 0.288547
Si Si5 0.902710 0.674563 0.500460
Si Si6 0.838309 0.674497 0.368202
Si Si7 0.153162 0.171888 0.931153
O O1 0.826724 0.500000 0.636299
O O2 0.853002 0.729636 0.562182
O O3 0.747974 0.749361 0.657842
O O4 0.912562 0.733652 0.676760
O O5 0.972707 0.500000 0.145956
O O6 0.001399 0.267818 0.217966
O O7 0.904677 0.248686 0.120861
O O8 0.077929 0.284486 0.111185
O O9 0.860374 0.500000 0.959811
O O10 0.754940 0.295034 0.916131
O O11 0.873370 0.234497 0.001657
O O12 0.417122 0.232330 0.325135
O O13 0.503183 0.000000 0.290420
O O14 0.909425 0.500000 0.500674
O O15 0.853175 0.728898 0.438992
O O16 0.000000 0.741166 0.500000
O O17 0.828671 0.500000 0.364450
O O18 0.133129 0.000000 0.930975
#
# Coordination Sequence:
#
# PCOD8089424 Si02
#       7
#     8   8   8   8   8   8   8
#     4  10  19  33  54  77 100 133 175 213 254 305
#     4  10  20  35  54  74 100 137 177 209 245 298
#     4   9  19  35  54  76 104 136 168 205 250 301
#     4   9  19  35  53  72  98 138 179 208 243 305
#     4   9  15  28  53  77  99 131 171 212 253 305
#     4  10  19  33  53  76 102 132 169 214 261 304
#     4  10  20  34  54  81 108 132 163 208 258 301
#
# _framework density 18.700612
#
# number of rings (size 3 to 8) (size 9 to 14) (size 15 to 20)
#    0.000    2.429    1.429    1.286    0.000    4.000 
#    0.000    3.571    0.000    0.857    0.000    0.000 
#    0.000    0.000    0.000    0.000    0.000    0.000 
#
# Total GULP energy -347224.357303 kJ/mol
# GULP energy per Si atom -12400.869904 kJ/mol
# Density = 1.865805 g / cm^3
# Si number density = 18.700612 Si / 1000 Ang^3
#
#
#
# Elastic Constant Matrix: (Units=GPa)
#
#
# Indices 1 2 3 4 5 6 
#
# 1 158.9341 37.4310 82.8396 0.0000 10.0283 0.0000
# 2 37.4310 34.1393 34.4865 0.0000 4.3728 0.0000
# 3 82.8396 34.4865 150.3933 0.0000 10.2683 0.0000
# 4 0.0000 0.0000 0.0000 15.1118 0.0000 4.2892
# 5 10.0283 4.3728 10.2683 0.0000 17.2848 0.0000
# 6 0.0000 0.0000 0.0000 4.2892 0.0000 31.2467
#
#
#
# Elastic Compliance Matrix: (Units=1/GPa)
#
#
# Indices 1 2 3 4 5 6 
#
# 1 0.010018 -0.006902 -0.003813 0.000000 -0.001801 0.000000
# 2 -0.006902 0.043238 -0.005878 0.000000 -0.003442 0.000000
# 3 -0.003813 -0.005878 0.010261 0.000000 -0.002397 0.000000
# 4 0.000000 0.000000 0.000000 0.068856 0.000000 -0.009452
# 5 -0.001801 -0.003442 -0.002397 0.000000 0.061194 0.000000
# 6 0.000000 0.000000 0.000000 -0.009452 0.000000 0.033301
#
#
# Mechanical properties :
#
#
# Convention : Reuss Voigt Hill
#
# Bulk Modulus (GPa) = 32.96877 72.55342 52.76110
# Shear Modulus (GPa) = 18.50725 25.30930 21.90827
#
# Velocity S-wave (km/s) = 3.14930 3.68284 3.42647
# Velocity P-wave (km/s) = 5.55807 7.54758 6.62790
#
# Compressibility (1/GPa) = 0.03033173
#
# Stress axis : x y z
#
# Youngs Moduli (GPa) = 99.81728 23.12771 97.45853
#
# Poissons Ratio (x) = 0.15963 0.37157
# Poissons Ratio (y) = 0.68896 0.57286
# Poissons Ratio (z) = 0.38056 0.13594
#
# Static dielectric constant tensor:
#      x y z
#    x 3.568350 0.000000 0.007790 
#    y 0.000000 3.041010 0.000000 
#    z 0.007790 0.000000 3.562540 
# 
# 
# High freq. dielectric constant tensor:
#      x y z
#    x 1.741610 0.000000 0.001040 
#    y 0.000000 1.689130 0.000000 
#    z 0.001040 0.000000 1.725140 
# 
# From -- ./inp_files/308908.got.cif
#   From: 2010.06.25/outbox.cif.g09.slc.cpg/sg12_155_cif.got.tgz:308908.got - 2010.06.28 00:19:55.
