data_PCOD8089836
_publ_section_title
;
Structure prediction by ZEFSAII (Michael W. Deem and Ramdas Pophale) SiO2 
 PCOD8089836
Probable space group: C 2/M
;
_chemical_formula_sum "Si O2"
_cell_formula_units_Z 64
_cell_length_a 9.131833
_cell_length_b 30.071756
_cell_length_c 16.779543
_cell_angle_alpha 90.000000
_cell_angle_beta 47.202599
_cell_angle_gamma 90.000000
_cell_volume 3381.047840
_symmetry_space_group_name_H-M "C 2/M"
_symmetry_group_IT_number 12
_symmetry_cell_setting 'monoclinic'
loop_
_space_group_symop_operation_xyz
x,y,z
-x,y,-z
-x,-y,-z
x,-y,z
1/2+x,1/2+y,z
1/2-x,1/2+y,-z
1/2-x,1/2-y,-z
1/2+x,1/2-y,z
loop_
_atom_site_type_symbol
_atom_site_label
_atom_site_fract_x
_atom_site_fract_y
_atom_site_fract_z
Si Si1 0.269536 0.051796 0.579513
Si Si2 0.276096 0.600074 0.563741
Si Si3 0.817085 0.307594 0.452157
Si Si4 0.180268 0.450731 0.995177
Si Si5 0.494826 0.692775 0.705712
Si Si6 0.639805 0.947568 0.767922
Si Si7 0.431908 0.403346 0.784426
Si Si8 0.697500 0.749031 0.348122
O O1 0.500000 0.063366 0.500000
O O2 0.195553 0.067602 0.521113
O O3 0.158317 0.079303 0.690651
O O4 0.223853 0.000000 0.607522
O O5 0.500000 0.616350 0.500000
O O6 0.141253 0.644113 0.601062
O O7 0.160290 0.572881 0.673582
O O8 0.677550 0.317864 0.579026
O O9 0.696760 0.275240 0.435613
O O10 0.021840 0.285342 0.405014
O O11 0.276718 0.500000 0.965451
O O12 0.082864 0.436471 0.115867
O O13 0.348875 0.416114 0.902977
O O14 0.000000 0.451926 0.000000
O O15 0.413620 0.649460 0.780088
O O16 0.314791 0.714179 0.720452
O O17 0.586653 0.726449 0.737975
O O18 0.808127 0.927756 0.762109
O O19 0.673924 0.000000 0.751413
#
# Coordination Sequence:
#
# PCOD8089836 Si02
#       8
#     8   8   8   8   8   8   8   8
#     4  11  24  37  49  74 116 153 176 208 270 333
#     4  12  22  33  53  81 113 144 180 219 268 322
#     4  11  19  32  47  73 106 138 178 214 262 326
#     4   8  16  31  52  79 106 136 181 230 269 303
#     4  11  19  31  48  75 105 137 177 214 263 323
#     4  10  19  33  54  81 109 141 183 229 270 307
#     4  11  19  31  55  79 107 139 184 225 265 312
#     4  10  21  32  49  70 106 145 169 214 272 321
#
# _framework density 18.929043
#
# number of rings (size 3 to 8) (size 9 to 14) (size 15 to 20)
#    0.000    1.500    2.500    6.750    1.750    0.500 
#    0.000    0.000    0.000    0.750    0.000   27.125 
#    0.000    0.000    0.000    0.000    0.000    0.000 
#
# Total GULP energy -396686.235134 kJ/mol
# GULP energy per Si atom -12396.444848 kJ/mol
# Density = 1.888596 g / cm^3
# Si number density = 18.929043 Si / 1000 Ang^3
#
#
#
# Elastic Constant Matrix: (Units=GPa)
#
#
# Indices 1 2 3 4 5 6 
#
# 1 64.9670 22.5660 13.2088 0.0000 -1.0822 0.0000
# 2 22.5660 103.7246 46.8900 0.0000 -6.5618 0.0000
# 3 13.2088 46.8900 98.5823 0.0000 -8.0910 0.0000
# 4 0.0000 0.0000 0.0000 7.9137 0.0000 -2.1443
# 5 -1.0822 -6.5618 -8.0910 0.0000 9.7420 0.0000
# 6 0.0000 0.0000 0.0000 -2.1443 0.0000 25.6377
#
#
#
# Elastic Compliance Matrix: (Units=1/GPa)
#
#
# Indices 1 2 3 4 5 6 
#
# 1 0.016692 -0.003372 -0.000716 0.000000 -0.001011 0.000000
# 2 -0.003372 0.013086 -0.005452 0.000000 0.003912 0.000000
# 3 -0.000716 -0.005452 0.013441 0.000000 0.007412 0.000000
# 4 0.000000 0.000000 0.000000 0.129294 0.000000 0.010814
# 5 -0.001011 0.003912 0.007412 0.000000 0.111326 0.000000
# 6 0.000000 0.000000 0.000000 0.010814 0.000000 0.039910
#
#
# Mechanical properties :
#
#
# Convention : Reuss Voigt Hill
#
# Bulk Modulus (GPa) = 41.42291 48.06709 44.74500
# Shear Modulus (GPa) = 14.25008 20.96595 17.60801
#
# Velocity S-wave (km/s) = 2.74673 3.33168 3.05325
# Velocity P-wave (km/s) = 5.65598 6.34418 6.00994
#
# Compressibility (1/GPa) = 0.02414123
#
# Stress axis : x y z
#
# Youngs Moduli (GPa) = 59.90775 76.41478 74.39914
#
# Poissons Ratio (x) = 0.25767 0.05325
# Poissons Ratio (y) = 0.20201 0.40559
# Poissons Ratio (z) = 0.04288 0.41658
#
# Static dielectric constant tensor:
#      x y z
#    x 5.640830 0.000000 -1.797070 
#    y 0.000000 3.681020 0.000000 
#    z -1.797070 0.000000 5.081640 
# 
# 
# High freq. dielectric constant tensor:
#      x y z
#    x 1.718510 0.000000 0.000530 
#    y 0.000000 1.748530 0.000000 
#    z 0.000530 0.000000 1.700220 
# 
# From -- ./inp_files/201274.got.cif
#   From: 2010.06.25/outbox.cif.g09.slc.cpg/sg12_101_cif.got.tgz:201274.got - 2010.06.28 00:19:55.
