data_PCOD8089454
_publ_section_title
;
Structure prediction by ZEFSAII (Michael W. Deem and Ramdas Pophale) SiO2 
 PCOD8089454
Probable space group: C 2/M
;
_chemical_formula_sum "Si O2"
_cell_formula_units_Z 64
_cell_length_a 20.689178
_cell_length_b 8.977786
_cell_length_c 19.779338
_cell_angle_alpha 90.000000
_cell_angle_beta 105.383601
_cell_angle_gamma 90.000000
_cell_volume 3542.243966
_symmetry_space_group_name_H-M "C 2/M"
_symmetry_group_IT_number 12
_symmetry_cell_setting 'monoclinic'
loop_
_space_group_symop_operation_xyz
x,y,z
-x,y,-z
-x,-y,-z
x,-y,z
1/2+x,1/2+y,z
1/2-x,1/2+y,-z
1/2-x,1/2-y,-z
1/2+x,1/2-y,z
loop_
_atom_site_type_symbol
_atom_site_label
_atom_site_fract_x
_atom_site_fract_y
_atom_site_fract_z
Si Si1 0.915538 0.176489 0.156293
Si Si2 0.428505 0.323911 0.451870
Si Si3 0.890786 0.174813 0.294597
Si Si4 0.170121 0.172447 0.150903
Si Si5 0.768265 0.823567 0.075101
Si Si6 0.260372 0.830292 0.295493
Si Si7 0.292850 0.175819 0.453284
Si Si8 0.521040 0.677336 0.079436
O O1 0.929822 0.228896 0.237836
O O2 0.842447 0.232310 0.114290
O O3 0.970704 0.246197 0.121353
O O4 0.919361 0.000000 0.152135
O O5 0.500000 0.271019 0.500000
O O6 0.417936 0.500000 0.458671
O O7 0.429359 0.276109 0.373166
O O8 0.368380 0.240800 0.474005
O O9 0.815894 0.236547 0.271910
O O10 0.882274 0.000000 0.289791
O O11 0.217622 0.271390 0.118330
O O12 0.190445 0.191929 0.235822
O O13 0.095007 0.231905 0.119850
O O14 0.176327 0.000000 0.130418
O O15 0.764606 0.000000 0.067231
O O16 0.750000 0.750000 0.000000
O O17 0.254880 0.782519 0.372554
O O18 0.284630 0.000000 0.299420
O O19 0.250000 0.250000 0.500000
O O20 0.296597 0.000000 0.466645
O O21 0.517455 0.500000 0.078549
O O22 0.500000 0.739243 0.000000
#
# Coordination Sequence:
#
# PCOD8089454 Si02
#       8
#     8   8   8   8   8   8   8   8
#     4   9  17  30  49  74  97 127 171 210 247 297
#     4   9  18  33  53  80 109 138 172 216 265 314
#     4   9  16  30  52  76 101 132 169 210 255 301
#     4  10  19  33  53  77 102 131 167 210 259 307
#     4  11  21  33  52  77 102 130 168 214 254 301
#     4   9  18  32  51  77 105 133 167 210 261 308
#     4  10  20  35  54  78 108 144 180 219 265 317
#     4   9  17  30  48  70  99 132 165 203 247 299
#
# _framework density 18.067644000000001
#
# number of rings (size 3 to 8) (size 9 to 14) (size 15 to 20)
#    0.000    2.500    1.250    1.500    0.000    2.750 
#    2.250    0.000    0.000    4.875    0.000    0.000 
#    0.000    0.000    0.000    0.000    0.000    0.000 
#
# Total GULP energy -396683.314913 kJ/mol
# GULP energy per Si atom -12396.353591 kJ/mol
# Density = 1.802652 g / cm^3
# Si number density = 18.067644 Si / 1000 Ang^3
#
#
#
# Elastic Constant Matrix: (Units=GPa)
#
#
# Indices 1 2 3 4 5 6 
#
# 1 155.1826 34.1849 94.5571 0.0000 -1.2237 0.0000
# 2 34.1849 35.2869 31.4566 0.0000 -1.2173 0.0000
# 3 94.5571 31.4566 149.2653 0.0000 -5.6418 0.0000
# 4 0.0000 0.0000 0.0000 20.1178 0.0000 -1.2474
# 5 -1.2237 -1.2173 -5.6418 0.0000 38.0060 0.0000
# 6 0.0000 0.0000 0.0000 -1.2474 0.0000 23.9268
#
#
#
# Elastic Compliance Matrix: (Units=1/GPa)
#
#
# Indices 1 2 3 4 5 6 
#
# 1 0.011358 -0.005652 -0.006031 0.000000 -0.000711 0.000000
# 2 -0.005652 0.037707 -0.004352 0.000000 0.000380 0.000000
# 3 -0.006031 -0.004352 0.011489 0.000000 0.001372 0.000000
# 4 0.000000 0.000000 0.000000 0.049868 0.000000 0.002600
# 5 -0.000711 0.000380 0.001372 0.000000 0.026505 0.000000
# 6 0.000000 0.000000 0.000000 0.002600 0.000000 0.041930
#
#
# Mechanical properties :
#
#
# Convention : Reuss Voigt Hill
#
# Bulk Modulus (GPa) = 35.10623 73.34801 54.22712
# Shear Modulus (GPa) = 22.68382 28.37918 25.53150
#
# Velocity S-wave (km/s) = 3.54714 3.96753 3.76321
# Velocity P-wave (km/s) = 6.02070 7.85321 6.99720
#
# Compressibility (1/GPa) = 0.02848497
#
# Stress axis : x y z
#
# Youngs Moduli (GPa) = 88.04091 26.52035 87.03905
#
# Poissons Ratio (x) = 0.14988 0.52494
# Poissons Ratio (y) = 0.49758 0.37878
# Poissons Ratio (z) = 0.53099 0.11541
#
# Static dielectric constant tensor:
#      x y z
#    x 3.416140 0.000000 -0.026490 
#    y 0.000000 3.118600 0.000000 
#    z -0.026490 0.000000 3.617520 
# 
# 
# High freq. dielectric constant tensor:
#      x y z
#    x 1.689450 0.000000 0.002410 
#    y 0.000000 1.673050 0.000000 
#    z 0.002410 0.000000 1.716730 
# 
# From -- ./inp_files/314106.got.cif
#   From: 2010.06.25/outbox.cif.g09.slc.cpg/sg12_158_cif.got.tgz:314106.got - 2010.06.28 00:19:55.
