data_PCOD8089652
_publ_section_title
;
Structure prediction by ZEFSAII (Michael W. Deem and Ramdas Pophale) SiO2 
 PCOD8089652
Probable space group: C 2/M
;
_chemical_formula_sum "Si O2"
_cell_formula_units_Z 64
_cell_length_a 18.800408
_cell_length_b 8.931410
_cell_length_c 30.082012
_cell_angle_alpha 90.000000
_cell_angle_beta 137.751892
_cell_angle_gamma 90.000000
_cell_volume 3396.132747
_symmetry_space_group_name_H-M "C 2/M"
_symmetry_group_IT_number 12
_symmetry_cell_setting 'monoclinic'
loop_
_space_group_symop_operation_xyz
x,y,z
-x,y,-z
-x,-y,-z
x,-y,z
1/2+x,1/2+y,z
1/2-x,1/2+y,-z
1/2-x,1/2-y,-z
1/2+x,1/2-y,z
loop_
_atom_site_type_symbol
_atom_site_label
_atom_site_fract_x
_atom_site_fract_y
_atom_site_fract_z
Si Si1 0.603636 0.668172 0.778869
Si Si2 0.155099 0.822514 0.983623
Si Si3 0.307100 0.675888 0.900008
Si Si4 0.867799 0.827780 0.673375
Si Si5 0.657046 0.177076 0.429325
Si Si6 0.419315 0.677968 0.864089
Si Si7 0.939947 0.828795 0.343251
Si Si8 0.258566 0.674014 0.714817
O O1 0.635280 0.500000 0.807710
O O2 0.684599 0.782957 0.837898
O O3 0.487656 0.709750 0.743287
O O4 0.605801 0.685893 0.727134
O O5 0.155182 0.764585 0.034668
O O6 0.170304 0.000000 0.988256
O O7 0.250000 0.750000 0.000000
O O8 0.040716 0.772100 0.911353
O O9 0.319176 0.500000 0.904284
O O10 0.376985 0.743927 0.891782
O O11 0.829298 0.722762 0.615764
O O12 0.795818 0.798044 0.682209
O O13 0.863150 0.000000 0.654524
O O14 0.750000 0.250000 0.500000
O O15 0.546720 0.234900 0.398301
O O16 0.661968 0.000000 0.436095
O O17 0.414642 0.500000 0.863564
O O18 0.345186 0.737998 0.789835
O O19 0.851113 0.762149 0.334163
O O20 0.963856 0.000000 0.367112
O O21 0.238342 0.500000 0.715475
#
# Coordination Sequence:
#
# PCOD8089652 Si02
#       8
#     8   8   8   8   8   8   8   8
#     4   9  18  32  52  78 108 145 181 225 280 330
#     4  10  22  37  53  75 105 142 183 236 290 343
#     4  10  19  33  54  77 101 136 188 236 277 335
#     4   9  20  36  55  84 119 150 188 231 279 333
#     4  11  22  39  64  89 117 154 192 228 272 327
#     4   9  18  34  56  77 103 142 188 231 280 337
#     4  10  20  36  57  85 119 149 185 232 277 329
#     4  10  19  34  58  85 113 150 190 232 284 342
#
# _framework density 18.844964999999998
#
# number of rings (size 3 to 8) (size 9 to 14) (size 15 to 20)
#    0.000    2.250    1.250    2.625    1.750    4.500 
#    0.000    1.875    0.000    5.250    0.000    0.000 
#    0.000    0.000    0.000    0.000    0.000    0.000 
#
# Total GULP energy -396782.082957 kJ/mol
# GULP energy per Si atom -12399.440092 kJ/mol
# Density = 1.880207 g / cm^3
# Si number density = 18.844965 Si / 1000 Ang^3
#
#
#
# Elastic Constant Matrix: (Units=GPa)
#
#
# Indices 1 2 3 4 5 6 
#
# 1 117.0007 50.1939 59.2626 0.0000 13.2396 0.0000
# 2 50.1939 67.4874 42.2712 0.0000 7.2857 -0.0001
# 3 59.2626 42.2712 115.5553 0.0000 19.4381 0.0000
# 4 0.0000 0.0000 0.0000 28.6361 0.0000 4.5439
# 5 13.2396 7.2857 19.4381 0.0000 17.4284 0.0000
# 6 0.0000 -0.0001 0.0000 4.5439 0.0000 29.3885
#
#
#
# Elastic Compliance Matrix: (Units=1/GPa)
#
#
# Indices 1 2 3 4 5 6 
#
# 1 0.014232 -0.007790 -0.003912 0.000000 -0.003191 0.000000
# 2 -0.007790 0.023486 -0.004850 0.000000 0.001509 0.000000
# 3 -0.003912 -0.004850 0.014271 0.000000 -0.010917 0.000000
# 4 0.000000 0.000000 0.000000 0.035799 0.000000 -0.005535
# 5 -0.003191 0.001509 -0.010917 0.000000 0.071347 0.000000
# 6 0.000000 0.000000 0.000000 -0.005535 0.000000 0.034883
#
#
# Mechanical properties :
#
#
# Convention : Reuss Voigt Hill
#
# Bulk Modulus (GPa) = 52.95466 67.05543 60.00504
# Shear Modulus (GPa) = 21.42083 24.97830 23.19957
#
# Velocity S-wave (km/s) = 3.37514 3.64464 3.51247
# Velocity P-wave (km/s) = 6.58406 7.30555 6.95417
#
# Compressibility (1/GPa) = 0.01888408
#
# Stress axis : x y z
#
# Youngs Moduli (GPa) = 70.26640 42.57782 70.07209
#
# Poissons Ratio (x) = 0.33167 0.27414
# Poissons Ratio (y) = 0.54736 0.33988
# Poissons Ratio (z) = 0.27490 0.20652
#
# Static dielectric constant tensor:
#      x y z
#    x 4.136250 0.000000 0.255060 
#    y 0.000000 3.286340 0.000000 
#    z 0.255060 0.000000 3.515180 
# 
# 
# High freq. dielectric constant tensor:
#      x y z
#    x 1.738150 0.000000 0.008930 
#    y 0.000000 1.711050 0.000000 
#    z 0.008930 0.000000 1.728000 
# 
# From -- ./inp_files/378266.got.cif
#   From: 2010.06.25/outbox.cif.g09.slc.cpg/sg12_190_cif.got.tgz:378266.got - 2010.06.28 00:19:55.
