data_PCOD8089817
_publ_section_title
;
Structure prediction by ZEFSAII (Michael W. Deem and Ramdas Pophale) SiO2 
 PCOD8089817
Probable space group: C 2/M
;
_chemical_formula_sum "Si O2"
_cell_formula_units_Z 64
_cell_length_a 20.038408
_cell_length_b 8.925770
_cell_length_c 19.917296
_cell_angle_alpha 90.000000
_cell_angle_beta 74.638532
_cell_angle_gamma 90.000000
_cell_volume 3435.102022
_symmetry_space_group_name_H-M "C 2/M"
_symmetry_group_IT_number 12
_symmetry_cell_setting 'monoclinic'
loop_
_space_group_symop_operation_xyz
x,y,z
-x,y,-z
-x,-y,-z
x,-y,z
1/2+x,1/2+y,z
1/2-x,1/2+y,-z
1/2-x,1/2-y,-z
1/2+x,1/2-y,z
loop_
_atom_site_type_symbol
_atom_site_label
_atom_site_fract_x
_atom_site_fract_y
_atom_site_fract_z
Si Si1 0.922646 0.826931 0.350792
Si Si2 0.807018 0.171951 0.274439
Si Si3 0.670475 0.326606 0.355808
Si Si4 0.564818 0.176534 0.284978
Si Si5 0.322829 0.173863 0.991028
Si Si6 0.792902 0.329089 0.144240
Si Si7 0.322162 0.672287 0.493169
Si Si8 0.635516 0.325275 0.144985
O O1 0.877786 0.805501 0.295747
O O2 0.880046 0.767332 0.426596
O O3 0.989205 0.723205 0.328901
O O4 0.945067 0.000000 0.354031
O O5 0.748898 0.275937 0.322929
O O6 0.821145 0.219646 0.194000
O O7 0.782364 0.000000 0.283581
O O8 0.663239 0.500000 0.336382
O O9 0.619568 0.227264 0.325747
O O10 0.650858 0.302366 0.438656
O O11 0.580418 0.252880 0.209627
O O12 0.569362 0.000000 0.275081
O O13 0.376585 0.252977 0.925864
O O14 0.317151 0.000000 0.973979
O O15 0.250000 0.250000 0.000000
O O16 0.340857 0.194921 0.065189
O O17 0.798545 0.500000 0.167619
O O18 0.712739 0.290806 0.150687
O O19 0.308658 0.500000 0.480465
O O20 0.250000 0.750000 0.500000
O O21 0.620593 0.500000 0.143374
#
# Coordination Sequence:
#
# PCOD8089817 Si02
#       8
#     8   8   8   8   8   8   8   8
#     4  10  23  42  59  82 116 151 189 235 289 344
#     4  11  21  34  58  86 114 149 192 237 280 335
#     4  11  22  37  60  86 115 151 188 233 288 341
#     4  12  25  39  58  84 114 152 195 238 284 342
#     4   9  17  29  47  76 113 151 189 232 281 333
#     4   9  18  31  51  80 115 150 187 231 282 333
#     4  10  21  38  62  87 114 150 188 233 287 341
#     4  10  19  33  54  80 113 151 186 232 289 342
#
# _framework density 18.631177999999998
#
# number of rings (size 3 to 8) (size 9 to 14) (size 15 to 20)
#    0.000    1.750    2.500    3.375    0.000    5.000 
#    0.000    2.500    0.000    0.750    0.000    5.250 
#    0.000    0.000    0.000    0.000    0.000    0.000 
#
# Total GULP energy -396833.576699 kJ/mol
# GULP energy per Si atom -12401.049272 kJ/mol
# Density = 1.858877 g / cm^3
# Si number density = 18.631178 Si / 1000 Ang^3
#
#
#
# Elastic Constant Matrix: (Units=GPa)
#
#
# Indices 1 2 3 4 5 6 
#
# 1 40.7620 21.7390 20.3538 0.0000 -8.3542 0.0000
# 2 21.7390 99.2725 48.8144 0.0000 -2.0254 0.0000
# 3 20.3538 48.8144 129.9558 0.0000 -2.7408 0.0000
# 4 0.0000 0.0000 0.0000 34.1314 0.0000 -0.9979
# 5 -8.3542 -2.0254 -2.7408 0.0000 24.1337 0.0000
# 6 0.0000 0.0000 0.0000 -0.9979 0.0000 28.1200
#
#
#
# Elastic Compliance Matrix: (Units=1/GPa)
#
#
# Indices 1 2 3 4 5 6 
#
# 1 0.030653 -0.005216 -0.002633 0.000000 0.009874 0.000000
# 2 -0.005216 0.013249 -0.004184 0.000000 -0.001169 0.000000
# 3 -0.002633 -0.004184 0.009676 0.000000 -0.000164 0.000000
# 4 0.000000 0.000000 0.000000 0.029329 0.000000 0.001041
# 5 0.009874 -0.001169 -0.000164 0.000000 0.044737 0.000000
# 6 0.000000 0.000000 0.000000 0.001041 0.000000 0.035599
#
#
# Mechanical properties :
#
#
# Convention : Reuss Voigt Hill
#
# Bulk Modulus (GPa) = 33.88667 50.20053 42.04360
# Shear Modulus (GPa) = 25.36171 29.21590 27.28881
#
# Velocity S-wave (km/s) = 3.69352 3.96424 3.83127
# Velocity P-wave (km/s) = 6.03465 6.92506 6.49513
#
# Compressibility (1/GPa) = 0.02951013
#
# Stress axis : x y z
#
# Youngs Moduli (GPa) = 32.62312 75.47590 103.35196
#
# Poissons Ratio (x) = 0.39370 0.27216
# Poissons Ratio (y) = 0.17017 0.43247
# Poissons Ratio (z) = 0.08591 0.31582
#
# Static dielectric constant tensor:
#      x y z
#    x 3.098080 0.000000 0.173400 
#    y 0.000000 3.671800 0.000000 
#    z 0.173400 0.000000 4.009660 
# 
# 
# High freq. dielectric constant tensor:
#      x y z
#    x 1.683370 0.000000 0.010450 
#    y 0.000000 1.731810 0.000000 
#    z 0.010450 0.000000 1.744350 
# 
# From -- ./inp_files/319803.got.cif
#   From: 2010.06.25/outbox.cif.g09.slc.cpg/sg12_160_cif.got.tgz:319803.got - 2010.06.28 00:19:55.
