data_PCOD8089562
_publ_section_title
;
Structure prediction by ZEFSAII (Michael W. Deem and Ramdas Pophale) SiO2 
 PCOD8089562
Probable space group: C 2/M
;
_chemical_formula_sum "Si O2"
_cell_formula_units_Z 40
_cell_length_a 15.593939
_cell_length_b 9.488910
_cell_length_c 30.931476
_cell_angle_alpha 90.000000
_cell_angle_beta 152.508089
_cell_angle_gamma 90.000000
_cell_volume 2112.810761
_symmetry_space_group_name_H-M "C 2/M"
_symmetry_group_IT_number 12
_symmetry_cell_setting 'monoclinic'
loop_
_space_group_symop_operation_xyz
x,y,z
-x,y,-z
-x,-y,-z
x,-y,z
1/2+x,1/2+y,z
1/2-x,1/2+y,-z
1/2-x,1/2-y,-z
1/2+x,1/2-y,z
loop_
_atom_site_type_symbol
_atom_site_label
_atom_site_fract_x
_atom_site_fract_y
_atom_site_fract_z
Si Si1 0.588130 0.334998 0.405121
Si Si2 0.715604 0.163677 0.288419
Si Si3 0.143542 0.666277 0.098554
Si Si4 0.443650 0.333845 0.709216
Si Si5 0.065548 0.663148 0.910517
O O1 0.625185 0.500000 0.427534
O O2 0.750000 0.250000 0.500000
O O3 0.394268 0.291329 0.340514
O O4 0.586396 0.293667 0.354033
O O5 0.707447 0.253819 0.328850
O O6 0.530198 0.196625 0.177950
O O7 0.726477 0.000000 0.305674
O O8 0.145817 0.500000 0.093468
O O9 0.352547 0.721462 0.185112
O O10 0.081591 0.707317 0.118823
O O11 0.000000 0.735232 0.000000
O O12 0.420899 0.500000 0.706266
O O13 0.118949 0.500000 0.938633
O O14 0.250000 0.750000 0.000000
#
# Coordination Sequence:
#
# PCOD8089562 Si02
#       5
#     8   8   8   8   8
#     4  10  22  41  62  84 114 151 192 238 289 341
#     4  10  21  38  58  83 118 152 184 235 295 340
#     4   9  16  29  52  79 108 145 187 226 269 327
#     4  10  20  37  60  85 112 148 195 237 276 339
#     4  10  19  33  53  80 114 151 189 231 279 335
#
# _framework density 18.932126
#
# number of rings (size 3 to 8) (size 9 to 14) (size 15 to 20)
#    0.000    2.200    2.000    1.200    0.000    4.800 
#    0.000    5.000    0.000    3.600    0.000    0.000 
#    0.000    0.000    0.000    0.000    0.000    0.000 
#
# Total GULP energy -247987.254716 kJ/mol
# GULP energy per Si atom -12399.362736 kJ/mol
# Density = 1.888904 g / cm^3
# Si number density = 18.932126 Si / 1000 Ang^3
#
#
#
# Elastic Constant Matrix: (Units=GPa)
#
#
# Indices 1 2 3 4 5 6 
#
# 1 153.1532 61.4031 56.7287 0.0001 -8.7863 0.0000
# 2 61.4031 51.8000 49.6762 -0.0001 0.3060 0.0000
# 3 56.7287 49.6762 115.6229 0.0004 -4.8512 0.0000
# 4 0.0001 -0.0001 0.0004 33.1361 -0.0001 0.8381
# 5 -8.7863 0.3060 -4.8512 -0.0001 26.2434 0.0000
# 6 0.0000 0.0000 0.0000 0.8381 0.0000 32.1894
#
#
#
# Elastic Compliance Matrix: (Units=1/GPa)
#
#
# Indices 1 2 3 4 5 6 
#
# 1 0.012996 -0.016169 0.000767 0.000000 0.004681 0.000000
# 2 -0.016169 0.053186 -0.015290 0.000000 -0.008860 0.000000
# 3 0.000767 -0.015290 0.014976 0.000000 0.003203 0.000000
# 4 0.000000 0.000000 0.000000 0.030198 0.000000 -0.000786
# 5 0.004681 -0.008860 0.003203 0.000000 0.040368 0.000000
# 6 0.000000 0.000000 0.000000 -0.000786 0.000000 0.031087
#
#
# Mechanical properties :
#
#
# Convention : Reuss Voigt Hill
#
# Bulk Modulus (GPa) = 50.56811 72.91024 61.73917
# Shear Modulus (GPa) = 19.93723 28.49832 24.21778
#
# Velocity S-wave (km/s) = 3.24866 3.88401 3.58046
# Velocity P-wave (km/s) = 6.39061 7.66218 7.05510
#
# Compressibility (1/GPa) = 0.01977531
#
# Stress axis : x y z
#
# Youngs Moduli (GPa) = 76.94402 18.80184 66.77272
#
# Poissons Ratio (x) = 0.30400 -0.05119
# Poissons Ratio (y) = 1.24408 1.02094
# Poissons Ratio (z) = -0.05898 0.28748
#
# Static dielectric constant tensor:
#      x y z
#    x 3.116690 0.000000 -0.388930 
#    y 0.000000 3.155550 0.000000 
#    z -0.388930 0.000000 3.276780 
# 
# 
# High freq. dielectric constant tensor:
#      x y z
#    x 1.749090 0.000000 -0.002440 
#    y 0.000000 1.703530 0.000000 
#    z -0.002440 0.000000 1.739130 
# 
# From -- ./inp_files/202875.got.cif
#   From: 2010.06.25/outbox.cif.g09.slc.cpg/sg12_102_cif.got.tgz:202875.got - 2010.06.28 00:19:55.
