data_PCOD8089971
_publ_section_title
;
Structure prediction by ZEFSAII (Michael W. Deem and Ramdas Pophale) SiO2 
 PCOD8089971
Probable space group: C 2/M
;
_chemical_formula_sum "Si O2"
_cell_formula_units_Z 64
_cell_length_a 27.721986
_cell_length_b 17.855646
_cell_length_c 22.601002
_cell_angle_alpha 90.000000
_cell_angle_beta 162.205266
_cell_angle_gamma 90.000000
_cell_volume 3418.944314
_symmetry_space_group_name_H-M "C 2/M"
_symmetry_group_IT_number 12
_symmetry_cell_setting 'monoclinic'
loop_
_space_group_symop_operation_xyz
x,y,z
-x,y,-z
-x,-y,-z
x,-y,z
1/2+x,1/2+y,z
1/2-x,1/2+y,-z
1/2-x,1/2-y,-z
1/2+x,1/2-y,z
loop_
_atom_site_type_symbol
_atom_site_label
_atom_site_fract_x
_atom_site_fract_y
_atom_site_fract_z
Si Si1 0.949017 0.584144 0.073045
Si Si2 0.421561 0.336401 0.676218
Si Si3 0.665488 0.828765 0.664568
Si Si4 0.420370 0.164855 0.667151
Si Si5 0.200247 0.086287 0.070516
Si Si6 0.532294 0.913712 0.400608
Si Si7 0.328084 0.825466 0.827594
Si Si8 0.207810 0.915930 0.583126
O O1 0.880434 0.500000 0.997650
O O2 0.959585 0.619297 0.150729
O O3 0.119572 0.582312 0.242951
O O4 0.834256 0.634628 0.898760
O O5 0.474521 0.250809 0.731154
O O6 0.257705 0.343666 0.519100
O O7 0.410964 0.372307 0.598734
O O8 0.548420 0.380740 0.861799
O O9 0.500000 0.804383 0.500000
O O10 0.774721 0.871491 0.838712
O O11 0.638999 0.884328 0.578891
O O12 0.756505 0.756226 0.749051
O O13 0.428830 0.134093 0.611348
O O14 0.348635 0.096297 0.200694
O O15 0.170208 0.000000 0.050358
O O16 0.575792 0.000000 0.440109
O O17 0.212976 0.874449 0.651979
O O18 0.500000 0.818150 0.000000
O O19 0.144289 0.000000 0.518571
#
# Coordination Sequence:
#
# PCOD8089971 Si02
#       8
#     8   8   8   8   8   8   8   8
#     4   9  17  30  50  76 105 137 171 208 253 303
#     4  10  20  34  53  79 110 140 171 212 261 309
#     4  10  21  37  55  75 103 136 168 210 266 316
#     4  10  20  34  53  79 110 140 171 212 261 309
#     4  10  21  37  56  77 102 136 177 216 256 308
#     4  10  21  37  56  77 102 136 177 216 256 308
#     4  10  19  33  55  79 101 130 174 218 250 296
#     4   9  17  30  50  76 105 137 171 208 253 303
#
# _framework density 18.719228000000001
#
# number of rings (size 3 to 8) (size 9 to 14) (size 15 to 20)
#    0.000    2.250    0.000    3.000    0.000    8.000 
#    0.000    1.250    0.000    5.250    0.000    0.000 
#    0.000    0.000    0.000    0.000    0.000    0.000 
#
# Total GULP energy -396894.209660 kJ/mol
# GULP energy per Si atom -12402.944052 kJ/mol
# Density = 1.867662 g / cm^3
# Si number density = 18.719228 Si / 1000 Ang^3
#
#
#
# Elastic Constant Matrix: (Units=GPa)
#
#
# Indices 1 2 3 4 5 6 
#
# 1 67.3738 18.9140 15.3533 0.0011 -19.4709 0.0048
# 2 18.9140 102.1840 20.8154 0.0020 4.5384 0.0041
# 3 15.3533 20.8154 74.5281 -0.0038 -21.3119 0.0001
# 4 0.0011 0.0020 -0.0038 32.3563 -0.0010 -10.3106
# 5 -19.4709 4.5384 -21.3119 -0.0010 20.6499 0.0027
# 6 0.0048 0.0041 0.0001 -10.3106 0.0027 34.0466
#
#
#
# Elastic Compliance Matrix: (Units=1/GPa)
#
#
# Indices 1 2 3 4 5 6 
#
# 1 0.024232 -0.006956 0.005564 0.000000 0.030120 -0.000005
# 2 -0.006956 0.013257 -0.007063 -0.000002 -0.016762 0.000000
# 3 0.005564 -0.007063 0.022966 0.000003 0.030501 -0.000001
# 4 0.000000 -0.000002 0.000003 0.034207 0.000004 0.010359
# 5 0.030120 -0.016762 0.030501 0.000004 0.111989 -0.000010
# 6 -0.000005 0.000000 -0.000001 0.010359 -0.000010 0.032509
#
#
# Mechanical properties :
#
#
# Convention : Reuss Voigt Hill
#
# Bulk Modulus (GPa) = 22.96506 39.36128 31.16317
# Shear Modulus (GPa) = 18.47848 30.01078 24.24463
#
# Velocity S-wave (km/s) = 3.14529 4.00835 3.60275
# Velocity P-wave (km/s) = 5.04829 6.51884 5.83012
#
# Compressibility (1/GPa) = 0.04354442
#
# Stress axis : x y z
#
# Youngs Moduli (GPa) = 41.26774 75.43128 43.54234
#
# Poissons Ratio (x) = 0.52473 -0.24226
# Poissons Ratio (y) = 0.28708 0.30753
# Poissons Ratio (z) = -0.22961 0.53276
#
# Static dielectric constant tensor:
#      x y z
#    x 3.329830 -0.000010 -0.272060 
#    y -0.000010 3.635840 -0.000010 
#    z -0.272060 -0.000010 3.377330 
# 
# 
# High freq. dielectric constant tensor:
#      x y z
#    x 1.714720 0.000000 -0.028930 
#    y 0.000000 1.745890 0.000000 
#    z -0.028930 0.000000 1.719590 
# 
# From -- ./inp_files/317380.got.cif
#   From: 2010.06.25/outbox.cif.g09.slc.cpg/sg12_159_cif.got.tgz:317380.got - 2010.06.28 00:19:55.
