data_PCOD8089476
_publ_section_title
;
Structure prediction by ZEFSAII (Michael W. Deem and Ramdas Pophale) SiO2 
 PCOD8089476
Probable space group: C 2/M
;
_chemical_formula_sum "Si O2"
_cell_formula_units_Z 56
_cell_length_a 33.120177
_cell_length_b 9.198303
_cell_length_c 14.863571
_cell_angle_alpha 90.000000
_cell_angle_beta 46.120897
_cell_angle_gamma 90.000000
_cell_volume 3263.928886
_symmetry_space_group_name_H-M "C 2/M"
_symmetry_group_IT_number 12
_symmetry_cell_setting 'monoclinic'
loop_
_space_group_symop_operation_xyz
x,y,z
-x,y,-z
-x,-y,-z
x,-y,z
1/2+x,1/2+y,z
1/2-x,1/2+y,-z
1/2-x,1/2-y,-z
1/2+x,1/2-y,z
loop_
_atom_site_type_symbol
_atom_site_label
_atom_site_fract_x
_atom_site_fract_y
_atom_site_fract_z
Si Si1 0.615340 0.172127 0.856720
Si Si2 0.931699 0.831006 0.238502
Si Si3 0.852271 0.830963 0.522008
Si Si4 0.261226 0.831512 0.391171
Si Si5 0.579309 0.168065 0.444933
Si Si6 0.956429 0.330634 0.695356
Si Si7 0.942310 0.830424 0.895015
O O1 0.577046 0.236647 0.836971
O O2 0.679828 0.215533 0.741638
O O3 0.606214 0.000000 0.875232
O O4 0.598542 0.244187 0.976177
O O5 0.888672 0.775427 0.380914
O O6 0.993915 0.801427 0.176252
O O7 0.921820 0.000000 0.230102
O O8 0.787277 0.793908 0.605646
O O9 0.870413 0.753849 0.585804
O O10 0.863434 0.000000 0.518214
O O11 0.250000 0.750000 0.500000
O O12 0.260261 0.000000 0.417262
O O13 0.580543 0.198885 0.336434
O O14 0.520105 0.217741 0.577826
O O15 0.588716 0.000000 0.450075
O O16 0.953953 0.500000 0.726214
O O17 0.931356 0.231552 0.812557
O O18 0.927292 0.000000 0.920371
#
# Coordination Sequence:
#
# PCOD8089476 Si02
#       7
#     8   8   8   8   8   8   8
#     4  11  23  36  52  75 102 139 180 215 253 302
#     4  10  20  34  51  75 107 140 170 207 257 307
#     4  10  19  33  53  77 107 137 167 212 260 303
#     4  10  21  36  54  75 101 135 176 216 257 299
#     4   9  18  32  52  79 107 136 168 207 258 308
#     4   9  18  33  52  76 108 138 167 208 255 306
#     4  11  22  35  52  76 106 141 174 208 255 310
#
# _framework density 17.157236000000001
#
# number of rings (size 3 to 8) (size 9 to 14) (size 15 to 20)
#    0.000    2.000    2.857    2.143    0.000    5.143 
#    0.000    1.429    0.000    0.857    0.000    0.000 
#    0.000    0.000    0.000    0.000    0.000    0.000 
#
# Total GULP energy -347287.729340 kJ/mol
# GULP energy per Si atom -12403.133191 kJ/mol
# Density = 1.711819 g / cm^3
# Si number density = 17.157236 Si / 1000 Ang^3
#
#
#
# Elastic Constant Matrix: (Units=GPa)
#
#
# Indices 1 2 3 4 5 6 
#
# 1 92.7289 46.2407 43.2887 0.0000 16.3350 0.0000
# 2 46.2407 68.9430 48.9346 0.0000 10.8569 -0.0001
# 3 43.2887 48.9346 99.7443 0.0000 11.7212 0.0000
# 4 0.0000 0.0000 0.0000 27.4046 0.0000 7.0849
# 5 16.3350 10.8569 11.7212 0.0000 25.7906 0.0000
# 6 0.0000 -0.0001 0.0000 7.0849 0.0000 32.8000
#
#
#
# Elastic Compliance Matrix: (Units=1/GPa)
#
#
# Indices 1 2 3 4 5 6 
#
# 1 0.017524 -0.009048 -0.002440 0.000000 -0.006181 0.000000
# 2 -0.009048 0.027468 -0.009364 0.000000 -0.001576 0.000000
# 3 -0.002440 -0.009364 0.015882 0.000000 -0.001731 0.000000
# 4 0.000000 0.000000 0.000000 0.038649 0.000000 -0.008348
# 5 -0.006181 -0.001576 -0.001731 0.000000 0.044139 0.000000
# 6 0.000000 0.000000 0.000000 -0.008348 0.000000 0.032291
#
#
# Mechanical properties :
#
#
# Convention : Reuss Voigt Hill
#
# Bulk Modulus (GPa) = 52.16456 59.81602 55.99029
# Shear Modulus (GPa) = 22.31681 25.39585 23.85633
#
# Velocity S-wave (km/s) = 3.61047 3.85149 3.73292
# Velocity P-wave (km/s) = 6.91740 7.39714 7.16129
#
# Compressibility (1/GPa) = 0.01917010
#
# Stress axis : x y z
#
# Youngs Moduli (GPa) = 57.06401 36.40606 62.96560
#
# Poissons Ratio (x) = 0.32942 0.15363
# Poissons Ratio (y) = 0.51634 0.58958
# Poissons Ratio (z) = 0.13923 0.34089
#
# Static dielectric constant tensor:
#      x y z
#    x 3.204750 0.000000 -0.012920 
#    y 0.000000 3.177010 0.000000 
#    z -0.012920 0.000000 3.183160 
# 
# 
# High freq. dielectric constant tensor:
#      x y z
#    x 1.659670 0.000000 0.006960 
#    y 0.000000 1.664800 0.000000 
#    z 0.006960 0.000000 1.648730 
# 
# From -- ./inp_files/237389.got.cif
#   From: 2010.06.25/outbox.cif.g09.slc.cpg/sg12_119_cif.got.tgz:237389.got - 2010.06.28 00:19:55.
