data_PCOD8089673
_publ_section_title
;
Structure prediction by ZEFSAII (Michael W. Deem and Ramdas Pophale) SiO2 
 PCOD8089673
Probable space group: C 2/M
;
_chemical_formula_sum "Si O2"
_cell_formula_units_Z 40
_cell_length_a 18.450952
_cell_length_b 8.658786
_cell_length_c 26.529011
_cell_angle_alpha 90.000000
_cell_angle_beta 29.605387
_cell_angle_gamma 90.000000
_cell_volume 2093.845122
_symmetry_space_group_name_H-M "C 2/M"
_symmetry_group_IT_number 12
_symmetry_cell_setting 'monoclinic'
loop_
_space_group_symop_operation_xyz
x,y,z
-x,y,-z
-x,-y,-z
x,-y,z
1/2+x,1/2+y,z
1/2-x,1/2+y,-z
1/2-x,1/2-y,-z
1/2+x,1/2-y,z
loop_
_atom_site_type_symbol
_atom_site_label
_atom_site_fract_x
_atom_site_fract_y
_atom_site_fract_z
Si Si1 0.096011 0.318737 0.286653
Si Si2 0.921541 0.815901 0.097759
Si Si3 0.182485 0.681495 0.490746
Si Si4 0.088729 0.182632 0.095154
Si Si5 0.932098 0.317534 0.285668
O O1 0.111575 0.500000 0.269622
O O2 0.256362 0.246298 0.199092
O O3 0.992460 0.283957 0.398159
O O4 0.025378 0.255677 0.277285
O O5 0.010657 0.753970 0.091925
O O6 0.917067 0.000000 0.100956
O O7 0.000000 0.754105 0.000000
O O8 0.212884 0.500000 0.468603
O O9 0.250000 0.750000 0.500000
O O10 0.261006 0.766639 0.396268
O O11 0.992628 0.235303 0.200067
O O12 0.100009 0.000000 0.087361
O O13 0.250000 0.250000 0.000000
O O14 0.942179 0.500000 0.272883
#
# Coordination Sequence:
#
# PCOD8089673 Si02
#       5
#     8   8   8   8   8
#     4   8  15  29  51  77 101 131 173 214 247 287
#     4   9  17  31  52  76  99 128 170 213 251 297
#     4   9  16  28  49  77 107 137 172 212 253 299
#     4  11  22  35  54  77 102 132 166 209 259 309
#     4  10  19  33  54  77 104 136 171 212 253 299
#
# _framework density 19.103608000000001
#
# number of rings (size 3 to 8) (size 9 to 14) (size 15 to 20)
#    0.000    2.600    0.000    4.200    0.000    3.200 
#    0.000    1.000    0.000   28.800    0.000    0.000 
#    0.000    0.000    0.000    0.000    0.000    0.000 
#
# Total GULP energy -247865.777658 kJ/mol
# GULP energy per Si atom -12393.288883 kJ/mol
# Density = 1.906013 g / cm^3
# Si number density = 19.103608 Si / 1000 Ang^3
#
#
#
# Elastic Constant Matrix: (Units=GPa)
#
#
# Indices 1 2 3 4 5 6 
#
# 1 118.3583 22.2862 84.3105 0.0000 1.7294 -0.0003
# 2 22.2862 40.4950 24.1295 -0.0002 -0.7109 -0.0004
# 3 84.3105 24.1295 193.9777 -0.0020 1.6799 0.0001
# 4 0.0000 -0.0002 -0.0020 32.2353 0.0005 4.4246
# 5 1.7294 -0.7109 1.6799 0.0005 33.7948 0.0001
# 6 -0.0003 -0.0004 0.0001 4.4246 0.0001 19.3138
#
#
#
# Elastic Compliance Matrix: (Units=1/GPa)
#
#
# Indices 1 2 3 4 5 6 
#
# 1 0.012828 -0.004049 -0.005068 0.000000 -0.000490 0.000000
# 2 -0.004049 0.027967 -0.001727 0.000000 0.000881 0.000000
# 3 -0.005068 -0.001727 0.007574 0.000000 -0.000153 0.000000
# 4 0.000000 0.000000 0.000000 0.032029 0.000000 -0.007338
# 5 -0.000490 0.000881 -0.000153 0.000000 0.029642 0.000000
# 6 0.000000 0.000000 0.000000 -0.007338 0.000000 0.053457
#
#
# Mechanical properties :
#
#
# Convention : Reuss Voigt Hill
#
# Bulk Modulus (GPa) = 37.47766 68.25373 52.86570
# Shear Modulus (GPa) = 25.76271 31.87576 28.81924
#
# Velocity S-wave (km/s) = 3.67628 4.08925 3.88825
# Velocity P-wave (km/s) = 6.13847 7.62245 6.92035
#
# Compressibility (1/GPa) = 0.02668256
#
# Stress axis : x y z
#
# Youngs Moduli (GPa) = 77.95162 35.75633 132.02973
#
# Poissons Ratio (x) = 0.14477 0.66911
# Poissons Ratio (y) = 0.31562 0.22798
# Poissons Ratio (z) = 0.39505 0.06174
#
# Static dielectric constant tensor:
#      x y z
#    x 3.469010 0.000000 -0.087000 
#    y 0.000000 3.282750 0.000000 
#    z -0.087000 0.000000 4.512760 
# 
# 
# High freq. dielectric constant tensor:
#      x y z
#    x 1.714150 0.000000 0.002750 
#    y 0.000000 1.713890 0.000000 
#    z 0.002750 0.000000 1.771640 
# 
# From -- ./inp_files/151645.got.cif
#   From: 2010.06.25/outbox.cif.g09.slc.cpg/sg12_76_cif.got.tgz:151645.got - 2010.06.28 00:19:55.
