data_PCOD8089100
_publ_section_title
;
Structure prediction by ZEFSAII (Michael W. Deem and Ramdas Pophale) SiO2 
 PCOD8089100
Probable space group: C 2/M
;
_chemical_formula_sum "Si O2"
_cell_formula_units_Z 64
_cell_length_a 30.614310
_cell_length_b 13.242219
_cell_length_c 9.801719
_cell_angle_alpha 90.000000
_cell_angle_beta 88.641513
_cell_angle_gamma 90.000000
_cell_volume 3972.513710
_symmetry_space_group_name_H-M "C 2/M"
_symmetry_group_IT_number 12
_symmetry_cell_setting 'monoclinic'
loop_
_space_group_symop_operation_xyz
x,y,z
-x,y,-z
-x,-y,-z
x,-y,z
1/2+x,1/2+y,z
1/2-x,1/2+y,-z
1/2-x,1/2-y,-z
1/2+x,1/2-y,z
loop_
_atom_site_type_symbol
_atom_site_label
_atom_site_fract_x
_atom_site_fract_y
_atom_site_fract_z
Si Si1 0.363789 0.881119 0.978237
Si Si2 0.780799 0.113597 0.347278
Si Si3 0.731488 0.613524 0.333440
Si Si4 0.537773 0.120392 0.399819
Si Si5 0.324506 0.807415 0.251592
Si Si6 0.690496 0.811212 0.273553
Si Si7 0.870346 0.381479 0.495886
Si Si8 0.538462 0.880126 0.093039
O O1 0.338962 0.817305 0.094465
O O2 0.359603 0.000000 0.007764
O O3 0.341551 0.854432 0.837280
O O4 0.414386 0.847223 0.968278
O O5 0.771027 0.136369 0.505816
O O6 0.817390 0.189486 0.287026
O O7 0.736206 0.129024 0.265790
O O8 0.798013 0.000000 0.323942
O O9 0.716307 0.500000 0.299804
O O10 0.781055 0.627952 0.281527
O O11 0.699981 0.691328 0.255599
O O12 0.500000 0.164197 0.500000
O O13 0.583262 0.160375 0.457112
O O14 0.531711 0.162262 0.246778
O O15 0.536839 0.000000 0.400058
O O16 0.364007 0.853539 0.338073
O O17 0.668320 0.826827 0.421114
O O18 0.866938 0.500000 0.521319
O O19 0.535731 0.000000 0.097550
O O20 0.500000 0.835706 0.000000
#
# Coordination Sequence:
#
# PCOD8089100 Si02
#       8
#     8   8   8   8   8   8   8   8
#     4  11  22  33  47  70 103 134 162 198 238 287
#     4  10  19  33  52  71  96 127 163 209 252 280
#     4  10  19  33  51  72  98 125 162 212 250 277
#     4   9  18  29  44  68  94 125 162 196 232 281
#     4  11  21  33  47  74  96 129 170 202 237 285
#     4  11  19  33  50  71  94 132 169 197 238 290
#     4  11  18  29  49  69  96 129 167 201 230 281
#     4   9  18  31  44  63  96 132 157 187 240 291
#
# _framework density 16.110706
#
# number of rings (size 3 to 8) (size 9 to 14) (size 15 to 20)
#    0.000    1.750    3.750    3.000    1.750    2.000 
#    0.000    1.875    0.000    0.000    0.000    0.000 
#    0.000    6.000    0.000    0.000    0.000    0.000 
#
# Total GULP energy -396813.244303 kJ/mol
# GULP energy per Si atom -12400.413884 kJ/mol
# Density = 1.607404 g / cm^3
# Si number density = 16.110706 Si / 1000 Ang^3
#
#
#
# Elastic Constant Matrix: (Units=GPa)
#
#
# Indices 1 2 3 4 5 6 
#
# 1 88.8048 30.3795 30.2832 0.0000 5.1869 0.0000
# 2 30.3795 65.4692 17.9158 0.0000 -12.9652 0.0000
# 3 30.2832 17.9158 60.1042 0.0000 -6.6186 0.0000
# 4 0.0000 0.0000 0.0000 18.8646 0.0000 -0.1212
# 5 5.1869 -12.9652 -6.6186 0.0000 26.8856 0.0000
# 6 0.0000 0.0000 0.0000 -0.1212 0.0000 12.9008
#
#
#
# Elastic Compliance Matrix: (Units=1/GPa)
#
#
# Indices 1 2 3 4 5 6 
#
# 1 0.016787 -0.007540 -0.007162 0.000000 -0.008638 0.000000
# 2 -0.007540 0.021402 -0.001319 0.000000 0.011451 0.000000
# 3 -0.007162 -0.001319 0.021299 0.000000 0.005989 0.000000
# 4 0.000000 0.000000 0.000000 0.053013 0.000000 0.000498
# 5 -0.008638 0.011451 0.005989 0.000000 0.045857 0.000000
# 6 0.000000 0.000000 0.000000 0.000498 0.000000 0.077519
#
#
# Mechanical properties :
#
#
# Convention : Reuss Voigt Hill
#
# Bulk Modulus (GPa) = 36.43638 41.28170 38.85904
# Shear Modulus (GPa) = 18.04615 20.78352 19.41483
#
# Velocity S-wave (km/s) = 3.35047 3.59561 3.47521
# Velocity P-wave (km/s) = 6.13457 6.55113 6.34627
#
# Compressibility (1/GPa) = 0.02744510
#
# Stress axis : x y z
#
# Youngs Moduli (GPa) = 59.57055 46.72465 46.95102
#
# Poissons Ratio (x) = 0.35232 0.33624
# Poissons Ratio (y) = 0.44918 0.06195
# Poissons Ratio (z) = 0.42662 0.06165
#
# Static dielectric constant tensor:
#      x y z
#    x 3.074240 0.000000 0.034920 
#    y 0.000000 2.813130 0.000000 
#    z 0.034920 0.000000 3.060690 
# 
# 
# High freq. dielectric constant tensor:
#      x y z
#    x 1.613500 0.000000 0.002630 
#    y 0.000000 1.580730 0.000000 
#    z 0.002630 0.000000 1.623660 
# 
# From -- ./inp_files/111220.got.cif
#   From: 2010.06.25/outbox.cif.g09.slc.cpg/sg12_56_cif.got.tgz:111220.got - 2010.06.28 00:19:55.
