data_PCOD8089232
_publ_section_title
;
Structure prediction by ZEFSAII (Michael W. Deem and Ramdas Pophale) SiO2 
 PCOD8089232
Probable space group: C 2/M
;
_chemical_formula_sum "Si O2"
_cell_formula_units_Z 64
_cell_length_a 28.038964
_cell_length_b 21.395921
_cell_length_c 5.428830
_cell_angle_alpha 90.000000
_cell_angle_beta 100.865690
_cell_angle_gamma 90.000000
_cell_volume 3198.471010
_symmetry_space_group_name_H-M "C 2/M"
_symmetry_group_IT_number 12
_symmetry_cell_setting 'monoclinic'
loop_
_space_group_symop_operation_xyz
x,y,z
-x,y,-z
-x,-y,-z
x,-y,z
1/2+x,1/2+y,z
1/2-x,1/2+y,-z
1/2-x,1/2-y,-z
1/2+x,1/2-y,z
loop_
_atom_site_type_symbol
_atom_site_label
_atom_site_fract_x
_atom_site_fract_y
_atom_site_fract_z
Si Si1 0.801794 0.145779 0.769068
Si Si2 0.878721 0.350225 0.766588
Si Si3 0.818004 0.568665 0.994454
Si Si4 0.478149 0.284984 0.233294
Si Si5 0.128893 0.235982 0.938067
Si Si6 0.787916 0.928857 0.260135
Si Si7 0.195596 0.314360 0.680184
Si Si8 0.017173 0.644261 0.271298
O O1 0.807771 0.106273 0.523072
O O2 0.753727 0.190079 0.709808
O O3 0.847913 0.191626 0.830174
O O4 0.803163 0.102736 0.015758
O O5 0.864316 0.417286 0.866112
O O6 0.830593 0.318812 0.606098
O O7 0.924686 0.356466 0.635521
O O8 0.893606 0.300883 0.989063
O O9 0.823624 0.500000 0.119841
O O10 0.770227 0.571602 0.777709
O O11 0.816511 0.619892 0.203975
O O12 0.500000 0.317895 0.500000
O O13 0.420079 0.296456 0.210575
O O14 0.493989 0.212783 0.250570
O O15 0.500000 0.314832 0.000000
O O16 0.172606 0.252906 0.789282
O O17 0.807825 0.000000 0.281505
O O18 0.000000 0.607460 0.500000
O O19 0.000000 0.610516 0.000000
#
# Coordination Sequence:
#
# PCOD8089232 Si02
#       8
#     8   8   8   8   8   8   8   8
#     4  11  23  37  56  88 118 153 188 229 278 343
#     4  11  20  34  57  79 109 153 186 234 290 339
#     4   9  20  36  55  79 106 146 206 247 273 324
#     4  10  19  34  52  76 105 152 190 225 271 331
#     4  11  23  34  54  83 122 151 181 232 287 352
#     4  10  21  41  60  80 113 155 195 236 273 322
#     4  10  21  35  51  81 115 157 185 224 293 343
#     4  10  19  33  52  75 100 142 188 226 275 335
#
# _framework density 20.00956
#
# number of rings (size 3 to 8) (size 9 to 14) (size 15 to 20)
#    0.000    1.750    3.750    2.250    3.500    1.500 
#    0.000    0.000    0.000    0.750    0.000    0.000 
#    0.000   10.000    0.000    0.000    0.000    0.000 
#
# Total GULP energy -396441.264807 kJ/mol
# GULP energy per Si atom -12388.789525 kJ/mol
# Density = 1.996402 g / cm^3
# Si number density = 20.009560 Si / 1000 Ang^3
#
#
#
# Elastic Constant Matrix: (Units=GPa)
#
#
# Indices 1 2 3 4 5 6 
#
# 1 74.6720 8.6016 14.8312 0.0000 16.0377 0.0000
# 2 8.6016 43.2195 4.0770 0.0000 1.3346 0.0000
# 3 14.8312 4.0770 108.0972 0.0000 -7.0020 0.0000
# 4 0.0000 0.0000 0.0000 22.4552 0.0000 1.9531
# 5 16.0377 1.3346 -7.0020 0.0000 29.7851 0.0000
# 6 0.0000 0.0000 0.0000 1.9531 0.0000 6.8930
#
#
#
# Elastic Compliance Matrix: (Units=1/GPa)
#
#
# Indices 1 2 3 4 5 6 
#
# 1 0.016232 -0.002687 -0.002725 0.000000 -0.009260 0.000000
# 2 -0.002687 0.023712 -0.000508 0.000000 0.000265 0.000000
# 3 -0.002725 -0.000508 0.009891 0.000000 0.003816 0.000000
# 4 0.000000 0.000000 0.000000 0.045659 0.000000 -0.012937
# 5 -0.009260 0.000265 0.003816 0.000000 0.039445 0.000000
# 6 0.000000 0.000000 0.000000 -0.012937 0.000000 0.148740
#
#
# Mechanical properties :
#
#
# Convention : Reuss Voigt Hill
#
# Bulk Modulus (GPa) = 26.32099 31.22315 28.77207
# Shear Modulus (GPa) = 16.22397 25.05858 20.64128
#
# Velocity S-wave (km/s) = 2.85056 3.54267 3.21529
# Velocity P-wave (km/s) = 4.90072 5.68964 5.30985
#
# Compressibility (1/GPa) = 0.03799250
#
# Stress axis : x y z
#
# Youngs Moduli (GPa) = 61.60799 42.17217 101.09987
#
# Poissons Ratio (x) = 0.11333 0.27555
# Poissons Ratio (y) = 0.16557 0.05140
# Poissons Ratio (z) = 0.16791 0.02144
#
# Static dielectric constant tensor:
#      x y z
#    x 3.610880 0.000000 -0.163680 
#    y 0.000000 3.294870 0.000000 
#    z -0.163680 0.000000 4.371870 
# 
# 
# High freq. dielectric constant tensor:
#      x y z
#    x 1.772170 0.000000 -0.000260 
#    y 0.000000 1.724620 0.000000 
#    z -0.000260 0.000000 1.795730 
# 
# From -- ./inp_files/32347.got.cif
#   From: 2010.06.25/outbox.cif.g09.slc.cpg/sg12_17_cif.got.tgz:32347.got - 2010.06.28 00:19:55.
