data_PCOD8089613
_publ_section_title
;
Structure prediction by ZEFSAII (Michael W. Deem and Ramdas Pophale) SiO2 
 PCOD8089613
Probable space group: C 2/M
;
_chemical_formula_sum "Si O2"
_cell_formula_units_Z 56
_cell_length_a 20.420961
_cell_length_b 9.100591
_cell_length_c 23.360663
_cell_angle_alpha 90.000000
_cell_angle_beta 133.888798
_cell_angle_gamma 90.000000
_cell_volume 3128.797269
_symmetry_space_group_name_H-M "C 2/M"
_symmetry_group_IT_number 12
_symmetry_cell_setting 'monoclinic'
loop_
_space_group_symop_operation_xyz
x,y,z
-x,y,-z
-x,-y,-z
x,-y,z
1/2+x,1/2+y,z
1/2-x,1/2+y,-z
1/2-x,1/2-y,-z
1/2+x,1/2-y,z
loop_
_atom_site_type_symbol
_atom_site_label
_atom_site_fract_x
_atom_site_fract_y
_atom_site_fract_z
Si Si1 0.585313 0.838323 0.509777
Si Si2 0.105426 0.828404 0.807288
Si Si3 0.802575 0.674800 0.322952
Si Si4 0.813591 0.326439 0.921291
Si Si5 0.537086 0.175312 0.660688
Si Si6 0.124310 0.827529 0.153594
Si Si7 0.571564 0.328247 0.916397
O O1 0.500000 0.852158 0.500000
O O2 0.666000 0.758482 0.595537
O O3 0.549828 0.763147 0.429123
O O4 0.619920 0.000000 0.513624
O O5 0.208342 0.780804 0.855941
O O6 0.036217 0.744801 0.723113
O O7 0.079291 0.781188 0.855298
O O8 0.091171 0.000000 0.789437
O O9 0.809535 0.500000 0.332239
O O10 0.870379 0.728598 0.314230
O O11 0.701400 0.726115 0.245198
O O12 0.826492 0.500000 0.927711
O O13 0.866978 0.256493 0.900706
O O14 0.854764 0.264888 0.004749
O O15 0.532957 0.000000 0.662531
O O16 0.028571 0.787171 0.122961
O O17 0.134198 0.000000 0.146758
O O18 0.592731 0.500000 0.937716
#
# Coordination Sequence:
#
# PCOD8089613 Si02
#       7
#     8   8   8   8   8   8   8
#     4   7  11  20  39  70 100 119 145 194 239 268
#     4  10  21  35  49  69  99 130 159 195 238 285
#     4   8  13  24  45  73  98 119 152 197 237 272
#     4  11  22  35  52  72  95 124 159 201 246 285
#     4   9  15  26  48  74  96 122 158 198 236 274
#     4  10  19  33  54  75  95 124 161 199 237 281
#     4  10  22  37  51  69  95 128 164 198 235 283
#
# _framework density 17.898251999999999
#
# number of rings (size 3 to 8) (size 9 to 14) (size 15 to 20)
#    0.000    2.714    1.429    3.000    0.000    3.429 
#    0.000    0.000    0.000    5.571    0.000    0.000 
#    0.000    0.000    0.000    0.000    0.000    0.000 
#
# Total GULP energy -346980.896480 kJ/mol
# GULP energy per Si atom -12392.174874 kJ/mol
# Density = 1.785751 g / cm^3
# Si number density = 17.898252 Si / 1000 Ang^3
#
#
#
# Elastic Constant Matrix: (Units=GPa)
#
#
# Indices 1 2 3 4 5 6 
#
# 1 68.8598 25.0235 37.3795 0.0000 -21.5926 0.0000
# 2 25.0235 30.5679 35.5270 0.0000 -10.6664 0.0000
# 3 37.3795 35.5270 154.4358 0.0000 -31.5840 0.0000
# 4 0.0000 0.0000 0.0000 21.8162 0.0000 -6.1030
# 5 -21.5926 -10.6664 -31.5840 0.0000 19.0409 0.0000
# 6 0.0000 0.0000 0.0000 -6.1030 0.0000 17.2868
#
#
#
# Elastic Compliance Matrix: (Units=1/GPa)
#
#
# Indices 1 2 3 4 5 6 
#
# 1 0.027105 -0.015972 0.002376 0.000000 0.025732 0.000000
# 2 -0.015972 0.055975 -0.009538 0.000000 -0.002577 0.000000
# 3 0.002376 -0.009538 0.011430 0.000000 0.016311 0.000000
# 4 0.000000 0.000000 0.000000 0.050861 0.000000 0.017956
# 5 0.025732 -0.002577 0.016311 0.000000 0.107311 0.000000
# 6 0.000000 0.000000 0.000000 0.017956 0.000000 0.064187
#
#
# Mechanical properties :
#
#
# Convention : Reuss Voigt Hill
#
# Bulk Modulus (GPa) = 20.72820 49.96930 35.34875
# Shear Modulus (GPa) = 13.18507 22.02437 17.60472
#
# Velocity S-wave (km/s) = 2.71711 3.51170 3.13964
# Velocity P-wave (km/s) = 4.63140 6.66497 5.73898
#
# Compressibility (1/GPa) = 0.04824347
#
# Stress axis : x y z
#
# Youngs Moduli (GPa) = 36.89299 17.86515 87.48919
#
# Poissons Ratio (x) = 0.28534 -0.20789
# Poissons Ratio (y) = 0.58924 0.83446
# Poissons Ratio (z) = -0.08766 0.17040
#
# Static dielectric constant tensor:
#      x y z
#    x 3.052130 0.000000 -0.011140 
#    y 0.000000 2.929380 0.000000 
#    z -0.011140 0.000000 3.848980 
# 
# 
# High freq. dielectric constant tensor:
#      x y z
#    x 1.658280 0.000000 -0.006360 
#    y 0.000000 1.653780 0.000000 
#    z -0.006360 0.000000 1.720580 
# 
# From -- ./inp_files/280226.got.cif
#   From: 2010.06.25/outbox.cif.g09.slc.cpg/sg12_141_cif.got.tgz:280226.got - 2010.06.28 00:19:55.
