data_PCOD8089640
_publ_section_title
;
Structure prediction by ZEFSAII (Michael W. Deem and Ramdas Pophale) SiO2 
 PCOD8089640
Probable space group: C 2/M
;
_chemical_formula_sum "Si O2"
_cell_formula_units_Z 56
_cell_length_a 16.303909
_cell_length_b 13.308100
_cell_length_c 13.559150
_cell_angle_alpha 90.000000
_cell_angle_beta 94.228571
_cell_angle_gamma 90.000000
_cell_volume 2933.975136
_symmetry_space_group_name_H-M "C 2/M"
_symmetry_group_IT_number 12
_symmetry_cell_setting 'monoclinic'
loop_
_space_group_symop_operation_xyz
x,y,z
-x,y,-z
-x,-y,-z
x,-y,z
1/2+x,1/2+y,z
1/2-x,1/2+y,-z
1/2-x,1/2-y,-z
1/2+x,1/2-y,z
loop_
_atom_site_type_symbol
_atom_site_label
_atom_site_fract_x
_atom_site_fract_y
_atom_site_fract_z
Si Si1 0.133332 0.612292 0.361532
Si Si2 0.318824 0.614703 0.977186
Si Si3 0.761318 0.208620 0.678693
Si Si4 0.891585 0.385465 0.420383
Si Si5 0.669417 0.213511 0.870303
Si Si6 0.413066 0.614635 0.786748
Si Si7 0.514602 0.797529 0.743776
O O1 0.167273 0.500000 0.349220
O O2 0.209823 0.687716 0.368720
O O3 0.085324 0.621012 0.462069
O O4 0.069525 0.637327 0.266537
O O5 0.325416 0.500000 0.012436
O O6 0.223974 0.634231 0.936347
O O7 0.382292 0.637789 0.894775
O O8 0.344073 0.684747 0.069880
O O9 0.703666 0.146061 0.600092
O O10 0.715529 0.241581 0.774120
O O11 0.838729 0.136713 0.705557
O O12 0.904393 0.500000 0.382800
O O13 0.945311 0.308111 0.361020
O O14 0.580005 0.166276 0.833275
O O15 0.441141 0.500000 0.778129
O O16 0.491591 0.682244 0.765429
#
# Coordination Sequence:
#
# PCOD8089640 Si02
#       7
#     8   8   8   8   8   8   8
#     4  10  20  33  51  76 105 135 166 203 249 298
#     4   9  18  34  55  74  96 129 169 209 245 292
#     4   9  18  33  53  75 102 134 168 209 247 288
#     4  10  19  33  54  76  98 132 175 209 242 291
#     4   9  19  33  50  76 101 128 166 205 248 295
#     4   9  18  33  52  74 100 133 170 206 250 298
#     4  10  20  32  49  74 104 131 162 209 252 294
#
# _framework density 19.086732000000001
#
# number of rings (size 3 to 8) (size 9 to 14) (size 15 to 20)
#    0.000    2.571    0.000    1.714    0.000    6.857 
#    0.000    3.571    0.000    8.571    0.000   16.000 
#    0.000    0.000    0.000    0.000    0.000    0.000 
#
# Total GULP energy -347085.860738 kJ/mol
# GULP energy per Si atom -12395.923598 kJ/mol
# Density = 1.904329 g / cm^3
# Si number density = 19.086732 Si / 1000 Ang^3
#
#
#
# Elastic Constant Matrix: (Units=GPa)
#
#
# Indices 1 2 3 4 5 6 
#
# 1 65.5740 32.5689 18.5491 0.0000 6.0946 0.0000
# 2 32.5689 106.3082 37.6900 0.0000 -13.8599 0.0000
# 3 18.5491 37.6900 72.8166 0.0000 10.4182 0.0000
# 4 0.0000 0.0000 0.0000 25.5961 0.0000 -8.3767
# 5 6.0946 -13.8599 10.4182 0.0000 26.2888 0.0000
# 6 0.0000 0.0000 0.0000 -8.3767 0.0000 29.7993
#
#
#
# Elastic Compliance Matrix: (Units=1/GPa)
#
#
# Indices 1 2 3 4 5 6 
#
# 1 0.019523 -0.006966 -0.000206 0.000000 -0.008117 0.000000
# 2 -0.006966 0.016403 -0.008676 0.000000 0.013701 0.000000
# 3 -0.000206 -0.008676 0.020061 0.000000 -0.012477 0.000000
# 4 0.000000 0.000000 0.000000 0.043027 0.000000 0.012095
# 5 -0.008117 0.013701 -0.012477 0.000000 0.052089 0.000000
# 6 0.000000 0.000000 0.000000 0.012095 0.000000 0.036958
#
#
# Mechanical properties :
#
#
# Convention : Reuss Voigt Hill
#
# Bulk Modulus (GPa) = 41.16832 46.92388 44.04610
# Shear Modulus (GPa) = 21.94390 26.72957 24.33674
#
# Velocity S-wave (km/s) = 3.39439 3.74629 3.57467
# Velocity P-wave (km/s) = 6.08099 6.58413 6.33756
#
# Compressibility (1/GPa) = 0.02429052
#
# Stress axis : x y z
#
# Youngs Moduli (GPa) = 51.22273 60.96431 49.84685
#
# Poissons Ratio (x) = 0.42469 0.01027
# Poissons Ratio (y) = 0.35683 0.43247
# Poissons Ratio (z) = 0.01056 0.52893
#
# Static dielectric constant tensor:
#      x y z
#    x 3.559040 0.000000 0.198040 
#    y 0.000000 3.423230 0.000000 
#    z 0.198040 0.000000 3.507560 
# 
# 
# High freq. dielectric constant tensor:
#      x y z
#    x 1.737810 0.000000 0.015580 
#    y 0.000000 1.730900 0.000000 
#    z 0.015580 0.000000 1.737530 
# 
# From -- ./inp_files/223367.got.cif
#   From: 2010.06.25/outbox.cif.g09.slc.cpg/sg12_112_cif.got.tgz:223367.got - 2010.06.28 00:19:55.
