data_PCOD8089373
_publ_section_title
;
Structure prediction by ZEFSAII (Michael W. Deem and Ramdas Pophale) SiO2 
 PCOD8089373
Probable space group: C 2/M
;
_chemical_formula_sum "Si O2"
_cell_formula_units_Z 64
_cell_length_a 19.876345
_cell_length_b 9.210299
_cell_length_c 27.450677
_cell_angle_alpha 90.000000
_cell_angle_beta 136.545640
_cell_angle_gamma 90.000000
_cell_volume 3456.294002
_symmetry_space_group_name_H-M "C 2/M"
_symmetry_group_IT_number 12
_symmetry_cell_setting 'monoclinic'
loop_
_space_group_symop_operation_xyz
x,y,z
-x,y,-z
-x,-y,-z
x,-y,z
1/2+x,1/2+y,z
1/2-x,1/2+y,-z
1/2-x,1/2-y,-z
1/2+x,1/2-y,z
loop_
_atom_site_type_symbol
_atom_site_label
_atom_site_fract_x
_atom_site_fract_y
_atom_site_fract_z
Si Si1 0.608944 0.827925 0.556020
Si Si2 0.960673 0.671619 0.205207
Si Si3 0.159442 0.328762 0.475743
Si Si4 0.954554 0.170782 0.025075
Si Si5 0.244857 0.668695 0.947014
Si Si6 0.572825 0.327393 0.180331
Si Si7 0.794631 0.672431 0.295773
Si Si8 0.466357 0.827684 0.318447
O O1 0.500000 0.761586 0.500000
O O2 0.659779 0.782900 0.532397
O O3 0.671386 0.765070 0.633908
O O4 0.601523 0.000000 0.556484
O O5 0.978215 0.500000 0.209859
O O6 0.850500 0.715196 0.132825
O O7 0.975273 0.729028 0.267868
O O8 0.037723 0.753308 0.211635
O O9 0.170916 0.500000 0.474858
O O10 0.250000 0.250000 0.500000
O O11 0.059744 0.273578 0.398068
O O12 0.007215 0.232381 0.101173
O O13 0.973608 0.000000 0.034426
O O14 0.839877 0.209561 0.965036
O O15 0.000000 0.241167 0.000000
O O16 0.244441 0.500000 0.959403
O O17 0.250000 0.750000 0.000000
O O18 0.564034 0.500000 0.182332
O O19 0.683797 0.277900 0.227455
O O20 0.800650 0.500000 0.299817
O O21 0.867254 0.732822 0.291891
O O22 0.461330 0.000000 0.315553
#
# Coordination Sequence:
#
# PCOD8089373 Si02
#       8
#     8   8   8   8   8   8   8   8
#     4   9  15  28  49  73  97 125 164 211 251 285
#     4  10  21  34  51  73 103 139 168 198 247 311
#     4  10  20  33  52  76 104 134 167 210 254 299
#     4   9  18  31  49  75 102 125 160 212 256 285
#     4  10  19  33  53  74  98 131 167 204 247 296
#     4  10  20  33  52  77 102 129 165 211 254 294
#     4   9  17  29  49  75  99 125 166 213 252 290
#     4   9  18  33  50  74 104 134 169 207 250 300
#
# _framework density 18.516943000000001
#
# number of rings (size 3 to 8) (size 9 to 14) (size 15 to 20)
#    0.000    2.500    2.500    0.000    3.500    0.000 
#    0.000    0.000    0.000    3.375    0.000    0.000 
#    0.000    0.000    0.000    0.000    0.000    0.000 
#
# Total GULP energy -396736.929120 kJ/mol
# GULP energy per Si atom -12398.029035 kJ/mol
# Density = 1.847480 g / cm^3
# Si number density = 18.516943 Si / 1000 Ang^3
#
#
#
# Elastic Constant Matrix: (Units=GPa)
#
#
# Indices 1 2 3 4 5 6 
#
# 1 165.5367 26.5762 59.3047 0.0000 -2.4846 0.0000
# 2 26.5762 15.2687 15.3963 0.0000 0.4819 0.0000
# 3 59.3047 15.3963 100.2047 0.0000 -6.1872 0.0000
# 4 0.0000 0.0000 0.0000 14.5869 0.0000 -2.4086
# 5 -2.4846 0.4819 -6.1872 0.0000 40.9068 0.0000
# 6 0.0000 0.0000 0.0000 -2.4086 0.0000 24.0768
#
#
#
# Elastic Compliance Matrix: (Units=1/GPa)
#
#
# Indices 1 2 3 4 5 6 
#
# 1 0.009364 -0.012694 -0.003581 0.000000 0.000177 0.000000
# 2 -0.012694 0.095014 -0.007270 0.000000 -0.002990 0.000000
# 3 -0.003581 -0.007270 0.013332 0.000000 0.001885 0.000000
# 4 0.000000 0.000000 0.000000 0.069706 0.000000 0.006973
# 5 0.000177 -0.002990 0.001885 0.000000 0.024777 0.000000
# 6 0.000000 0.000000 0.000000 0.006973 0.000000 0.042231
#
#
# Mechanical properties :
#
#
# Convention : Reuss Voigt Hill
#
# Bulk Modulus (GPa) = 14.16035 53.72938 33.94487
# Shear Modulus (GPa) = 15.38195 27.89630 21.63912
#
# Velocity S-wave (km/s) = 2.88531 3.88561 3.42221
# Velocity P-wave (km/s) = 4.33172 7.01498 5.82983
#
# Compressibility (1/GPa) = 0.07061971
#
# Stress axis : x y z
#
# Youngs Moduli (GPa) = 106.78631 10.52476 75.00572
#
# Poissons Ratio (x) = 0.13360 0.26859
# Poissons Ratio (y) = 1.35558 0.54532
# Poissons Ratio (z) = 0.38239 0.07652
#
# Static dielectric constant tensor:
#      x y z
#    x 4.579540 0.000000 -0.108920 
#    y 0.000000 2.829230 0.000000 
#    z -0.108920 0.000000 3.685560 
# 
# 
# High freq. dielectric constant tensor:
#      x y z
#    x 1.735200 0.000000 0.000140 
#    y 0.000000 1.651650 0.000000 
#    z 0.000140 0.000000 1.731940 
# 
# From -- ./inp_files/276503.got.cif
#   From: 2010.06.25/outbox.cif.g09.slc.cpg/sg12_139_cif.got.tgz:276503.got - 2010.06.28 00:19:55.
