data_PCOD8089643
_publ_section_title
;
Structure prediction by ZEFSAII (Michael W. Deem and Ramdas Pophale) SiO2 
 PCOD8089643
Probable space group: C 2/M
;
_chemical_formula_sum "Si O2"
_cell_formula_units_Z 56
_cell_length_a 31.315573
_cell_length_b 9.207660
_cell_length_c 11.954612
_cell_angle_alpha 90.000000
_cell_angle_beta 117.635821
_cell_angle_gamma 90.000000
_cell_volume 3053.771709
_symmetry_space_group_name_H-M "C 2/M"
_symmetry_group_IT_number 12
_symmetry_cell_setting 'monoclinic'
loop_
_space_group_symop_operation_xyz
x,y,z
-x,y,-z
-x,-y,-z
x,-y,z
1/2+x,1/2+y,z
1/2-x,1/2+y,-z
1/2-x,1/2-y,-z
1/2+x,1/2-y,z
loop_
_atom_site_type_symbol
_atom_site_label
_atom_site_fract_x
_atom_site_fract_y
_atom_site_fract_z
Si Si1 0.950703 0.669879 0.379459
Si Si2 0.082708 0.829537 0.280093
Si Si3 0.023899 0.166570 0.805098
Si Si4 0.891105 0.167015 0.928533
Si Si5 0.314553 0.170484 0.984984
Si Si6 0.123878 0.166316 0.562396
Si Si7 0.294135 0.665706 0.177477
O O1 0.943974 0.500000 0.354143
O O2 0.948648 0.744051 0.256548
O O3 0.907999 0.728209 0.402888
O O4 0.000000 0.710922 0.500000
O O5 0.105439 0.768051 0.193120
O O6 0.118732 0.790014 0.425776
O O7 0.029230 0.765647 0.238355
O O8 0.076343 0.000000 0.254922
O O9 0.019909 0.000000 0.760223
O O10 0.055477 0.180408 0.955158
O O11 0.873587 0.000000 0.909251
O O12 0.852798 0.262024 0.947840
O O13 0.320257 0.236131 0.115952
O O14 0.323806 0.000000 0.003970
O O15 0.261450 0.209487 0.873315
O O16 0.179008 0.185904 0.670630
O O17 0.106468 0.000000 0.557791
O O18 0.298086 0.500000 0.140080
#
# Coordination Sequence:
#
# PCOD8089643 Si02
#       7
#     8   8   8   8   8   8   8
#     4  11  22  33  47  73 109 138 162 202 254 304
#     4   9  18  33  53  75 100 133 172 213 250 290
#     4  10  19  33  54  76  99 133 176 214 247 291
#     4  10  20  34  53  77 103 132 171 214 251 292
#     4  10  20  35  54  77 105 133 165 207 257 307
#     4  10  19  34  56  77  99 132 174 212 249 296
#     4   9  19  35  56  80 102 128 166 213 256 297
#
# _framework density 18.337979000000001
#
# number of rings (size 3 to 8) (size 9 to 14) (size 15 to 20)
#    0.000    2.143    1.429    2.143    0.000    7.429 
#    0.000    2.143    0.000    1.714    0.000    0.000 
#    0.000    0.000    0.000    0.000    0.000    0.000 
#
# Total GULP energy -347226.419669 kJ/mol
# GULP energy per Si atom -12400.943560 kJ/mol
# Density = 1.829624 g / cm^3
# Si number density = 18.337979 Si / 1000 Ang^3
#
#
#
# Elastic Constant Matrix: (Units=GPa)
#
#
# Indices 1 2 3 4 5 6 
#
# 1 84.9594 33.0706 54.9616 0.0000 -7.3658 0.0000
# 2 33.0706 54.7621 37.0846 0.0000 -2.4182 0.0000
# 3 54.9616 37.0846 138.3243 0.0000 -6.0833 0.0000
# 4 0.0000 0.0000 0.0000 13.2800 0.0000 6.8078
# 5 -7.3658 -2.4182 -6.0833 0.0000 28.1188 0.0000
# 6 0.0000 0.0000 0.0000 6.8078 0.0000 22.4081
#
#
#
# Elastic Compliance Matrix: (Units=1/GPa)
#
#
# Indices 1 2 3 4 5 6 
#
# 1 0.018231 -0.007405 -0.005125 0.000000 0.003030 0.000000
# 2 -0.007405 0.025330 -0.003875 0.000000 -0.000600 0.000000
# 3 -0.005125 -0.003875 0.010329 0.000000 0.000559 0.000000
# 4 0.000000 0.000000 0.000000 0.089192 0.000000 -0.027097
# 5 0.003030 -0.000600 0.000559 0.000000 0.036426 0.000000
# 6 0.000000 0.000000 0.000000 -0.027097 0.000000 0.052859
#
#
# Mechanical properties :
#
#
# Convention : Reuss Voigt Hill
#
# Bulk Modulus (GPa) = 47.43866 58.69770 53.06818
# Shear Modulus (GPa) = 18.36841 22.95663 20.66252
#
# Velocity S-wave (km/s) = 3.16833 3.54201 3.36037
# Velocity P-wave (km/s) = 6.26974 6.98613 6.63761
#
# Compressibility (1/GPa) = 0.02107985
#
# Stress axis : x y z
#
# Youngs Moduli (GPa) = 54.85116 39.47820 96.81101
#
# Poissons Ratio (x) = 0.29234 0.49620
# Poissons Ratio (y) = 0.40618 0.37515
# Poissons Ratio (z) = 0.28113 0.15298
#
# Static dielectric constant tensor:
#      x y z
#    x 3.292110 0.000000 0.081140 
#    y 0.000000 3.230820 0.000000 
#    z 0.081140 0.000000 3.662670 
# 
# 
# High freq. dielectric constant tensor:
#      x y z
#    x 1.698320 0.000000 0.006350 
#    y 0.000000 1.693530 0.000000 
#    z 0.006350 0.000000 1.720860 
# 
# From -- ./inp_files/180828.got.cif
#   From: 2010.06.25/outbox.cif.g09.slc.cpg/sg12_91_cif.got.tgz:180828.got - 2010.06.28 00:19:55.
