data_PCOD8089696
_publ_section_title
;
Structure prediction by ZEFSAII (Michael W. Deem and Ramdas Pophale) SiO2 
 PCOD8089696
Probable space group: C 2/M
;
_chemical_formula_sum "Si O2"
_cell_formula_units_Z 56
_cell_length_a 29.305581
_cell_length_b 10.958236
_cell_length_c 25.822812
_cell_angle_alpha 90.000000
_cell_angle_beta 21.615776
_cell_angle_gamma 90.000000
_cell_volume 3054.859257
_symmetry_space_group_name_H-M "C 2/M"
_symmetry_group_IT_number 12
_symmetry_cell_setting 'monoclinic'
loop_
_space_group_symop_operation_xyz
x,y,z
-x,y,-z
-x,-y,-z
x,-y,z
1/2+x,1/2+y,z
1/2-x,1/2+y,-z
1/2-x,1/2-y,-z
1/2+x,1/2-y,z
loop_
_atom_site_type_symbol
_atom_site_label
_atom_site_fract_x
_atom_site_fract_y
_atom_site_fract_z
Si Si1 0.356585 0.856380 0.098986
Si Si2 0.197648 0.137668 0.171386
Si Si3 0.038928 0.631929 0.299645
Si Si4 0.590372 0.362889 0.676460
Si Si5 0.868712 0.355552 0.201171
Si Si6 0.867016 0.693931 0.904409
Si Si7 0.285612 0.228975 0.547729
O O1 0.248738 0.818094 0.173082
O O2 0.320640 0.813653 0.194892
O O3 0.372236 0.000000 0.082744
O O4 0.491021 0.804572 0.940084
O O5 0.104610 0.245994 0.252731
O O6 0.136394 0.000000 0.239059
O O7 0.314521 0.121623 0.009256
O O8 0.077452 0.500000 0.284796
O O9 0.065086 0.613379 0.210655
O O10 0.891607 0.645999 0.461909
O O11 0.546467 0.500000 0.716040
O O12 0.465338 0.291181 0.822149
O O13 0.651163 0.323567 0.558282
O O14 0.687658 0.353413 0.620463
O O15 0.863112 0.500000 0.213289
O O16 0.781033 0.300046 0.336514
O O17 0.750000 0.750000 0.000000
#
# Coordination Sequence:
#
# PCOD8089696 Si02
#       7
#     8   8   8   8   8   8   8
#     4   8  16  30  51  79 103 125 162 215 265 304
#     4  10  19  33  54  78 103 132 171 216 256 299
#     4  10  21  35  50  73 107 142 172 206 252 304
#     4  10  20  33  49  73 103 135 173 211 249 301
#     4   9  16  30  52  76 103 131 163 210 264 307
#     4   9  19  31  49  75 101 131 165 203 250 301
#     4  10  20  32  50  73  99 136 173 209 250 300
#
# _framework density 18.33145
#
# number of rings (size 3 to 8) (size 9 to 14) (size 15 to 20)
#    0.000    2.571    0.000    3.000    0.000    8.000 
#    0.000    5.000    0.000    5.143    0.000    6.000 
#    0.000    0.000    0.000    0.000    0.000    0.000 
#
# Total GULP energy -346867.650280 kJ/mol
# GULP energy per Si atom -12388.130367 kJ/mol
# Density = 1.828973 g / cm^3
# Si number density = 18.331450 Si / 1000 Ang^3
#
#
#
# Elastic Constant Matrix: (Units=GPa)
#
#
# Indices 1 2 3 4 5 6 
#
# 1 96.0102 36.1787 36.4258 0.0011 -4.1677 -0.0001
# 2 36.1787 104.7565 30.4820 -0.0004 -14.3247 0.0002
# 3 36.4258 30.4820 86.5976 0.0012 -5.2224 0.0001
# 4 0.0011 -0.0004 0.0012 20.5539 0.0000 -4.6439
# 5 -4.1677 -14.3247 -5.2224 0.0000 30.4542 0.0000
# 6 -0.0001 0.0002 0.0001 -4.6439 0.0000 11.7602
#
#
#
# Elastic Compliance Matrix: (Units=1/GPa)
#
#
# Indices 1 2 3 4 5 6 
#
# 1 0.013362 -0.003390 -0.004459 0.000000 -0.000530 0.000000
# 2 -0.003390 0.012114 -0.002549 0.000001 0.004797 0.000000
# 3 -0.004459 -0.002549 0.014360 -0.000001 0.000653 0.000000
# 4 0.000000 0.000001 -0.000001 0.053418 0.000000 0.021094
# 5 -0.000530 0.004797 0.000653 0.000000 0.035132 0.000000
# 6 0.000000 0.000000 0.000000 0.021094 0.000000 0.093362
#
#
# Mechanical properties :
#
#
# Convention : Reuss Voigt Hill
#
# Bulk Modulus (GPa) = 52.52063 54.83748 53.67906
# Shear Modulus (GPa) = 20.08911 24.83884 22.46398
#
# Velocity S-wave (km/s) = 3.31400 3.68501 3.50442
# Velocity P-wave (km/s) = 6.58455 6.93434 6.76170
#
# Compressibility (1/GPa) = 0.01904014
#
# Stress axis : x y z
#
# Youngs Moduli (GPa) = 74.84138 82.54715 69.63775
#
# Poissons Ratio (x) = 0.27980 0.31053
# Poissons Ratio (y) = 0.25368 0.17752
# Poissons Ratio (z) = 0.33373 0.21042
#
# Static dielectric constant tensor:
#      x y z
#    x 3.806790 0.000000 0.024560 
#    y 0.000000 3.092450 0.000000 
#    z 0.024560 0.000000 3.463240 
# 
# 
# High freq. dielectric constant tensor:
#      x y z
#    x 1.705800 0.000000 -0.007510 
#    y 0.000000 1.688270 0.000000 
#    z -0.007510 0.000000 1.706510 
# 
# From -- ./inp_files/370731.got.cif
#   From: 2010.06.25/outbox.cif.g09.slc.cpg/sg12_186_cif.got.tgz:370731.got - 2010.06.28 00:19:55.
