data_PCOD8089301
_publ_section_title
;
Structure prediction by ZEFSAII (Michael W. Deem and Ramdas Pophale) SiO2 
 PCOD8089301
Probable space group: C 2/M
;
_chemical_formula_sum "Si O2"
_cell_formula_units_Z 64
_cell_length_a 29.747851
_cell_length_b 9.685684
_cell_length_c 11.070602
_cell_angle_alpha 90.000000
_cell_angle_beta 92.705246
_cell_angle_gamma 90.000000
_cell_volume 3186.198766
_symmetry_space_group_name_H-M "C 2/M"
_symmetry_group_IT_number 12
_symmetry_cell_setting 'monoclinic'
loop_
_space_group_symop_operation_xyz
x,y,z
-x,y,-z
-x,-y,-z
x,-y,z
1/2+x,1/2+y,z
1/2-x,1/2+y,-z
1/2-x,1/2-y,-z
1/2+x,1/2-y,z
loop_
_atom_site_type_symbol
_atom_site_label
_atom_site_fract_x
_atom_site_fract_y
_atom_site_fract_z
Si Si1 0.391851 0.154839 0.094043
Si Si2 0.183022 0.657606 0.727265
Si Si3 0.614766 0.346393 0.379880
Si Si4 0.367328 0.653956 0.885579
Si Si5 0.795029 0.837864 0.484091
Si Si6 0.533242 0.836520 0.393724
Si Si7 0.992419 0.656666 0.134733
Si Si8 0.766850 0.155099 0.897083
O O1 0.352254 0.206351 0.176156
O O2 0.439962 0.164484 0.164875
O O3 0.380915 0.000000 0.050623
O O4 0.394610 0.246773 0.975963
O O5 0.172227 0.500000 0.682391
O O6 0.178358 0.772949 0.625151
O O7 0.234274 0.665166 0.778452
O O8 0.603184 0.500000 0.428068
O O9 0.606790 0.339549 0.236409
O O10 0.668048 0.317716 0.406303
O O11 0.580742 0.235841 0.433859
O O12 0.368432 0.500000 0.940068
O O13 0.315973 0.704144 0.862384
O O14 0.750000 0.750000 0.500000
O O15 0.782699 0.000000 0.464000
O O16 0.500000 0.797448 0.500000
O O17 0.516739 0.780941 0.258261
O O18 0.540685 0.000000 0.390578
O O19 0.009472 0.500000 0.123736
O O20 0.000000 0.725805 0.000000
O O21 0.767332 0.000000 0.947956
O O22 0.750000 0.250000 0.000000
#
# Coordination Sequence:
#
# PCOD8089301 Si02
#       8
#     8   8   8   8   8   8   8   8
#     4  10  20  34  57  85 115 153 193 238 295 354
#     4  10  21  36  56  83 117 154 197 246 297 352
#     4  10  23  42  62  86 120 160 197 242 301 357
#     4  10  20  35  56  81 116 153 190 240 295 349
#     4  11  24  42  63  87 118 157 202 247 298 358
#     4  10  22  39  63  92 119 153 203 255 300 357
#     4   9  18  34  56  84 118 152 189 242 301 351
#     4  10  19  33  52  78 114 153 190 237 290 345
#
# _framework density 20.086631000000001
#
# number of rings (size 3 to 8) (size 9 to 14) (size 15 to 20)
#    0.000    2.000    1.250    1.875    1.750    5.750 
#    0.000    1.875    0.000    2.250    0.000    0.000 
#    0.000    0.000    0.000    0.000    0.000    0.000 
#
# Total GULP energy -396582.605402 kJ/mol
# GULP energy per Si atom -12393.206419 kJ/mol
# Density = 2.004091 g / cm^3
# Si number density = 20.086631 Si / 1000 Ang^3
#
#
#
# Elastic Constant Matrix: (Units=GPa)
#
#
# Indices 1 2 3 4 5 6 
#
# 1 100.7092 37.4182 21.3362 0.0000 -2.0579 0.0000
# 2 37.4182 81.3373 41.1092 0.0000 -1.2457 0.0000
# 3 21.3362 41.1092 89.8393 0.0000 1.0431 0.0000
# 4 0.0000 0.0000 0.0000 28.7833 0.0000 -1.9830
# 5 -2.0579 -1.2457 1.0431 0.0000 24.0357 0.0000
# 6 0.0000 0.0000 0.0000 -1.9830 0.0000 30.3333
#
#
#
# Elastic Compliance Matrix: (Units=1/GPa)
#
#
# Indices 1 2 3 4 5 6 
#
# 1 0.012003 -0.005288 -0.000440 0.000000 0.000773 0.000000
# 2 -0.005288 0.018354 -0.007152 0.000000 0.000809 0.000000
# 3 -0.000440 -0.007152 0.014520 0.000000 -0.001038 0.000000
# 4 0.000000 0.000000 0.000000 0.034900 0.000000 0.002281
# 5 0.000773 0.000809 -0.001038 0.000000 0.041758 0.000000
# 6 0.000000 0.000000 0.000000 0.002281 0.000000 0.033116
#
#
# Mechanical properties :
#
#
# Convention : Reuss Voigt Hill
#
# Bulk Modulus (GPa) = 52.30730 52.40143 52.35437
# Shear Modulus (GPa) = 26.76887 28.09861 27.43374
#
# Velocity S-wave (km/s) = 3.65454 3.74421 3.69964
# Velocity P-wave (km/s) = 6.62608 6.69600 6.66113
#
# Compressibility (1/GPa) = 0.01911779
#
# Stress axis : x y z
#
# Youngs Moduli (GPa) = 83.31091 54.48325 68.86898
#
# Poissons Ratio (x) = 0.28809 0.03031
# Poissons Ratio (y) = 0.44052 0.49257
# Poissons Ratio (z) = 0.03666 0.38968
#
# Static dielectric constant tensor:
#      x y z
#    x 1.690440 0.000000 0.768600 
#    y 0.000000 3.566050 0.000000 
#    z 0.768600 0.000000 3.443220 
# 
# 
# High freq. dielectric constant tensor:
#      x y z
#    x 1.794530 0.000000 -0.003230 
#    y 0.000000 1.764310 0.000000 
#    z -0.003230 0.000000 1.777960 
# 
# From -- ./inp_files/187471.got.cif
#   From: 2010.06.25/outbox.cif.g09.slc.cpg/sg12_94_cif.got.tgz:187471.got - 2010.06.28 00:19:55.
