data_PCOD8089669
_publ_section_title
;
Structure prediction by ZEFSAII (Michael W. Deem and Ramdas Pophale) SiO2 
 PCOD8089669
Probable space group: C 2/M
;
_chemical_formula_sum "Si O2"
_cell_formula_units_Z 56
_cell_length_a 18.933865
_cell_length_b 8.743187
_cell_length_c 21.815210
_cell_angle_alpha 90.000000
_cell_angle_beta 123.860606
_cell_angle_gamma 90.000000
_cell_volume 2998.841172
_symmetry_space_group_name_H-M "C 2/M"
_symmetry_group_IT_number 12
_symmetry_cell_setting 'monoclinic'
loop_
_space_group_symop_operation_xyz
x,y,z
-x,y,-z
-x,-y,-z
x,-y,z
1/2+x,1/2+y,z
1/2-x,1/2+y,-z
1/2-x,1/2-y,-z
1/2+x,1/2-y,z
loop_
_atom_site_type_symbol
_atom_site_label
_atom_site_fract_x
_atom_site_fract_y
_atom_site_fract_z
Si Si1 0.462733 0.822909 0.416606
Si Si2 0.179650 0.319514 0.011209
Si Si3 0.730659 0.174285 0.401918
Si Si4 0.884110 0.824672 0.561929
Si Si5 0.505179 0.669837 0.929728
Si Si6 0.788659 0.824594 0.297723
Si Si7 0.178789 0.819695 0.144004
O O1 0.500000 0.771601 0.500000
O O2 0.535180 0.786596 0.402023
O O3 0.383482 0.720221 0.360711
O O4 0.436767 0.000000 0.402892
O O5 0.187871 0.500000 0.012355
O O6 0.196349 0.263008 0.088163
O O7 0.250000 0.250000 0.000000
O O8 0.083230 0.274127 0.943841
O O9 0.822585 0.213920 0.475008
O O10 0.661751 0.289581 0.396096
O O11 0.730568 0.200591 0.329374
O O12 0.707162 0.000000 0.407868
O O13 0.913761 0.000000 0.575203
O O14 0.520682 0.500000 0.910267
O O15 0.410608 0.732534 0.866542
O O16 0.500000 0.663374 0.000000
O O17 0.755004 0.720275 0.226476
O O18 0.786752 0.000000 0.275500
O O19 0.176140 0.000000 0.129465
#
# Coordination Sequence:
#
# PCOD8089669 Si02
#       7
#     8   8   8   8   8   8   8
#     4  11  22  35  54  79 108 145 190 237 285 341
#     4  11  21  35  59  89 119 151 190 232 274 326
#     4   9  19  34  52  76 105 137 175 225 279 334
#     4  10  19  33  54  77 103 135 178 231 280 331
#     4   8  16  33  56  81 111 145 181 223 268 321
#     4  11  22  37  57  81 112 147 186 233 286 338
#     4  10  21  38  58  83 116 150 186 229 279 336
#
# _framework density 18.673881000000002
#
# number of rings (size 3 to 8) (size 9 to 14) (size 15 to 20)
#    0.000    2.000    1.429    3.857    0.000    5.429 
#    0.000    1.429    0.000    3.429    0.000    0.000 
#    0.000    0.000    0.000    0.000    0.000    0.000 
#
# Total GULP energy -347156.696884 kJ/mol
# GULP energy per Si atom -12398.453460 kJ/mol
# Density = 1.863138 g / cm^3
# Si number density = 18.673881 Si / 1000 Ang^3
#
#
#
# Elastic Constant Matrix: (Units=GPa)
#
#
# Indices 1 2 3 4 5 6 
#
# 1 114.6481 51.6158 39.8106 0.0000 4.8368 0.0000
# 2 51.6158 88.5631 31.7586 0.0000 -1.6042 0.0000
# 3 39.8106 31.7586 77.4026 0.0000 5.0901 0.0000
# 4 0.0000 0.0000 0.0000 27.4873 0.0000 2.1055
# 5 4.8368 -1.6042 5.0901 0.0000 19.6785 0.0000
# 6 0.0000 0.0000 0.0000 2.1055 0.0000 34.0397
#
#
#
# Elastic Compliance Matrix: (Units=1/GPa)
#
#
# Indices 1 2 3 4 5 6 
#
# 1 0.013007 -0.006207 -0.003967 0.000000 -0.002677 0.000000
# 2 -0.006207 0.016326 -0.003758 0.000000 0.003828 0.000000
# 3 -0.003967 -0.003758 0.016743 0.000000 -0.003662 0.000000
# 4 0.000000 0.000000 0.000000 0.036554 0.000000 -0.002261
# 5 -0.002677 0.003828 -0.003662 0.000000 0.052734 0.000000
# 6 0.000000 0.000000 0.000000 -0.002261 0.000000 0.029517
#
#
# Mechanical properties :
#
#
# Convention : Reuss Voigt Hill
#
# Bulk Modulus (GPa) = 54.90993 58.55375 56.73184
# Shear Modulus (GPa) = 25.14904 26.73638 25.94271
#
# Velocity S-wave (km/s) = 3.67379 3.78796 3.73131
# Velocity P-wave (km/s) = 6.88942 7.11024 7.00070
#
# Compressibility (1/GPa) = 0.01821164
#
# Stress axis : x y z
#
# Youngs Moduli (GPa) = 76.88072 61.25352 59.72738
#
# Poissons Ratio (x) = 0.38017 0.23696
# Poissons Ratio (y) = 0.47716 0.22445
# Poissons Ratio (z) = 0.30502 0.23019
#
# Static dielectric constant tensor:
#      x y z
#    x 3.563080 0.000000 0.178240 
#    y 0.000000 3.411280 0.000000 
#    z 0.178240 0.000000 3.348840 
# 
# 
# High freq. dielectric constant tensor:
#      x y z
#    x 1.727830 0.000000 0.009360 
#    y 0.000000 1.731500 0.000000 
#    z 0.009360 0.000000 1.697420 
# 
# From -- ./inp_files/314363.got.cif
#   From: 2010.06.25/outbox.cif.g09.slc.cpg/sg12_158_cif.got.tgz:314363.got - 2010.06.28 00:19:55.
