data_PCOD8089672
_publ_section_title
;
Structure prediction by ZEFSAII (Michael W. Deem and Ramdas Pophale) SiO2 
 PCOD8089672
Probable space group: C 2/M
;
_chemical_formula_sum "Si O2"
_cell_formula_units_Z 64
_cell_length_a 31.660272
_cell_length_b 9.171714
_cell_length_c 11.998614
_cell_angle_alpha 90.000000
_cell_angle_beta 101.721043
_cell_angle_gamma 90.000000
_cell_volume 3411.494592
_symmetry_space_group_name_H-M "C 2/M"
_symmetry_group_IT_number 12
_symmetry_cell_setting 'monoclinic'
loop_
_space_group_symop_operation_xyz
x,y,z
-x,y,-z
-x,-y,-z
x,-y,z
1/2+x,1/2+y,z
1/2-x,1/2+y,-z
1/2-x,1/2-y,-z
1/2+x,1/2-y,z
loop_
_atom_site_type_symbol
_atom_site_label
_atom_site_fract_x
_atom_site_fract_y
_atom_site_fract_z
Si Si1 0.294128 0.829693 0.153972
Si Si2 0.620637 0.667843 0.186264
Si Si3 0.138166 0.172907 0.673596
Si Si4 0.016229 0.332277 0.391408
Si Si5 0.695936 0.330218 0.064775
Si Si6 0.602522 0.332556 0.419726
Si Si7 0.451217 0.829759 0.978171
Si Si8 0.930733 0.666627 0.216305
O O1 0.317128 0.750092 0.269438
O O2 0.243437 0.798363 0.138027
O O3 0.305059 0.000000 0.161939
O O4 0.313048 0.764258 0.049735
O O5 0.611426 0.500000 0.154341
O O6 0.662386 0.721964 0.140628
O O7 0.630874 0.690755 0.323143
O O8 0.577700 0.754567 0.130994
O O9 0.127938 0.224845 0.541991
O O10 0.100264 0.224076 0.735364
O O11 0.143434 0.000000 0.686159
O O12 0.028993 0.500000 0.413879
O O13 0.058199 0.249343 0.374611
O O14 0.000000 0.267165 0.500000
O O15 0.979899 0.309334 0.279304
O O16 0.690869 0.500000 0.030837
O O17 0.590811 0.500000 0.432954
O O18 0.428919 0.797432 0.084844
O O19 0.452447 0.000000 0.951223
O O20 0.500000 0.767335 0.000000
O O21 0.916379 0.500000 0.233163
#
# Coordination Sequence:
#
# PCOD8089672 Si02
#       8
#     8   8   8   8   8   8   8   8
#     4  10  20  35  58  85 111 136 169 217 269 319
#     4  10  21  38  57  77 105 141 182 219 260 314
#     4  11  22  35  52  77 108 140 175 218 267 314
#     4  10  19  33  54  77 103 139 181 223 265 312
#     4   9  19  37  60  84 109 139 173 214 265 320
#     4  10  22  37  53  75 106 145 182 221 264 312
#     4  10  21  36  53  76 108 141 174 216 265 313
#     4  10  20  34  53  78 106 137 176 222 270 318
#
# _framework density 18.760107000000001
#
# number of rings (size 3 to 8) (size 9 to 14) (size 15 to 20)
#    0.000    2.000    1.250    2.250    0.000    6.500 
#    0.000    0.625    0.000    0.000    0.000    0.000 
#    0.000    0.000    0.000    0.000    0.000    0.000 
#
# Total GULP energy -396889.185048 kJ/mol
# GULP energy per Si atom -12402.787033 kJ/mol
# Density = 1.871741 g / cm^3
# Si number density = 18.760107 Si / 1000 Ang^3
#
#
#
# Elastic Constant Matrix: (Units=GPa)
#
#
# Indices 1 2 3 4 5 6 
#
# 1 99.7496 35.4786 50.4842 0.0000 -1.2226 0.0000
# 2 35.4786 58.2885 39.1588 0.0000 4.1903 0.0000
# 3 50.4842 39.1588 107.7712 0.0000 7.6999 0.0000
# 4 0.0000 0.0000 0.0000 24.8656 0.0000 3.4973
# 5 -1.2226 4.1903 7.6999 0.0000 29.3939 0.0000
# 6 0.0000 0.0000 0.0000 3.4973 0.0000 28.9565
#
#
#
# Elastic Compliance Matrix: (Units=1/GPa)
#
#
# Indices 1 2 3 4 5 6 
#
# 1 0.014612 -0.005769 -0.004944 0.000000 0.002725 0.000000
# 2 -0.005769 0.025009 -0.006229 0.000000 -0.002173 0.000000
# 3 -0.004944 -0.006229 0.014073 0.000000 -0.003004 0.000000
# 4 0.000000 0.000000 0.000000 0.040911 0.000000 -0.004941
# 5 0.002725 -0.002173 -0.003004 0.000000 0.035231 0.000000
# 6 0.000000 0.000000 0.000000 -0.004941 0.000000 0.035131
#
#
# Mechanical properties :
#
#
# Convention : Reuss Voigt Hill
#
# Bulk Modulus (GPa) = 50.47907 57.33917 53.90912
# Shear Modulus (GPa) = 24.33640 26.02238 25.17939
#
# Velocity S-wave (km/s) = 3.60563 3.72844 3.66755
# Velocity P-wave (km/s) = 6.65584 7.01183 6.83615
#
# Compressibility (1/GPa) = 0.01981019
#
# Stress axis : x y z
#
# Youngs Moduli (GPa) = 68.43522 39.98637 71.05966
#
# Poissons Ratio (x) = 0.23068 0.35129
# Poissons Ratio (y) = 0.39480 0.44264
# Poissons Ratio (z) = 0.33831 0.24908
#
# Static dielectric constant tensor:
#      x y z
#    x 3.386420 0.000000 0.034520 
#    y 0.000000 3.377380 0.000000 
#    z 0.034520 0.000000 3.566180 
# 
# 
# High freq. dielectric constant tensor:
#      x y z
#    x 1.722750 0.000000 0.003630 
#    y 0.000000 1.723600 0.000000 
#    z 0.003630 0.000000 1.734990 
# 
# From -- ./inp_files/187400.got.cif
#   From: 2010.06.25/outbox.cif.g09.slc.cpg/sg12_94_cif.got.tgz:187400.got - 2010.06.28 00:19:55.
