data_PCOD8089281
_publ_section_title
;
Structure prediction by ZEFSAII (Michael W. Deem and Ramdas Pophale) SiO2 
 PCOD8089281
Probable space group: C 2/M
;
_chemical_formula_sum "Si O2"
_cell_formula_units_Z 64
_cell_length_a 20.758918
_cell_length_b 8.625336
_cell_length_c 20.240095
_cell_angle_alpha 90.000000
_cell_angle_beta 67.564903
_cell_angle_gamma 90.000000
_cell_volume 3349.747537
_symmetry_space_group_name_H-M "C 2/M"
_symmetry_group_IT_number 12
_symmetry_cell_setting 'monoclinic'
loop_
_space_group_symop_operation_xyz
x,y,z
-x,y,-z
-x,-y,-z
x,-y,z
1/2+x,1/2+y,z
1/2-x,1/2+y,-z
1/2-x,1/2-y,-z
1/2+x,1/2-y,z
loop_
_atom_site_type_symbol
_atom_site_label
_atom_site_fract_x
_atom_site_fract_y
_atom_site_fract_z
Si Si1 0.219975 0.319671 0.273285
Si Si2 0.580269 0.681094 0.965985
Si Si3 0.647912 0.181993 0.579239
Si Si4 0.325581 0.182470 0.958120
Si Si5 0.132467 0.681724 0.811270
Si Si6 0.040486 0.315487 0.723594
Si Si7 0.114499 0.684369 0.203055
Si Si8 0.714003 0.179376 0.423133
O O1 0.238543 0.500000 0.253948
O O2 0.288434 0.217044 0.239000
O O3 0.163013 0.258496 0.243864
O O4 0.187052 0.294822 0.359230
O O5 0.589133 0.500000 0.976709
O O6 0.612338 0.720379 0.882938
O O7 0.500000 0.733067 0.000000
O O8 0.621138 0.774506 0.005500
O O9 0.579669 0.251564 0.642680
O O10 0.655983 0.237246 0.499493
O O11 0.715414 0.226461 0.594928
O O12 0.640211 0.000000 0.585430
O O13 0.354532 0.248984 0.877567
O O14 0.318254 0.000000 0.957240
O O15 0.250000 0.250000 0.000000
O O16 0.123892 0.500000 0.829364
O O17 0.082234 0.738163 0.772168
O O18 0.037600 0.500000 0.722831
O O19 0.962745 0.245494 0.756211
O O20 0.110675 0.500000 0.203012
O O21 0.731178 0.000000 0.430190
#
# Coordination Sequence:
#
# PCOD8089281 Si02
#       8
#     8   8   8   8   8   8   8   8
#     4  10  19  33  52  77 108 139 173 215 266 319
#     4  11  24  40  57  80 111 143 177 227 286 336
#     4   9  16  29  49  74 104 137 174 216 257 307
#     4  11  22  38  60  82 108 145 189 231 278 334
#     4  11  21  34  56  81 103 134 179 225 268 319
#     4   9  17  31  51  76 104 136 176 217 261 312
#     4   9  19  34  52  74 104 139 171 214 267 317
#     4   9  17  28  47  76 107 137 171 213 262 311
#
# _framework density 19.105919
#
# number of rings (size 3 to 8) (size 9 to 14) (size 15 to 20)
#    0.000    2.125    1.250    2.625    0.000    3.000 
#    0.000    1.250    0.000    6.750    0.000    0.000 
#    0.000    5.000    0.000    0.000    0.000    0.000 
#
# Total GULP energy -396748.476418 kJ/mol
# GULP energy per Si atom -12398.389888 kJ/mol
# Density = 1.906243 g / cm^3
# Si number density = 19.105919 Si / 1000 Ang^3
#
#
#
# Elastic Constant Matrix: (Units=GPa)
#
#
# Indices 1 2 3 4 5 6 
#
# 1 140.7065 12.3944 79.2784 0.0001 -5.2897 0.0002
# 2 12.3944 18.5238 14.6065 0.0004 -3.3635 0.0005
# 3 79.2784 14.6065 176.6446 0.0000 -3.5195 0.0000
# 4 0.0001 0.0004 0.0000 14.5867 0.0000 -5.1641
# 5 -5.2897 -3.3635 -3.5195 0.0000 28.8618 0.0000
# 6 0.0002 0.0005 0.0000 -5.1641 0.0000 21.5223
#
#
#
# Elastic Compliance Matrix: (Units=1/GPa)
#
#
# Indices 1 2 3 4 5 6 
#
# 1 0.009718 -0.003114 -0.004086 0.000000 0.000920 0.000000
# 2 -0.003114 0.059862 -0.003433 -0.000002 0.005987 -0.000002
# 3 -0.004086 -0.003433 0.007775 0.000000 -0.000201 0.000000
# 4 0.000000 -0.000002 0.000000 0.074920 0.000000 0.017976
# 5 0.000920 0.005987 -0.000201 0.000000 0.035490 0.000000
# 6 0.000000 -0.000002 0.000000 0.017976 0.000000 0.050777
#
#
# Mechanical properties :
#
#
# Convention : Reuss Voigt Hill
#
# Bulk Modulus (GPa) = 17.82861 60.93708 39.38285
# Shear Modulus (GPa) = 17.95319 28.30052 23.12686
#
# Velocity S-wave (km/s) = 3.06872 3.85287 3.48293
# Velocity P-wave (km/s) = 4.68058 7.19419 6.06894
#
# Compressibility (1/GPa) = 0.05608962
#
# Stress axis : x y z
#
# Youngs Moduli (GPa) = 102.90416 16.70506 128.62430
#
# Poissons Ratio (x) = 0.05201 0.52550
# Poissons Ratio (y) = 0.32040 0.44160
# Poissons Ratio (z) = 0.42042 0.05735
#
# Static dielectric constant tensor:
#      x y z
#    x 3.538200 0.000000 -0.089490 
#    y 0.000000 3.227490 0.000000 
#    z -0.089490 0.000000 4.096490 
# 
# 
# High freq. dielectric constant tensor:
#      x y z
#    x 1.732140 0.000000 0.001110 
#    y 0.000000 1.716120 0.000000 
#    z 0.001110 0.000000 1.766390 
# 
# From -- ./inp_files/319948.got.cif
#   From: 2010.06.25/outbox.cif.g09.slc.cpg/sg12_160_cif.got.tgz:319948.got - 2010.06.28 00:19:55.
