data_PCOD8089487
_publ_section_title
;
Structure prediction by ZEFSAII (Michael W. Deem and Ramdas Pophale) SiO2 
 PCOD8089487
Probable space group: C 2/M
;
_chemical_formula_sum "Si O2"
_cell_formula_units_Z 48
_cell_length_a 13.324235
_cell_length_b 14.011572
_cell_length_c 24.667545
_cell_angle_alpha 90.000000
_cell_angle_beta 147.068482
_cell_angle_gamma 90.000000
_cell_volume 2503.591527
_symmetry_space_group_name_H-M "C 2/M"
_symmetry_group_IT_number 12
_symmetry_cell_setting 'monoclinic'
loop_
_space_group_symop_operation_xyz
x,y,z
-x,y,-z
-x,-y,-z
x,-y,z
1/2+x,1/2+y,z
1/2-x,1/2+y,-z
1/2-x,1/2-y,-z
1/2+x,1/2-y,z
loop_
_atom_site_type_symbol
_atom_site_label
_atom_site_fract_x
_atom_site_fract_y
_atom_site_fract_z
Si Si1 0.118572 0.765643 0.390405
Si Si2 0.020440 0.605628 0.193153
Si Si3 0.296429 0.111011 0.385350
Si Si4 0.676688 0.611415 0.112989
Si Si5 0.294636 0.604811 0.407419
Si Si6 0.278850 0.727497 0.758812
O O1 0.250000 0.750000 0.500000
O O2 0.163420 0.857256 0.373895
O O3 0.143263 0.667630 0.368942
O O4 0.911434 0.781381 0.315721
O O5 0.975400 0.500000 0.146684
O O6 0.218479 0.596100 0.312346
O O7 0.055747 0.693014 0.167591
O O8 0.858591 0.636190 0.160927
O O9 0.500000 0.133105 0.500000
O O10 0.243844 0.170301 0.307879
O O11 0.267845 0.000000 0.359427
O O12 0.662334 0.500000 0.117430
O O13 0.674489 0.657831 0.171033
O O14 0.500000 0.649526 0.000000
O O15 0.500000 0.651432 0.500000
O O16 0.305357 0.500000 0.440079
#
# Coordination Sequence:
#
# PCOD8089487 Si02
#       6
#     8   8   8   8   8   8
#     4  12  22  34  54  79 118 154 195 232 283 347
#     4  10  21  38  58  85 116 146 191 244 288 344
#     4  11  23  37  52  80 118 153 194 240 286 343
#     4  10  22  41  64  89 115 150 200 250 295 343
#     4  10  19  33  53  77 110 151 193 233 276 336
#     4  12  21  37  63  84 116 158 191 240 295 346
#
# _framework density 19.172457999999999
#
# number of rings (size 3 to 8) (size 9 to 14) (size 15 to 20)
#    0.000    1.167    5.000    2.000    0.000    2.667 
#    0.000    0.000    0.000    0.500    0.000    0.000 
#    0.000    0.000    0.000    0.000    0.000    0.000 
#
# Total GULP energy -297434.768530 kJ/mol
# GULP energy per Si atom -12393.115355 kJ/mol
# Density = 1.912882 g / cm^3
# Si number density = 19.172458 Si / 1000 Ang^3
#
#
#
# Elastic Constant Matrix: (Units=GPa)
#
#
# Indices 1 2 3 4 5 6 
#
# 1 109.1663 55.3011 40.2295 0.0001 -2.3830 -0.0001
# 2 55.3011 104.6626 16.6113 0.0000 -0.5357 -0.0001
# 3 40.2295 16.6113 88.6899 0.0008 2.0448 0.0003
# 4 0.0001 0.0000 0.0008 13.1643 0.0003 9.0455
# 5 -2.3830 -0.5357 2.0448 0.0003 23.0244 0.0000
# 6 -0.0001 -0.0001 0.0003 9.0455 0.0000 16.5334
#
#
#
# Elastic Compliance Matrix: (Units=1/GPa)
#
#
# Indices 1 2 3 4 5 6 
#
# 1 0.014686 -0.006891 -0.005413 0.000000 0.001840 0.000000
# 2 -0.006891 0.013084 0.000686 0.000000 -0.000470 0.000000
# 3 -0.005413 0.000686 0.013643 -0.000001 -0.001756 0.000000
# 4 0.000000 0.000000 -0.000001 0.121722 -0.000001 -0.066594
# 5 0.001840 -0.000470 -0.001756 -0.000001 0.043768 0.000001
# 6 0.000000 0.000000 0.000000 -0.066594 0.000001 0.096918
#
#
# Mechanical properties :
#
#
# Convention : Reuss Voigt Hill
#
# Bulk Modulus (GPa) = 55.01707 58.53362 56.77534
# Shear Modulus (GPa) = 15.00974 23.23621 19.12298
#
# Velocity S-wave (km/s) = 2.80104 3.48510 3.16162
# Velocity P-wave (km/s) = 6.26253 6.84038 6.55782
#
# Compressibility (1/GPa) = 0.01817618
#
# Stress axis : x y z
#
# Youngs Moduli (GPa) = 68.09001 76.42667 73.29901
#
# Poissons Ratio (x) = 0.52668 0.39680
# Poissons Ratio (y) = 0.46923 -0.05029
# Poissons Ratio (z) = 0.36860 -0.05243
#
# Static dielectric constant tensor:
#      x y z
#    x 3.445140 0.000000 0.089750 
#    y 0.000000 3.474190 0.000000 
#    z 0.089750 0.000000 3.507760 
# 
# 
# High freq. dielectric constant tensor:
#      x y z
#    x 1.744430 0.000000 0.007210 
#    y 0.000000 1.752640 0.000000 
#    z 0.007210 0.000000 1.726090 
# 
# From -- ./inp_files/204269.got.cif
#   From: 2010.06.25/outbox.cif.g09.slc.cpg/sg12_103_cif.got.tgz:204269.got - 2010.06.28 00:19:55.
