data_PCOD8089277
_publ_section_title
;
Structure prediction by ZEFSAII (Michael W. Deem and Ramdas Pophale) SiO2 
 PCOD8089277
Probable space group: C 2/M
;
_chemical_formula_sum "Si O2"
_cell_formula_units_Z 56
_cell_length_a 23.661974
_cell_length_b 9.076348
_cell_length_c 14.889092
_cell_angle_alpha 90.000000
_cell_angle_beta 70.994840
_cell_angle_gamma 90.000000
_cell_volume 3023.339522
_symmetry_space_group_name_H-M "C 2/M"
_symmetry_group_IT_number 12
_symmetry_cell_setting 'monoclinic'
loop_
_space_group_symop_operation_xyz
x,y,z
-x,y,-z
-x,-y,-z
x,-y,z
1/2+x,1/2+y,z
1/2-x,1/2+y,-z
1/2-x,1/2-y,-z
1/2+x,1/2-y,z
loop_
_atom_site_type_symbol
_atom_site_label
_atom_site_fract_x
_atom_site_fract_y
_atom_site_fract_z
Si Si1 0.688379 0.173014 0.432669
Si Si2 0.348216 0.174517 0.740458
Si Si3 0.382921 0.168717 0.041929
Si Si4 0.236603 0.174668 0.913565
Si Si5 0.555295 0.824649 0.171320
Si Si6 0.576526 0.168603 0.784447
Si Si7 0.674280 0.672548 0.620173
O O1 0.653055 0.228392 0.362166
O O2 0.659490 0.257157 0.531282
O O3 0.758352 0.212375 0.385198
O O4 0.680085 0.000000 0.452913
O O5 0.287648 0.227762 0.818892
O O6 0.405727 0.236877 0.764913
O O7 0.350500 0.000000 0.741259
O O8 0.325840 0.268931 0.092715
O O9 0.425499 0.179590 0.106418
O O10 0.362542 0.000000 0.035433
O O11 0.416723 0.232307 0.936912
O O12 0.235495 0.000000 0.925538
O O13 0.250000 0.250000 0.000000
O O14 0.487221 0.769139 0.217455
O O15 0.555235 0.000000 0.168650
O O16 0.629654 0.265228 0.717390
O O17 0.586451 0.000000 0.748890
O O18 0.664462 0.500000 0.617794
#
# Coordination Sequence:
#
# PCOD8089277 Si02
#       7
#     8   8   8   8   8   8   8
#     4   9  18  34  57  80  99 128 169 212 261 316
#     4   9  17  31  53  77 103 133 170 215 258 301
#     4  10  19  33  52  77 106 138 177 220 259 300
#     4  11  20  32  51  77 108 140 172 211 259 309
#     4   9  17  32  52  75 104 139 178 216 253 299
#     4  10  20  33  54  78 102 138 181 217 252 304
#     4  10  20  35  54  77 106 133 163 214 270 315
#
# _framework density 18.522565
#
# number of rings (size 3 to 8) (size 9 to 14) (size 15 to 20)
#    0.000    2.286    1.429    2.143    0.000    4.000 
#    0.000    2.857    0.000    6.000    0.000    0.000 
#    0.000    0.000    0.000    0.000    0.000    0.000 
#
# Total GULP energy -347178.308910 kJ/mol
# GULP energy per Si atom -12399.225318 kJ/mol
# Density = 1.848041 g / cm^3
# Si number density = 18.522565 Si / 1000 Ang^3
#
#
#
# Elastic Constant Matrix: (Units=GPa)
#
#
# Indices 1 2 3 4 5 6 
#
# 1 103.7131 23.3231 42.1637 0.0000 11.7509 0.0000
# 2 23.3231 43.6656 23.6439 0.0000 2.7345 0.0000
# 3 42.1637 23.6439 101.9857 0.0000 19.2839 0.0000
# 4 0.0000 0.0000 0.0000 26.2755 0.0000 -2.8078
# 5 11.7509 2.7345 19.2839 0.0000 29.6905 0.0000
# 6 0.0000 0.0000 0.0000 -2.8078 0.0000 19.2704
#
#
#
# Elastic Compliance Matrix: (Units=1/GPa)
#
#
# Indices 1 2 3 4 5 6 
#
# 1 0.012387 -0.004490 -0.003684 0.000000 -0.002096 0.000000
# 2 -0.004490 0.027896 -0.005086 0.000000 0.002511 0.000000
# 3 -0.003684 -0.005086 0.013843 0.000000 -0.007065 0.000000
# 4 0.000000 0.000000 0.000000 0.038660 0.000000 0.005633
# 5 -0.002096 0.002511 -0.007065 0.000000 0.038868 0.000000
# 6 0.000000 0.000000 0.000000 0.005633 0.000000 0.052714
#
#
# Mechanical properties :
#
#
# Convention : Reuss Voigt Hill
#
# Bulk Modulus (GPa) = 36.22290 47.51397 41.86843
# Shear Modulus (GPa) = 22.71800 25.72952 24.22376
#
# Velocity S-wave (km/s) = 3.50595 3.73109 3.62027
# Velocity P-wave (km/s) = 5.99895 6.65350 6.33469
#
# Compressibility (1/GPa) = 0.02760685
#
# Stress axis : x y z
#
# Youngs Moduli (GPa) = 80.73076 35.84711 72.23809
#
# Poissons Ratio (x) = 0.16096 0.26610
# Poissons Ratio (y) = 0.36250 0.36738
# Poissons Ratio (z) = 0.29739 0.18231
#
# Static dielectric constant tensor:
#      x y z
#    x 3.692980 0.000000 0.109040 
#    y 0.000000 3.209230 0.000000 
#    z 0.109040 0.000000 3.544660 
# 
# 
# High freq. dielectric constant tensor:
#      x y z
#    x 1.719960 0.000000 0.010480 
#    y 0.000000 1.685760 0.000000 
#    z 0.010480 0.000000 1.719160 
# 
# From -- ./inp_files/237339.got.cif
#   From: 2010.06.25/outbox.cif.g09.slc.cpg/sg12_119_cif.got.tgz:237339.got - 2010.06.28 00:19:55.
