data_PCOD8089762
_publ_section_title
;
Structure prediction by ZEFSAII (Michael W. Deem and Ramdas Pophale) SiO2 
 PCOD8089762
Probable space group: C 2/M
;
_chemical_formula_sum "Si O2"
_cell_formula_units_Z 56
_cell_length_a 20.321497
_cell_length_b 9.189276
_cell_length_c 17.956109
_cell_angle_alpha 90.000000
_cell_angle_beta 126.397305
_cell_angle_gamma 90.000000
_cell_volume 2698.999890
_symmetry_space_group_name_H-M "C 2/M"
_symmetry_group_IT_number 12
_symmetry_cell_setting 'monoclinic'
loop_
_space_group_symop_operation_xyz
x,y,z
-x,y,-z
-x,-y,-z
x,-y,z
1/2+x,1/2+y,z
1/2-x,1/2+y,-z
1/2-x,1/2-y,-z
1/2+x,1/2-y,z
loop_
_atom_site_type_symbol
_atom_site_label
_atom_site_fract_x
_atom_site_fract_y
_atom_site_fract_z
Si Si1 0.403723 0.160218 0.646116
Si Si2 0.707775 0.667677 0.902884
Si Si3 0.064229 0.657734 0.846895
Si Si4 0.680166 0.329707 0.287090
Si Si5 0.476947 0.169986 0.399718
Si Si6 0.806782 0.170618 0.271142
Si Si7 0.985707 0.840343 0.904310
O O1 0.476641 0.141650 0.752648
O O2 0.338249 0.267881 0.641589
O O3 0.443915 0.220967 0.596391
O O4 0.363617 0.000000 0.605964
O O5 0.705876 0.500000 0.923546
O O6 0.617171 0.732382 0.833842
O O7 0.741412 0.690898 0.840984
O O8 0.750000 0.750000 0.000000
O O9 0.107427 0.500000 0.884328
O O10 0.052313 0.725453 0.920544
O O11 0.700072 0.500000 0.308373
O O12 0.758573 0.249817 0.305130
O O13 0.606250 0.297835 0.180494
O O14 0.500000 0.195908 0.500000
O O15 0.397330 0.262528 0.326329
O O16 0.458908 0.000000 0.369534
O O17 0.814276 0.000000 0.294773
O O18 0.003866 0.000000 0.882053
O O19 0.000000 0.843408 0.000000
#
# Coordination Sequence:
#
# PCOD8089762 Si02
#       7
#     8   8   8   8   8   8   8
#     4   9  18  36  60  86 118 153 191 238 291 350
#     4  11  24  38  55  81 115 157 200 246 297 351
#     4  10  19  33  54  79 108 149 192 238 290 343
#     4  10  21  36  58  84 116 159 201 245 299 355
#     4  10  21  40  68  97 123 155 196 242 298 364
#     4  11  24  41  61  88 124 159 199 252 303 357
#     4   9  19  34  51  76 109 150 197 246 294 344
#
# _framework density 20.748427
#
# number of rings (size 3 to 8) (size 9 to 14) (size 15 to 20)
#    0.000    2.000    1.429    1.714    2.000    4.000 
#    0.000    0.714    0.000    0.000    0.000    0.000 
#    0.000    0.000    0.000    0.000    0.000    0.000 
#
# Total GULP energy -346921.325572 kJ/mol
# GULP energy per Si atom -12390.047342 kJ/mol
# Density = 2.070120 g / cm^3
# Si number density = 20.748427 Si / 1000 Ang^3
#
#
#
# Elastic Constant Matrix: (Units=GPa)
#
#
# Indices 1 2 3 4 5 6 
#
# 1 113.6982 63.2847 34.5340 0.0000 -31.1243 0.0000
# 2 63.2847 128.7956 39.0120 0.0000 -16.8378 0.0000
# 3 34.5340 39.0120 61.5535 0.0000 -20.7184 0.0000
# 4 0.0000 0.0000 0.0000 20.3377 0.0000 -1.4936
# 5 -31.1243 -16.8378 -20.7184 0.0000 25.6139 0.0000
# 6 0.0000 0.0000 0.0000 -1.4936 0.0000 36.7977
#
#
#
# Elastic Compliance Matrix: (Units=1/GPa)
#
#
# Indices 1 2 3 4 5 6 
#
# 1 0.016584 -0.006021 -0.000051 0.000000 0.016152 0.000000
# 2 -0.006021 0.011864 -0.005467 0.000000 -0.003940 0.000000
# 3 -0.000051 -0.005467 0.025434 0.000000 0.016916 0.000000
# 4 0.000000 0.000000 0.000000 0.049317 0.000000 0.002002
# 5 0.016152 -0.003940 0.016916 0.000000 0.069761 0.000000
# 6 0.000000 0.000000 0.000000 0.002002 0.000000 0.027257
#
#
# Mechanical properties :
#
#
# Convention : Reuss Voigt Hill
#
# Bulk Modulus (GPa) = 32.46585 64.18984 48.32785
# Shear Modulus (GPa) = 21.40751 27.69763 24.55257
#
# Velocity S-wave (km/s) = 3.21559 3.65763 3.44371
# Velocity P-wave (km/s) = 5.42845 6.98871 6.25740
#
# Compressibility (1/GPa) = 0.03080160
#
# Stress axis : x y z
#
# Youngs Moduli (GPa) = 60.29974 84.28995 39.31781
#
# Poissons Ratio (x) = 0.50755 0.00202
# Poissons Ratio (y) = 0.36309 0.21495
# Poissons Ratio (z) = 0.00309 0.46082
#
# Static dielectric constant tensor:
#      x y z
#    x 3.868160 0.000000 -0.249730 
#    y 0.000000 4.288730 0.000000 
#    z -0.249730 0.000000 3.532960 
# 
# 
# High freq. dielectric constant tensor:
#      x y z
#    x 1.810120 0.000000 -0.020160 
#    y 0.000000 1.818210 0.000000 
#    z -0.020160 0.000000 1.794590 
# 
# From -- ./inp_files/281648.got.cif
#   From: 2010.06.25/outbox.cif.g09.slc.cpg/sg12_141_cif.got.tgz:281648.got - 2010.06.28 00:19:55.
