data_PCOD8089834
_publ_section_title
;
Structure prediction by ZEFSAII (Michael W. Deem and Ramdas Pophale) SiO2 
 PCOD8089834
Probable space group: C 2/M
;
_chemical_formula_sum "Si O2"
_cell_formula_units_Z 64
_cell_length_a 23.849622
_cell_length_b 9.249195
_cell_length_c 28.155607
_cell_angle_alpha 90.000000
_cell_angle_beta 146.932575
_cell_angle_gamma 90.000000
_cell_volume 3388.793188
_symmetry_space_group_name_H-M "C 2/M"
_symmetry_group_IT_number 12
_symmetry_cell_setting 'monoclinic'
loop_
_space_group_symop_operation_xyz
x,y,z
-x,y,-z
-x,-y,-z
x,-y,z
1/2+x,1/2+y,z
1/2-x,1/2+y,-z
1/2-x,1/2-y,-z
1/2+x,1/2-y,z
loop_
_atom_site_type_symbol
_atom_site_label
_atom_site_fract_x
_atom_site_fract_y
_atom_site_fract_z
Si Si1 0.337436 0.667442 0.089328
Si Si2 0.491375 0.668290 0.349162
Si Si3 0.156189 0.329831 0.408431
Si Si4 0.432053 0.671795 0.494650
Si Si5 0.975741 0.830508 0.841616
Si Si6 0.426575 0.670578 0.990260
Si Si7 0.800154 0.668414 0.669231
Si Si8 0.781900 0.834751 0.154950
O O1 0.317302 0.500000 0.065613
O O2 0.448028 0.711687 0.147134
O O3 0.333825 0.708562 0.141878
O O4 0.250000 0.750000 0.000000
O O5 0.522012 0.500000 0.363522
O O6 0.550115 0.764177 0.352110
O O7 0.520788 0.725261 0.422161
O O8 0.369142 0.689829 0.256563
O O9 0.163046 0.500000 0.424274
O O10 0.250000 0.250000 0.500000
O O11 0.160349 0.299044 0.355497
O O12 0.500000 0.736703 0.500000
O O13 0.434169 0.500000 0.494882
O O14 0.315665 0.727886 0.407374
O O15 0.868727 0.750404 0.756672
O O16 0.953254 0.000000 0.828184
O O17 0.025280 0.774924 0.926029
O O18 0.412136 0.500000 0.980478
O O19 0.315030 0.736858 0.902094
O O20 0.500000 0.722138 0.000000
O O21 0.805469 0.500000 0.684947
O O22 0.744285 0.000000 0.127218
#
# Coordination Sequence:
#
# PCOD8089834 Si02
#       8
#     8   8   8   8   8   8   8   8
#     4  10  19  33  54  81 109 140 179 220 274 333
#     4  10  20  37  58  83 115 148 185 228 278 338
#     4  11  21  35  57  86 116 148 184 227 281 336
#     4   9  18  35  57  79 108 146 186 228 273 321
#     4  10  21  37  57  82 111 147 183 223 281 333
#     4  10  22  40  59  79 110 152 192 231 279 335
#     4  10  21  36  56  85 112 142 186 229 274 329
#     4  10  21  35  57  86 112 143 185 234 281 328
#
# _framework density 18.88578
#
# number of rings (size 3 to 8) (size 9 to 14) (size 15 to 20)
#    0.000    2.000    2.500    1.125    0.000    4.750 
#    0.000    1.250    0.000    1.500    0.000    0.000 
#    0.000    0.000    0.000    0.000    0.000    0.000 
#
# Total GULP energy -396886.333062 kJ/mol
# GULP energy per Si atom -12402.697908 kJ/mol
# Density = 1.884280 g / cm^3
# Si number density = 18.885780 Si / 1000 Ang^3
#
#
#
# Elastic Constant Matrix: (Units=GPa)
#
#
# Indices 1 2 3 4 5 6 
#
# 1 127.2964 34.7730 55.1263 0.0000 20.7987 0.0000
# 2 34.7730 44.1103 41.1694 0.0000 5.8801 0.0003
# 3 55.1263 41.1694 143.8432 0.0000 13.7619 0.0000
# 4 0.0000 0.0000 0.0000 34.5078 0.0001 3.1781
# 5 20.7987 5.8801 13.7619 0.0001 17.9481 0.0000
# 6 0.0000 0.0003 0.0000 3.1781 0.0000 22.2455
#
#
#
# Elastic Compliance Matrix: (Units=1/GPa)
#
#
# Indices 1 2 3 4 5 6 
#
# 1 0.012124 -0.006490 -0.001779 0.000000 -0.010560 0.000000
# 2 -0.006490 0.034626 -0.007616 0.000000 0.002016 0.000000
# 3 -0.001779 -0.007616 0.010120 0.000000 -0.003203 0.000000
# 4 0.000000 0.000000 0.000000 0.029365 0.000000 -0.004195
# 5 -0.010560 0.002016 -0.003203 0.000000 0.069748 0.000000
# 6 0.000000 0.000000 0.000000 -0.004195 0.000000 0.045552
#
#
# Mechanical properties :
#
#
# Convention : Reuss Voigt Hill
#
# Bulk Modulus (GPa) = 39.83933 64.15417 51.99675
# Shear Modulus (GPa) = 20.68917 27.21904 23.95410
#
# Velocity S-wave (km/s) = 3.31341 3.80049 3.56528
# Velocity P-wave (km/s) = 5.98155 7.30080 6.67385
#
# Compressibility (1/GPa) = 0.02510082
#
# Stress axis : x y z
#
# Youngs Moduli (GPa) = 82.48044 28.87993 98.81492
#
# Poissons Ratio (x) = 0.18743 0.17576
# Poissons Ratio (y) = 0.53529 0.75258
# Poissons Ratio (z) = 0.14671 0.21995
#
# Static dielectric constant tensor:
#      x y z
#    x 3.638730 0.000000 0.007340 
#    y 0.000000 3.280560 0.000000 
#    z 0.007340 0.000000 3.312670 
# 
# 
# High freq. dielectric constant tensor:
#      x y z
#    x 1.734210 0.000000 -0.000180 
#    y 0.000000 1.712290 0.000000 
#    z -0.000180 0.000000 1.745170 
# 
# From -- ./inp_files/382542.got.cif
#   From: 2010.06.25/outbox.cif.g09.slc.cpg/sg12_192_cif.got.tgz:382542.got - 2010.06.28 00:19:55.
