data_PCOD8089111
_publ_section_title
;
Structure prediction by ZEFSAII (Michael W. Deem and Ramdas Pophale) SiO2 
 PCOD8089111
Probable space group: C 2/M
;
_chemical_formula_sum "Si O2"
_cell_formula_units_Z 56
_cell_length_a 9.606648
_cell_length_b 20.149546
_cell_length_c 14.853369
_cell_angle_alpha 90.000000
_cell_angle_beta 86.402254
_cell_angle_gamma 90.000000
_cell_volume 2869.494260
_symmetry_space_group_name_H-M "C 2/M"
_symmetry_group_IT_number 12
_symmetry_cell_setting 'monoclinic'
loop_
_space_group_symop_operation_xyz
x,y,z
-x,y,-z
-x,-y,-z
x,-y,z
1/2+x,1/2+y,z
1/2-x,1/2+y,-z
1/2-x,1/2-y,-z
1/2+x,1/2-y,z
loop_
_atom_site_type_symbol
_atom_site_label
_atom_site_fract_x
_atom_site_fract_y
_atom_site_fract_z
Si Si1 0.985827 0.121292 0.796753
Si Si2 0.211326 0.926435 0.345562
Si Si3 0.981673 0.257060 0.292467
Si Si4 0.287800 0.717735 0.592460
Si Si5 0.754618 0.427237 0.865173
Si Si6 0.454337 0.892470 0.206789
Si Si7 0.256085 0.420797 0.933702
O O1 0.918189 0.079289 0.718076
O O2 0.972141 0.198543 0.775529
O O3 0.907100 0.102586 0.892095
O O4 0.150434 0.109152 0.800959
O O5 0.206627 0.863666 0.414930
O O6 0.358425 0.925668 0.287048
O O7 0.199926 0.000000 0.392998
O O8 0.065446 0.248841 0.382882
O O9 0.016880 0.322556 0.235778
O O10 0.819615 0.259564 0.325915
O O11 0.250000 0.750000 0.500000
O O12 0.690905 0.500000 0.881628
O O13 0.908004 0.435121 0.816909
O O14 0.760182 0.393911 0.963925
O O15 0.364089 0.885244 0.119673
O O16 0.237522 0.500000 0.926013
#
# Coordination Sequence:
#
# PCOD8089111 Si02
#       7
#     8   8   8   8   8   8   8
#     4  10  19  33  51  73 103 136 173 213 253 300
#     4   9  18  34  57  79 102 137 173 205 252 311
#     4  10  21  36  55  78 102 134 172 204 249 316
#     4  10  20  36  60  82 105 135 165 205 257 317
#     4  11  20  30  49  76 103 131 172 224 264 293
#     4  10  19  33  51  73 103 136 173 213 253 300
#     4  10  20  34  50  69  98 141 182 214 257 303
#
# _framework density 19.515633999999999
#
# number of rings (size 3 to 8) (size 9 to 14) (size 15 to 20)
#    0.000    2.000    0.000    6.429    0.000    2.286 
#    0.000    4.286    0.000   18.857    0.000    0.000 
#    0.000    0.000    0.000    0.000    0.000    0.000 
#
# Total GULP energy -347083.663544 kJ/mol
# GULP energy per Si atom -12395.845127 kJ/mol
# Density = 1.947122 g / cm^3
# Si number density = 19.515634 Si / 1000 Ang^3
#
#
#
# Elastic Constant Matrix: (Units=GPa)
#
#
# Indices 1 2 3 4 5 6 
#
# 1 90.6665 19.3015 12.7467 0.0000 12.3852 0.0000
# 2 19.3015 126.7473 43.0523 0.0000 14.5997 0.0000
# 3 12.7467 43.0523 67.7787 0.0000 12.6045 0.0000
# 4 0.0000 0.0000 0.0000 21.2471 0.0000 0.1059
# 5 12.3852 14.5997 12.6045 0.0000 25.3134 0.0000
# 6 0.0000 0.0000 0.0000 0.1059 0.0000 26.5431
#
#
#
# Elastic Compliance Matrix: (Units=1/GPa)
#
#
# Indices 1 2 3 4 5 6 
#
# 1 0.012021 -0.001027 -0.000689 0.000000 -0.004946 0.000000
# 2 -0.001027 0.010343 -0.005908 0.000000 -0.002521 0.000000
# 3 -0.000689 -0.005908 0.019770 0.000000 -0.006100 0.000000
# 4 0.000000 0.000000 0.000000 0.047066 0.000000 -0.000188
# 5 -0.004946 -0.002521 -0.006100 0.000000 0.046416 0.000000
# 6 0.000000 0.000000 0.000000 -0.000188 0.000000 0.037675
#
#
# Mechanical properties :
#
#
# Convention : Reuss Voigt Hill
#
# Bulk Modulus (GPa) = 37.19199 48.37707 42.78453
# Shear Modulus (GPa) = 25.31627 28.62685 26.97156
#
# Velocity S-wave (km/s) = 3.60562 3.83413 3.72162
# Velocity P-wave (km/s) = 6.03596 6.66659 6.35910
#
# Compressibility (1/GPa) = 0.02688751
#
# Stress axis : x y z
#
# Youngs Moduli (GPa) = 83.19118 96.68120 50.58058
#
# Poissons Ratio (x) = 0.09928 0.03483
# Poissons Ratio (y) = 0.08543 0.29883
# Poissons Ratio (z) = 0.05728 0.57119
#
# Static dielectric constant tensor:
#      x y z
#    x 3.666610 0.000000 0.074240 
#    y 0.000000 3.638040 0.000000 
#    z 0.074240 0.000000 3.302890 
# 
# 
# High freq. dielectric constant tensor:
#      x y z
#    x 1.773260 0.000000 0.005580 
#    y 0.000000 1.756340 0.000000 
#    z 0.005580 0.000000 1.730980 
# 
# From -- ./inp_files/197543.got.cif
#   From: 2010.06.25/outbox.cif.g09.slc.cpg/sg12_99_cif.got.tgz:197543.got - 2010.06.28 00:19:55.
