data_PCOD8089358
_publ_section_title
;
Structure prediction by ZEFSAII (Michael W. Deem and Ramdas Pophale) SiO2 
 PCOD8089358
Probable space group: C 2/M
;
_chemical_formula_sum "Si O2"
_cell_formula_units_Z 48
_cell_length_a 31.070866
_cell_length_b 9.159746
_cell_length_c 19.893886
_cell_angle_alpha 90.000000
_cell_angle_beta 151.903920
_cell_angle_gamma 90.000000
_cell_volume 2666.444962
_symmetry_space_group_name_H-M "C 2/M"
_symmetry_group_IT_number 12
_symmetry_cell_setting 'monoclinic'
loop_
_space_group_symop_operation_xyz
x,y,z
-x,y,-z
-x,-y,-z
x,-y,z
1/2+x,1/2+y,z
1/2-x,1/2+y,-z
1/2-x,1/2-y,-z
1/2+x,1/2-y,z
loop_
_atom_site_type_symbol
_atom_site_label
_atom_site_fract_x
_atom_site_fract_y
_atom_site_fract_z
Si Si1 0.414260 0.167578 0.580608
Si Si2 0.418709 0.828724 0.433921
Si Si3 0.958785 0.667505 0.123665
Si Si4 0.765914 0.670870 0.661162
Si Si5 0.060166 0.827948 0.146839
Si Si6 0.261512 0.167680 0.810149
O O1 0.440394 0.214012 0.540875
O O2 0.503213 0.191743 0.749031
O O3 0.332462 0.266950 0.496226
O O4 0.381119 0.000000 0.536547
O O5 0.500000 0.764688 0.500000
O O6 0.322760 0.760873 0.277893
O O7 0.410030 0.000000 0.411442
O O8 0.972944 0.500000 0.118911
O O9 0.009926 0.775710 0.144337
O O10 0.851152 0.705028 0.977281
O O11 0.768957 0.500000 0.649894
O O12 0.842308 0.749428 0.722065
O O13 0.783868 0.707900 0.763857
O O14 0.075833 0.000000 0.171756
O O15 0.000000 0.781898 0.000000
O O16 0.232821 0.000000 0.776654
#
# Coordination Sequence:
#
# PCOD8089358 Si02
#       6
#     8   8   8   8   8   8
#     4   9  19  35  54  75 103 136 171 210 255 304
#     4   9  18  34  56  79 102 131 167 206 251 307
#     4  10  20  35  53  74 103 138 172 212 257 299
#     4  10  19  33  53  74 101 137 176 215 252 297
#     4  11  22  33  50  76 104 135 175 216 252 298
#     4   9  18  32  52  76 100 131 170 209 253 301
#
# _framework density 18.001495999999999
#
# number of rings (size 3 to 8) (size 9 to 14) (size 15 to 20)
#    0.000    2.333    1.667    1.000    0.000    3.667 
#    0.000    0.833    0.000    0.000    0.000    0.000 
#    0.000    0.000    0.000    0.000    0.000    0.000 
#
# Total GULP energy -297672.195828 kJ/mol
# GULP energy per Si atom -12403.008159 kJ/mol
# Density = 1.796052 g / cm^3
# Si number density = 18.001496 Si / 1000 Ang^3
#
#
#
# Elastic Constant Matrix: (Units=GPa)
#
#
# Indices 1 2 3 4 5 6 
#
# 1 99.3295 42.0881 54.0154 0.0000 21.3779 0.0000
# 2 42.0881 62.0993 43.2026 0.0000 10.8659 0.0000
# 3 54.0154 43.2026 134.8993 0.0000 11.6415 0.0000
# 4 0.0000 0.0000 0.0000 27.1768 0.0000 7.2471
# 5 21.3779 10.8659 11.6415 0.0000 26.3307 0.0000
# 6 0.0000 0.0000 0.0000 7.2471 0.0000 24.4997
#
#
#
# Elastic Compliance Matrix: (Units=1/GPa)
#
#
# Indices 1 2 3 4 5 6 
#
# 1 0.017256 -0.007491 -0.003710 0.000000 -0.009279 0.000000
# 2 -0.007491 0.024873 -0.004788 0.000000 -0.002066 0.000000
# 3 -0.003710 -0.004788 0.010398 0.000000 0.000391 0.000000
# 4 0.000000 0.000000 0.000000 0.039947 0.000000 -0.011817
# 5 -0.009279 -0.002066 0.000391 0.000000 0.046191 0.000000
# 6 0.000000 0.000000 0.000000 -0.011817 0.000000 0.044312
#
#
# Mechanical properties :
#
#
# Convention : Reuss Voigt Hill
#
# Bulk Modulus (GPa) = 48.66321 63.88227 56.27274
# Shear Modulus (GPa) = 22.54239 26.06956 24.30598
#
# Velocity S-wave (km/s) = 3.54255 3.80964 3.67852
# Velocity P-wave (km/s) = 6.62001 7.41049 7.02637
#
# Compressibility (1/GPa) = 0.02054940
#
# Stress axis : x y z
#
# Youngs Moduli (GPa) = 57.95142 40.20483 96.17174
#
# Poissons Ratio (x) = 0.30117 0.35677
# Poissons Ratio (y) = 0.43410 0.46047
# Poissons Ratio (z) = 0.21499 0.19250
#
# Static dielectric constant tensor:
#      x y z
#    x 3.185420 0.000000 0.048050 
#    y 0.000000 3.308900 0.000000 
#    z 0.048050 0.000000 3.415280 
# 
# 
# High freq. dielectric constant tensor:
#      x y z
#    x 1.675510 0.000000 0.008160 
#    y 0.000000 1.697430 0.000000 
#    z 0.008160 0.000000 1.700080 
# 
# From -- ./inp_files/221547.got.cif
#   From: 2010.06.25/outbox.cif.g09.slc.cpg/sg12_111_cif.got.tgz:221547.got - 2010.06.28 00:19:55.
