data_PCOD8089237
_publ_section_title
;
Structure prediction by ZEFSAII (Michael W. Deem and Ramdas Pophale) SiO2 
 PCOD8089237
Probable space group: C 2/M
;
_chemical_formula_sum "Si O2"
_cell_formula_units_Z 56
_cell_length_a 13.275948
_cell_length_b 20.945764
_cell_length_c 14.345770
_cell_angle_alpha 90.000000
_cell_angle_beta 54.317560
_cell_angle_gamma 90.000000
_cell_volume 3240.275418
_symmetry_space_group_name_H-M "C 2/M"
_symmetry_group_IT_number 12
_symmetry_cell_setting 'monoclinic'
loop_
_space_group_symop_operation_xyz
x,y,z
-x,y,-z
-x,-y,-z
x,-y,z
1/2+x,1/2+y,z
1/2-x,1/2+y,-z
1/2-x,1/2-y,-z
1/2+x,1/2-y,z
loop_
_atom_site_type_symbol
_atom_site_label
_atom_site_fract_x
_atom_site_fract_y
_atom_site_fract_z
Si Si1 0.386589 0.349275 0.992454
Si Si2 0.211004 0.244629 0.813837
Si Si3 0.043329 0.346261 0.837133
Si Si4 0.696016 0.071986 0.992131
Si Si5 0.946992 0.181589 0.626783
Si Si6 0.959950 0.218394 0.242324
Si Si7 0.734083 0.572081 0.259592
O O1 0.295080 0.299398 0.092452
O O2 0.303625 0.409845 0.007925
O O3 0.500000 0.369263 0.000000
O O4 0.430296 0.315964 0.874020
O O5 0.111932 0.303328 0.881050
O O6 0.348491 0.269119 0.723119
O O7 0.169073 0.205716 0.743212
O O8 0.145595 0.399290 0.752021
O O9 0.921200 0.381258 0.938850
O O10 0.014660 0.295923 0.768518
O O11 0.652684 0.000000 0.038681
O O12 0.749600 0.075584 0.859880
O O13 0.053897 0.186184 0.648066
O O14 0.889022 0.111440 0.645818
O O15 0.000000 0.205411 0.500000
O O16 0.714283 0.500000 0.304910
#
# Coordination Sequence:
#
# PCOD8089237 Si02
#       7
#     8   8   8   8   8   8   8
#     4  10  19  33  52  75 102 135 165 201 249 305
#     4   8  20  32  49  79 101 128 159 208 255 295
#     4   9  19  31  52  79 101 125 163 201 262 299
#     4  11  21  30  49  75 107 138 162 199 246 302
#     4  11  21  34  52  74 101 135 170 209 249 296
#     4   9  19  32  52  77 101 128 161 208 256 302
#     4  10  21  35  48  71 106 135 168 208 241 294
#
# _framework density 17.282482000000002
#
# number of rings (size 3 to 8) (size 9 to 14) (size 15 to 20)
#    0.857    1.429    1.429    1.714    6.000    3.429 
#    0.000    0.000    0.000    0.000    0.000    0.000 
#    0.000    2.857    0.000    0.000    0.000    0.000 
#
# Total GULP energy -346866.108176 kJ/mol
# GULP energy per Si atom -12388.075292 kJ/mol
# Density = 1.724315 g / cm^3
# Si number density = 17.282482 Si / 1000 Ang^3
#
#
#
# Elastic Constant Matrix: (Units=GPa)
#
#
# Indices 1 2 3 4 5 6 
#
# 1 58.4271 27.4269 16.1928 0.0000 5.9876 0.0000
# 2 27.4269 66.5183 20.4087 0.0000 1.2837 0.0000
# 3 16.1928 20.4087 53.2210 0.0000 15.5007 0.0000
# 4 0.0000 0.0000 0.0000 8.3134 0.0000 1.4441
# 5 5.9876 1.2837 15.5007 0.0000 21.2208 0.0000
# 6 0.0000 0.0000 0.0000 1.4441 0.0000 25.4336
#
#
#
# Elastic Compliance Matrix: (Units=1/GPa)
#
#
# Indices 1 2 3 4 5 6 
#
# 1 0.022077 -0.008298 -0.002371 0.000000 -0.003995 0.000000
# 2 -0.008298 0.020543 -0.007206 0.000000 0.006362 0.000000
# 3 -0.002371 -0.007206 0.027885 0.000000 -0.019263 0.000000
# 4 0.000000 0.000000 0.000000 0.121485 0.000000 -0.006898
# 5 -0.003995 0.006362 -0.019263 0.000000 0.061937 0.000000
# 6 0.000000 0.000000 0.000000 -0.006898 0.000000 0.039710
#
#
# Mechanical properties :
#
#
# Convention : Reuss Voigt Hill
#
# Bulk Modulus (GPa) = 28.77364 34.02482 31.39923
# Shear Modulus (GPa) = 14.66392 18.60277 16.63335
#
# Velocity S-wave (km/s) = 2.91604 3.28440 3.10569
# Velocity P-wave (km/s) = 5.29366 5.84066 5.57387
#
# Compressibility (1/GPa) = 0.03475403
#
# Stress axis : x y z
#
# Youngs Moduli (GPa) = 45.29522 48.67818 35.86182
#
# Poissons Ratio (x) = 0.40395 0.08505
# Poissons Ratio (y) = 0.37587 0.25842
# Poissons Ratio (z) = 0.10742 0.35077
#
# Static dielectric constant tensor:
#      x y z
#    x 3.276270 0.000000 -0.015230 
#    y 0.000000 3.292320 0.000000 
#    z -0.015230 0.000000 2.769540 
# 
# 
# High freq. dielectric constant tensor:
#      x y z
#    x 1.671280 0.000000 -0.004340 
#    y 0.000000 1.656610 0.000000 
#    z -0.004340 0.000000 1.625870 
# 
# From -- ./inp_files/216312.got.cif
#   From: 2010.06.25/outbox.cif.g09.slc.cpg/sg12_109_cif.got.tgz:216312.got - 2010.06.28 00:19:55.
