data_PCOD8089909
_publ_section_title
;
Structure prediction by ZEFSAII (Michael W. Deem and Ramdas Pophale) SiO2 
 PCOD8089909
Probable space group: C 2/M
;
_chemical_formula_sum "Si O2"
_cell_formula_units_Z 56
_cell_length_a 21.933096
_cell_length_b 16.588427
_cell_length_c 15.108105
_cell_angle_alpha 90.000000
_cell_angle_beta 31.173303
_cell_angle_gamma 90.000000
_cell_volume 2845.333863
_symmetry_space_group_name_H-M "C 2/M"
_symmetry_group_IT_number 12
_symmetry_cell_setting 'monoclinic'
loop_
_space_group_symop_operation_xyz
x,y,z
-x,y,-z
-x,-y,-z
x,-y,z
1/2+x,1/2+y,z
1/2-x,1/2+y,-z
1/2-x,1/2-y,-z
1/2+x,1/2-y,z
loop_
_atom_site_type_symbol
_atom_site_label
_atom_site_fract_x
_atom_site_fract_y
_atom_site_fract_z
Si Si1 0.005731 0.407357 0.732856
Si Si2 0.312080 0.410135 0.152672
Si Si3 0.033286 0.251721 0.317037
Si Si4 0.688147 0.748836 0.287304
Si Si5 0.224895 0.090788 0.599476
Si Si6 0.936324 0.330311 0.990596
Si Si7 0.990128 0.172772 0.190933
O O1 0.993274 0.500000 0.715220
O O2 0.141406 0.378512 0.569288
O O3 0.946352 0.345271 0.737338
O O4 0.946599 0.399287 0.903016
O O5 0.263384 0.500000 0.191985
O O6 0.219482 0.343016 0.237144
O O7 0.332172 0.401105 0.232502
O O8 0.434245 0.397904 0.948771
O O9 0.134867 0.224055 0.258422
O O10 0.906068 0.239040 0.518486
O O11 0.043265 0.192763 0.220908
O O12 0.799134 0.692790 0.174125
O O13 0.145098 0.144237 0.632993
O O14 0.222373 0.000000 0.567383
O O15 0.007956 0.251834 0.871920
O O16 0.000000 0.362965 0.000000
#
# Coordination Sequence:
#
# PCOD8089909 Si02
#       7
#     8   8   8   8   8   8   8
#     4  10  22  37  55  83 113 146 182 226 277 326
#     4  10  19  33  55  83 114 142 174 224 282 331
#     4  10  22  37  59  79 110 149 186 228 265 327
#     4  10  21  39  56  82 111 146 186 225 275 318
#     4  10  19  33  54  83 118 144 175 225 279 331
#     4  10  22  35  58  85 112 143 183 229 272 324
#     4  10  20  32  54  83 110 146 184 223 272 323
#
# _framework density 19.681346999999999
#
# number of rings (size 3 to 8) (size 9 to 14) (size 15 to 20)
#    0.000    2.000    1.429    2.571    2.000    8.286 
#    0.000    1.429    0.000    0.857    0.000    5.000 
#    0.000    0.000    0.000    0.000    0.000    0.000 
#
# Total GULP energy -347169.679275 kJ/mol
# GULP energy per Si atom -12398.917117 kJ/mol
# Density = 1.963655 g / cm^3
# Si number density = 19.681347 Si / 1000 Ang^3
#
#
#
# Elastic Constant Matrix: (Units=GPa)
#
#
# Indices 1 2 3 4 5 6 
#
# 1 89.7440 17.0916 32.1011 0.0000 4.0834 0.0000
# 2 17.0916 49.6003 20.4737 0.0000 0.3714 0.0000
# 3 32.1011 20.4737 69.0462 0.0000 -2.5508 0.0000
# 4 0.0000 0.0000 0.0000 22.5386 0.0000 2.7945
# 5 4.0834 0.3714 -2.5508 0.0000 30.4514 0.0000
# 6 0.0000 0.0000 0.0000 2.7945 0.0000 19.2899
#
#
#
# Elastic Compliance Matrix: (Units=1/GPa)
#
#
# Indices 1 2 3 4 5 6 
#
# 1 0.013764 -0.002335 -0.005792 0.000000 -0.002302 0.000000
# 2 -0.002335 0.023391 -0.005868 0.000000 -0.000464 0.000000
# 3 -0.005792 -0.005868 0.019006 0.000000 0.002440 0.000000
# 4 0.000000 0.000000 0.000000 0.045180 0.000000 -0.006545
# 5 -0.002302 -0.000464 0.002440 0.000000 0.033358 0.000000
# 6 0.000000 0.000000 0.000000 -0.006545 0.000000 0.052789
#
#
# Mechanical properties :
#
#
# Convention : Reuss Voigt Hill
#
# Bulk Modulus (GPa) = 35.49586 38.63591 37.06588
# Shear Modulus (GPa) = 22.23536 23.70426 22.96981
#
# Velocity S-wave (km/s) = 3.36485 3.47422 3.41997
# Velocity P-wave (km/s) = 5.75940 5.98054 5.87101
#
# Compressibility (1/GPa) = 0.02817230
#
# Stress axis : x y z
#
# Youngs Moduli (GPa) = 72.65337 42.75112 52.61532
#
# Poissons Ratio (x) = 0.09982 0.30474
# Poissons Ratio (y) = 0.16964 0.30872
# Poissons Ratio (z) = 0.42080 0.25085
#
# Static dielectric constant tensor:
#      x y z
#    x 3.395630 0.000000 0.085220 
#    y 0.000000 3.447870 0.000000 
#    z 0.085220 0.000000 3.696890 
# 
# 
# High freq. dielectric constant tensor:
#      x y z
#    x 1.754740 0.000000 0.003500 
#    y 0.000000 1.746520 0.000000 
#    z 0.003500 0.000000 1.772020 
# 
# From -- ./inp_files/145667.got.cif
#   From: 2010.06.25/outbox.cif.g09.slc.cpg/sg12_73_cif.got.tgz:145667.got - 2010.06.28 00:19:55.
