data_PCOD8089267
_publ_section_title
;
Structure prediction by ZEFSAII (Michael W. Deem and Ramdas Pophale) SiO2 
 PCOD8089267
Probable space group: C 2/M
;
_chemical_formula_sum "Si O2"
_cell_formula_units_Z 44
_cell_length_a 20.619299
_cell_length_b 21.264845
_cell_length_c 5.064843
_cell_angle_alpha 90.000000
_cell_angle_beta 94.464719
_cell_angle_gamma 90.000000
_cell_volume 2214.023452
_symmetry_space_group_name_H-M "C 2/M"
_symmetry_group_IT_number 12
_symmetry_cell_setting 'monoclinic'
loop_
_space_group_symop_operation_xyz
x,y,z
-x,y,-z
-x,-y,-z
x,-y,z
1/2+x,1/2+y,z
1/2-x,1/2+y,-z
1/2-x,1/2-y,-z
1/2+x,1/2-y,z
loop_
_atom_site_type_symbol
_atom_site_label
_atom_site_fract_x
_atom_site_fract_y
_atom_site_fract_z
Si Si1 0.848680 0.928166 0.467031
Si Si2 0.953939 0.636950 0.235962
Si Si3 0.955341 0.500000 0.235158
Si Si4 0.247420 0.170556 0.759756
Si Si5 0.071107 0.072237 0.023314
Si Si6 0.322589 0.797457 0.276669
O O1 0.783974 0.893312 0.353754
O O2 0.879249 0.897904 0.744925
O O3 0.827330 0.000000 0.504482
O O4 0.902860 0.921082 0.261390
O O5 0.898199 0.689502 0.242055
O O6 0.000000 0.642293 0.500000
O O7 0.917671 0.567409 0.217031
O O8 0.000000 0.649278 0.000000
O O9 0.000000 0.500000 0.500000
O O10 0.000000 0.500000 0.000000
O O11 0.304700 0.187003 0.572470
O O12 0.191483 0.223558 0.767701
O O13 0.279326 0.161661 0.057817
O O14 0.062971 0.000000 0.110824
O O15 0.000000 0.105021 0.000000
#
# Coordination Sequence:
#
# PCOD8089267 Si02
#       6
#     8   8   4   8   8   8
#     4  10  19  33  52  76 107 135 174 230 267 305
#     4  10  19  35  57  82 109 136 174 220 274 321
#     4   8  16  30  50  76 108 136 158 204 269 324
#     4  10  21  38  55  76 106 145 185 212 268 317
#     4   9  17  30  50  74 103 141 173 206 267 324
#     4  10  21  38  58  75 104 147 180 216 261 331
#
# _framework density 19.87332
#
# number of rings (size 3 to 8) (size 9 to 14) (size 15 to 20)
#    0.000    2.364    0.000    2.727    0.000    2.182 
#    3.273    2.727    0.000    0.000    0.000    0.000 
#    0.000    0.000    0.000    0.000    0.000    0.000 
#
# Total GULP energy -272654.209713 kJ/mol
# GULP energy per Si atom -12393.373169 kJ/mol
# Density = 1.982809 g / cm^3
# Si number density = 19.873320 Si / 1000 Ang^3
#
#
#
# Elastic Constant Matrix: (Units=GPa)
#
#
# Indices 1 2 3 4 5 6 
#
# 1 92.3608 42.9190 15.9229 0.0000 -1.2919 0.0000
# 2 42.9190 58.8181 19.4322 0.0000 3.4774 0.0000
# 3 15.9229 19.4322 105.3979 0.0000 1.9541 0.0000
# 4 0.0000 0.0000 0.0000 21.2751 0.0000 3.6131
# 5 -1.2919 3.4774 1.9541 0.0000 28.4172 0.0000
# 6 0.0000 0.0000 0.0000 3.6131 0.0000 22.6606
#
#
#
# Elastic Compliance Matrix: (Units=1/GPa)
#
#
# Indices 1 2 3 4 5 6 
#
# 1 0.016532 -0.012094 -0.000310 0.000000 0.002253 0.000000
# 2 -0.012094 0.027065 -0.003095 0.000000 -0.003649 0.000000
# 3 -0.000310 -0.003095 0.010111 0.000000 -0.000331 0.000000
# 4 0.000000 0.000000 0.000000 0.048312 0.000000 -0.007703
# 5 0.002253 -0.003649 -0.000331 0.000000 0.035762 0.000000
# 6 0.000000 0.000000 0.000000 -0.007703 0.000000 0.045358
#
#
# Mechanical properties :
#
#
# Convention : Reuss Voigt Hill
#
# Bulk Modulus (GPa) = 44.03244 45.90278 44.96761
# Shear Modulus (GPa) = 22.55229 26.35742 24.45485
#
# Velocity S-wave (km/s) = 3.37234 3.64575 3.51171
# Velocity P-wave (km/s) = 6.11295 6.39295 6.25452
#
# Compressibility (1/GPa) = 0.02271053
#
# Stress axis : x y z
#
# Youngs Moduli (GPa) = 60.48884 36.94831 98.89821
#
# Poissons Ratio (x) = 0.44686 0.03061
# Poissons Ratio (y) = 0.73156 0.30611
# Poissons Ratio (z) = 0.01872 0.11436
#
# Static dielectric constant tensor:
#      x y z
#    x 3.267550 0.000000 0.039470 
#    y 0.000000 3.896610 0.000000 
#    z 0.039470 0.000000 3.817610 
# 
# 
# High freq. dielectric constant tensor:
#      x y z
#    x 1.751230 0.000000 -0.004730 
#    y 0.000000 1.749300 0.000000 
#    z -0.004730 0.000000 1.802170 
# 
# From -- ./inp_files/16149.got.cif
#   From: 2010.06.25/outbox.cif.g09.slc.cpg/sg12_9_cif.got.tgz:16149.got - 2010.06.28 00:19:55.
