data_PCOD8089770
_publ_section_title
;
Structure prediction by ZEFSAII (Michael W. Deem and Ramdas Pophale) SiO2 
 PCOD8089770
Probable space group: C 2/M
;
_chemical_formula_sum "Si O2"
_cell_formula_units_Z 56
_cell_length_a 29.753056
_cell_length_b 8.740582
_cell_length_c 16.822768
_cell_angle_alpha 90.000000
_cell_angle_beta 133.768833
_cell_angle_gamma 90.000000
_cell_volume 3159.284656
_symmetry_space_group_name_H-M "C 2/M"
_symmetry_group_IT_number 12
_symmetry_cell_setting 'monoclinic'
loop_
_space_group_symop_operation_xyz
x,y,z
-x,y,-z
-x,-y,-z
x,-y,z
1/2+x,1/2+y,z
1/2-x,1/2+y,-z
1/2-x,1/2-y,-z
1/2+x,1/2-y,z
loop_
_atom_site_type_symbol
_atom_site_label
_atom_site_fract_x
_atom_site_fract_y
_atom_site_fract_z
Si Si1 0.921606 0.678712 0.243101
Si Si2 0.694595 0.319146 0.982946
Si Si3 0.345751 0.175774 0.583794
Si Si4 0.786935 0.176998 0.655679
Si Si5 0.257807 0.318938 0.791903
Si Si6 0.617436 0.179844 0.627105
Si Si7 0.552640 0.679460 0.398154
O O1 0.914388 0.500000 0.218203
O O2 0.871775 0.764679 0.128109
O O3 0.911199 0.717550 0.322503
O O4 0.988923 0.735384 0.299010
O O5 0.699673 0.500000 0.983132
O O6 0.750000 0.250000 0.000000
O O7 0.702677 0.263048 0.084070
O O8 0.283801 0.204517 0.457428
O O9 0.334331 0.223844 0.661131
O O10 0.399181 0.280079 0.612321
O O11 0.366609 0.000000 0.605869
O O12 0.792029 0.235192 0.752989
O O13 0.805321 0.000000 0.668846
O O14 0.251758 0.500000 0.783494
O O15 0.187554 0.254520 0.710574
O O16 0.576617 0.267602 0.513000
O O17 0.614652 0.000000 0.603923
O O18 0.540689 0.500000 0.384893
#
# Coordination Sequence:
#
# PCOD8089770 Si02
#       7
#     8   8   8   8   8   8   8
#     4  11  23  39  57  77 108 151 190 226 274 327
#     4  11  21  36  57  82 110 146 189 231 270 316
#     4  10  19  33  54  79 110 144 178 218 271 330
#     4   9  17  32  54  79 108 141 179 221 267 322
#     4   9  17  33  56  80 110 146 181 218 270 325
#     4  10  19  36  56  78 109 150 185 216 270 332
#     4  12  24  36  53  81 113 145 184 228 273 325
#
# _framework density 17.725532000000001
#
# number of rings (size 3 to 8) (size 9 to 14) (size 15 to 20)
#    0.000    1.714    2.857    3.000    0.000    3.429 
#    0.000    1.429    0.000    0.857    0.000    6.000 
#    0.000    0.000    0.000    0.000    0.000    0.000 
#
# Total GULP energy -347270.111148 kJ/mol
# GULP energy per Si atom -12402.503970 kJ/mol
# Density = 1.768519 g / cm^3
# Si number density = 17.725532 Si / 1000 Ang^3
#
#
#
# Elastic Constant Matrix: (Units=GPa)
#
#
# Indices 1 2 3 4 5 6 
#
# 1 100.6510 27.7900 52.7494 0.0000 -18.8275 0.0000
# 2 27.7900 47.5643 27.1169 0.0000 -9.4482 0.0000
# 3 52.7494 27.1169 102.6820 0.0000 -8.3386 0.0000
# 4 0.0000 0.0000 0.0000 26.7491 0.0000 1.6015
# 5 -18.8275 -9.4482 -8.3386 0.0000 27.8031 0.0000
# 6 0.0000 0.0000 0.0000 1.6015 0.0000 28.6979
#
#
#
# Elastic Compliance Matrix: (Units=1/GPa)
#
#
# Indices 1 2 3 4 5 6 
#
# 1 0.015831 -0.004105 -0.006448 0.000000 0.007391 0.000000
# 2 -0.004105 0.027060 -0.004629 0.000000 0.005028 0.000000
# 3 -0.006448 -0.004629 0.014136 0.000000 -0.001700 0.000000
# 4 0.000000 0.000000 0.000000 0.037510 0.000000 -0.002093
# 5 0.007391 0.005028 -0.001700 0.000000 0.042171 0.000000
# 6 0.000000 0.000000 0.000000 -0.002093 0.000000 0.034963
#
#
# Mechanical properties :
#
#
# Convention : Reuss Voigt Hill
#
# Bulk Modulus (GPa) = 37.50623 51.80110 44.65367
# Shear Modulus (GPa) = 23.70541 26.19940 24.95240
#
# Velocity S-wave (km/s) = 3.66096 3.84873 3.75602
# Velocity P-wave (km/s) = 6.25104 7.00269 6.63752
#
# Compressibility (1/GPa) = 0.02666224
#
# Stress axis : x y z
#
# Youngs Moduli (GPa) = 63.16858 36.95436 70.74240
#
# Poissons Ratio (x) = 0.15169 0.45616
# Poissons Ratio (y) = 0.25930 0.32748
# Poissons Ratio (z) = 0.40732 0.17107
#
# Static dielectric constant tensor:
#      x y z
#    x 3.870290 0.000000 0.274960 
#    y 0.000000 3.264370 0.000000 
#    z 0.274960 0.000000 3.771620 
# 
# 
# High freq. dielectric constant tensor:
#      x y z
#    x 1.689940 0.000000 -0.007710 
#    y 0.000000 1.680080 0.000000 
#    z -0.007710 0.000000 1.670810 
# 
# From -- ./inp_files/287876.got.cif
#   From: 2010.06.25/outbox.cif.g09.slc.cpg/sg12_144_cif.got.tgz:287876.got - 2010.06.28 00:19:55.
