data_PCOD8089813
_publ_section_title
;
Structure prediction by ZEFSAII (Michael W. Deem and Ramdas Pophale) SiO2 
 PCOD8089813
Probable space group: C 2/M
;
_chemical_formula_sum "Si O2"
_cell_formula_units_Z 56
_cell_length_a 24.099041
_cell_length_b 12.729626
_cell_length_c 24.920457
_cell_angle_alpha 90.000000
_cell_angle_beta 157.872556
_cell_angle_gamma 90.000000
_cell_volume 2879.586652
_symmetry_space_group_name_H-M "C 2/M"
_symmetry_group_IT_number 12
_symmetry_cell_setting 'monoclinic'
loop_
_space_group_symop_operation_xyz
x,y,z
-x,y,-z
-x,-y,-z
x,-y,z
1/2+x,1/2+y,z
1/2-x,1/2+y,-z
1/2-x,1/2-y,-z
1/2+x,1/2-y,z
loop_
_atom_site_type_symbol
_atom_site_label
_atom_site_fract_x
_atom_site_fract_y
_atom_site_fract_z
Si Si1 0.132391 0.751629 0.329881
Si Si2 0.221068 0.691619 0.888241
Si Si3 0.076756 0.384254 0.181789
Si Si4 0.877352 0.735538 0.928987
Si Si5 0.394315 0.877254 0.592241
Si Si6 0.139088 0.881888 0.881601
Si Si7 0.161329 0.881020 0.659950
O O1 0.060136 0.705534 0.211553
O O2 0.287381 0.809760 0.457225
O O3 0.150039 0.654631 0.386799
O O4 0.024872 0.838402 0.258552
O O5 0.324096 0.684367 0.927778
O O6 0.223276 0.811594 0.912693
O O7 0.060658 0.652728 0.727036
O O8 0.277616 0.617169 0.986591
O O9 0.044548 0.500000 0.176932
O O10 0.242145 0.379791 0.307454
O O11 0.961741 0.363369 0.030964
O O12 0.733230 0.694511 0.768949
O O13 0.000000 0.791258 0.000000
O O14 0.366958 0.000000 0.559037
O O15 0.133121 0.000000 0.854051
O O16 0.000000 0.837385 0.500000
O O17 0.149453 0.000000 0.672044
#
# Coordination Sequence:
#
# PCOD8089813 Si02
#       7
#     8   8   8   8   8   8   8
#     4  10  20  35  55  83 111 146 193 219 278 341
#     4  10  21  36  55  88 110 146 193 224 282 336
#     4  10  19  33  54  80 112 147 182 227 278 336
#     4  10  20  36  56  81 113 148 184 231 280 333
#     4  10  21  36  55  79 115 150 183 233 279 329
#     4  10  20  36  56  81 116 147 183 232 275 328
#     4   9  19  33  51  79 108 142 182 225 285 339
#
# _framework density 19.447237000000001
#
# number of rings (size 3 to 8) (size 9 to 14) (size 15 to 20)
#    0.000    2.143    1.429    1.714    2.000    2.857 
#    0.000    0.714    0.000    1.714    0.000    4.000 
#    0.000    0.000    0.000    0.000    0.000    0.000 
#
# Total GULP energy -347172.038274 kJ/mol
# GULP energy per Si atom -12399.001367 kJ/mol
# Density = 1.940297 g / cm^3
# Si number density = 19.447237 Si / 1000 Ang^3
#
#
#
# Elastic Constant Matrix: (Units=GPa)
#
#
# Indices 1 2 3 4 5 6 
#
# 1 84.3283 25.1242 22.7224 0.0042 5.3617 0.0033
# 2 25.1242 86.6237 14.6445 0.0056 -1.6445 0.0059
# 3 22.7224 14.6445 111.0584 0.0032 6.2204 0.0011
# 4 0.0042 0.0056 0.0032 20.0936 0.0020 1.0506
# 5 5.3617 -1.6445 6.2204 0.0020 27.8358 0.0020
# 6 0.0033 0.0059 0.0011 1.0506 0.0020 18.6872
#
#
#
# Elastic Compliance Matrix: (Units=1/GPa)
#
#
# Indices 1 2 3 4 5 6 
#
# 1 0.013683 -0.003644 -0.002187 -0.000001 -0.002362 -0.000001
# 2 -0.003644 0.012809 -0.001038 -0.000003 0.001691 -0.000003
# 3 -0.002187 -0.001038 0.009690 -0.000001 -0.001805 0.000000
# 4 -0.000001 -0.000003 -0.000001 0.049914 -0.000003 -0.002806
# 5 -0.002362 0.001691 -0.001805 -0.000003 0.036883 -0.000004
# 6 -0.000001 -0.000003 0.000000 -0.002806 -0.000004 0.053670
#
#
# Mechanical properties :
#
#
# Convention : Reuss Voigt Hill
#
# Bulk Modulus (GPa) = 44.55502 45.22140 44.88821
# Shear Modulus (GPa) = 25.26932 27.95795 26.61364
#
# Velocity S-wave (km/s) = 3.60860 3.79572 3.70334
# Velocity P-wave (km/s) = 6.35005 6.52027 6.43572
#
# Compressibility (1/GPa) = 0.02244416
#
# Stress axis : x y z
#
# Youngs Moduli (GPa) = 73.08076 78.07219 103.20233
#
# Poissons Ratio (x) = 0.28449 0.22568
# Poissons Ratio (y) = 0.26630 0.10714
# Poissons Ratio (z) = 0.15981 0.08105
#
# Static dielectric constant tensor:
#      x y z
#    x 3.406660 0.000000 0.103410 
#    y 0.000000 3.196290 0.000000 
#    z 0.103410 0.000000 3.659110 
# 
# 
# High freq. dielectric constant tensor:
#      x y z
#    x 1.738990 0.000000 0.010750 
#    y 0.000000 1.726910 0.000000 
#    z 0.010750 0.000000 1.774280 
# 
# From -- ./inp_files/369405.got.cif
#   From: 2010.06.25/outbox.cif.g09.slc.cpg/sg12_185_cif.got.tgz:369405.got - 2010.06.28 00:19:55.
