data_PCOD8089173
_publ_section_title
;
Structure prediction by ZEFSAII (Michael W. Deem and Ramdas Pophale) SiO2 
 PCOD8089173
Probable space group: C 2/M
;
_chemical_formula_sum "Si O2"
_cell_formula_units_Z 48
_cell_length_a 15.741609
_cell_length_b 9.436303
_cell_length_c 29.281676
_cell_angle_alpha 90.000000
_cell_angle_beta 144.442722
_cell_angle_gamma 90.000000
_cell_volume 2529.350369
_symmetry_space_group_name_H-M "C 2/M"
_symmetry_group_IT_number 12
_symmetry_cell_setting 'monoclinic'
loop_
_space_group_symop_operation_xyz
x,y,z
-x,y,-z
-x,-y,-z
x,-y,z
1/2+x,1/2+y,z
1/2-x,1/2+y,-z
1/2-x,1/2-y,-z
1/2+x,1/2-y,z
loop_
_atom_site_type_symbol
_atom_site_label
_atom_site_fract_x
_atom_site_fract_y
_atom_site_fract_z
Si Si1 0.881311 0.839215 0.153683
Si Si2 0.868988 0.331822 0.411286
Si Si3 0.064272 0.833207 0.319985
Si Si4 0.916995 0.836920 0.840907
Si Si5 0.600951 0.830673 0.679494
Si Si6 0.606848 0.660398 0.004626
O O1 0.933945 0.800186 0.227389
O O2 0.021159 0.817235 0.182652
O O3 0.824922 0.000000 0.126682
O O4 0.752925 0.741616 0.080188
O O5 0.863747 0.500000 0.408489
O O6 0.716323 0.276154 0.365418
O O7 0.897174 0.278310 0.372121
O O8 0.000000 0.273924 0.500000
O O9 0.030852 0.746854 0.351693
O O10 0.073677 0.000000 0.335204
O O11 0.752436 0.777334 0.768955
O O12 0.023364 0.765261 0.925196
O O13 0.907495 0.000000 0.851112
O O14 0.581591 0.000000 0.674234
O O15 0.653360 0.500000 0.013205
O O16 0.500000 0.666859 0.000000
#
# Coordination Sequence:
#
# PCOD8089173 Si02
#       6
#     8   8   8   8   8   8
#     4  10  19  33  52  72  99 139 180 217 260 312
#     4   9  18  35  59  83 108 142 181 216 259 325
#     4  10  20  35  55  81 111 141 177 223 269 312
#     4   9  17  32  52  72 100 139 180 216 257 314
#     4  10  19  35  59  82 106 143 184 217 261 322
#     4  10  20  32  47  72 103 134 173 222 266 306
#
# _framework density 18.977204
#
# number of rings (size 3 to 8) (size 9 to 14) (size 15 to 20)
#    0.000    2.333    1.667    1.500    0.000    3.000 
#    0.000    2.500    0.000    1.000    0.000    0.000 
#    0.000    0.000    0.000    0.000    0.000    0.000 
#
# Total GULP energy -297537.089696 kJ/mol
# GULP energy per Si atom -12397.378737 kJ/mol
# Density = 1.893401 g / cm^3
# Si number density = 18.977204 Si / 1000 Ang^3
#
#
#
# Elastic Constant Matrix: (Units=GPa)
#
#
# Indices 1 2 3 4 5 6 
#
# 1 126.8863 35.9815 62.0430 0.0000 -11.6661 0.0000
# 2 35.9815 37.3918 35.3523 0.0000 -2.6196 0.0001
# 3 62.0430 35.3523 123.9060 0.0000 -3.4171 0.0000
# 4 0.0000 0.0000 0.0000 34.2029 0.0000 -41.3625
# 5 -11.6661 -2.6196 -3.4171 0.0000 22.8523 0.0000
# 6 0.0000 0.0001 0.0000 -41.3625 0.0000 106.6093
#
#
#
# Elastic Compliance Matrix: (Units=1/GPa)
#
#
# Indices 1 2 3 4 5 6 
#
# 1 0.012481 -0.008062 -0.003815 0.000000 0.004877 0.000000
# 2 -0.008062 0.041990 -0.007957 0.000000 -0.000492 0.000000
# 3 -0.003815 -0.007957 0.012223 0.000000 -0.001032 0.000000
# 4 0.000000 0.000000 0.000000 0.055081 0.000000 0.021371
# 5 0.004877 -0.000492 -0.001032 0.000000 0.046038 0.000000
# 6 0.000000 0.000000 0.000000 0.021371 0.000000 0.017671
#
#
# Mechanical properties :
#
#
# Convention : Reuss Voigt Hill
#
# Bulk Modulus (GPa) = 37.00123 61.65975 49.33049
# Shear Modulus (GPa) = 21.35275 43.05338 32.20307
#
# Velocity S-wave (km/s) = 3.35801 4.76824 4.12386
# Velocity P-wave (km/s) = 5.88005 7.92949 6.98040
#
# Compressibility (1/GPa) = 0.02702613
#
# Stress axis : x y z
#
# Youngs Moduli (GPa) = 80.12260 23.81495 81.81461
#
# Poissons Ratio (x) = 0.19199 0.31211
# Poissons Ratio (y) = 0.64592 0.65103
# Poissons Ratio (z) = 0.30566 0.18951
#
# Static dielectric constant tensor:
#      x y z
#    x 3.204670 0.000000 -0.314570 
#    y 0.000000 3.076440 0.000000 
#    z -0.314570 0.000000 3.489550 
# 
# 
# High freq. dielectric constant tensor:
#      x y z
#    x 1.748090 0.000000 -0.004980 
#    y 0.000000 1.688060 0.000000 
#    z -0.004980 0.000000 1.746940 
# 
# From -- ./inp_files/212829.got.cif
#   From: 2010.06.25/outbox.cif.g09.slc.cpg/sg12_107_cif.got.tgz:212829.got - 2010.06.28 00:19:55.
