data_PCOD8089305
_publ_section_title
;
Structure prediction by ZEFSAII (Michael W. Deem and Ramdas Pophale) SiO2 
 PCOD8089305
Probable space group: C 2/M
;
_chemical_formula_sum "Si O2"
_cell_formula_units_Z 56
_cell_length_a 25.227693
_cell_length_b 8.992992
_cell_length_c 18.434858
_cell_angle_alpha 90.000000
_cell_angle_beta 43.494099
_cell_angle_gamma 90.000000
_cell_volume 2878.635027
_symmetry_space_group_name_H-M "C 2/M"
_symmetry_group_IT_number 12
_symmetry_cell_setting 'monoclinic'
loop_
_space_group_symop_operation_xyz
x,y,z
-x,y,-z
-x,-y,-z
x,-y,z
1/2+x,1/2+y,z
1/2-x,1/2+y,-z
1/2-x,1/2-y,-z
1/2+x,1/2-y,z
loop_
_atom_site_type_symbol
_atom_site_label
_atom_site_fract_x
_atom_site_fract_y
_atom_site_fract_z
Si Si1 0.598030 0.676265 0.212592
Si Si2 0.925159 0.174813 0.384216
Si Si3 0.149213 0.824364 0.689890
Si Si4 0.220656 0.175871 0.206317
Si Si5 0.363741 0.175570 0.970660
Si Si6 0.208869 0.824421 0.380901
Si Si7 0.481802 0.830108 0.101421
O O1 0.598488 0.500000 0.201909
O O2 0.511306 0.741671 0.305380
O O3 0.643819 0.723419 0.239531
O O4 0.642922 0.746375 0.100272
O O5 0.882151 0.238030 0.355767
O O6 0.876295 0.214758 0.504469
O O7 0.933167 0.000000 0.366922
O O8 0.230926 0.750833 0.624808
O O9 0.089114 0.776998 0.811303
O O10 0.159588 0.000000 0.679332
O O11 0.216435 0.241392 0.292056
O O12 0.226182 0.000000 0.206827
O O13 0.296007 0.236894 0.089989
O O14 0.444789 0.220530 0.925206
O O15 0.355460 0.000000 0.968391
O O16 0.223712 0.000000 0.367878
O O17 0.458840 0.000000 0.141747
O O18 0.500000 0.810219 0.000000
#
# Coordination Sequence:
#
# PCOD8089305 Si02
#       7
#     8   8   8   8   8   8   8
#     4  10  19  35  56  80 109 141 175 220 271 318
#     4   9  19  34  55  81 109 139 180 224 268 320
#     4  11  21  35  53  80 113 141 176 222 272 327
#     4   9  19  34  56  81 106 138 181 225 265 311
#     4  10  19  33  52  79 108 138 179 219 260 320
#     4  10  20  37  57  78 106 144 184 226 267 314
#     4  10  20  34  54  78 108 146 183 219 261 315
#
# _framework density 19.453665000000001
#
# number of rings (size 3 to 8) (size 9 to 14) (size 15 to 20)
#    0.000    2.143    1.429    2.143    0.000    3.143 
#    0.000    7.143    0.000    0.000    0.000    2.000 
#    0.000    0.000    0.000    0.000    0.000    0.000 
#
# Total GULP energy -347228.552067 kJ/mol
# GULP energy per Si atom -12401.019717 kJ/mol
# Density = 1.940939 g / cm^3
# Si number density = 19.453665 Si / 1000 Ang^3
#
#
#
# Elastic Constant Matrix: (Units=GPa)
#
#
# Indices 1 2 3 4 5 6 
#
# 1 85.6411 16.9112 38.7684 0.0072 0.0754 -0.0080
# 2 16.9112 28.8560 21.0311 0.0151 -1.6118 -0.0290
# 3 38.7684 21.0311 124.8385 -0.0013 -3.3732 0.0007
# 4 0.0072 0.0151 -0.0013 18.6554 0.0006 3.6108
# 5 0.0754 -1.6118 -3.3732 0.0006 28.4402 0.0052
# 6 -0.0080 -0.0290 0.0007 3.6108 0.0052 22.2049
#
#
#
# Elastic Compliance Matrix: (Units=1/GPa)
#
#
# Indices 1 2 3 4 5 6 
#
# 1 0.014438 -0.005953 -0.003502 -0.000001 -0.000791 -0.000002
# 2 -0.005953 0.042020 -0.005182 -0.000044 0.001783 0.000060
# 3 -0.003502 -0.005182 0.009995 0.000008 0.000901 -0.000010
# 4 -0.000001 -0.000044 0.000008 0.055346 -0.000001 -0.009000
# 5 -0.000791 0.001783 0.000901 -0.000001 0.035372 -0.000006
# 6 -0.000002 0.000060 -0.000010 -0.009000 -0.000006 0.046499
#
#
# Mechanical properties :
#
#
# Convention : Reuss Voigt Hill
#
# Bulk Modulus (GPa) = 26.89712 43.63965 35.26838
# Shear Modulus (GPa) = 20.38006 24.70176 22.54091
#
# Velocity S-wave (km/s) = 3.24021 3.56726 3.40766
# Velocity P-wave (km/s) = 5.27777 6.28080 5.80100
#
# Compressibility (1/GPa) = 0.03717871
#
# Stress axis : x y z
#
# Youngs Moduli (GPa) = 69.26014 23.79808 100.04694
#
# Poissons Ratio (x) = 0.14168 0.35039
# Poissons Ratio (y) = 0.41233 0.51845
# Poissons Ratio (z) = 0.24257 0.12332
#
# Static dielectric constant tensor:
#      x y z
#    x 3.771960 0.000000 -0.021800 
#    y 0.000000 3.177000 0.000010 
#    z -0.021800 0.000010 3.715850 
# 
# 
# High freq. dielectric constant tensor:
#      x y z
#    x 1.767210 0.000000 -0.002530 
#    y 0.000000 1.715530 0.000000 
#    z -0.002530 0.000000 1.769530 
# 
# From -- ./inp_files/288150.got.cif
#   From: 2010.06.25/outbox.cif.g09.slc.cpg/sg12_145_cif.got.tgz:288150.got - 2010.06.28 00:19:55.
