data_PCOD8089772
_publ_section_title
;
Structure prediction by ZEFSAII (Michael W. Deem and Ramdas Pophale) SiO2 
 PCOD8089772
Probable space group: C 2/M
;
_chemical_formula_sum "Si O2"
_cell_formula_units_Z 48
_cell_length_a 19.100611
_cell_length_b 8.646606
_cell_length_c 20.178114
_cell_angle_alpha 90.000000
_cell_angle_beta 130.409687
_cell_angle_gamma 90.000000
_cell_volume 2537.480739
_symmetry_space_group_name_H-M "C 2/M"
_symmetry_group_IT_number 12
_symmetry_cell_setting 'monoclinic'
loop_
_space_group_symop_operation_xyz
x,y,z
-x,y,-z
-x,-y,-z
x,-y,z
1/2+x,1/2+y,z
1/2-x,1/2+y,-z
1/2-x,1/2-y,-z
1/2+x,1/2-y,z
loop_
_atom_site_type_symbol
_atom_site_label
_atom_site_fract_x
_atom_site_fract_y
_atom_site_fract_z
Si Si1 0.817704 0.180270 0.232254
Si Si2 0.197754 0.320040 0.529621
Si Si3 0.993448 0.680153 0.643661
Si Si4 0.709140 0.320681 0.280450
Si Si5 0.326103 0.182486 0.094461
Si Si6 0.983362 0.820520 0.777718
O O1 0.737431 0.223393 0.233785
O O2 0.802437 0.273446 0.155225
O O3 0.916580 0.225867 0.324198
O O4 0.814342 0.000000 0.214200
O O5 0.219803 0.500000 0.540902
O O6 0.250000 0.250000 0.500000
O O7 0.088764 0.285935 0.458302
O O8 0.236098 0.253254 0.622280
O O9 0.018817 0.500000 0.661192
O O10 0.960078 0.731710 0.695741
O O11 0.733764 0.500000 0.284145
O O12 0.600240 0.296455 0.222856
O O13 0.424310 0.252969 0.132893
O O14 0.329779 0.000000 0.089198
O O15 0.250000 0.250000 0.000000
O O16 0.997942 0.000000 0.769383
#
# Coordination Sequence:
#
# PCOD8089772 Si02
#       6
#     8   8   8   8   8   8
#     4  11  23  38  57  82 114 149 188 233 282 332
#     4  10  20  33  53  80 111 150 195 239 279 326
#     4  10  19  33  54  79 110 150 194 236 280 330
#     4  10  21  37  55  80 116 154 188 232 285 331
#     4  11  22  40  65  89 114 142 180 225 274 337
#     4  10  19  34  58  84 113 148 187 228 277 334
#
# _framework density 18.916398999999998
#
# number of rings (size 3 to 8) (size 9 to 14) (size 15 to 20)
#    0.000    1.667    1.667    6.000    0.000    3.333 
#    0.000    4.167    0.000    5.000    0.000    0.000 
#    0.000    0.000    0.000    0.000    0.000    0.000 
#
# Total GULP energy -297655.238083 kJ/mol
# GULP energy per Si atom -12402.301587 kJ/mol
# Density = 1.887334 g / cm^3
# Si number density = 18.916399 Si / 1000 Ang^3
#
#
#
# Elastic Constant Matrix: (Units=GPa)
#
#
# Indices 1 2 3 4 5 6 
#
# 1 110.3231 21.7044 42.8638 0.0000 8.1892 0.0000
# 2 21.7044 46.3982 28.4250 0.0000 16.4028 0.0000
# 3 42.8638 28.4250 123.5217 0.0000 17.4996 0.0000
# 4 0.0000 0.0000 0.0000 27.6376 0.0000 2.0593
# 5 8.1892 16.4028 17.4996 0.0000 19.0294 0.0000
# 6 0.0000 0.0000 0.0000 2.0593 0.0000 34.2128
#
#
#
# Elastic Compliance Matrix: (Units=1/GPa)
#
#
# Indices 1 2 3 4 5 6 
#
# 1 0.010900 -0.003654 -0.003131 0.000000 0.001338 0.000000
# 2 -0.003654 0.033902 -0.003008 0.000000 -0.024884 0.000000
# 3 -0.003131 -0.003008 0.010712 0.000000 -0.005910 0.000000
# 4 0.000000 0.000000 0.000000 0.036346 0.000000 -0.002188
# 5 0.001338 -0.024884 -0.005910 0.000000 0.078858 0.000000
# 6 0.000000 0.000000 0.000000 -0.002188 0.000000 0.029361
#
#
# Mechanical properties :
#
#
# Convention : Reuss Voigt Hill
#
# Bulk Modulus (GPa) = 27.83408 51.80326 39.81867
# Shear Modulus (GPa) = 21.58512 28.65927 25.12219
#
# Velocity S-wave (km/s) = 3.38165 3.89659 3.64822
# Velocity P-wave (km/s) = 5.47664 6.90575 6.23229
#
# Compressibility (1/GPa) = 0.03592718
#
# Stress axis : x y z
#
# Youngs Moduli (GPa) = 91.73969 29.49713 93.35365
#
# Poissons Ratio (x) = 0.10777 0.29232
# Poissons Ratio (y) = 0.33519 0.28084
# Poissons Ratio (z) = 0.28727 0.08874
#
# Static dielectric constant tensor:
#      x y z
#    x 3.387770 0.000000 0.207170 
#    y 0.000000 3.558430 0.000000 
#    z 0.207170 0.000000 3.603460 
# 
# 
# High freq. dielectric constant tensor:
#      x y z
#    x 1.730940 0.000000 0.015080 
#    y 0.000000 1.742990 0.000000 
#    z 0.015080 0.000000 1.726240 
# 
# From -- ./inp_files/313597.got.cif
#   From: 2010.06.25/outbox.cif.g09.slc.cpg/sg12_157_cif.got.tgz:313597.got - 2010.06.28 00:19:55.
