data_PCOD8089865
_publ_section_title
;
Structure prediction by ZEFSAII (Michael W. Deem and Ramdas Pophale) SiO2 
 PCOD8089865
Probable space group: C 2/M
;
_chemical_formula_sum "Si O2"
_cell_formula_units_Z 64
_cell_length_a 28.774413
_cell_length_b 8.750136
_cell_length_c 14.182942
_cell_angle_alpha 90.000000
_cell_angle_beta 61.319841
_cell_angle_gamma 90.000000
_cell_volume 3132.866397
_symmetry_space_group_name_H-M "C 2/M"
_symmetry_group_IT_number 12
_symmetry_cell_setting 'monoclinic'
loop_
_space_group_symop_operation_xyz
x,y,z
-x,y,-z
-x,-y,-z
x,-y,z
1/2+x,1/2+y,z
1/2-x,1/2+y,-z
1/2-x,1/2-y,-z
1/2+x,1/2-y,z
loop_
_atom_site_type_symbol
_atom_site_label
_atom_site_fract_x
_atom_site_fract_y
_atom_site_fract_z
Si Si1 0.615710 0.675613 0.457489
Si Si2 0.797575 0.319440 0.894949
Si Si3 0.954739 0.678062 0.614419
Si Si4 0.291467 0.675609 0.389206
Si Si5 0.214405 0.324869 0.308042
Si Si6 0.093275 0.179774 0.685912
Si Si7 0.504286 0.681399 0.101559
Si Si8 0.589794 0.679376 0.164938
O O1 0.607328 0.500000 0.436415
O O2 0.599230 0.788431 0.388874
O O3 0.677501 0.715602 0.408730
O O4 0.584256 0.714556 0.583904
O O5 0.796385 0.500000 0.905766
O O6 0.786584 0.266850 0.798560
O O7 0.854264 0.263658 0.878978
O O8 0.750000 0.250000 0.000000
O O9 0.961416 0.500000 0.630481
O O10 0.952442 0.771222 0.713675
O O11 0.000000 0.741187 0.500000
O O12 0.295903 0.500000 0.415994
O O13 0.250000 0.750000 0.500000
O O14 0.272344 0.691657 0.298887
O O15 0.350106 0.750910 0.337556
O O16 0.194983 0.500000 0.333087
O O17 0.044756 0.253289 0.791388
O O18 0.094521 0.000000 0.702996
O O19 0.498662 0.500000 0.105673
O O20 0.560801 0.724016 0.094611
O O21 0.500000 0.748427 0.000000
O O22 0.600352 0.500000 0.161692
#
# Coordination Sequence:
#
# PCOD8089865 Si02
#       8
#     8   8   8   8   8   8   8   8
#     4  11  20  32  55  83 115 151 190 242 296 354
#     4  11  24  42  63  89 122 160 203 250 299 358
#     4  11  23  37  55  83 120 161 199 242 300 360
#     4  10  19  33  54  81 116 155 195 242 296 356
#     4  10  21  36  56  82 116 156 194 238 295 357
#     4   9  18  32  52  83 117 151 194 246 296 344
#     4   9  19  36  59  86 117 153 198 248 295 350
#     4  11  22  38  63  92 120 155 200 250 304 358
#
# _framework density 20.428576
#
# number of rings (size 3 to 8) (size 9 to 14) (size 15 to 20)
#    0.000    1.750    2.500    2.250    0.000    3.500 
#    0.000    3.750    0.000    2.250    0.000    0.000 
#    0.000    0.000    0.000    0.000    0.000    0.000 
#
# Total GULP energy -396678.903848 kJ/mol
# GULP energy per Si atom -12396.215745 kJ/mol
# Density = 2.038208 g / cm^3
# Si number density = 20.428576 Si / 1000 Ang^3
#
#
#
# Elastic Constant Matrix: (Units=GPa)
#
#
# Indices 1 2 3 4 5 6 
#
# 1 112.7619 22.2407 51.6665 0.0000 12.6762 0.0000
# 2 22.2407 44.3189 27.4787 0.0000 1.6004 0.0000
# 3 51.6665 27.4787 123.7132 0.0000 2.0555 0.0000
# 4 0.0000 0.0000 0.0000 24.6831 0.0000 -4.7128
# 5 12.6762 1.6004 2.0555 0.0000 34.8514 0.0000
# 6 0.0000 0.0000 0.0000 -4.7128 0.0000 23.5260
#
#
#
# Elastic Compliance Matrix: (Units=1/GPa)
#
#
# Indices 1 2 3 4 5 6 
#
# 1 0.011855 -0.003222 -0.004170 0.000000 -0.003918 0.000000
# 2 -0.003222 0.027069 -0.004670 0.000000 0.000204 0.000000
# 3 -0.004170 -0.004670 0.010844 0.000000 0.001092 0.000000
# 4 0.000000 0.000000 0.000000 0.042125 0.000000 0.008439
# 5 -0.003918 0.000204 0.001092 0.000000 0.030045 0.000000
# 6 0.000000 0.000000 0.000000 0.008439 0.000000 0.044197
#
#
# Mechanical properties :
#
#
# Convention : Reuss Voigt Hill
#
# Bulk Modulus (GPa) = 38.99718 53.72954 46.36336
# Shear Modulus (GPa) = 25.15007 28.57262 26.86134
#
# Velocity S-wave (km/s) = 3.51254 3.74392 3.63008
# Velocity P-wave (km/s) = 5.96503 6.71175 6.34937
#
# Compressibility (1/GPa) = 0.02564288
#
# Stress axis : x y z
#
# Youngs Moduli (GPa) = 84.35279 36.94268 92.21673
#
# Poissons Ratio (x) = 0.11903 0.38456
# Poissons Ratio (y) = 0.27179 0.43067
# Poissons Ratio (z) = 0.35177 0.17253
#
# Static dielectric constant tensor:
#      x y z
#    x 4.012110 0.000000 0.017150 
#    y 0.000000 3.373120 0.000000 
#    z 0.017150 0.000000 3.817640 
# 
# 
# High freq. dielectric constant tensor:
#      x y z
#    x 1.816140 0.000000 0.003660 
#    y 0.000000 1.768140 0.000000 
#    z 0.003660 0.000000 1.791910 
# 
# From -- ./inp_files/248949.got.cif
#   From: 2010.06.25/outbox.cif.g09.slc.cpg/sg12_125_cif.got.tgz:248949.got - 2010.06.28 00:19:55.
