data_PCOD8089439
_publ_section_title
;
Structure prediction by ZEFSAII (Michael W. Deem and Ramdas Pophale) SiO2 
 PCOD8089439
Probable space group: C 2/M
;
_chemical_formula_sum "Si O2"
_cell_formula_units_Z 56
_cell_length_a 28.593057
_cell_length_b 8.942655
_cell_length_c 19.018834
_cell_angle_alpha 90.000000
_cell_angle_beta 138.848941
_cell_angle_gamma 90.000000
_cell_volume 3200.129487
_symmetry_space_group_name_H-M "C 2/M"
_symmetry_group_IT_number 12
_symmetry_cell_setting 'monoclinic'
loop_
_space_group_symop_operation_xyz
x,y,z
-x,y,-z
-x,-y,-z
x,-y,z
1/2+x,1/2+y,z
1/2-x,1/2+y,-z
1/2-x,1/2-y,-z
1/2+x,1/2-y,z
loop_
_atom_site_type_symbol
_atom_site_label
_atom_site_fract_x
_atom_site_fract_y
_atom_site_fract_z
Si Si1 0.234374 0.172398 0.379761
Si Si2 0.008725 0.176147 0.297504
Si Si3 0.762149 0.825789 0.121115
Si Si4 0.440977 0.326145 0.491029
Si Si5 0.137595 0.674056 0.373500
Si Si6 0.292532 0.825148 0.295691
Si Si7 0.360876 0.825490 0.126055
O O1 0.170262 0.273863 0.336035
O O2 0.307129 0.212077 0.502154
O O3 0.245714 0.210455 0.311264
O O4 0.214442 0.000000 0.369773
O O5 0.029323 0.223816 0.399781
O O6 0.066916 0.232904 0.308279
O O7 0.935736 0.253109 0.192575
O O8 0.000039 0.000000 0.280692
O O9 0.752757 0.759201 0.187842
O O10 0.829405 0.748239 0.160588
O O11 0.779430 0.000000 0.145130
O O12 0.690201 0.792327 0.997576
O O13 0.500000 0.289995 0.500000
O O14 0.419681 0.500000 0.466551
O O15 0.372501 0.230075 0.395374
O O16 0.118756 0.500000 0.348625
O O17 0.294969 0.000000 0.282508
O O18 0.369873 0.000000 0.150486
#
# Coordination Sequence:
#
# PCOD8089439 Si02
#       7
#     8   8   8   8   8   8   8
#     4   9  19  34  51  76 107 138 177 219 263 315
#     4  11  21  33  53  79 110 143 175 218 268 317
#     4  10  21  37  56  79 107 140 180 222 264 314
#     4  10  21  34  48  72 107 143 175 211 258 314
#     4  10  19  33  53  76 106 141 179 219 261 316
#     4  11  21  34  54  79 107 140 175 218 265 315
#     4  10  21  37  57  79 105 140 182 224 263 309
#
# _framework density 17.499290999999999
#
# number of rings (size 3 to 8) (size 9 to 14) (size 15 to 20)
#    0.000    1.857    1.429    3.000    0.000    5.429 
#    0.000    0.000    0.000    0.857    0.000    6.000 
#    0.000    0.000    0.000    0.000    0.000    0.000 
#
# Total GULP energy -347355.792609 kJ/mol
# GULP energy per Si atom -12405.564022 kJ/mol
# Density = 1.745946 g / cm^3
# Si number density = 17.499291 Si / 1000 Ang^3
#
#
#
# Elastic Constant Matrix: (Units=GPa)
#
#
# Indices 1 2 3 4 5 6 
#
# 1 116.7841 56.1051 57.1137 0.0000 2.7232 0.0000
# 2 56.1051 87.6764 49.3348 0.0000 -2.6445 0.0000
# 3 57.1137 49.3348 78.7531 0.0000 -1.3861 0.0000
# 4 0.0000 0.0000 0.0000 30.5739 0.0000 2.4145
# 5 2.7232 -2.6445 -1.3861 0.0000 19.6445 0.0000
# 6 0.0000 0.0000 0.0000 2.4145 0.0000 32.7288
#
#
#
# Elastic Compliance Matrix: (Units=1/GPa)
#
#
# Indices 1 2 3 4 5 6 
#
# 1 0.014900 -0.005439 -0.007457 0.000000 -0.003324 0.000000
# 2 -0.005439 0.019650 -0.008316 0.000000 0.002813 0.000000
# 3 -0.007457 -0.008316 0.023343 0.000000 0.001561 0.000000
# 4 0.000000 0.000000 0.000000 0.032899 0.000000 -0.002427
# 5 -0.003324 0.002813 0.001561 0.000000 0.051854 0.000000
# 6 0.000000 0.000000 0.000000 -0.002427 0.000000 0.030733
#
#
# Mechanical properties :
#
#
# Convention : Reuss Voigt Hill
#
# Bulk Modulus (GPa) = 64.64438 67.59121 66.11780
# Shear Modulus (GPa) = 22.62840 24.63342 23.63091
#
# Velocity S-wave (km/s) = 3.59988 3.75598 3.67876
# Velocity P-wave (km/s) = 7.36886 7.58411 7.47726
#
# Compressibility (1/GPa) = 0.01546925
#
# Stress axis : x y z
#
# Youngs Moduli (GPa) = 67.11249 50.89031 42.83917
#
# Poissons Ratio (x) = 0.27679 0.31947
# Poissons Ratio (y) = 0.36502 0.35624
# Poissons Ratio (z) = 0.50048 0.42320
#
# Static dielectric constant tensor:
#      x y z
#    x 3.306780 0.000000 -0.101060 
#    y 0.000000 3.333750 0.000000 
#    z -0.101060 0.000000 3.142520 
# 
# 
# High freq. dielectric constant tensor:
#      x y z
#    x 1.679260 0.000000 -0.001000 
#    y 0.000000 1.690100 0.000000 
#    z -0.001000 0.000000 1.657560 
# 
# From -- ./inp_files/288231.got.cif
#   From: 2010.06.25/outbox.cif.g09.slc.cpg/sg12_145_cif.got.tgz:288231.got - 2010.06.28 00:19:55.
