data_PCOD8089597
_publ_section_title
;
Structure prediction by ZEFSAII (Michael W. Deem and Ramdas Pophale) SiO2 
 PCOD8089597
Probable space group: C 2/M
;
_chemical_formula_sum "Si O2"
_cell_formula_units_Z 56
_cell_length_a 16.772802
_cell_length_b 19.156051
_cell_length_c 14.127749
_cell_angle_alpha 90.000000
_cell_angle_beta 137.442816
_cell_angle_gamma 90.000000
_cell_volume 3070.014823
_symmetry_space_group_name_H-M "C 2/M"
_symmetry_group_IT_number 12
_symmetry_cell_setting 'monoclinic'
loop_
_space_group_symop_operation_xyz
x,y,z
-x,y,-z
-x,-y,-z
x,-y,z
1/2+x,1/2+y,z
1/2-x,1/2+y,-z
1/2-x,1/2-y,-z
1/2+x,1/2-y,z
loop_
_atom_site_type_symbol
_atom_site_label
_atom_site_fract_x
_atom_site_fract_y
_atom_site_fract_z
Si Si1 0.246025 0.822496 0.371821
Si Si2 0.771841 0.656068 0.097086
Si Si3 0.369266 0.183195 0.778281
Si Si4 0.488221 0.871641 0.593261
Si Si5 0.353522 0.800654 0.976134
Si Si6 0.361873 0.421033 0.878624
Si Si7 0.688067 0.922107 0.423892
O O1 0.188441 0.746931 0.330436
O O2 0.388214 0.811156 0.490868
O O3 0.199775 0.863569 0.239941
O O4 0.217919 0.872449 0.438288
O O5 0.692661 0.723455 0.046391
O O6 0.694836 0.590069 0.066247
O O7 0.892924 0.661969 0.262439
O O8 0.798774 0.648149 0.008457
O O9 0.317581 0.175870 0.839092
O O10 0.339034 0.110335 0.702142
O O11 0.506604 0.198919 0.894610
O O12 0.500000 0.908144 0.500000
O O13 0.433909 0.926488 0.621472
O O14 0.334748 0.500000 0.821079
O O15 0.500000 0.406432 0.000000
O O16 0.738877 0.000000 0.454805
#
# Coordination Sequence:
#
# PCOD8089597 Si02
#       7
#     8   8   8   8   8   8   8
#     4  10  20  34  57  80 111 147 186 235 287 336
#     4  11  19  37  52  83 114 147 188 236 283 340
#     4  11  19  38  57  83 113 154 196 235 282 336
#     4  10  19  33  53  83 114 146 184 229 292 340
#     4  10  21  33  59  81 113 151 195 237 277 328
#     4  11  22  36  56  83 113 149 187 232 295 354
#     4  10  22  35  52  80 115 151 188 229 284 344
#
# _framework density 18.240953999999999
#
# number of rings (size 3 to 8) (size 9 to 14) (size 15 to 20)
#    0.857    0.714    4.286    1.714    0.000    0.857 
#    0.000    2.143    0.000    0.000    0.000    0.000 
#    0.000   17.714    0.000    0.000    0.000    0.000 
#
# Total GULP energy -346892.782017 kJ/mol
# GULP energy per Si atom -12389.027929 kJ/mol
# Density = 1.819944 g / cm^3
# Si number density = 18.240954 Si / 1000 Ang^3
#
#
#
# Elastic Constant Matrix: (Units=GPa)
#
#
# Indices 1 2 3 4 5 6 
#
# 1 98.7417 28.1425 35.5719 0.0000 -21.4379 0.0000
# 2 28.1425 79.6665 35.6380 0.0000 -11.5216 0.0000
# 3 35.5719 35.6380 76.0820 0.0000 -12.1004 0.0000
# 4 0.0000 0.0000 0.0000 11.6877 0.0000 4.1476
# 5 -21.4379 -11.5216 -12.1004 0.0000 32.8277 0.0000
# 6 0.0000 0.0000 0.0000 4.1476 0.0000 9.4109
#
#
#
# Elastic Compliance Matrix: (Units=1/GPa)
#
#
# Indices 1 2 3 4 5 6 
#
# 1 0.013720 -0.001883 -0.004475 0.000000 0.006649 0.000000
# 2 -0.001883 0.016423 -0.006470 0.000000 0.002149 0.000000
# 3 -0.004475 -0.006470 0.018527 0.000000 0.001636 0.000000
# 4 0.000000 0.000000 0.000000 0.101422 0.000000 -0.044699
# 5 0.006649 0.002149 0.001636 0.000000 0.036162 0.000000
# 6 0.000000 0.000000 0.000000 -0.044699 0.000000 0.125959
#
#
# Mechanical properties :
#
#
# Convention : Reuss Voigt Hill
#
# Bulk Modulus (GPa) = 43.45466 50.35501 46.90483
# Shear Modulus (GPa) = 14.47006 21.12780 17.79893
#
# Velocity S-wave (km/s) = 2.81957 3.40702 3.12712
# Velocity P-wave (km/s) = 5.87148 6.56829 6.22963
#
# Compressibility (1/GPa) = 0.02301249
#
# Stress axis : x y z
#
# Youngs Moduli (GPa) = 72.88669 60.89080 53.97511
#
# Poissons Ratio (x) = 0.11466 0.24154
# Poissons Ratio (y) = 0.13725 0.34924
# Poissons Ratio (z) = 0.32618 0.39399
#
# Static dielectric constant tensor:
#      x y z
#    x 3.636230 0.000000 -0.184870 
#    y 0.000000 3.039820 0.000000 
#    z -0.184870 0.000000 3.459700 
# 
# 
# High freq. dielectric constant tensor:
#      x y z
#    x 1.705750 0.000000 -0.008280 
#    y 0.000000 1.674110 0.000000 
#    z -0.008280 0.000000 1.710200 
# 
# From -- ./inp_files/216416.got.cif
#   From: 2010.06.25/outbox.cif.g09.slc.cpg/sg12_109_cif.got.tgz:216416.got - 2010.06.28 00:19:55.
