data_PCOD8089747
_publ_section_title
;
Structure prediction by ZEFSAII (Michael W. Deem and Ramdas Pophale) SiO2 
 PCOD8089747
Probable space group: C 2/M
;
_chemical_formula_sum "Si O2"
_cell_formula_units_Z 60
_cell_length_a 14.799034
_cell_length_b 18.844535
_cell_length_c 15.724723
_cell_angle_alpha 90.000000
_cell_angle_beta 134.316810
_cell_angle_gamma 90.000000
_cell_volume 3137.646604
_symmetry_space_group_name_H-M "C 2/M"
_symmetry_group_IT_number 12
_symmetry_cell_setting 'monoclinic'
loop_
_space_group_symop_operation_xyz
x,y,z
-x,y,-z
-x,-y,-z
x,-y,z
1/2+x,1/2+y,z
1/2-x,1/2+y,-z
1/2-x,1/2-y,-z
1/2+x,1/2-y,z
loop_
_atom_site_type_symbol
_atom_site_label
_atom_site_fract_x
_atom_site_fract_y
_atom_site_fract_z
Si Si1 0.619005 0.415857 0.631445
Si Si2 0.801156 0.677923 0.496459
Si Si3 0.853240 0.582963 0.095877
Si Si4 0.866367 0.417538 0.692042
Si Si5 0.143692 0.082727 0.836465
Si Si6 0.693154 0.082383 0.749581
Si Si7 0.500000 0.152088 0.500000
Si Si8 0.876259 0.917876 0.726973
O O1 0.500000 0.384497 0.500000
O O2 0.605391 0.500000 0.625929
O O3 0.750457 0.393075 0.674622
O O4 0.619887 0.383027 0.727509
O O5 0.750000 0.750000 0.500000
O O6 0.871588 0.630670 0.612417
O O7 0.687267 0.630973 0.385754
O O8 0.901329 0.699401 0.488727
O O9 0.821427 0.500000 0.077523
O O10 0.814733 0.618119 0.161920
O O11 0.001030 0.595589 0.171837
O O12 0.766451 0.616731 0.963866
O O13 0.853264 0.500000 0.656941
O O14 0.025389 0.096457 0.821156
O O15 0.166016 0.000000 0.835163
O O16 0.575325 0.102660 0.614161
O O17 0.824250 0.101421 0.787039
O O18 0.681101 0.000000 0.757871
O O19 0.845115 0.000000 0.684439
#
# Coordination Sequence:
#
# PCOD8089747 Si02
#       8
#     8   8   8   8   8   8   4   8
#     4   9  17  29  47  72 103 139 177 218 262 308
#     4  11  22  36  53  79 108 138 175 222 268 317
#     4   9  17  28  47  77 110 140 172 217 270 317
#     4  10  19  33  54  79 106 140 177 219 269 320
#     4   9  17  30  47  75 112 142 176 219 262 313
#     4   9  16  27  49  80 107 137 173 211 263 317
#     4  10  19  34  52  72 105 138 170 214 264 316
#     4   9  18  32  53  78 107 141 175 217 264 317
#
# _framework density 19.122612
#
# number of rings (size 3 to 8) (size 9 to 14) (size 15 to 20)
#    0.000    2.533    1.333    1.400    0.000    4.267 
#    3.600    5.333    0.000    0.800    0.000    1.867 
#    0.000    0.000    0.000    0.000    0.000    0.000 
#
# Total GULP energy -371799.631696 kJ/mol
# GULP energy per Si atom -12393.321057 kJ/mol
# Density = 1.907909 g / cm^3
# Si number density = 19.122612 Si / 1000 Ang^3
#
#
#
# Elastic Constant Matrix: (Units=GPa)
#
#
# Indices 1 2 3 4 5 6 
#
# 1 145.7594 20.4541 79.7829 -0.0001 8.2881 0.0000
# 2 20.4541 28.1710 17.6298 -0.0001 7.2862 0.0000
# 3 79.7829 17.6298 161.1391 -0.0001 2.1017 -0.0001
# 4 -0.0001 -0.0001 -0.0001 1.9554 -0.0001 -0.9454
# 5 8.2881 7.2862 2.1017 -0.0001 30.9232 0.0000
# 6 0.0000 0.0000 -0.0001 -0.9454 0.0000 16.4941
#
#
#
# Elastic Compliance Matrix: (Units=1/GPa)
#
#
# Indices 1 2 3 4 5 6 
#
# 1 0.009956 -0.004071 -0.004466 0.000000 -0.001406 0.000000
# 2 -0.004071 0.042264 -0.002495 0.000001 -0.008698 0.000000
# 3 -0.004466 -0.002495 0.008674 0.000000 0.001195 0.000000
# 4 0.000000 0.000001 0.000000 0.525983 0.000001 0.030149
# 5 -0.001406 -0.008698 0.001195 0.000001 0.034683 0.000000
# 6 0.000000 0.000000 0.000000 0.030149 0.000000 0.062356
#
#
# Mechanical properties :
#
#
# Convention : Reuss Voigt Hill
#
# Bulk Modulus (GPa) = 25.75220 63.42257 44.58738
# Shear Modulus (GPa) = 6.95484 24.35473 15.65479
#
# Velocity S-wave (km/s) = 1.90915 3.57264 2.86432
# Velocity P-wave (km/s) = 4.28438 7.08919 5.85716
#
# Compressibility (1/GPa) = 0.03883163
#
# Stress axis : x y z
#
# Youngs Moduli (GPa) = 100.44030 23.66074 115.28288
#
# Poissons Ratio (x) = 0.09631 0.51483
# Poissons Ratio (y) = 0.40884 0.28765
# Poissons Ratio (z) = 0.44855 0.05904
#
# Static dielectric constant tensor:
#      x y z
#    x 3.822950 0.000000 -0.092460 
#    y 0.000000 2.821330 0.000000 
#    z -0.092460 0.000000 3.724980 
# 
# 
# High freq. dielectric constant tensor:
#      x y z
#    x 1.762780 0.000000 0.003660 
#    y 0.000000 1.672670 0.000000 
#    z 0.003660 0.000000 1.742900 
# 
# From -- ./inp_files/217922.got.cif
#   From: 2010.06.25/outbox.cif.g09.slc.cpg/sg12_109_cif.got.tgz:217922.got - 2010.06.28 00:19:55.
