data_PCOD8089064
_publ_section_title
;
Structure prediction by ZEFSAII (Michael W. Deem and Ramdas Pophale) SiO2 
 PCOD8089064
Probable space group: C 2/M
;
_chemical_formula_sum "Si O2"
_cell_formula_units_Z 64
_cell_length_a 28.409109
_cell_length_b 22.927066
_cell_length_c 18.033789
_cell_angle_alpha 90.000000
_cell_angle_beta 161.330817
_cell_angle_gamma 90.000000
_cell_volume 3759.962151
_symmetry_space_group_name_H-M "C 2/M"
_symmetry_group_IT_number 12
_symmetry_cell_setting 'monoclinic'
loop_
_space_group_symop_operation_xyz
x,y,z
-x,y,-z
-x,-y,-z
x,-y,z
1/2+x,1/2+y,z
1/2-x,1/2+y,-z
1/2-x,1/2-y,-z
1/2+x,1/2-y,z
loop_
_atom_site_type_symbol
_atom_site_label
_atom_site_fract_x
_atom_site_fract_y
_atom_site_fract_z
Si Si1 0.348851 0.226667 0.742075
Si Si2 0.127560 0.325174 0.816759
Si Si3 0.854543 0.111685 0.932770
Si Si4 0.663994 0.726124 0.755317
Si Si5 0.173064 0.063986 0.258041
Si Si6 0.836779 0.155093 0.640811
Si Si7 0.195901 0.276628 0.651046
Si Si8 0.840207 0.433902 0.226339
O O1 0.285280 0.172176 0.601373
O O2 0.390432 0.283811 0.756170
O O3 0.227939 0.242552 0.623432
O O4 0.500000 0.202220 0.000000
O O5 0.170131 0.288563 0.806772
O O6 0.146571 0.393355 0.826349
O O7 0.964123 0.306067 0.594818
O O8 0.235119 0.317296 0.047164
O O9 0.786268 0.068603 0.768290
O O10 0.814996 0.175123 0.845167
O O11 0.786106 0.091814 0.908370
O O12 0.032742 0.116521 0.202525
O O13 0.500000 0.701107 0.500000
O O14 0.718906 0.732229 0.753472
O O15 0.241177 0.114251 0.412479
O O16 0.219759 0.000000 0.356955
O O17 0.000000 0.074381 0.000000
O O18 0.797373 0.500000 0.139745
O O19 0.000000 0.432089 0.500000
#
# Coordination Sequence:
#
# PCOD8089064 Si02
#       8
#     8   8   8   8   8   8   8   8
#     4  11  21  34  49  76 107 134 168 206 254 301
#     4  10  19  33  50  73 102 133 168 204 249 303
#     4  11  18  32  48  75 105 132 162 201 248 309
#     4   9  19  32  51  73  99 131 169 207 247 295
#     4   9  17  32  51  73  99 129 165 204 247 297
#     4  10  21  32  52  74 103 137 166 206 252 301
#     4  11  19  30  49  73 104 138 159 201 248 305
#     4  11  21  33  51  77 107 135 164 207 256 301
#
# _framework density 17.021447999999999
#
# number of rings (size 3 to 8) (size 9 to 14) (size 15 to 20)
#    0.000    1.750    5.000    1.125    1.750    1.500 
#    0.000    0.000    0.000    0.750    0.000    0.875 
#    0.000    0.000    0.000    0.000    0.000    0.000 
#
# Total GULP energy -396551.513800 kJ/mol
# GULP energy per Si atom -12392.234806 kJ/mol
# Density = 1.698271 g / cm^3
# Si number density = 17.021448 Si / 1000 Ang^3
#
#
#
# Elastic Constant Matrix: (Units=GPa)
#
#
# Indices 1 2 3 4 5 6 
#
# 1 78.5256 29.9365 39.2308 0.0000 -2.1754 0.0000
# 2 29.9365 95.7532 42.9919 0.0000 -11.6889 0.0000
# 3 39.2308 42.9919 95.7859 0.0000 -14.0640 0.0000
# 4 0.0000 0.0000 0.0000 20.8852 0.0000 -5.3359
# 5 -2.1754 -11.6889 -14.0640 0.0000 20.7970 0.0000
# 6 0.0000 0.0000 0.0000 -5.3359 0.0000 37.3961
#
#
#
# Elastic Compliance Matrix: (Units=1/GPa)
#
#
# Indices 1 2 3 4 5 6 
#
# 1 0.016838 -0.003002 -0.006148 0.000000 -0.004084 0.000000
# 2 -0.003002 0.013884 -0.004333 0.000000 0.004560 0.000000
# 3 -0.006148 -0.004333 0.016044 0.000000 0.007771 0.000000
# 4 0.000000 0.000000 0.000000 0.049692 0.000000 0.007090
# 5 -0.004084 0.004560 0.007771 0.000000 0.055475 0.000000
# 6 0.000000 0.000000 0.000000 0.007090 0.000000 0.027752
#
#
# Mechanical properties :
#
#
# Convention : Reuss Voigt Hill
#
# Bulk Modulus (GPa) = 50.50673 54.93144 52.71909
# Shear Modulus (GPa) = 23.44654 26.34269 24.89462
#
# Velocity S-wave (km/s) = 3.71546 3.93824 3.82847
# Velocity P-wave (km/s) = 6.93851 7.28160 7.11212
#
# Compressibility (1/GPa) = 0.01979934
#
# Stress axis : x y z
#
# Youngs Moduli (GPa) = 59.39024 72.02551 62.32956
#
# Poissons Ratio (x) = 0.21624 0.38322
# Poissons Ratio (y) = 0.17830 0.27004
# Poissons Ratio (z) = 0.36515 0.31205
#
# Static dielectric constant tensor:
#      x y z
#    x 2.960680 0.000000 -0.076280 
#    y 0.000000 3.097960 0.000000 
#    z -0.076280 0.000000 3.002800 
# 
# 
# High freq. dielectric constant tensor:
#      x y z
#    x 1.663810 0.000000 0.007980 
#    y 0.000000 1.632740 0.000000 
#    z 0.007980 0.000000 1.633060 
# 
# From -- ./inp_files/297084.got.cif
#   From: 2010.06.25/outbox.cif.g09.slc.cpg/sg12_149_cif.got.tgz:297084.got - 2010.06.28 00:19:55.
