data_PCOD8089410
_publ_section_title
;
Structure prediction by ZEFSAII (Michael W. Deem and Ramdas Pophale) SiO2 
 PCOD8089410
Probable space group: C 2/M
;
_chemical_formula_sum "Si O2"
_cell_formula_units_Z 48
_cell_length_a 19.085553
_cell_length_b 29.671976
_cell_length_c 9.638350
_cell_angle_alpha 90.000000
_cell_angle_beta 31.151602
_cell_angle_gamma 90.000000
_cell_volume 2823.579330
_symmetry_space_group_name_H-M "C 2/M"
_symmetry_group_IT_number 12
_symmetry_cell_setting 'monoclinic'
loop_
_space_group_symop_operation_xyz
x,y,z
-x,y,-z
-x,-y,-z
x,-y,z
1/2+x,1/2+y,z
1/2-x,1/2+y,-z
1/2-x,1/2-y,-z
1/2+x,1/2-y,z
loop_
_atom_site_type_symbol
_atom_site_label
_atom_site_fract_x
_atom_site_fract_y
_atom_site_fract_z
Si Si1 0.646554 0.447672 0.808668
Si Si2 0.687792 0.284193 0.298243
Si Si3 0.193132 0.885937 0.284609
Si Si4 0.387847 0.614090 0.884487
Si Si5 0.899542 0.215740 0.871700
Si Si6 0.653095 0.052333 0.776105
O O1 0.654426 0.500000 0.834846
O O2 0.756909 0.434132 0.508043
O O3 0.500000 0.434262 0.000000
O O4 0.677605 0.419584 0.894074
O O5 0.733567 0.334891 0.257133
O O6 0.644153 0.281929 0.213194
O O7 0.558440 0.270773 0.612559
O O8 0.811465 0.249708 0.115849
O O9 0.197995 0.891680 0.110603
O O10 0.301950 0.919512 0.166074
O O11 0.044188 0.898070 0.592628
O O12 0.376410 0.664837 0.963439
O O13 0.670999 0.000000 0.783266
O O14 0.500000 0.064685 0.000000
#
# Coordination Sequence:
#
# PCOD8089410 Si02
#       6
#     8   8   8   8   8   8
#     4  10  19  33  53  75  97 128 169 202 239 299
#     4   8  14  26  45  68  96 127 160 195 237 288
#     4   9  17  31  52  77 102 129 163 206 248 286
#     4   9  17  30  52  80 102 123 163 214 249 274
#     4   8  14  26  44  68  98 128 156 194 241 288
#     4  10  21  37  53  70  99 137 166 194 247 308
#
# _framework density 16.999700000000001
#
# number of rings (size 3 to 8) (size 9 to 14) (size 15 to 20)
#    0.000    3.000    1.667    2.000    0.000    0.667 
#    3.000    2.500    0.000    5.000    0.000    0.000 
#    0.000    0.000    0.000    0.000    0.000    0.000 
#
# Total GULP energy -297550.962877 kJ/mol
# GULP energy per Si atom -12397.956787 kJ/mol
# Density = 1.696101 g / cm^3
# Si number density = 16.999700 Si / 1000 Ang^3
#
#
#
# Elastic Constant Matrix: (Units=GPa)
#
#
# Indices 1 2 3 4 5 6 
#
# 1 67.3818 54.1929 46.7921 -0.0001 -5.1786 -0.0001
# 2 54.1929 93.6838 59.3318 0.0002 -3.9996 -0.0001
# 3 46.7921 59.3318 106.5905 -0.0011 -8.9892 0.0006
# 4 -0.0001 0.0002 -0.0011 21.8461 0.0004 -4.1640
# 5 -5.1786 -3.9996 -8.9892 0.0004 18.9239 0.0001
# 6 -0.0001 -0.0001 0.0006 -4.1640 0.0001 7.9664
#
#
#
# Elastic Compliance Matrix: (Units=1/GPa)
#
#
# Indices 1 2 3 4 5 6 
#
# 1 0.029744 -0.013848 -0.005114 0.000000 0.002783 0.000001
# 2 -0.013848 0.022948 -0.006881 -0.000001 -0.002208 0.000000
# 3 -0.005114 -0.006881 0.015851 0.000001 0.004676 -0.000001
# 4 0.000000 -0.000001 0.000001 0.050840 -0.000001 0.026574
# 5 0.002783 -0.002208 0.004676 -0.000001 0.055359 -0.000001
# 6 0.000001 0.000000 -0.000001 0.026574 -0.000001 0.139416
#
#
# Mechanical properties :
#
#
# Convention : Reuss Voigt Hill
#
# Bulk Modulus (GPa) = 59.32208 65.36553 62.34381
# Shear Modulus (GPa) = 13.46026 16.90324 15.18175
#
# Velocity S-wave (km/s) = 2.81694 3.15671 2.99165
# Velocity P-wave (km/s) = 6.74921 7.19868 6.97756
#
# Compressibility (1/GPa) = 0.01685713
#
# Stress axis : x y z
#
# Youngs Moduli (GPa) = 33.62068 43.57624 63.08661
#
# Poissons Ratio (x) = 0.60344 0.32264
# Poissons Ratio (y) = 0.46558 0.43409
# Poissons Ratio (z) = 0.17194 0.29984
#
# Static dielectric constant tensor:
#      x y z
#    x 2.840640 0.000000 -0.103240 
#    y 0.000000 3.243410 0.000000 
#    z -0.103240 0.000000 3.313270 
# 
# 
# High freq. dielectric constant tensor:
#      x y z
#    x 1.621660 0.000000 -0.003370 
#    y 0.000000 1.658180 0.000000 
#    z -0.003370 0.000000 1.648090 
# 
# From -- ./inp_files/80590.got.cif
#   From: 2010.06.25/outbox.cif.g09.slc.cpg/sg12_41_cif.got.tgz:80590.got - 2010.06.28 00:19:55.
