data_PCOD8089715
_publ_section_title
;
Structure prediction by ZEFSAII (Michael W. Deem and Ramdas Pophale) SiO2 
 PCOD8089715
Probable space group: C 2/M
;
_chemical_formula_sum "Si O2"
_cell_formula_units_Z 56
_cell_length_a 19.480500
_cell_length_b 9.153837
_cell_length_c 23.757035
_cell_angle_alpha 90.000000
_cell_angle_beta 133.896518
_cell_angle_gamma 90.000000
_cell_volume 3052.711070
_symmetry_space_group_name_H-M "C 2/M"
_symmetry_group_IT_number 12
_symmetry_cell_setting 'monoclinic'
loop_
_space_group_symop_operation_xyz
x,y,z
-x,y,-z
-x,-y,-z
x,-y,z
1/2+x,1/2+y,z
1/2-x,1/2+y,-z
1/2-x,1/2-y,-z
1/2+x,1/2-y,z
loop_
_atom_site_type_symbol
_atom_site_label
_atom_site_fract_x
_atom_site_fract_y
_atom_site_fract_z
Si Si1 0.576733 0.166564 0.785398
Si Si2 0.429371 0.831697 0.799604
Si Si3 0.474219 0.335383 0.049340
Si Si4 0.434573 0.328891 0.630848
Si Si5 0.213241 0.173595 0.358776
Si Si6 0.237385 0.828881 0.050715
Si Si7 0.590084 0.328012 0.512030
O O1 0.519920 0.187391 0.811014
O O2 0.531241 0.260225 0.709729
O O3 0.684057 0.221852 0.858561
O O4 0.574251 0.000000 0.763461
O O5 0.458334 0.771392 0.876975
O O6 0.341864 0.737601 0.726197
O O7 0.397689 0.000000 0.786788
O O8 0.484595 0.500000 0.079526
O O9 0.500000 0.327250 0.000000
O O10 0.365604 0.283450 0.986544
O O11 0.446933 0.500000 0.642781
O O12 0.342126 0.279027 0.615015
O O13 0.426587 0.278696 0.561834
O O14 0.318189 0.240235 0.415374
O O15 0.219666 0.000000 0.357336
O O16 0.250643 0.000000 0.047982
O O17 0.250000 0.750000 0.000000
O O18 0.500000 0.285668 0.500000
O O19 0.611222 0.500000 0.527985
#
# Coordination Sequence:
#
# PCOD8089715 Si02
#       7
#     8   8   8   8   8   8   8
#     4   9  18  32  52  80 107 135 176 226 270 310
#     4  10  19  34  56  80 108 139 179 224 269 318
#     4  10  21  36  53  76 111 148 180 220 271 321
#     4   9  19  35  56  81 107 139 178 220 264 315
#     4  10  20  35  58  84 107 136 180 223 266 317
#     4  10  19  33  54  78 106 140 181 224 268 314
#     4  10  21  38  57  79 113 146 175 214 265 320
#
# _framework density 18.344349000000001
#
# number of rings (size 3 to 8) (size 9 to 14) (size 15 to 20)
#    0.000    2.286    1.429    1.286    0.000    2.857 
#    2.571    0.000    0.000    0.000    0.000    0.000 
#    0.000    0.000    0.000    0.000    0.000    0.000 
#
# Total GULP energy -347186.818141 kJ/mol
# GULP energy per Si atom -12399.529219 kJ/mol
# Density = 1.830260 g / cm^3
# Si number density = 18.344349 Si / 1000 Ang^3
#
#
#
# Elastic Constant Matrix: (Units=GPa)
#
#
# Indices 1 2 3 4 5 6 
#
# 1 91.8363 33.2005 59.0950 0.0000 18.1978 0.0000
# 2 33.2005 51.4730 50.5406 0.0000 10.3100 0.0000
# 3 59.0950 50.5406 143.0100 0.0000 21.6887 0.0000
# 4 0.0000 0.0000 0.0000 39.1732 0.0000 2.0061
# 5 18.1978 10.3100 21.6887 0.0000 22.6860 0.0000
# 6 0.0000 0.0000 0.0000 2.0061 0.0000 20.0146
#
#
#
# Elastic Compliance Matrix: (Units=1/GPa)
#
#
# Indices 1 2 3 4 5 6 
#
# 1 0.016851 -0.005603 -0.003882 0.000000 -0.007259 0.000000
# 2 -0.005603 0.031938 -0.008716 0.000000 -0.001687 0.000000
# 3 -0.003882 -0.008716 0.012402 0.000000 -0.004782 0.000000
# 4 0.000000 0.000000 0.000000 0.025659 0.000000 -0.002572
# 5 -0.007259 -0.001687 -0.004782 0.000000 0.055242 0.000000
# 6 0.000000 0.000000 0.000000 -0.002572 0.000000 0.050221
#
#
# Mechanical properties :
#
#
# Convention : Reuss Voigt Hill
#
# Bulk Modulus (GPa) = 40.34090 63.55460 51.94775
# Shear Modulus (GPa) = 21.09898 25.94029 23.51964
#
# Velocity S-wave (km/s) = 3.39508 3.76450 3.58455
# Velocity P-wave (km/s) = 6.11616 7.32228 6.74623
#
# Compressibility (1/GPa) = 0.02478874
#
# Stress axis : x y z
#
# Youngs Moduli (GPa) = 59.34301 31.31112 80.63194
#
# Poissons Ratio (x) = 0.17545 0.31302
# Poissons Ratio (y) = 0.33252 0.70275
# Poissons Ratio (z) = 0.23038 0.27289
#
# Static dielectric constant tensor:
#      x y z
#    x 3.240650 0.000000 0.103630 
#    y 0.000000 3.397130 0.000000 
#    z 0.103630 0.000000 3.481390 
# 
# 
# High freq. dielectric constant tensor:
#      x y z
#    x 1.695180 0.000000 0.007310 
#    y 0.000000 1.709350 0.000000 
#    z 0.007310 0.000000 1.722350 
# 
# From -- ./inp_files/342480.got.cif
#   From: 2010.06.25/outbox.cif.g09.slc.cpg/sg12_172_cif.got.tgz:342480.got - 2010.06.28 00:19:55.
