data_PCOD8089882
_publ_section_title
;
Structure prediction by ZEFSAII (Michael W. Deem and Ramdas Pophale) SiO2 
 PCOD8089882
Probable space group: C 2/M
;
_chemical_formula_sum "Si O2"
_cell_formula_units_Z 56
_cell_length_a 20.485728
_cell_length_b 8.833349
_cell_length_c 27.967828
_cell_angle_alpha 90.000000
_cell_angle_beta 34.704404
_cell_angle_gamma 90.000000
_cell_volume 2881.438136
_symmetry_space_group_name_H-M "C 2/M"
_symmetry_group_IT_number 12
_symmetry_cell_setting 'monoclinic'
loop_
_space_group_symop_operation_xyz
x,y,z
-x,y,-z
-x,-y,-z
x,-y,z
1/2+x,1/2+y,z
1/2-x,1/2+y,-z
1/2-x,1/2-y,-z
1/2+x,1/2-y,z
loop_
_atom_site_type_symbol
_atom_site_label
_atom_site_fract_x
_atom_site_fract_y
_atom_site_fract_z
Si Si1 0.826870 0.175155 0.493984
Si Si2 0.576896 0.676790 0.326278
Si Si3 0.761138 0.822381 0.044598
Si Si4 0.067672 0.824385 0.221524
Si Si5 0.656923 0.175543 0.678486
Si Si6 0.483686 0.822773 0.954342
Si Si7 0.695918 0.179797 0.762974
O O1 0.750000 0.250000 0.500000
O O2 0.774170 0.198212 0.578359
O O3 0.955066 0.246985 0.416684
O O4 0.834588 0.000000 0.475177
O O5 0.574589 0.500000 0.338724
O O6 0.596730 0.709231 0.258765
O O7 0.683749 0.749976 0.290701
O O8 0.648685 0.780350 0.141578
O O9 0.768290 0.000000 0.034110
O O10 0.750000 0.750000 0.000000
O O11 0.872828 0.765147 0.004147
O O12 0.937403 0.779661 0.289538
O O13 0.087370 0.000000 0.197021
O O14 0.676276 0.234111 0.720650
O O15 0.618150 0.000000 0.701179
O O16 0.592777 0.762164 0.858773
O O17 0.463759 0.000000 0.957454
O O18 0.500000 0.786341 0.000000
O O19 0.701366 0.000000 0.762716
#
# Coordination Sequence:
#
# PCOD8089882 Si02
#       7
#     8   8   8   8   8   8   8
#     4  10  19  33  54  82 113 146 188 234 284 336
#     4   9  18  33  55  82 110 145 188 231 276 334
#     4  12  25  40  59  85 117 151 194 246 297 353
#     4  11  21  36  59  83 110 148 191 235 286 347
#     4  10  20  33  54  83 115 149 186 238 292 337
#     4  10  20  37  61  85 115 158 201 242 290 350
#     4   9  18  33  53  80 112 144 186 236 282 331
#
# _framework density 19.434740000000001
#
# number of rings (size 3 to 8) (size 9 to 14) (size 15 to 20)
#    0.000    1.857    1.429    3.429    0.000    4.286 
#    0.000    2.857    0.000    3.429    0.000    2.000 
#    0.000    0.000    0.000    0.000    0.000    0.000 
#
# Total GULP energy -347246.505855 kJ/mol
# GULP energy per Si atom -12401.660923 kJ/mol
# Density = 1.939051 g / cm^3
# Si number density = 19.434740 Si / 1000 Ang^3
#
#
#
# Elastic Constant Matrix: (Units=GPa)
#
#
# Indices 1 2 3 4 5 6 
#
# 1 63.6712 38.4607 -4.5335 0.0005 5.5944 0.0002
# 2 38.4607 57.6369 22.5208 0.0077 2.2544 -0.0025
# 3 -4.5335 22.5208 80.2712 -0.0013 7.0162 0.0030
# 4 0.0005 0.0077 -0.0013 24.6387 -0.0010 -3.5981
# 5 5.5944 2.2544 7.0162 -0.0010 34.3693 0.0034
# 6 0.0002 -0.0025 0.0030 -3.5981 0.0034 21.8757
#
#
#
# Elastic Compliance Matrix: (Units=1/GPa)
#
#
# Indices 1 2 3 4 5 6 
#
# 1 0.031579 -0.024419 0.009106 0.000007 -0.005397 -0.000002
# 2 -0.024419 0.038370 -0.012495 -0.000011 0.004009 0.000004
# 3 0.009106 -0.012495 0.016836 0.000004 -0.004100 -0.000003
# 4 0.000007 -0.000011 0.000004 0.041585 -0.000001 0.006840
# 5 -0.005397 0.004009 -0.004100 -0.000001 0.030548 -0.000004
# 6 -0.000002 0.000004 -0.000003 0.006840 -0.000004 0.046838
#
#
# Mechanical properties :
#
#
# Convention : Reuss Voigt Hill
#
# Bulk Modulus (GPa) = 32.08257 34.94169 33.51213
# Shear Modulus (GPa) = 18.39847 25.85216 22.12531
#
# Velocity S-wave (km/s) = 3.08015 3.65115 3.37774
# Velocity P-wave (km/s) = 5.40310 5.98269 5.70027
#
# Compressibility (1/GPa) = 0.03116957
#
# Stress axis : x y z
#
# Youngs Moduli (GPa) = 31.66669 26.06186 59.39697
#
# Poissons Ratio (x) = 0.63642 -0.54089
# Poissons Ratio (y) = 0.77328 0.74214
# Poissons Ratio (z) = -0.28837 0.32563
#
# Static dielectric constant tensor:
#      x y z
#    x 3.210940 -0.000130 -0.200020 
#    y -0.000130 3.259620 -0.000030 
#    z -0.200020 -0.000030 3.865850 
# 
# 
# High freq. dielectric constant tensor:
#      x y z
#    x 1.765940 0.000000 -0.000130 
#    y 0.000000 1.721050 0.000000 
#    z -0.000130 0.000000 1.777470 
# 
# From -- ./inp_files/380577.got.cif
#   From: 2010.06.25/outbox.cif.g09.slc.cpg/sg12_191_cif.got.tgz:380577.got - 2010.06.28 00:19:55.
