data_PCOD8089759
_publ_section_title
;
Structure prediction by ZEFSAII (Michael W. Deem and Ramdas Pophale) SiO2 
 PCOD8089759
Probable space group: C 2/M
;
_chemical_formula_sum "Si O2"
_cell_formula_units_Z 56
_cell_length_a 17.958057
_cell_length_b 9.130189
_cell_length_c 28.848034
_cell_angle_alpha 90.000000
_cell_angle_beta 141.132685
_cell_angle_gamma 90.000000
_cell_volume 2968.125181
_symmetry_space_group_name_H-M "C 2/M"
_symmetry_group_IT_number 12
_symmetry_cell_setting 'monoclinic'
loop_
_space_group_symop_operation_xyz
x,y,z
-x,y,-z
-x,-y,-z
x,-y,z
1/2+x,1/2+y,z
1/2-x,1/2+y,-z
1/2-x,1/2-y,-z
1/2+x,1/2-y,z
loop_
_atom_site_type_symbol
_atom_site_label
_atom_site_fract_x
_atom_site_fract_y
_atom_site_fract_z
Si Si1 0.361535 0.331149 0.430572
Si Si2 0.055774 0.830918 0.713628
Si Si3 0.229577 0.168107 0.715216
Si Si4 0.213290 0.172639 0.435296
Si Si5 0.825338 0.833066 0.999828
Si Si6 0.470488 0.328300 0.839922
Si Si7 0.370894 0.171901 0.160403
O O1 0.500000 0.297831 0.500000
O O2 0.335361 0.500000 0.430809
O O3 0.314804 0.291408 0.357212
O O4 0.297188 0.224935 0.434876
O O5 0.121537 0.799674 0.697347
O O6 0.116481 0.734011 0.782344
O O7 0.920362 0.782251 0.641984
O O8 0.065352 0.000000 0.732905
O O9 0.338818 0.269421 0.782226
O O10 0.270521 0.000000 0.738039
O O11 0.250000 0.250000 0.500000
O O12 0.225941 0.000000 0.448241
O O13 0.768155 0.797171 0.921692
O O14 0.801155 0.000000 0.999410
O O15 0.750000 0.750000 0.000000
O O16 0.963693 0.797858 0.078093
O O17 0.466327 0.500000 0.826226
O O18 0.536962 0.248566 0.829840
O O19 0.400226 0.000000 0.174804
#
# Coordination Sequence:
#
# PCOD8089759 Si02
#       7
#     8   8   8   8   8   8   8
#     4  10  21  39  61  83 110 144 178 216 267 320
#     4  10  22  39  56  78 110 145 180 221 269 317
#     4  10  21  37  56  78 107 143 182 222 265 318
#     4  11  23  39  60  85 112 142 178 220 265 315
#     4   8  16  30  49  75 105 137 175 220 268 318
#     4  10  19  33  54  79 108 141 178 223 273 321
#     4  10  19  33  55  81 107 139 181 224 268 321
#
# _framework density 18.867128000000001
#
# number of rings (size 3 to 8) (size 9 to 14) (size 15 to 20)
#    0.000    2.143    0.000    3.000    0.000    8.286 
#    0.000    2.143    0.000    4.286    0.000    0.000 
#    0.000    0.000    0.000    0.000    0.000    0.000 
#
# Total GULP energy -347075.013949 kJ/mol
# GULP energy per Si atom -12395.536212 kJ/mol
# Density = 1.882419 g / cm^3
# Si number density = 18.867128 Si / 1000 Ang^3
#
#
#
# Elastic Constant Matrix: (Units=GPa)
#
#
# Indices 1 2 3 4 5 6 
#
# 1 91.5255 42.4929 59.0829 0.0000 -6.1773 0.0000
# 2 42.4929 80.1192 70.1861 0.0000 -5.6314 -0.0001
# 3 59.0829 70.1861 167.2875 0.0000 -3.4913 0.0000
# 4 0.0000 0.0000 0.0000 33.8380 0.0000 -0.3582
# 5 -6.1773 -5.6314 -3.4913 0.0000 29.4145 0.0000
# 6 0.0000 -0.0001 0.0000 -0.3582 0.0000 33.4163
#
#
#
# Elastic Compliance Matrix: (Units=1/GPa)
#
#
# Indices 1 2 3 4 5 6 
#
# 1 0.015612 -0.005300 -0.003251 0.000000 0.001878 0.000000
# 2 -0.005300 0.021767 -0.007215 0.000000 0.002198 0.000000
# 3 -0.003251 -0.007215 0.010135 0.000000 -0.000861 0.000000
# 4 0.000000 0.000000 0.000000 0.029556 0.000000 0.000317
# 5 0.001878 0.002198 -0.000861 0.000000 0.034710 0.000000
# 6 0.000000 0.000000 0.000000 0.000317 0.000000 0.029929
#
#
# Mechanical properties :
#
#
# Convention : Reuss Voigt Hill
#
# Bulk Modulus (GPa) = 62.56905 75.82844 69.19874
# Shear Modulus (GPa) = 28.00052 30.47844 29.23948
#
# Velocity S-wave (km/s) = 3.85657 4.02360 3.94097
# Velocity P-wave (km/s) = 7.28463 7.86535 7.58055
#
# Compressibility (1/GPa) = 0.01598234
#
# Stress axis : x y z
#
# Youngs Moduli (GPa) = 64.05306 45.94067 98.66904
#
# Poissons Ratio (x) = 0.24350 0.32077
# Poissons Ratio (y) = 0.33950 0.71187
# Poissons Ratio (z) = 0.20823 0.33145
#
# Static dielectric constant tensor:
#      x y z
#    x 3.244390 0.000000 0.026390 
#    y 0.000000 3.515840 0.000000 
#    z 0.026390 0.000000 4.190640 
# 
# 
# High freq. dielectric constant tensor:
#      x y z
#    x 1.711330 0.000000 -0.001140 
#    y 0.000000 1.738080 0.000000 
#    z -0.001140 0.000000 1.758580 
# 
# From -- ./inp_files/275516.got.cif
#   From: 2010.06.25/outbox.cif.g09.slc.cpg/sg12_138_cif.got.tgz:275516.got - 2010.06.28 00:19:55.
