data_PCOD8089170
_publ_section_title
;
Structure prediction by ZEFSAII (Michael W. Deem and Ramdas Pophale) SiO2 
 PCOD8089170
Probable space group: C 2/M
;
_chemical_formula_sum "Si O2"
_cell_formula_units_Z 64
_cell_length_a 17.135827
_cell_length_b 14.668726
_cell_length_c 15.088720
_cell_angle_alpha 90.000000
_cell_angle_beta 107.041140
_cell_angle_gamma 90.000000
_cell_volume 3626.191372
_symmetry_space_group_name_H-M "C 2/M"
_symmetry_group_IT_number 12
_symmetry_cell_setting 'monoclinic'
loop_
_space_group_symop_operation_xyz
x,y,z
-x,y,-z
-x,-y,-z
x,-y,z
1/2+x,1/2+y,z
1/2-x,1/2+y,-z
1/2-x,1/2-y,-z
1/2+x,1/2-y,z
loop_
_atom_site_type_symbol
_atom_site_label
_atom_site_fract_x
_atom_site_fract_y
_atom_site_fract_z
Si Si1 0.006836 0.250006 0.230227
Si Si2 0.187074 0.393751 0.718645
Si Si3 0.690838 0.236014 0.239062
Si Si4 0.560567 0.762217 0.598528
Si Si5 0.825217 0.104708 0.341502
Si Si6 0.385942 0.597908 0.163901
Si Si7 0.102699 0.601422 0.873440
Si Si8 0.779749 0.671936 0.947256
O O1 0.102484 0.245349 0.248452
O O2 0.990549 0.244749 0.329317
O O3 0.955713 0.170545 0.163197
O O4 0.977815 0.340634 0.171088
O O5 0.201138 0.500000 0.698242
O O6 0.267037 0.333481 0.730093
O O7 0.116604 0.351149 0.633369
O O8 0.166361 0.380931 0.815229
O O9 0.736230 0.153248 0.306890
O O10 0.688174 0.210469 0.135035
O O11 0.500000 0.787784 0.500000
O O12 0.613476 0.672794 0.585146
O O13 0.865746 0.102803 0.259858
O O14 0.818911 0.000000 0.377886
O O15 0.422302 0.500000 0.149393
O O16 0.299754 0.608806 0.086242
O O17 0.069121 0.500000 0.861707
O O18 0.145503 0.619595 0.981797
O O19 0.750000 0.750000 0.000000
#
# Coordination Sequence:
#
# PCOD8089170 Si02
#       8
#     8   8   8   8   8   8   8   8
#     4  10  20  34  49  74 104 128 159 205 256 293
#     4   9  18  34  53  73  98 133 170 198 237 294
#     4  10  20  32  51  73 103 135 159 202 250 290
#     4   9  18  34  56  77  96 126 166 204 243 293
#     4   8  16  32  52  73  98 131 165 195 239 298
#     4   9  17  31  51  70  95 132 169 202 240 290
#     4  10  19  33  52  72  97 132 171 206 239 287
#     4  11  17  32  51  71  95 129 173 202 233 284
#
# _framework density 17.649370999999999
#
# number of rings (size 3 to 8) (size 9 to 14) (size 15 to 20)
#    0.000    2.500    2.500    1.875    0.000    2.500 
#    0.000    3.125    0.000    2.250    0.000    0.000 
#    0.000    0.000    0.000    0.000    0.000    0.000 
#
# Total GULP energy -396522.891014 kJ/mol
# GULP energy per Si atom -12391.340344 kJ/mol
# Density = 1.760920 g / cm^3
# Si number density = 17.649371 Si / 1000 Ang^3
#
#
#
# Elastic Constant Matrix: (Units=GPa)
#
#
# Indices 1 2 3 4 5 6 
#
# 1 94.5020 43.3147 33.2564 0.0000 19.6719 0.0000
# 2 43.3147 130.8441 39.3597 0.0000 11.5932 0.0000
# 3 33.2564 39.3597 103.7634 0.0000 19.6875 0.0000
# 4 0.0000 0.0000 0.0000 17.1960 0.0000 1.7856
# 5 19.6719 11.5932 19.6875 0.0000 15.5696 0.0000
# 6 0.0000 0.0000 0.0000 1.7856 0.0000 6.0818
#
#
#
# Elastic Compliance Matrix: (Units=1/GPa)
#
#
# Indices 1 2 3 4 5 6 
#
# 1 0.015915 -0.003621 -0.000557 0.000000 -0.016708 0.000000
# 2 -0.003621 0.009559 -0.002609 0.000000 0.000756 0.000000
# 3 -0.000557 -0.002609 0.013556 0.000000 -0.014494 0.000000
# 4 0.000000 0.000000 0.000000 0.059982 0.000000 -0.017610
# 5 -0.016708 0.000756 -0.014494 0.000000 0.103102 0.000000
# 6 0.000000 0.000000 0.000000 -0.017610 0.000000 0.169596
#
#
# Mechanical properties :
#
#
# Convention : Reuss Voigt Hill
#
# Bulk Modulus (GPa) = 39.28340 62.33013 50.80676
# Shear Modulus (GPa) = 12.69777 21.98138 17.33957
#
# Velocity S-wave (km/s) = 2.68516 3.53292 3.13780
# Velocity P-wave (km/s) = 5.64973 7.21349 6.47896
#
# Compressibility (1/GPa) = 0.02545605
#
# Stress axis : x y z
#
# Youngs Moduli (GPa) = 62.83202 104.61241 73.77038
#
# Poissons Ratio (x) = 0.37876 0.04113
# Poissons Ratio (y) = 0.22749 0.19246
# Poissons Ratio (z) = 0.03503 0.27293
#
# Static dielectric constant tensor:
#      x y z
#    x 2.786870 0.000000 0.818610 
#    y 0.000000 3.346730 0.000000 
#    z 0.818610 0.000000 -1.850780 
# 
# 
# High freq. dielectric constant tensor:
#      x y z
#    x 1.652240 0.000000 0.020730 
#    y 0.000000 1.696010 0.000000 
#    z 0.020730 0.000000 1.670470 
# 
# From -- ./inp_files/270337.got.cif
#   From: 2010.06.25/outbox.cif.g09.slc.cpg/sg12_136_cif.got.tgz:270337.got - 2010.06.28 00:19:55.
