data_PCOD8089384
_publ_section_title
;
Structure prediction by ZEFSAII (Michael W. Deem and Ramdas Pophale) SiO2 
 PCOD8089384
Probable space group: C 2/M
;
_chemical_formula_sum "Si O2"
_cell_formula_units_Z 56
_cell_length_a 27.452153
_cell_length_b 8.841639
_cell_length_c 13.734957
_cell_angle_alpha 90.000000
_cell_angle_beta 59.901363
_cell_angle_gamma 90.000000
_cell_volume 2884.261332
_symmetry_space_group_name_H-M "C 2/M"
_symmetry_group_IT_number 12
_symmetry_cell_setting 'monoclinic'
loop_
_space_group_symop_operation_xyz
x,y,z
-x,y,-z
-x,-y,-z
x,-y,z
1/2+x,1/2+y,z
1/2-x,1/2+y,-z
1/2-x,1/2-y,-z
1/2+x,1/2-y,z
loop_
_atom_site_type_symbol
_atom_site_label
_atom_site_fract_x
_atom_site_fract_y
_atom_site_fract_z
Si Si1 0.382587 0.179364 0.188555
Si Si2 0.808009 0.179143 0.908038
Si Si3 0.475710 0.823705 0.244806
Si Si4 0.333240 0.320330 0.666363
Si Si5 0.237613 0.679688 0.615868
Si Si6 0.547142 0.320454 0.526652
Si Si7 0.600621 0.176705 0.046823
O O1 0.431487 0.240613 0.210236
O O2 0.322685 0.238900 0.286828
O O3 0.384526 0.000000 0.185021
O O4 0.392752 0.238857 0.069383
O O5 0.821791 0.240277 0.786228
O O6 0.858170 0.228033 0.927466
O O7 0.801983 0.000000 0.915046
O O8 0.750000 0.250000 0.000000
O O9 0.466970 0.734897 0.352385
O O10 0.537442 0.791285 0.142947
O O11 0.465561 0.000000 0.274616
O O12 0.334493 0.500000 0.665429
O O13 0.284147 0.260564 0.645012
O O14 0.392657 0.255613 0.568463
O O15 0.238747 0.500000 0.606073
O O16 0.250000 0.750000 0.500000
O O17 0.500000 0.258230 0.500000
O O18 0.547685 0.500000 0.526619
O O19 0.616361 0.000000 0.038512
#
# Coordination Sequence:
#
# PCOD8089384 Si02
#       7
#     8   8   8   8   8   8   8
#     4   9  18  34  55  77 105 143 180 216 267 328
#     4  11  22  38  59  82 109 141 180 222 266 318
#     4  10  20  34  55  82 108 138 180 228 272 315
#     4   9  19  35  54  75 103 142 179 212 260 324
#     4  10  19  33  53  75 101 134 173 216 263 314
#     4  10  20  35  54  75 104 144 183 218 267 330
#     4  10  20  36  57  80 108 142 180 221 267 321
#
# _framework density 19.415717000000001
#
# number of rings (size 3 to 8) (size 9 to 14) (size 15 to 20)
#    0.000    2.143    0.000    3.429    0.000    6.000 
#    0.000    5.714    0.000    1.714    0.000    0.000 
#    0.000    0.000    0.000    0.000    0.000    0.000 
#
# Total GULP energy -347277.478850 kJ/mol
# GULP energy per Si atom -12402.767102 kJ/mol
# Density = 1.937153 g / cm^3
# Si number density = 19.415717 Si / 1000 Ang^3
#
#
#
# Elastic Constant Matrix: (Units=GPa)
#
#
# Indices 1 2 3 4 5 6 
#
# 1 179.6897 29.1791 84.2825 0.0000 8.3380 0.0000
# 2 29.1791 27.1695 27.7329 0.0000 -0.1823 0.0000
# 3 84.2825 27.7329 180.7047 0.0000 9.1062 0.0000
# 4 0.0000 0.0000 0.0000 31.3622 0.0000 2.1651
# 5 8.3380 -0.1823 9.1062 0.0000 45.1225 0.0000
# 6 0.0000 0.0000 0.0000 2.1651 0.0000 19.9404
#
#
#
# Elastic Compliance Matrix: (Units=1/GPa)
#
#
# Indices 1 2 3 4 5 6 
#
# 1 0.007797 -0.005591 -0.002733 0.000000 -0.000912 0.000000
# 2 -0.005591 0.047758 -0.004833 0.000000 0.002201 0.000000
# 3 -0.002733 -0.004833 0.007603 0.000000 -0.001049 0.000000
# 4 0.000000 0.000000 0.000000 0.032126 0.000000 -0.003488
# 5 -0.000912 0.002201 -0.001049 0.000000 0.022551 0.000000
# 6 0.000000 0.000000 0.000000 -0.003488 0.000000 0.050528
#
#
# Mechanical properties :
#
#
# Convention : Reuss Voigt Hill
#
# Bulk Modulus (GPa) = 27.14022 74.43920 50.78971
# Shear Modulus (GPa) = 24.15956 35.70964 29.93460
#
# Velocity S-wave (km/s) = 3.53133 4.29326 3.93080
# Velocity P-wave (km/s) = 5.53497 7.93719 6.84233
#
# Compressibility (1/GPa) = 0.03684569
#
# Stress axis : x y z
#
# Youngs Moduli (GPa) = 128.25384 20.93898 131.52696
#
# Poissons Ratio (x) = 0.11706 0.35942
# Poissons Ratio (y) = 0.71701 0.63565
# Poissons Ratio (z) = 0.35048 0.10120
#
# Static dielectric constant tensor:
#      x y z
#    x 3.965930 0.000000 -0.033370 
#    y 0.000000 3.163860 0.000000 
#    z -0.033370 0.000000 3.737810 
# 
# 
# High freq. dielectric constant tensor:
#      x y z
#    x 1.778560 0.000000 -0.000710 
#    y 0.000000 1.716700 0.000000 
#    z -0.000710 0.000000 1.776180 
# 
# From -- ./inp_files/180706.got.cif
#   From: 2010.06.25/outbox.cif.g09.slc.cpg/sg12_91_cif.got.tgz:180706.got - 2010.06.28 00:19:55.
