data_PCOD8089356
_publ_section_title
;
Structure prediction by ZEFSAII (Michael W. Deem and Ramdas Pophale) SiO2 
 PCOD8089356
Probable space group: C 2/M
;
_chemical_formula_sum "Si O2"
_cell_formula_units_Z 56
_cell_length_a 23.833742
_cell_length_b 9.604802
_cell_length_c 20.803227
_cell_angle_alpha 90.000000
_cell_angle_beta 40.398449
_cell_angle_gamma 90.000000
_cell_volume 3086.404910
_symmetry_space_group_name_H-M "C 2/M"
_symmetry_group_IT_number 12
_symmetry_cell_setting 'monoclinic'
loop_
_space_group_symop_operation_xyz
x,y,z
-x,y,-z
-x,-y,-z
x,-y,z
1/2+x,1/2+y,z
1/2-x,1/2+y,-z
1/2-x,1/2-y,-z
1/2+x,1/2-y,z
loop_
_atom_site_type_symbol
_atom_site_label
_atom_site_fract_x
_atom_site_fract_y
_atom_site_fract_z
Si Si1 0.964579 0.340706 0.359886
Si Si2 0.923218 0.164214 0.519288
Si Si3 0.595539 0.835791 0.925298
Si Si4 0.771482 0.664217 0.295030
Si Si5 0.689086 0.840190 0.597258
Si Si6 0.849997 0.661294 0.852247
Si Si7 0.691158 0.839429 0.968342
O O1 0.962013 0.500000 0.386842
O O2 0.930632 0.241098 0.445113
O O3 0.908137 0.325274 0.344400
O O4 0.060330 0.293640 0.257470
O O5 0.829077 0.205522 0.630438
O O6 0.000000 0.213287 0.500000
O O7 0.929552 0.000000 0.500619
O O8 0.665470 0.770127 0.814302
O O9 0.622632 0.798890 0.973892
O O10 0.591276 0.000000 0.917359
O O11 0.500000 0.770083 0.000000
O O12 0.780105 0.500000 0.284647
O O13 0.804551 0.717642 0.335633
O O14 0.750000 0.750000 0.500000
O O15 0.720884 0.000000 0.567030
O O16 0.829556 0.500000 0.858810
O O17 0.776851 0.750314 0.881067
O O18 0.852875 0.696539 0.925410
O O19 0.718790 0.000000 0.939499
#
# Coordination Sequence:
#
# PCOD8089356 Si02
#       7
#     8   8   8   8   8   8   8
#     4  10  21  34  52  77 105 137 172 210 256 312
#     4  10  21  35  53  77 107 138 172 214 258 306
#     4   9  18  30  50  79 105 130 167 214 259 302
#     4   9  18  32  49  73 103 135 167 209 261 301
#     4  10  19  33  53  74 101 133 169 210 252 301
#     4   9  19  34  51  75 105 135 167 210 260 301
#     4   9  18  33  54  77 101 131 172 213 253 305
#
# _framework density 18.144086000000001
#
# number of rings (size 3 to 8) (size 9 to 14) (size 15 to 20)
#    0.000    2.571    1.429    0.000    4.000    0.857 
#    0.000    0.000    0.000    1.286    0.000    0.000 
#    0.000    0.000    0.000    0.000    0.000    0.000 
#
# Total GULP energy -347157.182329 kJ/mol
# GULP energy per Si atom -12398.470797 kJ/mol
# Density = 1.810279 g / cm^3
# Si number density = 18.144086 Si / 1000 Ang^3
#
#
#
# Elastic Constant Matrix: (Units=GPa)
#
#
# Indices 1 2 3 4 5 6 
#
# 1 125.0768 22.8717 53.3991 0.0001 -14.0224 0.0000
# 2 22.8717 29.0706 25.2465 0.0006 -4.5317 -0.0003
# 3 53.3991 25.2465 124.1292 0.0000 -16.7196 0.0000
# 4 0.0001 0.0006 0.0000 18.3258 -0.0001 3.6585
# 5 -14.0224 -4.5317 -16.7196 -0.0001 28.2401 0.0001
# 6 0.0000 -0.0003 0.0000 3.6585 0.0001 20.0041
#
#
#
# Elastic Compliance Matrix: (Units=1/GPa)
#
#
# Indices 1 2 3 4 5 6 
#
# 1 0.010575 -0.005186 -0.003150 0.000000 0.002553 0.000000
# 2 -0.005186 0.044408 -0.006724 -0.000002 0.000570 0.000001
# 3 -0.003150 -0.006724 0.011326 0.000000 0.004062 0.000000
# 4 0.000000 -0.000002 0.000000 0.056636 0.000000 -0.010358
# 5 0.002553 0.000570 0.004062 0.000000 0.039175 0.000000
# 6 0.000000 0.000001 0.000000 -0.010358 0.000000 0.051884
#
#
# Mechanical properties :
#
#
# Convention : Reuss Voigt Hill
#
# Bulk Modulus (GPa) = 27.63389 53.47901 40.55645
# Shear Modulus (GPa) = 19.51699 25.09794 22.30747
#
# Velocity S-wave (km/s) = 3.28329 3.72325 3.51017
# Velocity P-wave (km/s) = 5.44396 6.92980 6.23132
#
# Compressibility (1/GPa) = 0.03618745
#
# Stress axis : x y z
#
# Youngs Moduli (GPa) = 94.56585 22.51860 88.29030
#
# Poissons Ratio (x) = 0.11677 0.27815
# Poissons Ratio (y) = 0.49039 0.59370
# Poissons Ratio (z) = 0.29793 0.15142
#
# Static dielectric constant tensor:
#      x y z
#    x 3.636820 0.000000 -0.071270 
#    y 0.000000 3.045370 0.000000 
#    z -0.071270 0.000000 3.540320 
# 
# 
# High freq. dielectric constant tensor:
#      x y z
#    x 1.714630 0.000000 -0.004590 
#    y 0.000000 1.664070 0.000000 
#    z -0.004590 0.000000 1.707550 
# 
# From -- ./inp_files/324729.got.cif
#   From: 2010.06.25/outbox.cif.g09.slc.cpg/sg12_163_cif.got.tgz:324729.got - 2010.06.28 00:19:55.
