data_PCOD8089296
_publ_section_title
;
Structure prediction by ZEFSAII (Michael W. Deem and Ramdas Pophale) SiO2 
 PCOD8089296
Probable space group: C 2/M
;
_chemical_formula_sum "Si O2"
_cell_formula_units_Z 48
_cell_length_a 19.186476
_cell_length_b 21.142130
_cell_length_c 16.948732
_cell_angle_alpha 90.000000
_cell_angle_beta 158.494609
_cell_angle_gamma 90.000000
_cell_volume 2520.346902
_symmetry_space_group_name_H-M "C 2/M"
_symmetry_group_IT_number 12
_symmetry_cell_setting 'monoclinic'
loop_
_space_group_symop_operation_xyz
x,y,z
-x,y,-z
-x,-y,-z
x,-y,z
1/2+x,1/2+y,z
1/2-x,1/2+y,-z
1/2-x,1/2-y,-z
1/2+x,1/2-y,z
loop_
_atom_site_type_symbol
_atom_site_label
_atom_site_fract_x
_atom_site_fract_y
_atom_site_fract_z
Si Si1 0.363894 0.678049 0.560931
Si Si2 0.211017 0.430367 0.503785
Si Si3 0.531346 0.740163 0.167847
Si Si4 0.057174 0.367439 0.649586
Si Si5 0.607553 0.723228 0.693324
Si Si6 0.521694 0.394023 0.936149
O O1 0.258950 0.614563 0.480007
O O2 0.459907 0.719367 0.731296
O O3 0.207209 0.713170 0.341556
O O4 0.540251 0.670170 0.686177
O O5 0.146065 0.500000 0.405496
O O6 0.405497 0.439218 0.756446
O O7 0.057741 0.402169 0.402857
O O8 0.566558 0.677222 0.152856
O O9 0.337861 0.775380 0.935649
O O10 0.036725 0.293080 0.644111
O O11 0.000000 0.385751 0.500000
O O12 0.271377 0.391095 0.883619
O O13 0.500000 0.704268 0.500000
O O14 0.500000 0.423240 0.000000
#
# Coordination Sequence:
#
# PCOD8089296 Si02
#       6
#     8   8   8   8   8   8
#     4  10  20  35  53  77 110 146 185 223 271 325
#     4  11  24  38  51  71 105 155 197 221 251 304
#     4   9  19  31  56  80 112 142 171 217 283 339
#     4  10  19  33  52  78 110 137 171 219 267 324
#     4  10  20  32  57  88 112 134 169 224 295 342
#     4  10  19  33  53  80 112 139 171 218 273 325
#
# _framework density 19.044996999999999
#
# number of rings (size 3 to 8) (size 9 to 14) (size 15 to 20)
#    0.000    2.000    1.667    3.500    4.667    4.000 
#    0.000    0.000    0.000    0.500    0.000    1.167 
#    0.000    0.000    0.000    0.000    0.000    0.000 
#
# Total GULP energy -297330.919747 kJ/mol
# GULP energy per Si atom -12388.788323 kJ/mol
# Density = 1.900165 g / cm^3
# Si number density = 19.044997 Si / 1000 Ang^3
#
#
#
# Elastic Constant Matrix: (Units=GPa)
#
#
# Indices 1 2 3 4 5 6 
#
# 1 63.4231 21.2654 2.4505 -0.0001 8.1887 0.0000
# 2 21.2654 54.1539 6.4916 0.0001 10.9371 0.0000
# 3 2.4505 6.4916 85.4926 -0.0002 -5.5966 -0.0003
# 4 -0.0001 0.0001 -0.0002 9.9811 -0.0001 1.5318
# 5 8.1887 10.9371 -5.5966 -0.0001 21.6409 -0.0001
# 6 0.0000 0.0000 -0.0003 1.5318 -0.0001 12.4772
#
#
#
# Elastic Compliance Matrix: (Units=1/GPa)
#
#
# Indices 1 2 3 4 5 6 
#
# 1 0.018426 -0.006435 -0.000288 0.000000 -0.003795 0.000000
# 2 -0.006435 0.023259 -0.002229 0.000000 -0.009896 0.000000
# 3 -0.000288 -0.002229 0.012161 0.000000 0.004381 0.000000
# 4 0.000000 0.000000 0.000000 0.102114 0.000001 -0.012536
# 5 -0.003795 -0.009896 0.004381 0.000001 0.053779 0.000001
# 6 0.000000 0.000000 0.000000 -0.012536 0.000001 0.081685
#
#
# Mechanical properties :
#
#
# Convention : Reuss Voigt Hill
#
# Bulk Modulus (GPa) = 27.82301 29.27607 28.54954
# Shear Modulus (GPa) = 15.56139 20.34398 17.95268
#
# Velocity S-wave (km/s) = 2.86157 3.27189 3.07358
# Velocity P-wave (km/s) = 5.05558 5.44785 5.25538
#
# Compressibility (1/GPa) = 0.03594148
#
# Stress axis : x y z
#
# Youngs Moduli (GPa) = 54.27216 42.99483 82.22852
#
# Poissons Ratio (x) = 0.27665 0.02368
# Poissons Ratio (y) = 0.34922 0.18333
# Poissons Ratio (z) = 0.01563 0.09586
#
# Static dielectric constant tensor:
#      x y z
#    x 3.280500 0.000000 0.023110 
#    y 0.000000 3.160850 0.000000 
#    z 0.023110 0.000000 3.788690 
# 
# 
# High freq. dielectric constant tensor:
#      x y z
#    x 1.729930 0.000000 0.011440 
#    y 0.000000 1.690290 0.000000 
#    z 0.011440 0.000000 1.754130 
# 
# From -- ./inp_files/285844.got.cif
#   From: 2010.06.25/outbox.cif.g09.slc.cpg/sg12_143_cif.got.tgz:285844.got - 2010.06.28 00:19:55.
