data_PCOD8089030
_publ_section_title
;
Structure prediction by ZEFSAII (Michael W. Deem and Ramdas Pophale) SiO2 
 PCOD8089030
Probable space group: C 2/M
;
_chemical_formula_sum "Si O2"
_cell_formula_units_Z 48
_cell_length_a 8.501310
_cell_length_b 24.151999
_cell_length_c 13.409394
_cell_angle_alpha 90.000000
_cell_angle_beta 71.110339
_cell_angle_gamma 90.000000
_cell_volume 2604.985029
_symmetry_space_group_name_H-M "C 2/M"
_symmetry_group_IT_number 12
_symmetry_cell_setting 'monoclinic'
loop_
_space_group_symop_operation_xyz
x,y,z
-x,y,-z
-x,-y,-z
x,-y,z
1/2+x,1/2+y,z
1/2-x,1/2+y,-z
1/2-x,1/2-y,-z
1/2+x,1/2-y,z
loop_
_atom_site_type_symbol
_atom_site_label
_atom_site_fract_x
_atom_site_fract_y
_atom_site_fract_z
Si Si1 0.455326 0.269010 0.899021
Si Si2 0.312577 0.061657 0.000102
Si Si3 0.733232 0.213857 0.302667
Si Si4 0.412153 0.846956 0.841128
Si Si5 0.999226 0.181313 0.613344
Si Si6 0.213952 0.863252 0.183481
O O1 0.617622 0.263932 0.796580
O O2 0.374278 0.207574 0.917066
O O3 0.320934 0.308865 0.875662
O O4 0.500000 0.290101 0.000000
O O5 0.301152 0.102590 0.907241
O O6 0.254086 0.000000 0.981586
O O7 0.500000 0.061806 0.000000
O O8 0.196269 0.083723 0.114194
O O9 0.639050 0.164538 0.262988
O O10 0.606067 0.262442 0.354031
O O11 0.810767 0.191088 0.389996
O O12 0.605067 0.861904 0.804986
O O13 0.918444 0.133311 0.699035
O O14 0.000000 0.160503 0.500000
#
# Coordination Sequence:
#
# PCOD8089030 Si02
#       6
#     8   8   8   8   8   8
#     4  11  19  28  47  76 103 134 161 193 241 310
#     4   9  19  32  51  77 103 133 167 203 244 294
#     4  11  20  32  47  73 104 136 165 195 249 301
#     4  11  18  30  51  74 104 133 163 196 246 306
#     4  11  21  34  49  70 102 135 170 207 248 293
#     4  10  19  33  49  72 104 134 167 205 246 292
#
# _framework density 18.426209
#
# number of rings (size 3 to 8) (size 9 to 14) (size 15 to 20)
#    0.000    1.500    5.000    3.000    0.000    2.000 
#    0.000    0.000    0.000   13.000    0.000    0.000 
#    0.000    6.000    0.000    0.000    0.000    0.000 
#
# Total GULP energy -297510.141776 kJ/mol
# GULP energy per Si atom -12396.255907 kJ/mol
# Density = 1.838427 g / cm^3
# Si number density = 18.426209 Si / 1000 Ang^3
#
#
#
# Elastic Constant Matrix: (Units=GPa)
#
#
# Indices 1 2 3 4 5 6 
#
# 1 77.6452 7.4338 18.5967 0.0000 15.0328 0.0000
# 2 7.4338 88.2047 17.3267 0.0000 -6.5835 0.0000
# 3 18.5967 17.3267 82.7526 0.0000 11.9653 0.0000
# 4 0.0000 0.0000 0.0000 13.3857 0.0000 0.5453
# 5 15.0328 -6.5835 11.9653 0.0000 24.6697 0.0000
# 6 0.0000 0.0000 0.0000 0.5453 0.0000 12.3245
#
#
#
# Elastic Compliance Matrix: (Units=1/GPa)
#
#
# Indices 1 2 3 4 5 6 
#
# 1 0.015164 -0.001579 -0.001807 0.000000 -0.008785 0.000000
# 2 -0.001579 0.012514 -0.003105 0.000000 0.005808 0.000000
# 3 -0.001807 -0.003105 0.014089 0.000000 -0.006561 0.000000
# 4 0.000000 0.000000 0.000000 0.074841 0.000000 -0.003311
# 5 -0.008785 0.005808 -0.006561 0.000000 0.050621 0.000000
# 6 0.000000 0.000000 0.000000 -0.003311 0.000000 0.081285
#
#
# Mechanical properties :
#
#
# Convention : Reuss Voigt Hill
#
# Bulk Modulus (GPa) = 34.73998 37.25743 35.99870
# Shear Modulus (GPa) = 18.44400 23.75902 21.10151
#
# Velocity S-wave (km/s) = 3.16724 3.59474 3.38774
# Velocity P-wave (km/s) = 5.68064 6.12317 5.90605
#
# Compressibility (1/GPa) = 0.02878528
#
# Stress axis : x y z
#
# Youngs Moduli (GPa) = 65.94599 79.91215 70.97699
#
# Poissons Ratio (x) = 0.12616 0.12825
# Poissons Ratio (y) = 0.10411 0.22039
# Poissons Ratio (z) = 0.11916 0.24813
#
# Static dielectric constant tensor:
#      x y z
#    x 3.615330 0.000000 0.120140 
#    y 0.000000 3.308540 0.000000 
#    z 0.120140 0.000000 3.450520 
# 
# 
# High freq. dielectric constant tensor:
#      x y z
#    x 1.724940 0.000000 0.005960 
#    y 0.000000 1.663740 0.000000 
#    z 0.005960 0.000000 1.699380 
# 
# From -- ./inp_files/197934.got.cif
#   From: 2010.06.25/outbox.cif.g09.slc.cpg/sg12_99_cif.got.tgz:197934.got - 2010.06.28 00:19:55.
