data_PCOD8089072
_publ_section_title
;
Structure prediction by ZEFSAII (Michael W. Deem and Ramdas Pophale) SiO2 
 PCOD8089072
Probable space group: C 2/M
;
_chemical_formula_sum "Si O2"
_cell_formula_units_Z 56
_cell_length_a 15.251792
_cell_length_b 24.268111
_cell_length_c 9.532670
_cell_angle_alpha 90.000000
_cell_angle_beta 117.004948
_cell_angle_gamma 90.000000
_cell_volume 3143.642689
_symmetry_space_group_name_H-M "C 2/M"
_symmetry_group_IT_number 12
_symmetry_cell_setting 'monoclinic'
loop_
_space_group_symop_operation_xyz
x,y,z
-x,y,-z
-x,-y,-z
x,-y,z
1/2+x,1/2+y,z
1/2-x,1/2+y,-z
1/2-x,1/2-y,-z
1/2+x,1/2-y,z
loop_
_atom_site_type_symbol
_atom_site_label
_atom_site_fract_x
_atom_site_fract_y
_atom_site_fract_z
Si Si1 0.275022 0.301470 0.611943
Si Si2 0.767464 0.270902 0.855761
Si Si3 0.643766 0.903820 0.508576
Si Si4 0.564926 0.063563 0.737023
Si Si5 0.885833 0.163525 0.437303
Si Si6 0.112688 0.380116 0.043179
Si Si7 0.237562 0.061509 0.654743
O O1 0.250000 0.250000 0.500000
O O2 0.307001 0.280666 0.790387
O O3 0.179423 0.340822 0.554561
O O4 0.362533 0.330058 0.586960
O O5 0.669320 0.293907 0.707567
O O6 0.849347 0.317929 0.919689
O O7 0.750000 0.250000 0.000000
O O8 0.537748 0.903824 0.355695
O O9 0.632296 0.934575 0.647846
O O10 0.727122 0.935906 0.481195
O O11 0.543118 0.000000 0.760116
O O12 0.628061 0.094586 0.900445
O O13 0.853710 0.101308 0.374987
O O14 0.000000 0.172476 0.500000
O O15 0.167969 0.420161 0.188969
O O16 0.000000 0.380676 0.000000
O O17 0.204343 0.000000 0.669619
#
# Coordination Sequence:
#
# PCOD8089072 Si02
#       7
#     8   8   8   8   8   8   8
#     4   9  19  36  54  73 106 140 181 226 272 311
#     4  10  21  38  54  78 107 140 184 227 272 322
#     4  10  19  33  50  77 106 139 179 215 256 329
#     4  11  21  32  51  80 114 142 173 213 268 337
#     4   9  20  37  55  77 104 139 182 226 266 319
#     4  11  22  33  51  78 111 139 176 216 270 337
#     4  10  19  34  55  76 106 140 172 220 272 320
#
# _framework density 17.813728999999999
#
# number of rings (size 3 to 8) (size 9 to 14) (size 15 to 20)
#    0.000    2.000    1.429    3.857    0.000    2.000 
#   12.857    0.000    0.000    0.000    0.000    0.000 
#    0.000   13.714    0.000    0.000    0.000    0.000 
#
# Total GULP energy -347071.315305 kJ/mol
# GULP energy per Si atom -12395.404118 kJ/mol
# Density = 1.777318 g / cm^3
# Si number density = 17.813729 Si / 1000 Ang^3
#
#
#
# Elastic Constant Matrix: (Units=GPa)
#
#
# Indices 1 2 3 4 5 6 
#
# 1 76.6317 26.2218 42.4558 0.0000 3.1577 0.0000
# 2 26.2218 117.5219 46.4961 0.0000 2.2820 0.0000
# 3 42.4558 46.4961 101.9785 0.0000 -13.0633 0.0000
# 4 0.0000 0.0000 0.0000 6.5204 0.0000 -12.3724
# 5 3.1577 2.2820 -13.0633 0.0000 27.0374 0.0000
# 6 0.0000 0.0000 0.0000 -12.3724 0.0000 17.7799
#
#
#
# Elastic Compliance Matrix: (Units=1/GPa)
#
#
# Indices 1 2 3 4 5 6 
#
# 1 0.017900 -0.000778 -0.007842 0.000000 -0.005814 0.000000
# 2 -0.000778 0.010712 -0.004972 0.000000 -0.003215 0.000000
# 3 -0.007842 -0.004972 0.016532 0.000000 0.009323 0.000000
# 4 0.000000 0.000000 0.000000 -0.478683 0.000000 -0.333098
# 5 -0.005814 -0.003215 0.009323 0.000000 0.042441 0.000000
# 6 0.000000 0.000000 0.000000 -0.333098 0.000000 -0.175548
#
#
# Mechanical properties :
#
#
# Convention : Reuss Voigt Hill
#
# Bulk Modulus (GPa) = 55.68088 58.49772 57.08930
# Shear Modulus (GPa) = -9.37251 22.33143 6.47946
#
# Velocity S-wave (km/s) = -2.29626 3.54447 1.90925
# Velocity P-wave (km/s) = 4.92897 7.04705 6.08094
#
# Compressibility (1/GPa) = 0.01795949
#
# Stress axis : x y z
#
# Youngs Moduli (GPa) = 55.86596 93.35082 60.48890
#
# Poissons Ratio (x) = 0.07267 0.47435
# Poissons Ratio (y) = 0.04349 0.30075
# Poissons Ratio (z) = 0.43810 0.46414
#
# Static dielectric constant tensor:
#      x y z
#    x 3.212510 0.000000 -0.266630 
#    y 0.000000 3.616350 0.000000 
#    z -0.266630 0.000000 3.870500 
# 
# 
# High freq. dielectric constant tensor:
#      x y z
#    x 1.672100 0.000000 -0.022900 
#    y 0.000000 1.697070 0.000000 
#    z -0.022900 0.000000 1.684130 
# 
# From -- ./inp_files/65294.got.cif
#   From: 2010.06.25/outbox.cif.g09.slc.cpg/sg12_33_cif.got.tgz:65294.got - 2010.06.28 00:19:55.
