data_PCOD8089071
_publ_section_title
;
Structure prediction by ZEFSAII (Michael W. Deem and Ramdas Pophale) SiO2 
 PCOD8089071
Probable space group: C 2/M
;
_chemical_formula_sum "Si O2"
_cell_formula_units_Z 64
_cell_length_a 8.668443
_cell_length_b 27.247538
_cell_length_c 22.609340
_cell_angle_alpha 90.000000
_cell_angle_beta 133.184958
_cell_angle_gamma 90.000000
_cell_volume 3893.786436
_symmetry_space_group_name_H-M "C 2/M"
_symmetry_group_IT_number 12
_symmetry_cell_setting 'monoclinic'
loop_
_space_group_symop_operation_xyz
x,y,z
-x,y,-z
-x,-y,-z
x,-y,z
1/2+x,1/2+y,z
1/2-x,1/2+y,-z
1/2-x,1/2-y,-z
1/2+x,1/2-y,z
loop_
_atom_site_type_symbol
_atom_site_label
_atom_site_fract_x
_atom_site_fract_y
_atom_site_fract_z
Si Si1 0.747406 0.152101 0.795721
Si Si2 0.635223 0.554848 0.125115
Si Si3 0.681563 0.945066 0.955849
Si Si4 0.220649 0.791974 0.080039
Si Si5 0.933737 0.206510 0.201417
Si Si6 0.086201 0.716831 0.332586
Si Si7 0.482773 0.152391 0.927494
Si Si8 0.512266 0.766186 0.440488
O O1 0.770365 0.093201 0.802249
O O2 0.837284 0.172017 0.881146
O O3 0.500239 0.169547 0.726166
O O4 0.874332 0.175003 0.774157
O O5 0.664304 0.500000 0.158572
O O6 0.763541 0.560054 0.098367
O O7 0.388464 0.565973 0.049572
O O8 0.498264 0.906612 0.924600
O O9 0.597414 0.000000 0.946935
O O10 0.377554 0.748508 0.139294
O O11 0.320724 0.823071 0.053717
O O12 0.000000 0.768808 0.000000
O O13 0.734786 0.170659 0.159399
O O14 0.996852 0.232170 0.280341
O O15 0.341624 0.720982 0.400714
O O16 0.978760 0.707256 0.369157
O O17 0.500000 0.167627 0.000000
O O18 0.500000 0.796860 0.500000
O O19 0.750000 0.750000 0.500000
#
# Coordination Sequence:
#
# PCOD8089071 Si02
#       8
#     8   8   8   8   8   8   8   8
#     4  11  20  32  50  67  95 132 165 203 247 287
#     4   9  17  31  51  68  85 120 172 219 257 294
#     4   9  18  33  49  64  84 117 169 229 269 293
#     4  11  21  33  45  60  89 131 174 205 237 290
#     4  11  23  32  44  67 101 132 162 201 243 285
#     4  10  19  33  50  76 104 135 159 186 237 284
#     4  12  23  32  45  66  90 124 173 215 257 290
#     4   9  18  33  54  76 103 134 157 185 219 279
#
# _framework density 16.436443000000001
#
# number of rings (size 3 to 8) (size 9 to 14) (size 15 to 20)
#    0.000    1.750    2.500    4.875    1.750    1.750 
#    0.000    0.625    0.000    0.000    0.000    0.000 
#    0.000    5.000    0.000    0.000    0.000    1.625 
#
# Total GULP energy -396495.618625 kJ/mol
# GULP energy per Si atom -12390.488082 kJ/mol
# Density = 1.639903 g / cm^3
# Si number density = 16.436443 Si / 1000 Ang^3
#
#
#
# Elastic Constant Matrix: (Units=GPa)
#
#
# Indices 1 2 3 4 5 6 
#
# 1 70.4493 28.3585 34.9362 0.0000 0.5643 0.0000
# 2 28.3585 108.3633 36.3408 0.0000 5.4021 0.0000
# 3 34.9362 36.3408 78.8978 0.0000 0.8039 0.0000
# 4 0.0000 0.0000 0.0000 8.6259 0.0000 -0.6318
# 5 0.5643 5.4021 0.8039 0.0000 31.3587 0.0000
# 6 0.0000 0.0000 0.0000 -0.6318 0.0000 19.2180
#
#
#
# Elastic Compliance Matrix: (Units=1/GPa)
#
#
# Indices 1 2 3 4 5 6 
#
# 1 0.018751 -0.002526 -0.007143 0.000000 0.000281 0.000000
# 2 -0.002526 0.011351 -0.004092 0.000000 -0.001805 0.000000
# 3 -0.007143 -0.004092 0.017718 0.000000 0.000379 0.000000
# 4 0.000000 0.000000 0.000000 0.116210 0.000000 0.003820
# 5 0.000281 -0.001805 0.000379 0.000000 0.032185 0.000000
# 6 0.000000 0.000000 0.000000 0.003820 0.000000 0.052160
#
#
# Mechanical properties :
#
#
# Convention : Reuss Voigt Hill
#
# Bulk Modulus (GPa) = 49.25959 50.77573 50.01766
# Shear Modulus (GPa) = 17.68894 22.37885 20.03390
#
# Velocity S-wave (km/s) = 3.28411 3.69391 3.49502
# Velocity P-wave (km/s) = 6.66448 7.01088 6.83988
#
# Compressibility (1/GPa) = 0.02030061
#
# Stress axis : x y z
#
# Youngs Moduli (GPa) = 53.33015 88.09482 56.43933
#
# Poissons Ratio (x) = 0.22251 0.40312
# Poissons Ratio (y) = 0.13470 0.23093
# Poissons Ratio (z) = 0.38091 0.36046
#
# Static dielectric constant tensor:
#      x y z
#    x 5.309740 0.000000 -3.101360 
#    y 0.000000 3.068810 0.000000 
#    z -3.101360 0.000000 7.613160 
# 
# 
# High freq. dielectric constant tensor:
#      x y z
#    x 1.643570 0.000000 -0.003410 
#    y 0.000000 1.602190 0.000000 
#    z -0.003410 0.000000 1.612350 
# 
# From -- ./inp_files/302683.got.cif
#   From: 2010.06.25/outbox.cif.g09.slc.cpg/sg12_152_cif.got.tgz:302683.got - 2010.06.28 00:19:55.
