data_PCOD8089134
_publ_section_title
;
Structure prediction by ZEFSAII (Michael W. Deem and Ramdas Pophale) SiO2 
 PCOD8089134
Probable space group: C 2/M
;
_chemical_formula_sum "Si O2"
_cell_formula_units_Z 64
_cell_length_a 14.543198
_cell_length_b 27.477220
_cell_length_c 9.884603
_cell_angle_alpha 90.000000
_cell_angle_beta 108.115104
_cell_angle_gamma 90.000000
_cell_volume 3754.168935
_symmetry_space_group_name_H-M "C 2/M"
_symmetry_group_IT_number 12
_symmetry_cell_setting 'monoclinic'
loop_
_space_group_symop_operation_xyz
x,y,z
-x,y,-z
-x,-y,-z
x,-y,z
1/2+x,1/2+y,z
1/2-x,1/2+y,-z
1/2-x,1/2-y,-z
1/2+x,1/2-y,z
loop_
_atom_site_type_symbol
_atom_site_label
_atom_site_fract_x
_atom_site_fract_y
_atom_site_fract_z
Si Si1 0.883795 0.823069 0.833853
Si Si2 0.952439 0.725268 0.334130
Si Si3 0.582513 0.943739 0.143687
Si Si4 0.914936 0.175905 0.161365
Si Si5 0.455026 0.054581 0.333529
Si Si6 0.815287 0.640153 0.223551
Si Si7 0.784150 0.636691 0.893093
Si Si8 0.920712 0.716597 0.844495
O O1 0.793055 0.858064 0.763622
O O2 0.874443 0.767976 0.776246
O O3 0.976866 0.847590 0.800184
O O4 0.890030 0.812139 0.996080
O O5 0.913770 0.775140 0.249671
O O6 0.865827 0.687089 0.312272
O O7 0.000000 0.737043 0.500000
O O8 0.026356 0.697640 0.266887
O O9 0.539982 0.929357 0.270071
O O10 0.679374 0.913707 0.154960
O O11 0.611670 0.000000 0.146675
O O12 0.500000 0.929083 0.000000
O O13 0.832568 0.139361 0.180961
O O14 0.500000 0.056064 0.500000
O O15 0.363095 0.089691 0.289756
O O16 0.419427 0.000000 0.278953
O O17 0.814694 0.641715 0.061942
O O18 0.833445 0.681173 0.838423
O O19 0.000000 0.721075 0.000000
#
# Coordination Sequence:
#
# PCOD8089134 Si02
#       8
#     8   8   8   8   8   8   8   8
#     4   9  17  32  51  69  95 129 172 209 233 278
#     4  11  21  32  46  72 106 130 159 204 250 291
#     4  10  19  33  51  76 103 124 156 200 245 290
#     4   9  18  34  47  69  98 133 167 203 243 280
#     4  10  21  36  52  75 107 132 153 192 249 305
#     4  11  19  30  51  76  96 130 169 202 241 290
#     4  11  19  29  54  75  94 129 173 203 237 290
#     4  11  17  31  48  70  97 128 169 200 236 292
#
# _framework density 17.047715
#
# number of rings (size 3 to 8) (size 9 to 14) (size 15 to 20)
#    0.000    1.750    5.000    2.250    0.000    2.000 
#    0.000    8.125    0.000    0.750    0.000    3.500 
#    0.000    3.500    0.000    0.000    0.000    0.000 
#
# Total GULP energy -396554.523351 kJ/mol
# GULP energy per Si atom -12392.328855 kJ/mol
# Density = 1.700891 g / cm^3
# Si number density = 17.047715 Si / 1000 Ang^3
#
#
#
# Elastic Constant Matrix: (Units=GPa)
#
#
# Indices 1 2 3 4 5 6 
#
# 1 148.4168 72.5592 33.7800 0.0000 4.4024 0.0000
# 2 72.5592 86.7663 23.9456 0.0000 8.9682 0.0000
# 3 33.7800 23.9456 61.5464 0.0000 -4.9740 0.0000
# 4 0.0000 0.0000 0.0000 16.5672 0.0000 0.2978
# 5 4.4024 8.9682 -4.9740 0.0000 16.0506 0.0000
# 6 0.0000 0.0000 0.0000 0.2978 0.0000 29.4540
#
#
#
# Elastic Compliance Matrix: (Units=1/GPa)
#
#
# Indices 1 2 3 4 5 6 
#
# 1 0.011878 -0.009259 -0.002833 0.000000 0.001037 0.000000
# 2 -0.009259 0.021533 -0.004167 0.000000 -0.010783 0.000000
# 3 -0.002833 -0.004167 0.020181 0.000000 0.009360 0.000000
# 4 0.000000 0.000000 0.000000 0.060371 0.000000 -0.000610
# 5 0.001037 -0.010783 0.009360 0.000000 0.070944 0.000000
# 6 0.000000 0.000000 0.000000 -0.000610 0.000000 0.033957
#
#
# Mechanical properties :
#
#
# Convention : Reuss Voigt Hill
#
# Bulk Modulus (GPa) = 47.45458 61.92211 54.68834
# Shear Modulus (GPa) = 19.34928 23.51067 21.42998
#
# Velocity S-wave (km/s) = 3.37264 3.71767 3.54935
# Velocity P-wave (km/s) = 6.56224 7.40471 6.99617
#
# Compressibility (1/GPa) = 0.02107278
#
# Stress axis : x y z
#
# Youngs Moduli (GPa) = 84.18681 46.44142 49.55185
#
# Poissons Ratio (x) = 0.42998 0.14040
# Poissons Ratio (y) = 0.77945 0.20650
# Poissons Ratio (z) = 0.23854 0.19354
#
# Static dielectric constant tensor:
#      x y z
#    x 3.463450 0.000000 -0.123440 
#    y 0.000000 3.106400 0.000000 
#    z -0.123440 0.000000 3.039110 
# 
# 
# High freq. dielectric constant tensor:
#      x y z
#    x 1.661140 0.000000 -0.015050 
#    y 0.000000 1.635440 0.000000 
#    z -0.015050 0.000000 1.637840 
# 
# From -- ./inp_files/67013.got.cif
#   From: 2010.06.25/outbox.cif.g09.slc.cpg/sg12_34_cif.got.tgz:67013.got - 2010.06.28 00:19:55.
