data_PCOD8089298
_publ_section_title
;
Structure prediction by ZEFSAII (Michael W. Deem and Ramdas Pophale) SiO2 
 PCOD8089298
Probable space group: C 2/M
;
_chemical_formula_sum "Si O2"
_cell_formula_units_Z 56
_cell_length_a 31.012505
_cell_length_b 8.870185
_cell_length_c 11.853594
_cell_angle_alpha 90.000000
_cell_angle_beta 116.878331
_cell_angle_gamma 90.000000
_cell_volume 2908.500393
_symmetry_space_group_name_H-M "C 2/M"
_symmetry_group_IT_number 12
_symmetry_cell_setting 'monoclinic'
loop_
_space_group_symop_operation_xyz
x,y,z
-x,y,-z
-x,-y,-z
x,-y,z
1/2+x,1/2+y,z
1/2-x,1/2+y,-z
1/2-x,1/2-y,-z
1/2+x,1/2-y,z
loop_
_atom_site_type_symbol
_atom_site_label
_atom_site_fract_x
_atom_site_fract_y
_atom_site_fract_z
Si Si1 0.854986 0.677613 0.079021
Si Si2 0.268989 0.178280 0.826150
Si Si3 0.205115 0.677585 0.386659
Si Si4 0.159930 0.821055 0.708593
Si Si5 0.433714 0.325715 0.021206
Si Si6 0.117958 0.322812 0.438853
Si Si7 0.457357 0.326294 0.796440
O O1 0.856167 0.500000 0.102302
O O2 0.865216 0.765230 0.206637
O O3 0.895592 0.718088 0.036242
O O4 0.802478 0.730785 0.969709
O O5 0.295135 0.234658 0.742706
O O6 0.214772 0.245082 0.769976
O O7 0.265101 0.000000 0.819934
O O8 0.211203 0.500000 0.401086
O O9 0.250000 0.750000 0.500000
O O10 0.156517 0.730881 0.390696
O O11 0.128779 0.758666 0.568815
O O12 0.159241 0.000000 0.703005
O O13 0.418258 0.500000 0.015012
O O14 0.485455 0.299196 0.140539
O O15 0.436497 0.278099 0.893612
O O16 0.119163 0.500000 0.461601
O O17 0.065862 0.273903 0.330046
O O18 0.444996 0.500000 0.758908
#
# Coordination Sequence:
#
# PCOD8089298 Si02
#       7
#     8   8   8   8   8   8   8
#     4  11  22  37  57  82 113 146 185 236 285 328
#     4   9  19  35  55  79 110 147 186 227 275 328
#     4  10  19  33  52  78 111 144 179 222 269 322
#     4  11  22  38  57  76 109 155 196 231 270 330
#     4   9  19  38  61  87 114 143 184 227 273 332
#     4  11  22  35  55  85 118 148 184 231 283 332
#     4   9  19  37  62  87 114 146 181 225 274 334
#
# _framework density 19.253909
#
# number of rings (size 3 to 8) (size 9 to 14) (size 15 to 20)
#    0.000    2.000    1.429    3.429    0.000    2.857 
#    0.000    5.714    0.000    4.286    0.000    0.000 
#    0.000    0.000    0.000    0.000    0.000    0.000 
#
# Total GULP energy -347247.851968 kJ/mol
# GULP energy per Si atom -12401.708999 kJ/mol
# Density = 1.921009 g / cm^3
# Si number density = 19.253909 Si / 1000 Ang^3
#
#
#
# Elastic Constant Matrix: (Units=GPa)
#
#
# Indices 1 2 3 4 5 6 
#
# 1 56.1326 21.0929 36.3240 0.0000 1.7945 0.0000
# 2 21.0929 58.6794 44.2091 0.0000 2.0234 0.0000
# 3 36.3240 44.2091 132.9015 0.0000 2.9550 0.0000
# 4 0.0000 0.0000 0.0000 29.3372 0.0000 0.5653
# 5 1.7945 2.0234 2.9550 0.0000 28.6670 0.0000
# 6 0.0000 0.0000 0.0000 0.5653 0.0000 29.0506
#
#
#
# Elastic Compliance Matrix: (Units=1/GPa)
#
#
# Indices 1 2 3 4 5 6 
#
# 1 0.022554 -0.004607 -0.004618 0.000000 -0.000611 0.000000
# 2 -0.004607 0.023702 -0.006609 0.000000 -0.000703 0.000000
# 3 -0.004618 -0.006609 0.010994 0.000000 -0.000378 0.000000
# 4 0.000000 0.000000 0.000000 0.034099 0.000000 -0.000664
# 5 -0.000611 -0.000703 -0.000378 0.000000 0.035010 0.000000
# 6 0.000000 0.000000 0.000000 -0.000664 0.000000 0.034436
#
#
# Mechanical properties :
#
#
# Convention : Reuss Voigt Hill
#
# Bulk Modulus (GPa) = 39.09294 50.10729 44.60012
# Shear Modulus (GPa) = 24.87683 27.15013 26.01348
#
# Velocity S-wave (km/s) = 3.59840 3.75922 3.67969
# Velocity P-wave (km/s) = 6.13291 6.70248 6.42401
#
# Compressibility (1/GPa) = 0.02558007
#
# Stress axis : x y z
#
# Youngs Moduli (GPa) = 44.33769 42.19134 90.96152
#
# Poissons Ratio (x) = 0.19437 0.42010
# Poissons Ratio (y) = 0.20425 0.60121
# Poissons Ratio (z) = 0.20477 0.27886
#
# Static dielectric constant tensor:
#      x y z
#    x 3.599510 0.000000 -0.048570 
#    y 0.000000 3.364180 0.000000 
#    z -0.048570 0.000000 3.577780 
# 
# 
# High freq. dielectric constant tensor:
#      x y z
#    x 1.740650 0.000000 0.000360 
#    y 0.000000 1.736680 0.000000 
#    z 0.000360 0.000000 1.757900 
# 
# From -- ./inp_files/180805.got.cif
#   From: 2010.06.25/outbox.cif.g09.slc.cpg/sg12_91_cif.got.tgz:180805.got - 2010.06.28 00:19:55.
