data_PCOD8089360
_publ_section_title
;
Structure prediction by ZEFSAII (Michael W. Deem and Ramdas Pophale) SiO2 
 PCOD8089360
Probable space group: C 2/M
;
_chemical_formula_sum "Si O2"
_cell_formula_units_Z 64
_cell_length_a 31.140026
_cell_length_b 8.902536
_cell_length_c 12.426413
_cell_angle_alpha 90.000000
_cell_angle_beta 82.870537
_cell_angle_gamma 90.000000
_cell_volume 3418.279631
_symmetry_space_group_name_H-M "C 2/M"
_symmetry_group_IT_number 12
_symmetry_cell_setting 'monoclinic'
loop_
_space_group_symop_operation_xyz
x,y,z
-x,y,-z
-x,-y,-z
x,-y,z
1/2+x,1/2+y,z
1/2-x,1/2+y,-z
1/2-x,1/2-y,-z
1/2+x,1/2-y,z
loop_
_atom_site_type_symbol
_atom_site_label
_atom_site_fract_x
_atom_site_fract_y
_atom_site_fract_z
Si Si1 0.744905 0.676645 0.214877
Si Si2 0.224247 0.164982 0.596654
Si Si3 0.818470 0.822202 0.083020
Si Si4 0.606829 0.321270 0.774943
Si Si5 0.629405 0.336729 0.541692
Si Si6 0.547908 0.824722 0.959201
Si Si7 0.647678 0.320014 0.301618
Si Si8 0.878246 0.676351 0.897519
O O1 0.745600 0.500000 0.196763
O O2 0.776027 0.726580 0.301671
O O3 0.769609 0.755984 0.107487
O O4 0.696397 0.733777 0.256064
O O5 0.250000 0.250000 0.500000
O O6 0.177161 0.136793 0.568165
O O7 0.244312 0.000000 0.617778
O O8 0.850051 0.773761 0.172172
O O9 0.815434 0.000000 0.073006
O O10 0.837563 0.756479 0.966639
O O11 0.604798 0.500000 0.769331
O O12 0.606076 0.254748 0.651364
O O13 0.564585 0.259610 0.847900
O O14 0.607527 0.500000 0.529662
O O15 0.631967 0.254935 0.423749
O O16 0.547887 0.000000 0.932422
O O17 0.500000 0.765405 0.000000
O O18 0.577839 0.787647 0.052195
O O19 0.645501 0.500000 0.302872
O O20 0.616038 0.248002 0.222787
O O21 0.869294 0.500000 0.892630
#
# Coordination Sequence:
#
# PCOD8089360 Si02
#       8
#     8   8   8   8   8   8   8   8
#     4  11  21  32  48  72 101 139 185 228 266 304
#     4  11  19  31  47  69 100 138 183 230 270 301
#     4  10  19  33  53  74 101 138 176 221 273 311
#     4   9  17  31  53  81 108 132 165 211 258 304
#     4   9  17  32  50  71 103 140 174 213 259 299
#     4   9  19  37  60  84 108 130 154 199 263 318
#     4  10  21  36  51  69 102 147 183 213 257 306
#     4  10  21  37  55  77 103 131 171 216 257 313
#
# _framework density 18.722868999999999
#
# number of rings (size 3 to 8) (size 9 to 14) (size 15 to 20)
#    0.000    2.125    2.500    1.500    0.000    2.750 
#    0.000    0.625    0.000    0.750    0.000    5.250 
#    0.000    0.000    0.000    0.000    0.000    0.000 
#
# Total GULP energy -396466.040911 kJ/mol
# GULP energy per Si atom -12389.563778 kJ/mol
# Density = 1.868026 g / cm^3
# Si number density = 18.722869 Si / 1000 Ang^3
#
#
#
# Elastic Constant Matrix: (Units=GPa)
#
#
# Indices 1 2 3 4 5 6 
#
# 1 67.2539 24.6293 50.1968 0.0000 -20.9948 0.0000
# 2 24.6293 40.7804 30.9142 0.0000 -6.0546 0.0000
# 3 50.1968 30.9142 154.6925 0.0000 -11.4233 0.0000
# 4 0.0000 0.0000 0.0000 22.3660 0.0000 0.1873
# 5 -20.9948 -6.0546 -11.4233 0.0000 23.7973 0.0000
# 6 0.0000 0.0000 0.0000 0.1873 0.0000 19.9143
#
#
#
# Elastic Compliance Matrix: (Units=1/GPa)
#
#
# Indices 1 2 3 4 5 6 
#
# 1 0.029519 -0.010213 -0.006020 0.000000 0.020554 0.000000
# 2 -0.010213 0.032960 -0.003441 0.000000 -0.002276 0.000000
# 3 -0.006020 -0.003441 0.008966 0.000000 -0.001882 0.000000
# 4 0.000000 0.000000 0.000000 0.044714 0.000000 -0.000420
# 5 0.020554 -0.002276 -0.001882 0.000000 0.058673 0.000000
# 6 0.000000 0.000000 0.000000 -0.000420 0.000000 0.050219
#
#
# Mechanical properties :
#
#
# Convention : Reuss Voigt Hill
#
# Bulk Modulus (GPa) = 31.15429 52.68969 41.92199
# Shear Modulus (GPa) = 18.17537 23.68129 20.92833
#
# Velocity S-wave (km/s) = 3.11908 3.56031 3.34697
# Velocity P-wave (km/s) = 5.44494 6.71595 6.11357
#
# Compressibility (1/GPa) = 0.03209831
#
# Stress axis : x y z
#
# Youngs Moduli (GPa) = 33.87694 30.33979 111.52627
#
# Poissons Ratio (x) = 0.30985 0.67137
# Poissons Ratio (y) = 0.34597 0.38376
# Poissons Ratio (z) = 0.20393 0.10440
#
# Static dielectric constant tensor:
#      x y z
#    x 3.159120 0.000000 -0.109200 
#    y 0.000000 3.255120 0.000000 
#    z -0.109200 0.000000 3.733710 
# 
# 
# High freq. dielectric constant tensor:
#      x y z
#    x 1.684800 0.000000 -0.011320 
#    y 0.000000 1.713580 0.000000 
#    z -0.011320 0.000000 1.742390 
# 
# From -- ./inp_files/187518.got.cif
#   From: 2010.06.25/outbox.cif.g09.slc.cpg/sg12_94_cif.got.tgz:187518.got - 2010.06.28 00:19:55.
