data_PCOD8089894
_publ_section_title
;
Structure prediction by ZEFSAII (Michael W. Deem and Ramdas Pophale) SiO2 
 PCOD8089894
Probable space group: C 2/M
;
_chemical_formula_sum "Si O2"
_cell_formula_units_Z 56
_cell_length_a 14.440805
_cell_length_b 17.867816
_cell_length_c 20.753632
_cell_angle_alpha 90.000000
_cell_angle_beta 146.739893
_cell_angle_gamma 90.000000
_cell_volume 2936.883347
_symmetry_space_group_name_H-M "C 2/M"
_symmetry_group_IT_number 12
_symmetry_cell_setting 'monoclinic'
loop_
_space_group_symop_operation_xyz
x,y,z
-x,y,-z
-x,-y,-z
x,-y,z
1/2+x,1/2+y,z
1/2-x,1/2+y,-z
1/2-x,1/2-y,-z
1/2+x,1/2-y,z
loop_
_atom_site_type_symbol
_atom_site_label
_atom_site_fract_x
_atom_site_fract_y
_atom_site_fract_z
Si Si1 0.317093 0.272854 0.275553
Si Si2 0.037626 0.413662 0.287553
Si Si3 0.334638 0.415349 0.361847
Si Si4 0.255303 0.414519 0.665406
Si Si5 0.502132 0.697820 0.146007
Si Si6 0.721458 0.213691 0.885179
Si Si7 0.953846 0.360199 0.569629
O O1 0.345543 0.360603 0.306406
O O2 0.170658 0.246882 0.238704
O O3 0.254289 0.259145 0.166620
O O4 0.489239 0.226575 0.389839
O O5 0.984138 0.500000 0.253961
O O6 0.175571 0.395418 0.313882
O O7 0.112145 0.392989 0.401131
O O8 0.870985 0.365082 0.178478
O O9 0.500000 0.404168 0.500000
O O10 0.321987 0.500000 0.327830
O O11 0.277648 0.500000 0.657435
O O12 0.435710 0.384555 0.795762
O O13 0.197777 0.365846 0.569788
O O14 0.114568 0.408738 0.639485
O O15 0.381303 0.731245 0.129170
O O16 0.403772 0.693959 0.020982
#
# Coordination Sequence:
#
# PCOD8089894 Si02
#       7
#     8   8   8   8   8   8   8
#     4  10  20  36  59  80 113 147 186 230 282 331
#     4  10  19  35  58  82 111 147 187 233 281 332
#     4  10  22  37  56  83 116 148 184 234 283 331
#     4  10  19  33  54  82 118 150 178 227 287 339
#     4  10  21  36  54  80 112 144 192 235 277 327
#     4  10  21  37  56  82 107 149 193 235 274 328
#     4   9  19  32  56  86 114 146 180 224 280 349
#
# _framework density 19.067833
#
# number of rings (size 3 to 8) (size 9 to 14) (size 15 to 20)
#    0.000    2.143    1.429    2.143    4.000    1.714 
#    0.000    5.000    0.000    7.714    0.000    0.000 
#    0.000    0.000    0.000    0.000    0.000    0.000 
#
# Total GULP energy -347207.021900 kJ/mol
# GULP energy per Si atom -12400.250782 kJ/mol
# Density = 1.902443 g / cm^3
# Si number density = 19.067833 Si / 1000 Ang^3
#
#
#
# Elastic Constant Matrix: (Units=GPa)
#
#
# Indices 1 2 3 4 5 6 
#
# 1 56.3910 48.9093 30.7896 -0.0014 -16.1127 -0.0035
# 2 48.9093 125.5106 60.3356 -0.0014 -16.2757 -0.0037
# 3 30.7896 60.3356 111.5030 -0.0049 -17.4544 -0.0088
# 4 -0.0014 -0.0014 -0.0049 25.3986 -0.0012 11.4381
# 5 -16.1127 -16.2757 -17.4544 -0.0012 26.6464 -0.0021
# 6 -0.0035 -0.0037 -0.0088 11.4381 -0.0021 85.8998
#
#
#
# Elastic Compliance Matrix: (Units=1/GPa)
#
#
# Indices 1 2 3 4 5 6 
#
# 1 0.030038 -0.009590 -0.001314 0.000001 0.011446 0.000001
# 2 -0.009590 0.014061 -0.005041 -0.000001 -0.000512 0.000000
# 3 -0.001314 -0.005041 0.012761 0.000002 0.004486 0.000001
# 4 0.000001 -0.000001 0.000002 0.041884 0.000003 -0.005577
# 5 0.011446 -0.000512 0.004486 0.000003 0.047075 0.000002
# 6 0.000001 0.000000 0.000001 -0.005577 0.000002 0.012384
#
#
# Mechanical properties :
#
#
# Convention : Reuss Voigt Hill
#
# Bulk Modulus (GPa) = 40.04476 63.71927 51.88202
# Shear Modulus (GPa) = 25.19956 37.81363 31.50660
#
# Velocity S-wave (km/s) = 3.63929 4.45804 4.06931
# Velocity P-wave (km/s) = 6.22142 7.74523 7.02476
#
# Compressibility (1/GPa) = 0.02497206
#
# Stress axis : x y z
#
# Youngs Moduli (GPa) = 33.29067 71.11773 78.36401
#
# Poissons Ratio (x) = 0.68199 0.10296
# Poissons Ratio (y) = 0.31925 0.39502
# Poissons Ratio (z) = 0.04374 0.35849
#
# Static dielectric constant tensor:
#      x y z
#    x 3.484640 0.000000 -0.071450 
#    y 0.000000 3.474160 0.000000 
#    z -0.071450 0.000000 3.471210 
# 
# 
# High freq. dielectric constant tensor:
#      x y z
#    x 1.739520 0.000000 -0.005530 
#    y 0.000000 1.737290 0.000000 
#    z -0.005530 0.000000 1.732560 
# 
# From -- ./inp_files/145492.got.cif
#   From: 2010.06.25/outbox.cif.g09.slc.cpg/sg12_73_cif.got.tgz:145492.got - 2010.06.28 00:19:55.
