data_PCOD8089677
_publ_section_title
;
Structure prediction by ZEFSAII (Michael W. Deem and Ramdas Pophale) SiO2 
 PCOD8089677
Probable space group: C 2/M
;
_chemical_formula_sum "Si O2"
_cell_formula_units_Z 64
_cell_length_a 16.229234
_cell_length_b 9.427305
_cell_length_c 21.905189
_cell_angle_alpha 90.000000
_cell_angle_beta 90.494914
_cell_angle_gamma 90.000000
_cell_volume 3351.323737
_symmetry_space_group_name_H-M "C 2/M"
_symmetry_group_IT_number 12
_symmetry_cell_setting 'monoclinic'
loop_
_space_group_symop_operation_xyz
x,y,z
-x,y,-z
-x,-y,-z
x,-y,z
1/2+x,1/2+y,z
1/2-x,1/2+y,-z
1/2-x,1/2-y,-z
1/2+x,1/2-y,z
loop_
_atom_site_type_symbol
_atom_site_label
_atom_site_fract_x
_atom_site_fract_y
_atom_site_fract_z
Si Si1 0.504233 0.835682 0.071881
Si Si2 0.837380 0.831596 0.623304
Si Si3 0.155827 0.163815 0.128595
Si Si4 0.577179 0.164191 0.743955
Si Si5 0.096008 0.842977 0.503626
Si Si6 0.579635 0.337806 0.254495
Si Si7 0.338858 0.164665 0.134211
Si Si8 0.152203 0.332094 0.618239
O O1 0.585107 0.753408 0.095160
O O2 0.418310 0.770960 0.098738
O O3 0.513834 0.000000 0.091628
O O4 0.500000 0.817615 0.000000
O O5 0.873516 0.773810 0.559751
O O6 0.886286 0.771124 0.682029
O O7 0.744547 0.778460 0.628067
O O8 0.842850 0.000000 0.625034
O O9 0.147410 0.174275 0.201864
O O10 0.248335 0.224714 0.113854
O O11 0.146914 0.000000 0.107732
O O12 0.498881 0.249395 0.767409
O O13 0.650064 0.190129 0.793137
O O14 0.602959 0.219750 0.677448
O O15 0.553123 0.000000 0.741198
O O16 0.116617 0.738408 0.558047
O O17 0.000000 0.861498 0.500000
O O18 0.135940 0.000000 0.513945
O O19 0.552524 0.500000 0.264249
O O20 0.336539 0.000000 0.118492
O O21 0.147132 0.500000 0.610027
#
# Coordination Sequence:
#
# PCOD8089677 Si02
#       8
#     8   8   8   8   8   8   8   8
#     4  10  21  38  59  83 115 153 186 220 269 327
#     4   9  18  33  51  72 100 134 171 213 261 321
#     4  10  20  35  58  85 111 145 187 231 274 319
#     4  10  19  33  54  77 104 140 177 218 270 323
#     4  10  20  34  51  70  97 134 169 208 268 321
#     4  10  19  33  55  80 105 134 176 224 268 315
#     4   9  18  35  57  80 112 150 185 221 272 333
#     4  10  20  33  51  74  98 130 175 218 259 313
#
# _framework density 19.09693
#
# number of rings (size 3 to 8) (size 9 to 14) (size 15 to 20)
#    0.000    2.250    1.250    1.875    0.000    5.500 
#    0.000    2.500    0.000    3.000    0.000    0.000 
#    0.000    0.000    0.000    0.000    0.000    0.000 
#
# Total GULP energy -396662.279023 kJ/mol
# GULP energy per Si atom -12395.696219 kJ/mol
# Density = 1.905346 g / cm^3
# Si number density = 19.096930 Si / 1000 Ang^3
#
#
#
# Elastic Constant Matrix: (Units=GPa)
#
#
# Indices 1 2 3 4 5 6 
#
# 1 150.6064 40.6642 46.9057 0.0000 2.8358 0.0000
# 2 40.6642 39.1052 28.7145 0.0000 3.5517 0.0000
# 3 46.9057 28.7145 100.2148 0.0000 0.5583 0.0000
# 4 0.0000 0.0000 0.0000 24.3027 0.0000 7.9104
# 5 2.8358 3.5517 0.5583 0.0000 25.3877 0.0000
# 6 0.0000 0.0000 0.0000 7.9104 0.0000 43.2610
#
#
#
# Elastic Compliance Matrix: (Units=1/GPa)
#
#
# Indices 1 2 3 4 5 6 
#
# 1 0.009556 -0.008443 -0.002055 0.000000 0.000159 0.000000
# 2 -0.008443 0.040328 -0.007578 0.000000 -0.004532 0.000000
# 3 -0.002055 -0.007578 0.013106 0.000000 0.001001 0.000000
# 4 0.000000 0.000000 0.000000 0.043752 0.000000 -0.008000
# 5 0.000159 -0.004532 0.001001 0.000000 0.039983 0.000000
# 6 0.000000 0.000000 0.000000 -0.008000 0.000000 0.024578
#
#
# Mechanical properties :
#
#
# Convention : Reuss Voigt Hill
#
# Bulk Modulus (GPa) = 37.25955 58.05501 47.65728
# Shear Modulus (GPa) = 23.10517 30.16641 26.63579
#
# Velocity S-wave (km/s) = 3.48212 3.97879 3.73871
# Velocity P-wave (km/s) = 5.97662 7.18149 6.60658
#
# Compressibility (1/GPa) = 0.02683876
#
# Stress axis : x y z
#
# Youngs Moduli (GPa) = 104.64189 24.79666 76.30124
#
# Poissons Ratio (x) = 0.20936 0.15676
# Poissons Ratio (y) = 0.88351 0.57821
# Poissons Ratio (z) = 0.21499 0.18791
#
# Static dielectric constant tensor:
#      x y z
#    x 3.598880 0.000000 -0.194650 
#    y 0.000000 3.211770 0.000000 
#    z -0.194650 0.000000 3.562520 
# 
# 
# High freq. dielectric constant tensor:
#      x y z
#    x 1.752310 0.000000 -0.005460 
#    y 0.000000 1.703350 0.000000 
#    z -0.005460 0.000000 1.752180 
# 
# From -- ./inp_files/314077.got.cif
#   From: 2010.06.25/outbox.cif.g09.slc.cpg/sg12_158_cif.got.tgz:314077.got - 2010.06.28 00:19:55.
