data_PCOD8089616
_publ_section_title
;
Structure prediction by ZEFSAII (Michael W. Deem and Ramdas Pophale) SiO2 
 PCOD8089616
Probable space group: C 2/M
;
_chemical_formula_sum "Si O2"
_cell_formula_units_Z 56
_cell_length_a 19.276857
_cell_length_b 8.727297
_cell_length_c 26.647176
_cell_angle_alpha 90.000000
_cell_angle_beta 39.996018
_cell_angle_gamma 90.000000
_cell_volume 2881.367779
_symmetry_space_group_name_H-M "C 2/M"
_symmetry_group_IT_number 12
_symmetry_cell_setting 'monoclinic'
loop_
_space_group_symop_operation_xyz
x,y,z
-x,y,-z
-x,-y,-z
x,-y,z
1/2+x,1/2+y,z
1/2-x,1/2+y,-z
1/2-x,1/2-y,-z
1/2+x,1/2-y,z
loop_
_atom_site_type_symbol
_atom_site_label
_atom_site_fract_x
_atom_site_fract_y
_atom_site_fract_z
Si Si1 0.842930 0.681099 0.221898
Si Si2 0.170188 0.669762 0.183536
Si Si3 0.728309 0.680400 0.566467
Si Si4 0.437124 0.676733 0.484073
Si Si5 0.395579 0.682975 0.088533
Si Si6 0.451259 0.182518 0.265502
Si Si7 0.379754 0.828389 0.673127
O O1 0.834720 0.500000 0.221409
O O2 0.903288 0.748267 0.139877
O O3 0.910969 0.731225 0.232896
O O4 0.723167 0.747011 0.294879
O O5 0.186884 0.500000 0.152626
O O6 0.289133 0.749191 0.118054
O O7 0.129460 0.665485 0.262647
O O8 0.074941 0.747008 0.203159
O O9 0.718504 0.500000 0.566837
O O10 0.750000 0.750000 0.500000
O O11 0.827595 0.726459 0.547266
O O12 0.619714 0.744425 0.651216
O O13 0.500000 0.707748 0.500000
O O14 0.407032 0.500000 0.492795
O O15 0.512576 0.732473 0.397070
O O16 0.386638 0.500000 0.098847
O O17 0.500000 0.735686 0.000000
O O18 0.448448 0.000000 0.274552
O O19 0.389063 0.000000 0.645772
#
# Coordination Sequence:
#
# PCOD8089616 Si02
#       7
#     8   8   8   8   8   8   8
#     4  10  20  33  53  80 110 143 175 218 274 327
#     4   8  16  32  54  76  98 131 173 212 254 311
#     4  12  25  39  56  78 108 147 190 236 285 334
#     4  11  23  37  53  76 107 141 181 231 282 329
#     4   9  18  35  59  83 107 138 177 220 264 318
#     4  10  20  36  55  76 106 142 181 223 271 328
#     4  10  19  33  54  76 100 136 182 226 267 317
#
# _framework density 19.435213000000001
#
# number of rings (size 3 to 8) (size 9 to 14) (size 15 to 20)
#    0.000    2.000    0.000    5.143    0.000    7.143 
#    0.000    3.571    0.000    0.000    0.000    0.000 
#    0.000    0.000    0.000    0.000    0.000    0.000 
#
# Total GULP energy -347125.800567 kJ/mol
# GULP energy per Si atom -12397.350020 kJ/mol
# Density = 1.939098 g / cm^3
# Si number density = 19.435213 Si / 1000 Ang^3
#
#
#
# Elastic Constant Matrix: (Units=GPa)
#
#
# Indices 1 2 3 4 5 6 
#
# 1 125.8834 31.5397 46.8934 -0.0004 -19.5916 0.0017
# 2 31.5397 53.5689 14.0377 -0.0008 1.9795 0.0022
# 3 46.8934 14.0377 100.3121 0.0001 -16.6732 -0.0008
# 4 -0.0004 -0.0008 0.0001 27.2739 -0.0002 0.7932
# 5 -19.5916 1.9795 -16.6732 -0.0002 26.5151 -0.0001
# 6 0.0017 0.0022 -0.0008 0.7932 -0.0001 24.5233
#
#
#
# Elastic Compliance Matrix: (Units=1/GPa)
#
#
# Indices 1 2 3 4 5 6 
#
# 1 0.011958 -0.006381 -0.003517 0.000000 0.007100 0.000000
# 2 -0.006381 0.023082 -0.001471 0.000001 -0.007363 -0.000002
# 3 -0.003517 -0.001471 0.012736 0.000000 0.005520 0.000001
# 4 0.000000 0.000001 0.000000 0.036700 0.000000 -0.001187
# 5 0.007100 -0.007363 0.005520 0.000000 0.046981 0.000001
# 6 0.000000 -0.000002 0.000001 -0.001187 0.000001 0.040816
#
#
# Mechanical properties :
#
#
# Convention : Reuss Voigt Hill
#
# Bulk Modulus (GPa) = 39.93873 51.63400 45.78636
# Shear Modulus (GPa) = 24.58733 28.14872 26.36802
#
# Velocity S-wave (km/s) = 3.56067 3.80983 3.68736
# Velocity P-wave (km/s) = 6.12363 6.78071 6.46053
#
# Compressibility (1/GPa) = 0.02503835
#
# Stress axis : x y z
#
# Youngs Moduli (GPa) = 83.62795 43.32367 78.51599
#
# Poissons Ratio (x) = 0.27645 0.27612
# Poissons Ratio (y) = 0.53364 0.11549
# Poissons Ratio (z) = 0.29410 0.06373
#
# Static dielectric constant tensor:
#      x y z
#    x 3.846520 0.000000 -0.310570 
#    y 0.000000 3.494690 0.000000 
#    z -0.310570 0.000000 3.579540 
# 
# 
# High freq. dielectric constant tensor:
#      x y z
#    x 1.767440 0.000000 -0.014650 
#    y 0.000000 1.744100 0.000000 
#    z -0.014650 0.000000 1.745910 
# 
# From -- ./inp_files/231007.got.cif
#   From: 2010.06.25/outbox.cif.g09.slc.cpg/sg12_116_cif.got.tgz:231007.got - 2010.06.28 00:19:55.
