data_PCOD8089195
_publ_section_title
;
Structure prediction by ZEFSAII (Michael W. Deem and Ramdas Pophale) SiO2 
 PCOD8089195
Probable space group: C 2/M
;
_chemical_formula_sum "Si O2"
_cell_formula_units_Z 48
_cell_length_a 23.435963
_cell_length_b 8.992216
_cell_length_c 17.385340
_cell_angle_alpha 90.000000
_cell_angle_beta 132.206475
_cell_angle_gamma 90.000000
_cell_volume 2713.887765
_symmetry_space_group_name_H-M "C 2/M"
_symmetry_group_IT_number 12
_symmetry_cell_setting 'monoclinic'
loop_
_space_group_symop_operation_xyz
x,y,z
-x,y,-z
-x,-y,-z
x,-y,z
1/2+x,1/2+y,z
1/2-x,1/2+y,-z
1/2-x,1/2-y,-z
1/2+x,1/2-y,z
loop_
_atom_site_type_symbol
_atom_site_label
_atom_site_fract_x
_atom_site_fract_y
_atom_site_fract_z
Si Si1 0.555181 0.327185 0.617711
Si Si2 0.807566 0.675717 0.493054
Si Si3 0.380598 0.824185 0.890131
Si Si4 0.216261 0.826627 0.688955
Si Si5 0.996507 0.676938 0.119129
Si Si6 0.520351 0.176060 0.311092
O O1 0.500000 0.265377 0.500000
O O2 0.538071 0.500000 0.615148
O O3 0.643469 0.295367 0.676857
O O4 0.539134 0.242538 0.681948
O O5 0.798827 0.500000 0.491229
O O6 0.750000 0.750000 0.500000
O O7 0.787779 0.728064 0.390147
O O8 0.893577 0.728354 0.591123
O O9 0.291880 0.774124 0.804450
O O10 0.428636 0.764602 0.859936
O O11 0.386992 0.000000 0.895729
O O12 0.419502 0.766441 0.004841
O O13 0.220919 0.000000 0.669465
O O14 0.998764 0.500000 0.125595
O O15 0.998212 0.740983 0.207070
O O16 0.513158 0.000000 0.307579
#
# Coordination Sequence:
#
# PCOD8089195 Si02
#       6
#     8   8   8   8   8   8
#     4  10  20  34  50  69  98 137 172 202 245 297
#     4  11  22  33  49  75 103 130 160 201 251 300
#     4   8  14  27  50  74  98 126 160 203 248 294
#     4  10  19  33  52  73  98 130 169 207 243 292
#     4   8  14  27  48  75  99 123 159 205 251 291
#     4  10  20  33  51  74 100 129 168 209 246 291
#
# _framework density 17.686803999999999
#
# number of rings (size 3 to 8) (size 9 to 14) (size 15 to 20)
#    0.000    2.500    1.667    2.500    0.000    4.333 
#    0.000    0.833    0.000    1.000    0.000    3.500 
#    0.000    0.000    0.000    0.000    0.000    0.000 
#
# Total GULP energy -297551.870400 kJ/mol
# GULP energy per Si atom -12397.994600 kJ/mol
# Density = 1.764655 g / cm^3
# Si number density = 17.686804 Si / 1000 Ang^3
#
#
#
# Elastic Constant Matrix: (Units=GPa)
#
#
# Indices 1 2 3 4 5 6 
#
# 1 128.4161 28.4152 81.4912 0.0000 2.7211 0.0000
# 2 28.4152 24.1295 19.1487 0.0000 4.2084 0.0000
# 3 81.4912 19.1487 148.8264 0.0000 10.6365 0.0000
# 4 0.0000 0.0000 0.0000 16.5119 0.0000 -5.5075
# 5 2.7211 4.2084 10.6365 0.0000 28.7985 0.0000
# 6 0.0000 0.0000 0.0000 -5.5075 0.0000 26.4256
#
#
#
# Elastic Compliance Matrix: (Units=1/GPa)
#
#
# Indices 1 2 3 4 5 6 
#
# 1 0.014732 -0.012572 -0.006656 0.000000 0.002904 0.000000
# 2 -0.012572 0.057506 0.000001 0.000000 -0.007216 0.000000
# 3 -0.006656 0.000001 0.010599 0.000000 -0.003286 0.000000
# 4 0.000000 0.000000 0.000000 0.065087 0.000000 0.013565
# 5 0.002904 -0.007216 -0.003286 0.000000 0.036718 0.000000
# 6 0.000000 0.000000 0.000000 0.013565 0.000000 0.040669
#
#
# Mechanical properties :
#
#
# Convention : Reuss Voigt Hill
#
# Bulk Modulus (GPa) = 22.53231 62.16469 42.34850
# Shear Modulus (GPa) = 17.94949 25.83498 21.89223
#
# Velocity S-wave (km/s) = 3.18913 3.82605 3.52202
# Velocity P-wave (km/s) = 5.13108 7.39878 6.36671
#
# Compressibility (1/GPa) = 0.04438071
#
# Stress axis : x y z
#
# Youngs Moduli (GPa) = 67.88133 17.38949 94.35102
#
# Poissons Ratio (x) = 0.21862 0.62803
# Poissons Ratio (y) = 0.85342 -0.00007
# Poissons Ratio (z) = 0.45184 -0.00001
#
# Static dielectric constant tensor:
#      x y z
#    x 3.037550 0.000000 0.214300 
#    y 0.000000 2.918000 0.000000 
#    z 0.214300 0.000000 3.578800 
# 
# 
# High freq. dielectric constant tensor:
#      x y z
#    x 1.685290 0.000000 0.002080 
#    y 0.000000 1.645950 0.000000 
#    z 0.002080 0.000000 1.692460 
# 
# From -- ./inp_files/244860.got.cif
#   From: 2010.06.25/outbox.cif.g09.slc.cpg/sg12_123_cif.got.tgz:244860.got - 2010.06.28 00:19:55.
