data_PCOD8089847
_publ_section_title
;
Structure prediction by ZEFSAII (Michael W. Deem and Ramdas Pophale) SiO2 
 PCOD8089847
Probable space group: C 2/M
;
_chemical_formula_sum "Si O2"
_cell_formula_units_Z 64
_cell_length_a 28.384228
_cell_length_b 8.690547
_cell_length_c 24.016105
_cell_angle_alpha 90.000000
_cell_angle_beta 146.664756
_cell_angle_gamma 90.000000
_cell_volume 3255.544113
_symmetry_space_group_name_H-M "C 2/M"
_symmetry_group_IT_number 12
_symmetry_cell_setting 'monoclinic'
loop_
_space_group_symop_operation_xyz
x,y,z
-x,y,-z
-x,-y,-z
x,-y,z
1/2+x,1/2+y,z
1/2-x,1/2+y,-z
1/2-x,1/2-y,-z
1/2+x,1/2-y,z
loop_
_atom_site_type_symbol
_atom_site_label
_atom_site_fract_x
_atom_site_fract_y
_atom_site_fract_z
Si Si1 0.247473 0.817167 0.184597
Si Si2 0.260834 0.183408 0.324128
Si Si3 0.906514 0.682453 0.268140
Si Si4 0.155910 0.182242 0.905823
Si Si5 0.415692 0.317688 0.545355
Si Si6 0.598410 0.682653 0.232616
Si Si7 0.656695 0.681523 0.408989
Si Si8 0.910792 0.817298 0.041214
O O1 0.254186 0.758643 0.254249
O O2 0.328663 0.757216 0.229658
O O3 0.244989 0.000000 0.180622
O O4 0.160214 0.749084 0.071161
O O5 0.344471 0.259788 0.432450
O O6 0.176256 0.246992 0.272196
O O7 0.268742 0.000000 0.336558
O O8 0.905921 0.500000 0.263326
O O9 0.898489 0.753430 0.199036
O O10 0.994373 0.740702 0.382751
O O11 0.108776 0.235783 0.915374
O O12 0.161160 0.000000 0.906404
O O13 0.250000 0.250000 0.000000
O O14 0.423702 0.500000 0.549369
O O15 0.392883 0.261271 0.585194
O O16 0.601042 0.500000 0.232729
O O17 0.607171 0.738743 0.305074
O O18 0.506182 0.742203 0.118843
O O19 0.665590 0.500000 0.418463
O O20 0.750000 0.750000 0.500000
O O21 0.907662 0.000000 0.035038
#
# Coordination Sequence:
#
# PCOD8089847 Si02
#       8
#     8   8   8   8   8   8   8   8
#     4   9  19  35  55  81 111 146 188 234 282 324
#     4  10  20  36  58  82 109 144 191 237 275 331
#     4  11  22  38  58  83 114 149 189 232 283 337
#     4  11  20  34  58  85 117 151 186 227 279 337
#     4  11  23  38  57  83 114 148 184 230 288 339
#     4   9  17  30  53  83 111 139 176 223 277 328
#     4  10  19  33  54  81 111 143 178 221 278 337
#     4   9  17  32  54  82 116 145 175 225 278 329
#
# _framework density 19.658771999999999
#
# number of rings (size 3 to 8) (size 9 to 14) (size 15 to 20)
#    0.000    2.000    2.500    1.875    0.000    3.500 
#    0.000    6.250    0.000    0.750    0.000    0.875 
#    0.000    0.000    0.000    0.000    0.000    0.000 
#
# Total GULP energy -396784.741797 kJ/mol
# GULP energy per Si atom -12399.523181 kJ/mol
# Density = 1.961403 g / cm^3
# Si number density = 19.658772 Si / 1000 Ang^3
#
#
#
# Elastic Constant Matrix: (Units=GPa)
#
#
# Indices 1 2 3 4 5 6 
#
# 1 97.7193 14.3290 91.9480 0.0000 -10.2559 0.0000
# 2 14.3290 31.8949 22.2117 0.0000 -2.7292 0.0000
# 3 91.9480 22.2117 182.8545 0.0000 9.7965 0.0000
# 4 0.0000 0.0000 0.0000 27.5031 0.0000 -0.3984
# 5 -10.2559 -2.7292 9.7965 0.0000 41.5730 0.0000
# 6 0.0000 0.0000 0.0000 -0.3984 0.0000 19.7970
#
#
#
# Elastic Compliance Matrix: (Units=1/GPa)
#
#
# Indices 1 2 3 4 5 6 
#
# 1 0.021850 -0.001297 -0.011256 0.000000 0.007958 0.000000
# 2 -0.001297 0.034772 -0.003724 0.000000 0.002840 0.000000
# 3 -0.011256 -0.003724 0.011893 0.000000 -0.005824 0.000000
# 4 0.000000 0.000000 0.000000 0.036370 0.000000 0.000732
# 5 0.007958 0.002840 -0.005824 0.000000 0.027576 0.000000
# 6 0.000000 0.000000 0.000000 0.000732 0.000000 0.050527
#
#
# Mechanical properties :
#
#
# Convention : Reuss Voigt Hill
#
# Bulk Modulus (GPa) = 27.80718 63.27179 45.53949
# Shear Modulus (GPa) = 21.97518 30.03995 26.00757
#
# Velocity S-wave (km/s) = 3.34703 3.91329 3.64118
# Velocity P-wave (km/s) = 5.39559 7.25764 6.39475
#
# Compressibility (1/GPa) = 0.03596193
#
# Stress axis : x y z
#
# Youngs Moduli (GPa) = 45.76669 28.75884 84.08097
#
# Poissons Ratio (x) = 0.03729 0.94642
# Poissons Ratio (y) = 0.05934 0.31312
# Poissons Ratio (z) = 0.51515 0.10710
#
# Static dielectric constant tensor:
#      x y z
#    x 3.869130 0.000000 0.023440 
#    y 0.000000 3.195770 0.000000 
#    z 0.023440 0.000000 3.854400 
# 
# 
# High freq. dielectric constant tensor:
#      x y z
#    x 1.770010 0.000000 0.007870 
#    y 0.000000 1.725450 0.000000 
#    z 0.007870 0.000000 1.783130 
# 
# From -- ./inp_files/353479.got.cif
#   From: 2010.06.25/outbox.cif.g09.slc.cpg/sg12_177_cif.got.tgz:353479.got - 2010.06.28 00:19:55.
