data_PCOD8089950
_publ_section_title
;
Structure prediction by ZEFSAII (Michael W. Deem and Ramdas Pophale) SiO2 
 PCOD8089950
Probable space group: C 2/M
;
_chemical_formula_sum "Si O2"
_cell_formula_units_Z 56
_cell_length_a 18.529687
_cell_length_b 9.194887
_cell_length_c 29.381554
_cell_angle_alpha 90.000000
_cell_angle_beta 37.607242
_cell_angle_gamma 90.000000
_cell_volume 3054.876702
_symmetry_space_group_name_H-M "C 2/M"
_symmetry_group_IT_number 12
_symmetry_cell_setting 'monoclinic'
loop_
_space_group_symop_operation_xyz
x,y,z
-x,y,-z
-x,-y,-z
x,-y,z
1/2+x,1/2+y,z
1/2-x,1/2+y,-z
1/2-x,1/2-y,-z
1/2+x,1/2-y,z
loop_
_atom_site_type_symbol
_atom_site_label
_atom_site_fract_x
_atom_site_fract_y
_atom_site_fract_z
Si Si1 0.494886 0.672130 0.139778
Si Si2 0.333263 0.330544 0.867227
Si Si3 0.586846 0.672393 0.996896
Si Si4 0.586475 0.330594 0.273123
Si Si5 0.773069 0.673072 0.721680
Si Si6 0.131392 0.837181 0.562857
Si Si7 0.546744 0.666060 0.428828
O O1 0.499175 0.500000 0.137642
O O2 0.584308 0.731785 0.133560
O O3 0.362299 0.723784 0.216937
O O4 0.534607 0.731016 0.070627
O O5 0.304379 0.500000 0.888722
O O6 0.213045 0.242662 0.925694
O O7 0.402360 0.303448 0.785823
O O8 0.602446 0.500000 0.989238
O O9 0.500000 0.722853 0.000000
O O10 0.604524 0.500000 0.277605
O O11 0.682791 0.237360 0.252393
O O12 0.454876 0.279955 0.353789
O O13 0.786304 0.500000 0.716516
O O14 0.845416 0.735794 0.642824
O O15 0.250000 0.750000 0.500000
O O16 0.063352 0.823995 0.549639
O O17 0.170083 0.000000 0.554449
O O18 0.500000 0.728181 0.500000
O O19 0.591758 0.500000 0.411222
#
# Coordination Sequence:
#
# PCOD8089950 Si02
#       7
#     8   8   8   8   8   8   8
#     4   9  19  34  51  75 106 135 164 207 261 303
#     4  10  20  35  54  75 101 133 170 210 250 299
#     4  10  20  35  54  75 103 137 169 206 255 304
#     4   9  19  35  52  71 100 136 168 204 255 306
#     4  10  19  33  55  78 100 131 172 212 249 298
#     4   9  18  32  50  72  98 130 166 205 251 300
#     4   9  19  36  54  73 103 139 170 206 255 303
#
# _framework density 18.331344999999999
#
# number of rings (size 3 to 8) (size 9 to 14) (size 15 to 20)
#    0.000    2.571    0.000    2.571    0.000    5.714 
#    0.000    4.286    0.000    0.000    0.000    0.000 
#    0.000    0.000    0.000    0.000    0.000    0.000 
#
# Total GULP energy -347200.267381 kJ/mol
# GULP energy per Si atom -12400.009549 kJ/mol
# Density = 1.828962 g / cm^3
# Si number density = 18.331345 Si / 1000 Ang^3
#
#
#
# Elastic Constant Matrix: (Units=GPa)
#
#
# Indices 1 2 3 4 5 6 
#
# 1 133.1224 39.8205 89.5140 0.0000 -0.2894 0.0027
# 2 39.8205 48.7220 41.5545 0.0000 -7.4021 0.0040
# 3 89.5140 41.5545 142.3977 -0.0001 -1.4309 0.0008
# 4 0.0000 0.0000 -0.0001 30.4103 -0.0002 -3.9649
# 5 -0.2894 -7.4021 -1.4309 -0.0002 42.1246 0.0003
# 6 0.0027 0.0040 0.0008 -3.9649 0.0003 20.0015
#
#
#
# Elastic Compliance Matrix: (Units=1/GPa)
#
#
# Indices 1 2 3 4 5 6 
#
# 1 0.013992 -0.005449 -0.007217 0.000000 -0.001106 -0.000001
# 2 -0.005449 0.030341 -0.005378 -0.000001 0.005111 -0.000005
# 3 -0.007217 -0.005378 0.013123 0.000000 -0.000549 0.000002
# 4 0.000000 -0.000001 0.000000 0.033756 0.000000 0.006691
# 5 -0.001106 0.005111 -0.000549 0.000000 0.024611 -0.000001
# 6 -0.000001 -0.000005 0.000002 0.006691 -0.000001 0.051323
#
#
# Mechanical properties :
#
#
# Convention : Reuss Voigt Hill
#
# Bulk Modulus (GPa) = 46.79498 74.00224 60.39861
# Shear Modulus (GPa) = 23.76939 28.73082 26.25010
#
# Velocity S-wave (km/s) = 3.60481 3.96322 3.78826
# Velocity P-wave (km/s) = 6.55049 7.83579 7.22179
#
# Compressibility (1/GPa) = 0.02136981
#
# Stress axis : x y z
#
# Youngs Moduli (GPa) = 71.46942 32.95894 76.20253
#
# Poissons Ratio (x) = 0.17958 0.54993
# Poissons Ratio (y) = 0.38941 0.40978
# Poissons Ratio (z) = 0.51578 0.17724
#
# Static dielectric constant tensor:
#      x y z
#    x 3.548020 0.000000 0.144390 
#    y 0.000000 3.223470 0.000000 
#    z 0.144390 0.000000 3.551910 
# 
# 
# High freq. dielectric constant tensor:
#      x y z
#    x 1.711450 0.000000 0.004790 
#    y 0.000000 1.691380 0.000000 
#    z 0.004790 0.000000 1.725700 
# 
# From -- ./inp_files/313757.got.cif
#   From: 2010.06.25/outbox.cif.g09.slc.cpg/sg12_157_cif.got.tgz:313757.got - 2010.06.28 00:19:55.
