data_PCOD8089810
_publ_section_title
;
Structure prediction by ZEFSAII (Michael W. Deem and Ramdas Pophale) SiO2 
 PCOD8089810
Probable space group: C 2/M
;
_chemical_formula_sum "Si O2"
_cell_formula_units_Z 64
_cell_length_a 20.464281
_cell_length_b 8.695799
_cell_length_c 22.360814
_cell_angle_alpha 90.000000
_cell_angle_beta 123.949375
_cell_angle_gamma 90.000000
_cell_volume 3300.854559
_symmetry_space_group_name_H-M "C 2/M"
_symmetry_group_IT_number 12
_symmetry_cell_setting 'monoclinic'
loop_
_space_group_symop_operation_xyz
x,y,z
-x,y,-z
-x,-y,-z
x,-y,z
1/2+x,1/2+y,z
1/2-x,1/2+y,-z
1/2-x,1/2-y,-z
1/2+x,1/2-y,z
loop_
_atom_site_type_symbol
_atom_site_label
_atom_site_fract_x
_atom_site_fract_y
_atom_site_fract_z
Si Si1 0.613281 0.682154 0.695149
Si Si2 0.251797 0.182287 0.681116
Si Si3 0.156282 0.182669 0.847196
Si Si4 0.559278 0.317414 0.910184
Si Si5 0.294888 0.819080 0.467014
Si Si6 0.676001 0.681888 0.071567
Si Si7 0.536076 0.679520 0.454075
Si Si8 0.381428 0.682433 0.827700
O O1 0.620359 0.500000 0.699026
O O2 0.680603 0.747870 0.685600
O O3 0.626336 0.749213 0.768266
O O4 0.527285 0.731264 0.628081
O O5 0.245263 0.252306 0.612438
O O6 0.334270 0.234478 0.751054
O O7 0.247919 0.000000 0.674042
O O8 0.097619 0.244024 0.868361
O O9 0.242767 0.242009 0.906605
O O10 0.158133 0.000000 0.846798
O O11 0.558689 0.500000 0.910824
O O12 0.470572 0.255710 0.869577
O O13 0.608867 0.256947 0.992232
O O14 0.250000 0.750000 0.500000
O O15 0.386662 0.778214 0.517430
O O16 0.284402 0.000000 0.461867
O O17 0.684662 0.500000 0.071672
O O18 0.653825 0.734435 0.126855
O O19 0.500000 0.716964 0.500000
O O20 0.557831 0.500000 0.460340
O O21 0.376637 0.500000 0.816620
#
# Coordination Sequence:
#
# PCOD8089810 Si02
#       8
#     8   8   8   8   8   8   8   8
#     4   9  18  33  57  84 113 151 193 236 291 353
#     4  11  21  39  62  86 118 154 192 238 294 352
#     4  10  19  34  55  80 108 147 194 238 286 347
#     4   9  19  34  53  78 113 152 193 238 292 352
#     4  12  26  43  63  92 125 158 196 241 293 350
#     4  10  19  33  54  80 111 150 192 241 292 344
#     4  10  19  37  63  89 118 158 198 239 294 353
#     4  10  20  35  56  83 112 150 197 242 289 346
#
# _framework density 19.388916999999999
#
# number of rings (size 3 to 8) (size 9 to 14) (size 15 to 20)
#    0.000    1.875    2.500    2.250    0.000    2.750 
#    0.000    4.375    0.000    1.500    0.000    0.000 
#    0.000    0.000    0.000    0.000    0.000    0.000 
#
# Total GULP energy -396889.974534 kJ/mol
# GULP energy per Si atom -12402.811704 kJ/mol
# Density = 1.934479 g / cm^3
# Si number density = 19.388917 Si / 1000 Ang^3
#
#
#
# Elastic Constant Matrix: (Units=GPa)
#
#
# Indices 1 2 3 4 5 6 
#
# 1 120.5069 32.4701 62.1974 0.0000 0.7081 0.0000
# 2 32.4701 49.7732 34.2350 0.0000 -1.0766 0.0000
# 3 62.1974 34.2350 159.5035 0.0000 3.9939 0.0000
# 4 0.0000 0.0000 0.0000 24.7820 0.0000 7.4252
# 5 0.7081 -1.0766 3.9939 0.0000 36.0587 0.0000
# 6 0.0000 0.0000 0.0000 7.4252 0.0000 26.5330
#
#
#
# Elastic Compliance Matrix: (Units=1/GPa)
#
#
# Indices 1 2 3 4 5 6 
#
# 1 0.011411 -0.005143 -0.003346 0.000000 -0.000007 0.000000
# 2 -0.005143 0.025947 -0.003596 0.000000 0.001274 0.000000
# 3 -0.003346 -0.003596 0.008370 0.000000 -0.000969 0.000000
# 4 0.000000 0.000000 0.000000 0.044045 0.000000 -0.012326
# 5 -0.000007 0.001274 -0.000969 0.000000 0.027878 0.000000
# 6 0.000000 0.000000 0.000000 -0.012326 0.000000 0.041138
#
#
# Mechanical properties :
#
#
# Convention : Reuss Voigt Hill
#
# Bulk Modulus (GPa) = 46.38315 65.28762 55.83539
# Shear Modulus (GPa) = 26.29593 30.86681 28.58137
#
# Velocity S-wave (km/s) = 3.68671 3.99429 3.84358
# Velocity P-wave (km/s) = 6.48821 7.41743 6.96832
#
# Compressibility (1/GPa) = 0.02155955
#
# Stress axis : x y z
#
# Youngs Moduli (GPa) = 87.63612 38.54036 119.47433
#
# Poissons Ratio (x) = 0.19821 0.39970
# Poissons Ratio (y) = 0.45071 0.42957
# Poissons Ratio (z) = 0.29319 0.13857
#
# Static dielectric constant tensor:
#      x y z
#    x 3.620470 0.000000 -0.080270 
#    y 0.000000 3.208730 0.000000 
#    z -0.080270 0.000000 3.789740 
# 
# 
# High freq. dielectric constant tensor:
#      x y z
#    x 1.761080 0.000000 0.001950 
#    y 0.000000 1.722760 0.000000 
#    z 0.001950 0.000000 1.773550 
# 
# From -- ./inp_files/320025.got.cif
#   From: 2010.06.25/outbox.cif.g09.slc.cpg/sg12_161_cif.got.tgz:320025.got - 2010.06.28 00:19:55.
