data_PCOD8089310
_publ_section_title
;
Structure prediction by ZEFSAII (Michael W. Deem and Ramdas Pophale) SiO2 
 PCOD8089310
Probable space group: C 2/M
;
_chemical_formula_sum "Si O2"
_cell_formula_units_Z 56
_cell_length_a 27.573943
_cell_length_b 9.069846
_cell_length_c 20.935633
_cell_angle_alpha 90.000000
_cell_angle_beta 147.568603
_cell_angle_gamma 90.000000
_cell_volume 2807.915849
_symmetry_space_group_name_H-M "C 2/M"
_symmetry_group_IT_number 12
_symmetry_cell_setting 'monoclinic'
loop_
_space_group_symop_operation_xyz
x,y,z
-x,y,-z
-x,-y,-z
x,-y,z
1/2+x,1/2+y,z
1/2-x,1/2+y,-z
1/2-x,1/2-y,-z
1/2+x,1/2-y,z
loop_
_atom_site_type_symbol
_atom_site_label
_atom_site_fract_x
_atom_site_fract_y
_atom_site_fract_z
Si Si1 0.576923 0.834942 0.132630
Si Si2 0.488169 0.330883 0.243422
Si Si3 0.757404 0.831317 0.197602
Si Si4 0.428967 0.837783 0.064673
Si Si5 0.676472 0.825239 0.464736
Si Si6 0.242247 0.671829 0.676031
Si Si7 0.314556 0.671883 0.122760
O O1 0.530129 0.839004 0.149606
O O2 0.654695 0.715919 0.220597
O O3 0.612787 0.000000 0.154121
O O4 0.500000 0.778874 0.000000
O O5 0.519737 0.500000 0.274185
O O6 0.424352 0.289050 0.112485
O O7 0.575149 0.226797 0.337892
O O8 0.421878 0.302859 0.229813
O O9 0.797564 0.748331 0.304359
O O10 0.796310 0.767434 0.174125
O O11 0.786330 0.000000 0.237664
O O12 0.647990 0.808833 0.074949
O O13 0.408257 0.000000 0.071788
O O14 0.750000 0.750000 0.500000
O O15 0.690859 0.779176 0.554616
O O16 0.684593 0.000000 0.463768
O O17 0.234697 0.500000 0.679006
O O18 0.290249 0.500000 0.091821
O O19 0.250000 0.750000 0.000000
#
# Coordination Sequence:
#
# PCOD8089310 Si02
#       7
#     8   8   8   8   8   8   8
#     4  10  19  33  52  79 113 151 192 230 285 362
#     4  11  23  38  60  91 122 156 202 252 302 357
#     4  10  20  37  59  85 119 159 198 238 295 362
#     4  10  19  33  56  84 117 157 197 239 293 358
#     4  11  25  45  66  89 119 160 206 252 302 362
#     4  11  24  39  57  85 118 153 198 252 305 353
#     4  10  21  37  60  91 125 160 202 249 300 359
#
# _framework density 19.943617
#
# number of rings (size 3 to 8) (size 9 to 14) (size 15 to 20)
#    0.000    1.571    2.857    2.143    0.000    7.143 
#    0.000    0.714    0.000    4.286    0.000    0.000 
#    0.000    0.000    0.000    0.000    0.000    0.000 
#
# Total GULP energy -347087.151500 kJ/mol
# GULP energy per Si atom -12395.969696 kJ/mol
# Density = 1.989822 g / cm^3
# Si number density = 19.943617 Si / 1000 Ang^3
#
#
#
# Elastic Constant Matrix: (Units=GPa)
#
#
# Indices 1 2 3 4 5 6 
#
# 1 117.6718 47.4980 37.1696 0.0000 -11.0035 0.0000
# 2 47.4980 67.5103 39.7790 0.0000 -16.2178 0.0000
# 3 37.1696 39.7790 75.9370 0.0000 -14.1461 0.0000
# 4 0.0000 0.0000 0.0000 29.8051 0.0000 -5.2542
# 5 -11.0035 -16.2178 -14.1461 0.0000 35.6066 0.0000
# 6 0.0000 0.0000 0.0000 -5.2542 0.0000 30.1896
#
#
#
# Elastic Compliance Matrix: (Units=1/GPa)
#
#
# Indices 1 2 3 4 5 6 
#
# 1 0.012106 -0.007358 -0.002158 0.000000 -0.000468 0.000000
# 2 -0.007358 0.027036 -0.009385 0.000000 0.006312 0.000000
# 3 -0.002158 -0.009385 0.019677 0.000000 0.002876 0.000000
# 4 0.000000 0.000000 0.000000 0.034613 0.000000 0.006024
# 5 -0.000468 0.006312 0.002876 0.000000 0.031957 0.000000
# 6 0.000000 0.000000 0.000000 0.006024 0.000000 0.034172
#
#
# Mechanical properties :
#
#
# Convention : Reuss Voigt Hill
#
# Bulk Modulus (GPa) = 47.58243 56.66804 52.12523
# Shear Modulus (GPa) = 24.46530 28.23176 26.34853
#
# Velocity S-wave (km/s) = 3.50626 3.76650 3.63871
# Velocity P-wave (km/s) = 6.34839 6.88412 6.62168
#
# Compressibility (1/GPa) = 0.02101616
#
# Stress axis : x y z
#
# Youngs Moduli (GPa) = 82.60090 36.98820 50.81997
#
# Poissons Ratio (x) = 0.27217 0.10969
# Poissons Ratio (y) = 0.60780 0.47694
# Poissons Ratio (z) = 0.17829 0.34713
#
# Static dielectric constant tensor:
#      x y z
#    x 3.927430 0.000000 -0.115030 
#    y 0.000000 3.514570 0.000000 
#    z -0.115030 0.000000 3.502240 
# 
# 
# High freq. dielectric constant tensor:
#      x y z
#    x 1.792420 0.000000 -0.008650 
#    y 0.000000 1.769240 0.000000 
#    z -0.008650 0.000000 1.758770 
# 
# From -- ./inp_files/329708.got.cif
#   From: 2010.06.25/outbox.cif.g09.slc.cpg/sg12_165_cif.got.tgz:329708.got - 2010.06.28 00:19:55.
