data_PCOD8089761
_publ_section_title
;
Structure prediction by ZEFSAII (Michael W. Deem and Ramdas Pophale) SiO2 
 PCOD8089761
Probable space group: C 2/M
;
_chemical_formula_sum "Si O2"
_cell_formula_units_Z 56
_cell_length_a 19.073714
_cell_length_b 8.613878
_cell_length_c 20.025392
_cell_angle_alpha 90.000000
_cell_angle_beta 122.404468
_cell_angle_gamma 90.000000
_cell_volume 2777.823631
_symmetry_space_group_name_H-M "C 2/M"
_symmetry_group_IT_number 12
_symmetry_cell_setting 'monoclinic'
loop_
_space_group_symop_operation_xyz
x,y,z
-x,y,-z
-x,-y,-z
x,-y,z
1/2+x,1/2+y,z
1/2-x,1/2+y,-z
1/2-x,1/2-y,-z
1/2+x,1/2-y,z
loop_
_atom_site_type_symbol
_atom_site_label
_atom_site_fract_x
_atom_site_fract_y
_atom_site_fract_z
Si Si1 0.518403 0.817958 0.678857
Si Si2 0.663478 0.316322 0.257680
Si Si3 0.182652 0.183233 0.916016
Si Si4 0.701854 0.182373 0.780854
Si Si5 0.252867 0.681399 0.427068
Si Si6 0.077647 0.317793 0.494015
Si Si7 0.492264 0.815190 0.178310
O O1 0.612075 0.780160 0.702164
O O2 0.448746 0.755231 0.592736
O O3 0.503340 0.748703 0.744012
O O4 0.506977 0.000000 0.676377
O O5 0.664181 0.500000 0.263066
O O6 0.729428 0.257598 0.236157
O O7 0.683641 0.248404 0.341442
O O8 0.574214 0.255331 0.185430
O O9 0.209064 0.230567 0.854862
O O10 0.093884 0.251655 0.895310
O O11 0.178878 0.000000 0.919771
O O12 0.250000 0.250000 0.000000
O O13 0.711379 0.000000 0.800484
O O14 0.237389 0.500000 0.424235
O O15 0.250000 0.750000 0.500000
O O16 0.342492 0.722362 0.441327
O O17 0.099654 0.500000 0.507032
O O18 0.000000 0.279129 0.500000
O O19 0.492583 0.000000 0.172943
#
# Coordination Sequence:
#
# PCOD8089761 Si02
#       7
#     8   8   8   8   8   8   8
#     4   8  15  30  52  75 102 142 187 229 276 333
#     4  11  22  38  60  86 117 152 193 239 289 346
#     4  11  22  39  64  92 121 152 190 233 279 336
#     4   9  19  37  60  86 117 152 189 234 290 347
#     4  12  25  39  55  78 113 155 200 248 296 345
#     4  10  19  33  54  79 108 144 188 238 293 347
#     4  10  20  36  58  84 116 152 189 230 281 340
#
# _framework density 20.159666999999999
#
# number of rings (size 3 to 8) (size 9 to 14) (size 15 to 20)
#    0.000    1.857    0.000    6.000    0.000    4.857 
#    0.000    3.571    0.000    4.286    0.000    0.000 
#    0.000    0.000    0.000    0.000    0.000    0.000 
#
# Total GULP energy -347130.153325 kJ/mol
# GULP energy per Si atom -12397.505476 kJ/mol
# Density = 2.011378 g / cm^3
# Si number density = 20.159667 Si / 1000 Ang^3
#
#
#
# Elastic Constant Matrix: (Units=GPa)
#
#
# Indices 1 2 3 4 5 6 
#
# 1 113.5085 34.9015 16.5589 0.0000 18.8718 0.0000
# 2 34.9015 94.3703 19.7933 0.0000 4.0553 0.0000
# 3 16.5589 19.7933 60.4362 0.0000 19.7569 0.0000
# 4 0.0000 0.0000 0.0000 29.3053 0.0000 4.7800
# 5 18.8718 4.0553 19.7569 0.0000 31.7940 0.0000
# 6 0.0000 0.0000 0.0000 4.7800 0.0000 32.4431
#
#
#
# Elastic Compliance Matrix: (Units=1/GPa)
#
#
# Indices 1 2 3 4 5 6 
#
# 1 0.010986 -0.003855 0.000281 0.000000 -0.006203 0.000000
# 2 -0.003855 0.012761 -0.004190 0.000000 0.003264 0.000000
# 3 0.000281 -0.004190 0.022239 0.000000 -0.013452 0.000000
# 4 0.000000 0.000000 0.000000 0.034964 0.000000 -0.005151
# 5 -0.006203 0.003264 -0.013452 0.000000 0.043077 0.000000
# 6 0.000000 0.000000 0.000000 -0.005151 0.000000 0.031582
#
#
# Mechanical properties :
#
#
# Convention : Reuss Voigt Hill
#
# Bulk Modulus (GPa) = 32.83407 45.64694 39.24050
# Shear Modulus (GPa) = 27.58005 31.84591 29.71298
#
# Velocity S-wave (km/s) = 3.70277 3.97884 3.84328
# Velocity P-wave (km/s) = 5.88244 6.61816 6.26111
#
# Compressibility (1/GPa) = 0.03045617
#
# Stress axis : x y z
#
# Youngs Moduli (GPa) = 91.02704 78.36430 44.96568
#
# Poissons Ratio (x) = 0.30211 -0.01261
# Poissons Ratio (y) = 0.35093 0.18841
# Poissons Ratio (z) = -0.02553 0.32836
#
# Static dielectric constant tensor:
#      x y z
#    x 3.935720 0.000000 0.107860 
#    y 0.000000 3.482670 0.000000 
#    z 0.107860 0.000000 3.843740 
# 
# 
# High freq. dielectric constant tensor:
#      x y z
#    x 1.801850 0.000000 0.013230 
#    y 0.000000 1.772190 0.000000 
#    z 0.013230 0.000000 1.774280 
# 
# From -- ./inp_files/281746.got.cif
#   From: 2010.06.25/outbox.cif.g09.slc.cpg/sg12_141_cif.got.tgz:281746.got - 2010.06.28 00:19:55.
