data_PCOD8089398
_publ_section_title
;
Structure prediction by ZEFSAII (Michael W. Deem and Ramdas Pophale) SiO2 
 PCOD8089398
Probable space group: C 2/M
;
_chemical_formula_sum "Si O2"
_cell_formula_units_Z 56
_cell_length_a 18.987917
_cell_length_b 8.852102
_cell_length_c 31.196371
_cell_angle_alpha 90.000000
_cell_angle_beta 146.608363
_cell_angle_gamma 90.000000
_cell_volume 2885.850225
_symmetry_space_group_name_H-M "C 2/M"
_symmetry_group_IT_number 12
_symmetry_cell_setting 'monoclinic'
loop_
_space_group_symop_operation_xyz
x,y,z
-x,y,-z
-x,-y,-z
x,-y,z
1/2+x,1/2+y,z
1/2-x,1/2+y,-z
1/2-x,1/2-y,-z
1/2+x,1/2-y,z
loop_
_atom_site_type_symbol
_atom_site_label
_atom_site_fract_x
_atom_site_fract_y
_atom_site_fract_z
Si Si1 0.365407 0.667480 0.908050
Si Si2 0.483428 0.327311 0.806099
Si Si3 0.310275 0.820137 0.487503
Si Si4 0.294712 0.820861 0.652062
Si Si5 0.228379 0.327793 0.062698
Si Si6 0.450638 0.667666 0.426763
Si Si7 0.974268 0.676101 0.887036
O O1 0.325070 0.500000 0.872452
O O2 0.262925 0.730814 0.889471
O O3 0.371626 0.779804 0.871038
O O4 0.500000 0.664480 0.000000
O O5 0.443122 0.500000 0.778911
O O6 0.432339 0.233202 0.739298
O O7 0.635014 0.308215 0.889573
O O8 0.426210 0.263784 0.820893
O O9 0.250000 0.750000 0.500000
O O10 0.232251 0.760221 0.406802
O O11 0.460559 0.774075 0.557959
O O12 0.300849 0.000000 0.485421
O O13 0.194901 0.773673 0.639715
O O14 0.291155 0.000000 0.642148
O O15 0.197783 0.500000 0.059960
O O16 0.117109 0.271280 0.973964
O O17 0.500000 0.658831 0.500000
O O18 0.452998 0.500000 0.407218
O O19 0.968932 0.500000 0.874466
#
# Coordination Sequence:
#
# PCOD8089398 Si02
#       7
#     8   8   8   8   8   8   8
#     4   9  17  30  50  74  98 126 166 218 268 315
#     4  11  22  35  52  77 109 141 178 225 271 316
#     4  11  21  35  59  88 115 142 175 215 258 308
#     4  10  21  38  57  79 110 145 179 216 264 318
#     4   9  19  34  52  75 104 140 180 224 274 324
#     4   8  16  33  56  80 107 138 171 208 251 304
#     4  10  19  33  53  75 102 139 182 224 270 325
#
# _framework density 19.405025999999999
#
# number of rings (size 3 to 8) (size 9 to 14) (size 15 to 20)
#    0.000    2.286    0.000    4.286    0.000    6.571 
#    0.000    1.429    0.000    8.571    0.000    0.000 
#    0.000    0.000    0.000    0.000    0.000    0.000 
#
# Total GULP energy -347057.921461 kJ/mol
# GULP energy per Si atom -12394.925766 kJ/mol
# Density = 1.936086 g / cm^3
# Si number density = 19.405026 Si / 1000 Ang^3
#
#
#
# Elastic Constant Matrix: (Units=GPa)
#
#
# Indices 1 2 3 4 5 6 
#
# 1 97.4000 53.3953 25.3953 0.0000 -20.3449 -0.0001
# 2 53.3953 106.6152 33.6092 -0.0001 -8.6744 -0.0002
# 3 25.3953 33.6092 63.7625 -0.0001 -12.7106 0.0000
# 4 0.0000 -0.0001 -0.0001 27.5785 0.0001 -4.2091
# 5 -20.3449 -8.6744 -12.7106 0.0001 18.6773 -0.0001
# 6 -0.0001 -0.0002 0.0000 -4.2091 -0.0001 34.6980
#
#
#
# Elastic Compliance Matrix: (Units=1/GPa)
#
#
# Indices 1 2 3 4 5 6 
#
# 1 0.017727 -0.007626 0.000119 0.000000 0.015849 0.000000
# 2 -0.007626 0.014560 -0.005721 0.000000 -0.005438 0.000000
# 3 0.000119 -0.005721 0.020996 0.000000 0.011761 0.000000
# 4 0.000000 0.000000 0.000000 0.036944 0.000000 0.004482
# 5 0.015849 -0.005438 0.011761 0.000000 0.076282 0.000000
# 6 0.000000 0.000000 0.000000 0.004482 0.000000 0.029364
#
#
# Mechanical properties :
#
#
# Convention : Reuss Voigt Hill
#
# Bulk Modulus (GPa) = 37.27770 54.73081 46.00425
# Shear Modulus (GPa) = 21.61950 26.54931 24.08441
#
# Velocity S-wave (km/s) = 3.34146 3.70289 3.52681
# Velocity P-wave (km/s) = 5.84288 6.82257 6.35164
#
# Compressibility (1/GPa) = 0.02682569
#
# Stress axis : x y z
#
# Youngs Moduli (GPa) = 56.41060 68.68159 47.62803
#
# Poissons Ratio (x) = 0.52377 -0.00565
# Poissons Ratio (y) = 0.43019 0.27250
# Poissons Ratio (z) = -0.00669 0.39295
#
# Static dielectric constant tensor:
#      x y z
#    x 3.660330 0.000000 0.182500 
#    y 0.000000 3.616070 0.000000 
#    z 0.182500 0.000000 3.421460 
# 
# 
# High freq. dielectric constant tensor:
#      x y z
#    x 1.751760 0.000000 -0.002370 
#    y 0.000000 1.762150 0.000000 
#    z -0.002370 0.000000 1.726030 
# 
# From -- ./inp_files/320210.got.cif
#   From: 2010.06.25/outbox.cif.g09.slc.cpg/sg12_161_cif.got.tgz:320210.got - 2010.06.28 00:19:55.
