data_PCOD8089733
_publ_section_title
;
Structure prediction by ZEFSAII (Michael W. Deem and Ramdas Pophale) SiO2 
 PCOD8089733
Probable space group: C 2/M
;
_chemical_formula_sum "Si O2"
_cell_formula_units_Z 64
_cell_length_a 27.442949
_cell_length_b 9.133728
_cell_length_c 19.597004
_cell_angle_alpha 90.000000
_cell_angle_beta 131.829717
_cell_angle_gamma 90.000000
_cell_volume 3660.165283
_symmetry_space_group_name_H-M "C 2/M"
_symmetry_group_IT_number 12
_symmetry_cell_setting 'monoclinic'
loop_
_space_group_symop_operation_xyz
x,y,z
-x,y,-z
-x,-y,-z
x,-y,z
1/2+x,1/2+y,z
1/2-x,1/2+y,-z
1/2-x,1/2-y,-z
1/2+x,1/2-y,z
loop_
_atom_site_type_symbol
_atom_site_label
_atom_site_fract_x
_atom_site_fract_y
_atom_site_fract_z
Si Si1 0.795127 0.673961 0.598341
Si Si2 0.954927 0.163675 0.380428
Si Si3 0.672057 0.832525 0.736055
Si Si4 0.422255 0.837236 0.520438
Si Si5 0.722940 0.168929 0.643619
Si Si6 0.438410 0.335062 0.203295
Si Si7 0.808556 0.674071 0.093605
Si Si8 0.060862 0.662676 0.304140
O O1 0.787618 0.500000 0.584324
O O2 0.750000 0.750000 0.500000
O O3 0.775255 0.727990 0.655291
O O4 0.869809 0.724097 0.657326
O O5 0.893370 0.253086 0.352573
O O6 0.949436 0.165658 0.294015
O O7 0.025153 0.232451 0.468562
O O8 0.951750 0.000000 0.406229
O O9 0.728252 0.812002 0.730932
O O10 0.697905 0.776033 0.833051
O O11 0.651237 0.000000 0.724856
O O12 0.348882 0.776753 0.445996
O O13 0.440604 0.844889 0.616223
O O14 0.425788 0.000000 0.491162
O O15 0.734337 0.000000 0.632671
O O16 0.426872 0.500000 0.165664
O O17 0.376329 0.234660 0.126249
O O18 0.502263 0.268800 0.224957
O O19 0.805356 0.500000 0.081107
O O20 0.750000 0.750000 0.000000
O O21 0.048866 0.500000 0.263005
#
# Coordination Sequence:
#
# PCOD8089733 Si02
#       8
#     8   8   8   8   8   8   8   8
#     4  11  21  33  49  70  96 130 174 218 256 290
#     4   9  17  28  43  64  92 123 161 202 239 279
#     4   9  19  34  50  67  94 129 162 195 241 297
#     4   9  16  28  44  61  87 125 166 202 240 282
#     4  10  20  34  48  66  92 127 170 210 246 290
#     4   9  17  29  47  73  99 126 159 199 242 289
#     4  10  19  33  54  79 103 130 158 193 240 297
#     4   9  17  30  46  66  94 129 166 206 246 286
#
# _framework density 17.48555
#
# number of rings (size 3 to 8) (size 9 to 14) (size 15 to 20)
#    0.000    2.500    1.250    1.500    0.000    6.000 
#    0.000    2.500    0.000    0.000    0.000    0.875 
#    0.000    7.000    0.000    0.000    0.000    0.000 
#
# Total GULP energy -396748.025271 kJ/mol
# GULP energy per Si atom -12398.375790 kJ/mol
# Density = 1.744575 g / cm^3
# Si number density = 17.485550 Si / 1000 Ang^3
#
#
#
# Elastic Constant Matrix: (Units=GPa)
#
#
# Indices 1 2 3 4 5 6 
#
# 1 109.4879 50.0310 30.5440 0.0000 18.0090 0.0000
# 2 50.0310 87.1802 28.9984 0.0000 14.5973 0.0000
# 3 30.5440 28.9984 72.5832 0.0000 16.1647 0.0000
# 4 0.0000 0.0000 0.0000 22.2219 0.0000 6.7454
# 5 18.0090 14.5973 16.1647 0.0000 21.7226 0.0000
# 6 0.0000 0.0000 0.0000 6.7454 0.0000 31.1644
#
#
#
# Elastic Compliance Matrix: (Units=1/GPa)
#
#
# Indices 1 2 3 4 5 6 
#
# 1 0.013377 -0.006098 -0.001961 0.000000 -0.005533 0.000000
# 2 -0.006098 0.016681 -0.003269 0.000000 -0.003721 0.000000
# 3 -0.001961 -0.003269 0.018048 0.000000 -0.009608 0.000000
# 4 0.000000 0.000000 0.000000 0.048165 0.000000 -0.010425
# 5 -0.005533 -0.003721 -0.009608 0.000000 0.060272 0.000000
# 6 0.000000 0.000000 0.000000 -0.010425 0.000000 0.034344
#
#
# Mechanical properties :
#
#
# Convention : Reuss Voigt Hill
#
# Bulk Modulus (GPa) = 39.29347 54.26645 46.77996
# Shear Modulus (GPa) = 22.51973 25.66698 24.09336
#
# Velocity S-wave (km/s) = 3.59263 3.83547 3.71604
# Velocity P-wave (km/s) = 6.30318 7.12158 6.72484
#
# Compressibility (1/GPa) = 0.02544952
#
# Stress axis : x y z
#
# Youngs Moduli (GPa) = 74.75435 59.94986 55.40684
#
# Poissons Ratio (x) = 0.36559 0.10863
# Poissons Ratio (y) = 0.45587 0.18115
# Poissons Ratio (z) = 0.14656 0.19600
#
# Static dielectric constant tensor:
#      x y z
#    x 3.326150 0.000000 0.064450 
#    y 0.000000 3.436190 0.000000 
#    z 0.064450 0.000000 2.989610 
# 
# 
# High freq. dielectric constant tensor:
#      x y z
#    x 1.669460 0.000000 0.007760 
#    y 0.000000 1.681470 0.000000 
#    z 0.007760 0.000000 1.637610 
# 
# From -- ./inp_files/326899.got.cif
#   From: 2010.06.25/outbox.cif.g09.slc.cpg/sg12_164_cif.got.tgz:326899.got - 2010.06.28 00:19:55.
