data_PCOD8089982
_publ_section_title
;
Structure prediction by ZEFSAII (Michael W. Deem and Ramdas Pophale) SiO2 
 PCOD8089982
Probable space group: C 2/M
;
_chemical_formula_sum "Si O2"
_cell_formula_units_Z 48
_cell_length_a 17.862797
_cell_length_b 8.970885
_cell_length_c 15.420750
_cell_angle_alpha 90.000000
_cell_angle_beta 87.663759
_cell_angle_gamma 90.000000
_cell_volume 2469.045639
_symmetry_space_group_name_H-M "C 2/M"
_symmetry_group_IT_number 12
_symmetry_cell_setting 'monoclinic'
loop_
_space_group_symop_operation_xyz
x,y,z
-x,y,-z
-x,-y,-z
x,-y,z
1/2+x,1/2+y,z
1/2-x,1/2+y,-z
1/2-x,1/2-y,-z
1/2+x,1/2-y,z
loop_
_atom_site_type_symbol
_atom_site_label
_atom_site_fract_x
_atom_site_fract_y
_atom_site_fract_z
Si Si1 0.586984 0.672621 0.479050
Si Si2 0.401013 0.325045 0.838286
Si Si3 0.665121 0.323567 0.647908
Si Si4 0.832731 0.323591 0.678545
Si Si5 0.574637 0.324983 0.817239
Si Si6 0.588824 0.832128 0.988931
O O1 0.500000 0.694902 0.500000
O O2 0.606324 0.500000 0.460724
O O3 0.632697 0.738036 0.558886
O O4 0.607516 0.766271 0.393629
O O5 0.386276 0.500000 0.838348
O O6 0.348527 0.247331 0.770689
O O7 0.487095 0.286712 0.812401
O O8 0.377129 0.261128 0.932963
O O9 0.657542 0.500000 0.648007
O O10 0.750419 0.270723 0.652933
O O11 0.615731 0.261808 0.729958
O O12 0.838304 0.500000 0.686447
O O13 0.587193 0.500000 0.829616
O O14 0.612416 0.244095 0.897635
O O15 0.620453 0.000000 0.990340
O O16 0.500000 0.830400 0.000000
#
# Coordination Sequence:
#
# PCOD8089982 Si02
#       6
#     8   8   8   8   8   8
#     4  10  20  37  60  81 102 134 177 218 255 305
#     4  10  19  33  55  79 103 138 182 220 255 305
#     4   9  19  35  54  77 106 139 173 212 260 311
#     4  11  22  35  52  77 110 141 169 211 266 315
#     4   9  17  33  56  78 101 135 180 221 256 304
#     4   9  17  30  50  79 111 137 167 216 271 312
#
# _framework density 19.440708999999998
#
# number of rings (size 3 to 8) (size 9 to 14) (size 15 to 20)
#    0.000    2.333    0.000    3.000    0.000    5.667 
#    0.000    4.167    0.000    0.000    0.000    0.000 
#    0.000    0.000    0.000    0.000    0.000    0.000 
#
# Total GULP energy -297666.676571 kJ/mol
# GULP energy per Si atom -12402.778190 kJ/mol
# Density = 1.939646 g / cm^3
# Si number density = 19.440709 Si / 1000 Ang^3
#
#
#
# Elastic Constant Matrix: (Units=GPa)
#
#
# Indices 1 2 3 4 5 6 
#
# 1 59.2474 30.9563 29.6650 0.0000 21.1669 0.0000
# 2 30.9563 73.1145 36.6724 0.0000 16.3131 0.0000
# 3 29.6650 36.6724 121.4985 0.0000 30.3231 0.0000
# 4 0.0000 0.0000 0.0000 31.3051 0.0000 9.5104
# 5 21.1669 16.3131 30.3231 0.0000 29.8839 0.0000
# 6 0.0000 0.0000 0.0000 9.5104 0.0000 14.3276
#
#
#
# Elastic Compliance Matrix: (Units=1/GPa)
#
#
# Indices 1 2 3 4 5 6 
#
# 1 0.026083 -0.007677 -0.000651 0.000000 -0.013623 0.000000
# 2 -0.007677 0.018997 -0.003520 0.000000 -0.001361 0.000000
# 3 -0.000651 -0.003520 0.011861 0.000000 -0.009653 0.000000
# 4 0.000000 0.000000 0.000000 0.040012 0.000000 -0.026559
# 5 -0.013623 -0.001361 -0.009653 0.000000 0.053649 0.000000
# 6 0.000000 0.000000 0.000000 -0.026559 0.000000 0.087425
#
#
# Mechanical properties :
#
#
# Convention : Reuss Voigt Hill
#
# Bulk Modulus (GPa) = 30.08047 49.82752 39.95399
# Shear Modulus (GPa) = 18.32815 25.54109 21.93462
#
# Velocity S-wave (km/s) = 3.07379 3.62856 3.36264
# Velocity P-wave (km/s) = 5.30133 6.57582 5.97267
#
# Compressibility (1/GPa) = 0.03324417
#
# Stress axis : x y z
#
# Youngs Moduli (GPa) = 38.33968 52.64073 84.30974
#
# Poissons Ratio (x) = 0.40413 0.05490
# Poissons Ratio (y) = 0.29434 0.29675
# Poissons Ratio (z) = 0.02496 0.18528
#
# Static dielectric constant tensor:
#      x y z
#    x 3.383990 0.000000 0.085600 
#    y 0.000000 3.413390 0.000000 
#    z 0.085600 0.000000 3.778390 
# 
# 
# High freq. dielectric constant tensor:
#      x y z
#    x 1.737860 0.000000 0.006190 
#    y 0.000000 1.742370 0.000000 
#    z 0.006190 0.000000 1.775590 
# 
# From -- ./inp_files/221534.got.cif
#   From: 2010.06.25/outbox.cif.g09.slc.cpg/sg12_111_cif.got.tgz:221534.got - 2010.06.28 00:19:55.
