data_PCOD8089929
_publ_section_title
;
Structure prediction by ZEFSAII (Michael W. Deem and Ramdas Pophale) SiO2 
 PCOD8089929
Probable space group: C 2/M
;
_chemical_formula_sum "Si O2"
_cell_formula_units_Z 48
_cell_length_a 7.852785
_cell_length_b 21.597790
_cell_length_c 16.642464
_cell_angle_alpha 90.000000
_cell_angle_beta 116.850568
_cell_angle_gamma 90.000000
_cell_volume 2518.296137
_symmetry_space_group_name_H-M "C 2/M"
_symmetry_group_IT_number 12
_symmetry_cell_setting 'monoclinic'
loop_
_space_group_symop_operation_xyz
x,y,z
-x,y,-z
-x,-y,-z
x,-y,z
1/2+x,1/2+y,z
1/2-x,1/2+y,-z
1/2-x,1/2-y,-z
1/2+x,1/2-y,z
loop_
_atom_site_type_symbol
_atom_site_label
_atom_site_fract_x
_atom_site_fract_y
_atom_site_fract_z
Si Si1 0.666259 0.679662 0.598402
Si Si2 0.240067 0.928320 0.719598
Si Si3 0.503027 0.248644 0.704566
Si Si4 0.642851 0.132506 0.826239
Si Si5 0.291041 0.179231 0.990536
Si Si6 0.988906 0.133963 0.797383
O O1 0.500000 0.690882 0.500000
O O2 0.681935 0.607458 0.624805
O O3 0.653459 0.717386 0.679464
O O4 0.864599 0.710660 0.612299
O O5 0.455350 0.910045 0.789183
O O6 0.088677 0.914272 0.758001
O O7 0.230876 0.000000 0.696662
O O8 0.596971 0.202122 0.787737
O O9 0.408466 0.305363 0.734133
O O10 0.728769 0.138059 0.933487
O O11 0.804423 0.103167 0.801699
O O12 0.500000 0.171204 0.000000
O O13 0.250000 0.250000 0.000000
O O14 0.141991 0.153559 0.895567
#
# Coordination Sequence:
#
# PCOD8089929 Si02
#       6
#     8   8   8   8   8   8
#     4  10  20  35  59  87 117 150 187 242 306 358
#     4  10  24  42  60  82 115 160 208 247 282 341
#     4  10  19  33  54  88 122 148 182 233 301 366
#     4  11  21  37  58  86 121 157 195 236 294 349
#     4  12  22  32  54  92 127 153 190 240 291 352
#     4  11  21  37  58  86 121 157 195 236 294 349
#
# _framework density 19.060507000000001
#
# number of rings (size 3 to 8) (size 9 to 14) (size 15 to 20)
#    0.000    1.333    5.000    2.000    0.000    1.000 
#    0.000    1.667    0.000    2.000    0.000    4.667 
#    0.000    0.000    0.000    0.000    0.000    0.000 
#
# Total GULP energy -297457.022040 kJ/mol
# GULP energy per Si atom -12394.042585 kJ/mol
# Density = 1.901712 g / cm^3
# Si number density = 19.060507 Si / 1000 Ang^3
#
#
#
# Elastic Constant Matrix: (Units=GPa)
#
#
# Indices 1 2 3 4 5 6 
#
# 1 108.3629 22.6345 -1.3230 0.0000 6.0115 0.0000
# 2 22.6345 98.1170 19.7845 0.0000 0.9646 0.0000
# 3 -1.3230 19.7845 82.3275 0.0000 10.7099 0.0000
# 4 0.0000 0.0000 0.0000 15.2474 0.0000 -0.4065
# 5 6.0115 0.9646 10.7099 0.0000 21.4843 0.0000
# 6 0.0000 0.0000 0.0000 -0.4065 0.0000 20.7632
#
#
#
# Elastic Compliance Matrix: (Units=1/GPa)
#
#
# Indices 1 2 3 4 5 6 
#
# 1 0.009946 -0.002501 0.001185 0.000000 -0.003262 0.000000
# 2 -0.002501 0.011355 -0.002987 0.000000 0.001679 0.000000
# 3 0.001185 -0.002987 0.013804 0.000000 -0.007079 0.000000
# 4 0.000000 0.000000 0.000000 0.065619 0.000000 0.001285
# 5 -0.003262 0.001679 -0.007079 0.000000 0.050912 0.000000
# 6 0.000000 0.000000 0.000000 0.001285 0.000000 0.048187
#
#
# Mechanical properties :
#
#
# Convention : Reuss Voigt Hill
#
# Bulk Modulus (GPa) = 37.73816 41.22216 39.48016
# Shear Modulus (GPa) = 23.01353 28.01307 25.51330
#
# Velocity S-wave (km/s) = 3.47853 3.83781 3.66258
# Velocity P-wave (km/s) = 5.99797 6.42747 6.21643
#
# Compressibility (1/GPa) = 0.02649838
#
# Stress axis : x y z
#
# Youngs Moduli (GPa) = 100.54144 88.06821 72.44024
#
# Poissons Ratio (x) = 0.22029 -0.08586
# Poissons Ratio (y) = 0.25149 0.21641
# Poissons Ratio (z) = -0.11917 0.26309
#
# Static dielectric constant tensor:
#      x y z
#    x 3.762450 0.000000 0.028280 
#    y 0.000000 3.198930 0.000000 
#    z 0.028280 0.000000 3.306610 
# 
# 
# High freq. dielectric constant tensor:
#      x y z
#    x 1.757860 0.000000 0.005440 
#    y 0.000000 1.707590 0.000000 
#    z 0.005440 0.000000 1.735560 
# 
# From -- ./inp_files/196496.got.cif
#   From: 2010.06.25/outbox.cif.g09.slc.cpg/sg12_99_cif.got.tgz:196496.got - 2010.06.28 00:19:55.
