data_PCOD8089341
_publ_section_title
;
Structure prediction by ZEFSAII (Michael W. Deem and Ramdas Pophale) SiO2 
 PCOD8089341
Probable space group: C 2/M
;
_chemical_formula_sum "Si O2"
_cell_formula_units_Z 64
_cell_length_a 14.501594
_cell_length_b 8.699524
_cell_length_c 27.381891
_cell_angle_alpha 90.000000
_cell_angle_beta 107.042352
_cell_angle_gamma 90.000000
_cell_volume 3302.727247
_symmetry_space_group_name_H-M "C 2/M"
_symmetry_group_IT_number 12
_symmetry_cell_setting 'monoclinic'
loop_
_space_group_symop_operation_xyz
x,y,z
-x,y,-z
-x,-y,-z
x,-y,z
1/2+x,1/2+y,z
1/2-x,1/2+y,-z
1/2-x,1/2-y,-z
1/2+x,1/2-y,z
loop_
_atom_site_type_symbol
_atom_site_label
_atom_site_fract_x
_atom_site_fract_y
_atom_site_fract_z
Si Si1 0.363806 0.681062 0.711356
Si Si2 0.910837 0.173613 0.096898
Si Si3 0.778566 0.316505 0.556182
Si Si4 0.611264 0.174247 0.006192
Si Si5 0.467773 0.317090 0.630820
Si Si6 0.400494 0.318136 0.823785
Si Si7 0.828418 0.316787 0.370504
Si Si8 0.281279 0.175255 0.883727
O O1 0.362293 0.500000 0.716106
O O2 0.442363 0.729622 0.682809
O O3 0.392505 0.754013 0.768169
O O4 0.256239 0.735238 0.679860
O O5 0.865464 0.248799 0.041741
O O6 0.833393 0.183248 0.128260
O O7 0.007405 0.253584 0.133094
O O8 0.934871 0.000000 0.086063
O O9 0.778315 0.500000 0.556073
O O10 0.750000 0.250000 0.500000
O O11 0.885752 0.255482 0.584034
O O12 0.698239 0.254629 0.581356
O O13 0.646080 0.000000 0.006762
O O14 0.500000 0.191789 0.000000
O O15 0.668569 0.249746 0.060352
O O16 0.467560 0.500000 0.623687
O O17 0.571145 0.249195 0.633216
O O18 0.411214 0.500000 0.821689
O O19 0.306019 0.273017 0.839645
O O20 0.834923 0.500000 0.376595
O O21 0.317299 0.000000 0.882295
#
# Coordination Sequence:
#
# PCOD8089341 Si02
#       8
#     8   8   8   8   8   8   8   8
#     4   8  18  36  56  77 108 143 179 225 277 328
#     4  10  21  34  52  76 102 131 171 216 261 318
#     4  11  22  38  59  87 122 158 195 236 282 332
#     4  10  19  33  53  72  99 135 168 209 266 323
#     4  10  20  37  60  86 115 151 192 237 284 333
#     4  10  20  36  55  77 104 138 175 218 269 321
#     4  10  20  37  59  84 114 151 193 237 281 333
#     4  10  21  36  51  74 104 134 169 216 268 323
#
# _framework density 19.377925999999999
#
# number of rings (size 3 to 8) (size 9 to 14) (size 15 to 20)
#    0.000    2.125    1.250    3.000    0.000    2.750 
#    0.000    7.500    0.000    0.000    0.000    0.000 
#    0.000    0.000    0.000    0.000    0.000    0.000 
#
# Total GULP energy -396736.885427 kJ/mol
# GULP energy per Si atom -12398.027670 kJ/mol
# Density = 1.933382 g / cm^3
# Si number density = 19.377926 Si / 1000 Ang^3
#
#
#
# Elastic Constant Matrix: (Units=GPa)
#
#
# Indices 1 2 3 4 5 6 
#
# 1 122.7977 37.0290 55.9319 0.0000 -15.2390 0.0000
# 2 37.0290 73.5260 37.3969 0.0000 -5.2305 0.0000
# 3 55.9319 37.3969 150.6480 0.0000 -14.2728 0.0000
# 4 0.0000 0.0000 0.0000 23.3665 0.0000 -4.8489
# 5 -15.2390 -5.2305 -14.2728 0.0000 19.9904 0.0000
# 6 0.0000 0.0000 0.0000 -4.8489 0.0000 31.1015
#
#
#
# Elastic Compliance Matrix: (Units=1/GPa)
#
#
# Indices 1 2 3 4 5 6 
#
# 1 0.011235 -0.003899 -0.002669 0.000000 0.005639 0.000000
# 2 -0.003899 0.016957 -0.002813 0.000000 -0.000544 0.000000
# 3 -0.002669 -0.002813 0.008650 0.000000 0.003405 0.000000
# 4 0.000000 0.000000 0.000000 0.044227 0.000000 0.006895
# 5 0.005639 -0.000544 0.003405 0.000000 0.056611 0.000000
# 6 0.000000 0.000000 0.000000 0.006895 0.000000 0.033228
#
#
# Mechanical properties :
#
#
# Convention : Reuss Voigt Hill
#
# Bulk Modulus (GPa) = 55.31545 67.52079 61.41812
# Shear Modulus (GPa) = 25.54979 29.33260 27.44119
#
# Velocity S-wave (km/s) = 3.63505 3.89487 3.76720
# Velocity P-wave (km/s) = 6.79895 7.42607 7.11942
#
# Compressibility (1/GPa) = 0.01807813
#
# Stress axis : x y z
#
# Youngs Moduli (GPa) = 89.00983 58.97442 115.60874
#
# Poissons Ratio (x) = 0.22996 0.30856
# Poissons Ratio (y) = 0.34708 0.32522
# Poissons Ratio (z) = 0.23757 0.16590
#
# Static dielectric constant tensor:
#      x y z
#    x 3.573660 0.000000 0.046390 
#    y 0.000000 3.404240 0.000000 
#    z 0.046390 0.000000 3.858830 
# 
# 
# High freq. dielectric constant tensor:
#      x y z
#    x 1.761410 0.000000 -0.002650 
#    y 0.000000 1.738060 0.000000 
#    z -0.002650 0.000000 1.756470 
# 
# From -- ./inp_files/359870.got.cif
#   From: 2010.06.25/outbox.cif.g09.slc.cpg/sg12_180_cif.got.tgz:359870.got - 2010.06.28 00:19:55.
