data_PCOD8089493
_publ_section_title
;
Structure prediction by ZEFSAII (Michael W. Deem and Ramdas Pophale) SiO2 
 PCOD8089493
Probable space group: C 2/M
;
_chemical_formula_sum "Si O2"
_cell_formula_units_Z 64
_cell_length_a 17.550453
_cell_length_b 13.380088
_cell_length_c 16.796197
_cell_angle_alpha 90.000000
_cell_angle_beta 52.688837
_cell_angle_gamma 90.000000
_cell_volume 3137.035941
_symmetry_space_group_name_H-M "C 2/M"
_symmetry_group_IT_number 12
_symmetry_cell_setting 'monoclinic'
loop_
_space_group_symop_operation_xyz
x,y,z
-x,y,-z
-x,-y,-z
x,-y,z
1/2+x,1/2+y,z
1/2-x,1/2+y,-z
1/2-x,1/2-y,-z
1/2+x,1/2-y,z
loop_
_atom_site_type_symbol
_atom_site_label
_atom_site_fract_x
_atom_site_fract_y
_atom_site_fract_z
Si Si1 0.700322 0.385014 0.932369
Si Si2 0.091945 0.614682 0.740526
Si Si3 0.581325 0.255693 0.392983
Si Si4 0.091945 0.385318 0.240525
Si Si5 0.534016 0.385029 0.146218
Si Si6 0.700322 0.385014 0.432368
Si Si7 0.918675 0.755694 0.107017
Si Si8 0.534016 0.614970 0.646218
O O1 0.677777 0.500000 0.919188
O O2 0.814091 0.373013 0.874636
O O3 0.669742 0.302229 0.886165
O O4 0.644945 0.363289 0.051124
O O5 0.074393 0.500000 0.775642
O O6 0.185909 0.626987 0.625364
O O7 0.112967 0.673586 0.808825
O O8 1.000000 0.655606 0.750000
O O9 0.500000 0.204679 0.500000
O O10 0.612967 0.173586 0.308824
O O11 0.669742 0.302229 0.386165
O O12 0.532987 0.350471 0.382348
O O13 0.074393 0.500000 0.275642
O O14 0.514363 0.500000 0.169416
O O15 0.467012 0.350472 0.117653
O O16 0.500000 0.331035 0.250000
O O17 0.677778 0.500000 0.419187
O O18 0.644945 0.363290 0.551124
O O19 0.000000 0.704680 0.000000
O O20 0.514362 0.500000 0.669415
#
# Coordination Sequence:
#
# PCOD8089493 Si02
#       8
#     8   8   8   8   8   8   8   8
#     4   9  18  34  56  80 105 135 170 212 263 309
#     4  10  21  37  54  73 104 144 180 211 247 302
#     4  10  19  33  53  78 105 135 171 216 264 306
#     4  10  21  37  54  73 104 144 180 211 247 302
#     4   9  17  31  53  81 108 132 166 215 267 313
#     4   9  18  34  56  80 105 135 170 212 263 309
#     4  10  19  33  53  78 105 135 171 216 264 306
#     4   9  17  31  53  81 108 132 166 215 267 313
#
# _framework density 20.401423999999999
#
# number of rings (size 3 to 8) (size 9 to 14) (size 15 to 20)
#    0.000    2.500    0.000    2.250    0.000    3.500 
#    0.000   13.750    0.000    6.000    0.000    0.000 
#    0.000    0.000    0.000    0.000    0.000    0.000 
#
# Total GULP energy -396501.425321 kJ/mol
# GULP energy per Si atom -12390.669541 kJ/mol
# Density = 2.035499 g / cm^3
# Si number density = 20.401424 Si / 1000 Ang^3
#
#
#
# Elastic Constant Matrix: (Units=GPa)
#
#
# Indices 1 2 3 4 5 6 
#
# 1 78.6800 31.7886 45.5082 0.0000 -20.9016 0.0000
# 2 31.7886 67.8215 47.4168 0.0000 -4.5363 0.0000
# 3 45.5082 47.4168 144.7017 0.0000 -11.6467 0.0000
# 4 0.0000 0.0000 0.0000 23.6512 0.0000 6.0959
# 5 -20.9016 -4.5363 -11.6467 0.0000 32.2398 0.0000
# 6 0.0000 0.0000 0.0000 6.0959 0.0000 12.4659
#
#
#
# Elastic Compliance Matrix: (Units=1/GPa)
#
#
# Indices 1 2 3 4 5 6 
#
# 1 0.020130 -0.006347 -0.003370 0.000000 0.010940 0.000000
# 2 -0.006347 0.021134 -0.005171 0.000000 -0.003009 0.000000
# 3 -0.003370 -0.005171 0.009713 0.000000 0.000596 0.000000
# 4 0.000000 0.000000 0.000000 0.048379 0.000000 -0.023657
# 5 0.010940 -0.003009 0.000596 0.000000 0.037902 0.000000
# 6 0.000000 0.000000 0.000000 -0.023657 0.000000 0.091787
#
#
# Mechanical properties :
#
#
# Convention : Reuss Voigt Hill
#
# Bulk Modulus (GPa) = 47.17127 60.07005 53.62066
# Shear Modulus (GPa) = 18.80491 24.77069 21.78780
#
# Velocity S-wave (km/s) = 3.03932 3.48827 3.27150
# Velocity P-wave (km/s) = 5.95721 6.76254 6.37261
#
# Compressibility (1/GPa) = 0.02119934
#
# Stress axis : x y z
#
# Youngs Moduli (GPa) = 49.67809 47.31785 102.95136
#
# Poissons Ratio (x) = 0.30032 0.34699
# Poissons Ratio (y) = 0.31530 0.53240
# Poissons Ratio (z) = 0.16743 0.24470
#
# Static dielectric constant tensor:
#      x y z
#    x 3.415630 0.000000 -0.077390 
#    y 0.000000 3.561210 0.000000 
#    z -0.077390 0.000000 4.257660 
# 
# 
# High freq. dielectric constant tensor:
#      x y z
#    x 1.769640 0.000000 -0.014140 
#    y 0.000000 1.798270 0.000000 
#    z -0.014140 0.000000 1.808340 
# 
# From -- ./inp_files/225667.got.cif
#   From: 2010.06.25/outbox.cif.g09.slc.cpg/sg12_113_cif.got.tgz:225667.got - 2010.06.28 00:19:55.
