data_PCOD8089186
_publ_section_title
;
Structure prediction by ZEFSAII (Michael W. Deem and Ramdas Pophale) SiO2 
 PCOD8089186
Probable space group: C 2/M
;
_chemical_formula_sum "Si O2"
_cell_formula_units_Z 64
_cell_length_a 24.381351
_cell_length_b 8.942346
_cell_length_c 16.339351
_cell_angle_alpha 90.000000
_cell_angle_beta 91.648104
_cell_angle_gamma 90.000000
_cell_volume 3560.937432
_symmetry_space_group_name_H-M "C 2/M"
_symmetry_group_IT_number 12
_symmetry_cell_setting 'monoclinic'
loop_
_space_group_symop_operation_xyz
x,y,z
-x,y,-z
-x,-y,-z
x,-y,z
1/2+x,1/2+y,z
1/2-x,1/2+y,-z
1/2-x,1/2-y,-z
1/2+x,1/2-y,z
loop_
_atom_site_type_symbol
_atom_site_label
_atom_site_fract_x
_atom_site_fract_y
_atom_site_fract_z
Si Si1 0.708988 0.175013 0.606599
Si Si2 0.480897 0.177121 0.811975
Si Si3 0.409335 0.326429 0.946036
Si Si4 0.306654 0.177086 0.207845
Si Si5 0.687499 0.673030 0.168439
Si Si6 0.173754 0.824963 0.451353
Si Si7 0.589292 0.323478 0.865901
Si Si8 0.896149 0.823339 0.700876
O O1 0.691035 0.220962 0.696580
O O2 0.770946 0.231538 0.591757
O O3 0.667235 0.248028 0.539417
O O4 0.705407 0.000000 0.594772
O O5 0.450443 0.230791 0.892754
O O6 0.542350 0.240427 0.812938
O O7 0.451605 0.237957 0.728449
O O8 0.482492 0.000000 0.809962
O O9 0.424455 0.500000 0.932764
O O10 0.345863 0.297315 0.917009
O O11 0.416536 0.277778 0.039473
O O12 0.248906 0.238906 0.168171
O O13 0.352429 0.268760 0.162905
O O14 0.315044 0.000000 0.194758
O O15 0.695814 0.500000 0.188303
O O16 0.652074 0.738213 0.242033
O O17 0.121157 0.784449 0.392777
O O18 0.176927 0.000000 0.465951
O O19 0.584092 0.500000 0.853787
O O20 0.905266 0.000000 0.714150
#
# Coordination Sequence:
#
# PCOD8089186 Si02
#       8
#     8   8   8   8   8   8   8   8
#     4   9  17  29  47  75 108 140 169 203 248 298
#     4  11  22  35  54  79 102 128 168 218 265 302
#     4   9  19  36  57  76  99 133 170 212 259 307
#     4  10  19  33  52  73 104 143 175 205 249 304
#     4   8  14  29  52  74  99 135 170 200 247 305
#     4   9  16  28  50  78 105 137 172 203 245 300
#     4  11  23  37  52  73 100 136 178 214 255 304
#     4   9  16  31  54  77 104 137 170 206 253 306
#
# _framework density 17.972795999999999
#
# number of rings (size 3 to 8) (size 9 to 14) (size 15 to 20)
#    0.000    2.500    1.250    2.625    0.000    4.000 
#    0.000    2.500    0.000    0.750    0.000    5.250 
#    0.000    0.000    0.000    0.000    0.000    0.000 
#
# Total GULP energy -396716.003878 kJ/mol
# GULP energy per Si atom -12397.375121 kJ/mol
# Density = 1.793189 g / cm^3
# Si number density = 17.972796 Si / 1000 Ang^3
#
#
#
# Elastic Constant Matrix: (Units=GPa)
#
#
# Indices 1 2 3 4 5 6 
#
# 1 98.3397 30.4667 17.0161 0.0000 22.6016 0.0000
# 2 30.4667 57.2046 23.0989 0.0000 10.0481 0.0000
# 3 17.0161 23.0989 43.3312 0.0000 24.3992 0.0000
# 4 0.0000 0.0000 0.0000 25.7409 0.0000 -0.4738
# 5 22.6016 10.0481 24.3992 0.0000 27.1308 0.0000
# 6 0.0000 0.0000 0.0000 -0.4738 0.0000 25.4359
#
#
#
# Elastic Compliance Matrix: (Units=1/GPa)
#
#
# Indices 1 2 3 4 5 6 
#
# 1 0.015225 -0.008354 0.007848 0.000000 -0.016648 0.000000
# 2 -0.008354 0.027189 -0.019168 0.000000 0.014128 0.000000
# 3 0.007848 -0.019168 0.060571 0.000000 -0.053911 0.000000
# 4 0.000000 0.000000 0.000000 0.038862 0.000000 0.000724
# 5 -0.016648 0.014128 -0.053911 0.000000 0.093978 0.000000
# 6 0.000000 0.000000 0.000000 0.000724 0.000000 0.039328
#
#
# Mechanical properties :
#
#
# Convention : Reuss Voigt Hill
#
# Bulk Modulus (GPa) = 15.71410 37.78210 26.74810
# Shear Modulus (GPa) = 14.89370 24.21443 19.55407
#
# Velocity S-wave (km/s) = 2.88180 3.67452 3.30203
# Velocity P-wave (km/s) = 4.45368 6.25062 5.42704
#
# Compressibility (1/GPa) = 0.06363710
#
# Stress axis : x y z
#
# Youngs Moduli (GPa) = 65.68149 36.78006 16.50956
#
# Poissons Ratio (x) = 0.30725 -0.12957
# Poissons Ratio (y) = 0.54868 0.31646
# Poissons Ratio (z) = -0.51549 0.70502
#
# Static dielectric constant tensor:
#      x y z
#    x 3.336350 0.000000 0.289880 
#    y 0.000000 3.096710 0.000000 
#    z 0.289880 0.000000 3.360810 
# 
# 
# High freq. dielectric constant tensor:
#      x y z
#    x 1.684750 0.000000 0.026340 
#    y 0.000000 1.677010 0.000000 
#    z 0.026340 0.000000 1.689240 
# 
# From -- ./inp_files/238636.got.cif
#   From: 2010.06.25/outbox.cif.g09.slc.cpg/sg12_120_cif.got.tgz:238636.got - 2010.06.28 00:19:55.
