data_PCOD8089055
_publ_section_title
;
Structure prediction by ZEFSAII (Michael W. Deem and Ramdas Pophale) SiO2 
 PCOD8089055
Probable space group: C 2/M
;
_chemical_formula_sum "Si O2"
_cell_formula_units_Z 64
_cell_length_a 33.394687
_cell_length_b 20.938644
_cell_length_c 16.110103
_cell_angle_alpha 90.000000
_cell_angle_beta 17.675008
_cell_angle_gamma 90.000000
_cell_volume 3420.196280
_symmetry_space_group_name_H-M "C 2/M"
_symmetry_group_IT_number 12
_symmetry_cell_setting 'monoclinic'
loop_
_space_group_symop_operation_xyz
x,y,z
-x,y,-z
-x,-y,-z
x,-y,z
1/2+x,1/2+y,z
1/2-x,1/2+y,-z
1/2-x,1/2-y,-z
1/2+x,1/2-y,z
loop_
_atom_site_type_symbol
_atom_site_label
_atom_site_fract_x
_atom_site_fract_y
_atom_site_fract_z
Si Si1 0.003580 0.075509 0.242565
Si Si2 0.945566 0.575286 0.359445
Si Si3 0.723292 0.071112 0.751260
Si Si4 0.717985 0.632067 0.704218
Si Si5 0.141053 0.390461 0.744931
Si Si6 0.596698 0.576323 0.237292
Si Si7 0.611981 0.925733 0.336488
Si Si8 0.125037 0.750867 0.803691
O O1 0.858612 0.106253 0.511688
O O2 0.054473 0.102898 0.230145
O O3 0.993482 0.000000 0.266780
O O4 0.100522 0.090710 0.974856
O O5 0.924639 0.500000 0.376248
O O6 0.846134 0.622049 0.507643
O O7 0.923858 0.586339 0.498351
O O8 0.091328 0.601638 0.050737
O O9 0.714507 0.067920 0.668777
O O10 0.730392 0.000000 0.773164
O O11 0.757936 0.612232 0.531667
O O12 0.662053 0.705228 0.810547
O O13 0.101318 0.323660 0.870381
O O14 0.000000 0.422429 0.000000
O O15 0.500000 0.602304 0.500000
O O16 0.595884 0.500000 0.236276
O O17 0.743027 0.602869 0.968637
O O18 0.500000 0.892804 0.500000
O O19 0.617392 0.000000 0.304170
O O20 0.250000 0.750000 0.500000
O O21 0.000000 0.779544 0.000000
#
# Coordination Sequence:
#
# PCOD8089055 Si02
#       8
#     8   8   8   8   8   8   8   8
#     4  10  21  34  47  72 107 137 170 212 255 307
#     4  10  19  33  50  71 102 138 173 211 252 303
#     4  10  22  34  48  71 102 139 172 204 250 307
#     4  11  20  33  54  71  97 133 169 216 261 299
#     4  10  20  37  53  72  98 133 170 216 255 303
#     4   9  17  29  45  66  98 137 168 203 254 302
#     4   9  17  28  45  69  96 131 172 206 245 302
#     4   9  21  36  54  73  95 128 165 215 263 297
#
# _framework density 18.712378000000001
#
# number of rings (size 3 to 8) (size 9 to 14) (size 15 to 20)
#    0.000    2.250    2.500    0.375    5.250    1.250 
#    0.000    1.250    0.000    0.000    0.000    0.000 
#    0.000    6.000    0.000    0.000    0.000    0.000 
#
# Total GULP energy -396471.149425 kJ/mol
# GULP energy per Si atom -12389.723420 kJ/mol
# Density = 1.866979 g / cm^3
# Si number density = 18.712378 Si / 1000 Ang^3
#
#
#
# Elastic Constant Matrix: (Units=GPa)
#
#
# Indices 1 2 3 4 5 6 
#
# 1 113.2165 22.6542 79.2828 0.0007 -14.2358 -0.0010
# 2 22.6542 25.2263 16.4000 0.0018 -4.8682 -0.0016
# 3 79.2828 16.4000 180.3560 0.0015 -18.4478 -0.0027
# 4 0.0007 0.0018 0.0015 14.2966 -0.0020 -1.9608
# 5 -14.2358 -4.8682 -18.4478 -0.0020 37.6728 0.0019
# 6 -0.0010 -0.0016 -0.0027 -1.9608 0.0019 7.9326
#
#
#
# Elastic Compliance Matrix: (Units=1/GPa)
#
#
# Indices 1 2 3 4 5 6 
#
# 1 0.014738 -0.009364 -0.005455 0.000001 0.001688 -0.000002
# 2 -0.009364 0.048592 -0.000023 -0.000004 0.002730 0.000007
# 3 -0.005455 -0.000023 0.008141 0.000000 0.001922 0.000002
# 4 0.000001 -0.000004 0.000000 0.072401 0.000003 0.017896
# 5 0.001688 0.002730 0.001922 0.000003 0.028476 -0.000005
# 6 -0.000002 0.000007 0.000002 0.017896 -0.000005 0.130486
#
#
# Mechanical properties :
#
#
# Convention : Reuss Voigt Hill
#
# Bulk Modulus (GPa) = 23.93011 61.71920 42.82465
# Shear Modulus (GPa) = 14.43222 25.34452 19.88837
#
# Velocity S-wave (km/s) = 2.78018 3.68424 3.26367
# Velocity P-wave (km/s) = 4.80854 7.15213 6.09405
#
# Compressibility (1/GPa) = 0.04178836
#
# Stress axis : x y z
#
# Youngs Moduli (GPa) = 67.85027 20.57962 122.83249
#
# Poissons Ratio (x) = 0.19270 0.67002
# Poissons Ratio (y) = 0.63532 0.00284
# Poissons Ratio (z) = 0.37010 0.00048
#
# Static dielectric constant tensor:
#      x y z
#    x 3.620540 0.000020 -0.253870 
#    y 0.000020 3.687450 0.000000 
#    z -0.253870 0.000000 3.846560 
# 
# 
# High freq. dielectric constant tensor:
#      x y z
#    x 1.722180 0.000000 -0.009320 
#    y 0.000000 1.658760 0.000000 
#    z -0.009320 0.000000 1.752870 
# 
# From -- ./inp_files/251912.got.cif
#   From: 2010.06.25/outbox.cif.g09.slc.cpg/sg12_126_cif.got.tgz:251912.got - 2010.06.28 00:19:55.
