data_PCOD8089862
_publ_section_title
;
Structure prediction by ZEFSAII (Michael W. Deem and Ramdas Pophale) SiO2 
 PCOD8089862
Probable space group: C 2/M
;
_chemical_formula_sum "Si O2"
_cell_formula_units_Z 64
_cell_length_a 28.959360
_cell_length_b 8.496379
_cell_length_c 18.400038
_cell_angle_alpha 90.000000
_cell_angle_beta 43.195542
_cell_angle_gamma 90.000000
_cell_volume 3098.909609
_symmetry_space_group_name_H-M "C 2/M"
_symmetry_group_IT_number 12
_symmetry_cell_setting 'monoclinic'
loop_
_space_group_symop_operation_xyz
x,y,z
-x,y,-z
-x,-y,-z
x,-y,z
1/2+x,1/2+y,z
1/2-x,1/2+y,-z
1/2-x,1/2-y,-z
1/2+x,1/2-y,z
loop_
_atom_site_type_symbol
_atom_site_label
_atom_site_fract_x
_atom_site_fract_y
_atom_site_fract_z
Si Si1 0.783296 0.183906 0.033334
Si Si2 0.938573 0.312894 0.366563
Si Si3 0.821560 0.687196 0.394588
Si Si4 0.814895 0.313136 0.239860
Si Si5 0.704102 0.314958 0.260706
Si Si6 0.566290 0.185837 0.464083
Si Si7 0.443420 0.184601 0.014280
Si Si8 0.429715 0.183989 0.867420
O O1 0.749979 0.270779 0.139670
O O2 0.769457 0.000000 0.056930
O O3 0.750000 0.250000 0.000000
O O4 0.862737 0.215058 0.934419
O O5 0.934410 0.500000 0.369695
O O6 0.880309 0.244972 0.379955
O O7 0.928483 0.245966 0.459706
O O8 0.012930 0.260092 0.254708
O O9 0.822271 0.500000 0.395831
O O10 0.750000 0.750000 0.500000
O O11 0.830919 0.751643 0.301803
O O12 0.816387 0.500000 0.239344
O O13 0.742596 0.259412 0.290387
O O14 0.871163 0.244596 0.120313
O O15 0.692043 0.500000 0.273396
O O16 0.631631 0.231591 0.342101
O O17 0.500000 0.255021 0.500000
O O18 0.560456 0.000000 0.474815
O O19 0.460258 0.219535 0.911682
O O20 0.441607 0.000000 0.031758
O O21 0.500000 0.264300 0.000000
O O22 0.411744 0.000000 0.878735
#
# Coordination Sequence:
#
# PCOD8089862 Si02
#       8
#     8   8   8   8   8   8   8   8
#     4  12  26  43  64  91 121 158 198 245 304 364
#     4   9  19  35  57  86 120 159 204 250 300 358
#     4  10  19  33  54  81 114 154 202 249 298 352
#     4   9  17  30  51  82 114 145 187 242 292 342
#     4  11  22  40  63  90 120 152 197 251 301 358
#     4  10  22  39  58  84 118 159 203 250 306 362
#     4   9  15  26  50  83 115 149 193 239 286 341
#     4  10  19  36  61  89 121 158 202 249 296 357
#
# _framework density 20.652425999999998
#
# number of rings (size 3 to 8) (size 9 to 14) (size 15 to 20)
#    0.000    2.000    1.250    3.000    1.750    3.250 
#    0.000    1.875    0.000    0.375    0.000    0.000 
#    0.000    0.000    0.000    0.000    0.000    0.000 
#
# Total GULP energy -396721.586669 kJ/mol
# GULP energy per Si atom -12397.549583 kJ/mol
# Density = 2.060542 g / cm^3
# Si number density = 20.652426 Si / 1000 Ang^3
#
#
#
# Elastic Constant Matrix: (Units=GPa)
#
#
# Indices 1 2 3 4 5 6 
#
# 1 155.3531 14.4609 50.3948 0.0060 -6.1014 -0.0002
# 2 14.4609 16.7728 1.0158 0.0546 1.3365 -0.0328
# 3 50.3948 1.0158 122.8050 0.0166 -8.0500 -0.0125
# 4 0.0060 0.0546 0.0166 27.4540 -0.0094 -4.8434
# 5 -6.1014 1.3365 -8.0500 -0.0094 40.5727 0.0038
# 6 -0.0002 -0.0328 -0.0125 -4.8434 0.0038 16.2942
#
#
#
# Elastic Compliance Matrix: (Units=1/GPa)
#
#
# Indices 1 2 3 4 5 6 
#
# 1 0.008162 -0.006906 -0.003239 0.000012 0.000812 -0.000013
# 2 -0.006906 0.065669 0.002108 -0.000113 -0.002783 0.000101
# 3 -0.003239 0.002108 0.009542 -0.000007 0.001337 0.000009
# 4 0.000012 -0.000113 -0.000007 0.038441 0.000012 0.011426
# 5 0.000812 -0.002783 0.001337 0.000012 0.025126 -0.000007
# 6 -0.000013 0.000101 0.000009 0.011426 -0.000007 0.064768
#
#
# Mechanical properties :
#
#
# Convention : Reuss Voigt Hill
#
# Bulk Modulus (GPa) = 14.85879 47.40822 31.13351
# Shear Modulus (GPa) = 19.98273 32.13481 26.05877
#
# Velocity S-wave (km/s) = 3.11396 3.94887 3.55600
# Velocity P-wave (km/s) = 4.48768 6.61790 5.65402
#
# Compressibility (1/GPa) = 0.06730023
#
# Stress axis : x y z
#
# Youngs Moduli (GPa) = 122.51217 15.22788 104.79503
#
# Poissons Ratio (x) = 0.10516 0.33945
# Poissons Ratio (y) = 0.84607 -0.22095
# Poissons Ratio (z) = 0.39684 -0.03211
#
# Static dielectric constant tensor:
#      x y z
#    x 4.035310 -0.000010 0.059630 
#    y -0.000010 3.265600 0.000040 
#    z 0.059630 0.000040 3.840590 
# 
# 
# High freq. dielectric constant tensor:
#      x y z
#    x 1.825660 0.000000 -0.001150 
#    y 0.000000 1.756930 0.000000 
#    z -0.001150 0.000000 1.819770 
# 
# From -- ./inp_files/295563.got.cif
#   From: 2010.06.25/outbox.cif.g09.slc.cpg/sg12_148_cif.got.tgz:295563.got - 2010.06.28 00:19:55.
