data_PCOD8089924
_publ_section_title
;
Structure prediction by ZEFSAII (Michael W. Deem and Ramdas Pophale) SiO2 
 PCOD8089924
Probable space group: C 2/M
;
_chemical_formula_sum "Si O2"
_cell_formula_units_Z 56
_cell_length_a 19.450363
_cell_length_b 17.036726
_cell_length_c 13.882793
_cell_angle_alpha 90.000000
_cell_angle_beta 41.056340
_cell_angle_gamma 90.000000
_cell_volume 3021.512476
_symmetry_space_group_name_H-M "C 2/M"
_symmetry_group_IT_number 12
_symmetry_cell_setting 'monoclinic'
loop_
_space_group_symop_operation_xyz
x,y,z
-x,y,-z
-x,-y,-z
x,-y,z
1/2+x,1/2+y,z
1/2-x,1/2+y,-z
1/2-x,1/2-y,-z
1/2+x,1/2-y,z
loop_
_atom_site_type_symbol
_atom_site_label
_atom_site_fract_x
_atom_site_fract_y
_atom_site_fract_z
Si Si1 0.381167 0.911500 0.505954
Si Si2 0.462985 0.224190 0.641967
Si Si3 0.250874 0.315241 0.205151
Si Si4 0.574382 0.678972 0.684759
Si Si5 0.055550 0.909579 0.038480
Si Si6 0.892768 0.294710 0.171970
Si Si7 0.774904 0.411376 0.412861
O O1 0.488035 0.862247 0.395138
O O2 0.295181 0.872444 0.665119
O O3 0.336239 0.911275 0.447289
O O4 0.405187 0.000000 0.515160
O O5 0.500000 0.258804 0.500000
O O6 0.337548 0.214310 0.775732
O O7 0.497044 0.283923 0.688229
O O8 0.303409 0.239993 0.198048
O O9 0.337757 0.363176 0.054354
O O10 0.520015 0.603440 0.790985
O O11 0.596082 0.742659 0.743913
O O12 0.677870 0.648756 0.522370
O O13 0.081689 0.000000 0.997280
O O14 0.000000 0.875997 0.000000
O O15 0.852545 0.380329 0.247559
O O16 0.000000 0.303904 0.000000
O O17 0.738804 0.500000 0.424969
#
# Coordination Sequence:
#
# PCOD8089924 Si02
#       7
#     8   8   8   8   8   8   8
#     4  10  19  33  54  85 118 151 191 239 296 352
#     4  10  23  35  56  85 116 155 196 242 288 354
#     4  11  20  36  55  87 120 153 192 239 299 350
#     4  12  20  40  61  88 115 154 196 249 291 347
#     4  11  21  35  59  92 123 150 189 243 305 355
#     4  12  22  39  62  87 117 155 197 245 293 346
#     4  11  22  36  62  88 114 153 199 244 291 346
#
# _framework density 18.533763
#
# number of rings (size 3 to 8) (size 9 to 14) (size 15 to 20)
#    0.000    1.000    5.714    3.000    0.000    6.286 
#    0.000    0.000    0.000    7.714    0.000    0.000 
#    0.000    0.000    0.000    0.000    0.000    0.000 
#
# Total GULP energy -347258.221070 kJ/mol
# GULP energy per Si atom -12402.079324 kJ/mol
# Density = 1.849158 g / cm^3
# Si number density = 18.533763 Si / 1000 Ang^3
#
#
#
# Elastic Constant Matrix: (Units=GPa)
#
#
# Indices 1 2 3 4 5 6 
#
# 1 94.1235 44.9557 44.3782 0.0000 -18.4541 0.0000
# 2 44.9557 87.8995 52.1419 0.0000 4.9516 0.0000
# 3 44.3782 52.1419 96.1508 0.0000 -11.9868 0.0000
# 4 0.0000 0.0000 0.0000 -496.3221 0.0000 273.7203
# 5 -18.4541 4.9516 -11.9868 0.0000 25.3780 0.0000
# 6 0.0000 0.0000 0.0000 273.7203 0.0000 -114.9378
#
#
#
# Elastic Compliance Matrix: (Units=1/GPa)
#
#
# Indices 1 2 3 4 5 6 
#
# 1 0.018833 -0.009423 -0.001749 0.000000 0.014708 0.000000
# 2 -0.009423 0.023188 -0.010247 0.000000 -0.016217 0.000000
# 3 -0.001749 -0.010247 0.017910 0.000000 0.009187 0.000000
# 4 0.000000 0.000000 0.000000 0.006430 0.000000 0.015312
# 5 0.014708 -0.016217 0.009187 0.000000 0.057603 0.000000
# 6 0.000000 0.000000 0.000000 0.015312 0.000000 0.027764
#
#
# Mechanical properties :
#
#
# Convention : Reuss Voigt Hill
#
# Bulk Modulus (GPa) = 58.50411 62.34725 60.42568
# Shear Modulus (GPa) = 24.96712 -108.06319 -41.54803
#
# Velocity S-wave (km/s) = 3.67429 -7.64413 -4.73985
# Velocity P-wave (km/s) = 7.04523 6.64811 1.64892
#
# Compressibility (1/GPa) = 0.01709282
#
# Stress axis : x y z
#
# Youngs Moduli (GPa) = 53.09743 43.12515 55.83554
#
# Poissons Ratio (x) = 0.40638 0.09764
# Poissons Ratio (y) = 0.50036 0.57216
# Poissons Ratio (z) = 0.09285 0.44191
#
# Static dielectric constant tensor:
#      x y z
#    x 3.408650 0.000000 -0.061070 
#    y 0.000000 3.503540 0.000000 
#    z -0.061070 0.000000 3.497030 
# 
# 
# High freq. dielectric constant tensor:
#      x y z
#    x 1.709340 0.000000 -0.010750 
#    y 0.000000 1.714960 0.000000 
#    z -0.010750 0.000000 1.721160 
# 
# From -- ./inp_files/157974.got.cif
#   From: 2010.06.25/outbox.cif.g09.slc.cpg/sg12_79_cif.got.tgz:157974.got - 2010.06.28 00:19:55.
