data_PCOD8089778
_publ_section_title
;
Structure prediction by ZEFSAII (Michael W. Deem and Ramdas Pophale) SiO2 
 PCOD8089778
Probable space group: C 2/M
;
_chemical_formula_sum "Si O2"
_cell_formula_units_Z 64
_cell_length_a 24.884811
_cell_length_b 9.454549
_cell_length_c 28.431040
_cell_angle_alpha 90.000000
_cell_angle_beta 149.188167
_cell_angle_gamma 90.000000
_cell_volume 3426.294224
_symmetry_space_group_name_H-M "C 2/M"
_symmetry_group_IT_number 12
_symmetry_cell_setting 'monoclinic'
loop_
_space_group_symop_operation_xyz
x,y,z
-x,y,-z
-x,-y,-z
x,-y,z
1/2+x,1/2+y,z
1/2-x,1/2+y,-z
1/2-x,1/2-y,-z
1/2+x,1/2-y,z
loop_
_atom_site_type_symbol
_atom_site_label
_atom_site_fract_x
_atom_site_fract_y
_atom_site_fract_z
Si Si1 0.409351 0.338622 0.967687
Si Si2 0.561206 0.337901 0.161109
Si Si3 0.894014 0.340299 0.442596
Si Si4 0.169246 0.660767 0.503000
Si Si5 0.604045 0.335550 0.297152
Si Si6 0.703862 0.662714 0.794091
Si Si7 0.244901 0.662291 0.271526
Si Si8 0.012847 0.834919 0.324976
O O1 0.381092 0.500000 0.933175
O O2 0.304657 0.247245 0.887002
O O3 0.500000 0.284249 0.000000
O O4 0.447951 0.327468 0.051054
O O5 0.601211 0.500000 0.190151
O O6 0.561285 0.276759 0.214849
O O7 0.634684 0.241888 0.183226
O O8 0.871040 0.500000 0.407521
O O9 0.903959 0.336215 0.506036
O O10 0.801916 0.237414 0.357613
O O11 0.000000 0.280606 0.500000
O O12 0.179770 0.500000 0.491715
O O13 0.283200 0.727143 0.601832
O O14 0.113028 0.756045 0.421963
O O15 0.624947 0.500000 0.305592
O O16 0.516932 0.307129 0.271830
O O17 0.721204 0.500000 0.821547
O O18 0.689664 0.678110 0.727351
O O19 0.598163 0.723037 0.739035
O O20 0.225710 0.500000 0.270258
O O21 0.024881 0.000000 0.346277
#
# Coordination Sequence:
#
# PCOD8089778 Si02
#       8
#     8   8   8   8   8   8   8   8
#     4  10  20  34  58  86 106 135 179 222 266 317
#     4  10  19  36  58  80 106 134 174 225 267 315
#     4  10  20  33  50  74 107 145 180 217 266 320
#     4  10  19  33  54  80 106 139 182 226 269 307
#     4   9  18  35  58  78 104 142 183 223 265 314
#     4  10  22  37  53  77 113 147 174 213 269 327
#     4  11  21  32  50  77 108 142 174 212 265 319
#     4  10  21  37  55  77 106 146 185 217 263 319
#
# _framework density 18.679072999999999
#
# number of rings (size 3 to 8) (size 9 to 14) (size 15 to 20)
#    0.000    2.000    2.500    1.500    0.000    2.500 
#    0.000    1.250    0.000    0.000    0.000    0.000 
#    0.000    0.000    0.000    0.000    0.000    0.000 
#
# Total GULP energy -396722.703236 kJ/mol
# GULP energy per Si atom -12397.584476 kJ/mol
# Density = 1.863656 g / cm^3
# Si number density = 18.679073 Si / 1000 Ang^3
#
#
#
# Elastic Constant Matrix: (Units=GPa)
#
#
# Indices 1 2 3 4 5 6 
#
# 1 96.3158 21.0685 34.9616 -0.0001 -1.3093 0.0000
# 2 21.0685 59.5782 31.9067 0.0001 -3.7274 -0.0002
# 3 34.9616 31.9067 89.1531 -0.0003 -9.2117 -0.0001
# 4 -0.0001 0.0001 -0.0003 22.1109 -0.0001 1.5778
# 5 -1.3093 -3.7274 -9.2117 -0.0001 24.5012 0.0000
# 6 0.0000 -0.0002 -0.0001 1.5778 0.0000 19.0701
#
#
#
# Elastic Compliance Matrix: (Units=1/GPa)
#
#
# Indices 1 2 3 4 5 6 
#
# 1 0.012369 -0.002209 -0.004189 0.000000 -0.001250 0.000000
# 2 -0.002209 0.021162 -0.006645 0.000000 0.000603 0.000000
# 3 -0.004189 -0.006645 0.015721 0.000000 0.004676 0.000000
# 4 0.000000 0.000000 0.000000 0.045495 0.000000 -0.003764
# 5 -0.001250 0.000603 0.004676 0.000000 0.042597 0.000000
# 6 0.000000 0.000000 0.000000 -0.003764 0.000000 0.052750
#
#
# Mechanical properties :
#
#
# Convention : Reuss Voigt Hill
#
# Bulk Modulus (GPa) = 43.16703 46.76897 44.96800
# Shear Modulus (GPa) = 22.33110 23.61046 22.97078
#
# Velocity S-wave (km/s) = 3.46137 3.55914 3.51060
# Velocity P-wave (km/s) = 6.25578 6.47939 6.36857
#
# Compressibility (1/GPa) = 0.02316583
#
# Stress axis : x y z
#
# Youngs Moduli (GPa) = 80.84487 47.25399 63.60968
#
# Poissons Ratio (x) = 0.10437 0.26648
# Poissons Ratio (y) = 0.17857 0.42270
# Poissons Ratio (z) = 0.33869 0.31401
#
# Static dielectric constant tensor:
#      x y z
#    x 3.540470 0.000000 -0.044550 
#    y 0.000000 3.271280 0.000000 
#    z -0.044550 0.000000 3.345350 
# 
# 
# High freq. dielectric constant tensor:
#      x y z
#    x 1.726840 0.000000 -0.005490 
#    y 0.000000 1.705490 0.000000 
#    z -0.005490 0.000000 1.714320 
# 
# From -- ./inp_files/243937.got.cif
#   From: 2010.06.25/outbox.cif.g09.slc.cpg/sg12_122_cif.got.tgz:243937.got - 2010.06.28 00:19:55.
