data_PCOD8089843
_publ_section_title
;
Structure prediction by ZEFSAII (Michael W. Deem and Ramdas Pophale) SiO2 
 PCOD8089843
Probable space group: C 2/M
;
_chemical_formula_sum "Si O2"
_cell_formula_units_Z 44
_cell_length_a 18.698105
_cell_length_b 10.276952
_cell_length_c 17.820446
_cell_angle_alpha 90.000000
_cell_angle_beta 137.059199
_cell_angle_gamma 90.000000
_cell_volume 2332.824829
_symmetry_space_group_name_H-M "C 2/M"
_symmetry_group_IT_number 12
_symmetry_cell_setting 'monoclinic'
loop_
_space_group_symop_operation_xyz
x,y,z
-x,y,-z
-x,-y,-z
x,-y,z
1/2+x,1/2+y,z
1/2-x,1/2+y,-z
1/2-x,1/2-y,-z
1/2+x,1/2-y,z
loop_
_atom_site_type_symbol
_atom_site_label
_atom_site_fract_x
_atom_site_fract_y
_atom_site_fract_z
Si Si1 0.079042 0.650787 0.752485
Si Si2 0.500000 0.288476 0.000000
Si Si3 0.754105 0.352838 0.668286
Si Si4 0.511954 0.851177 0.164979
Si Si5 0.230334 0.140685 0.196635
Si Si6 0.536106 0.352816 0.442564
O O1 0.039975 0.500000 0.714982
O O2 0.202896 0.661781 0.828584
O O3 0.060207 0.703375 0.822770
O O4 0.013733 0.742575 0.646906
O O5 0.485945 0.206879 0.064582
O O6 0.606319 0.370963 0.085589
O O7 0.750310 0.500000 0.698237
O O8 0.867082 0.325085 0.717847
O O9 0.736251 0.256325 0.723620
O O10 0.662672 0.333871 0.536826
O O11 0.485871 0.000000 0.134383
O O12 0.262466 0.000000 0.256325
O O13 0.500000 0.332426 0.500000
O O14 0.506562 0.500000 0.392908
#
# Coordination Sequence:
#
# PCOD8089843 Si02
#       6
#     8   4   8   8   8   8
#     4  10  21  35  53  80 112 138 171 218 265 312
#     4  10  20  36  58  74  99 140 181 218 265 316
#     4   9  18  34  56  77 105 143 180 213 249 307
#     4   9  19  36  55  79 106 137 177 220 262 311
#     4  10  20  34  53  78 107 137 172 219 267 314
#     4  10  19  33  54  81 110 142 177 212 253 307
#
# _framework density 18.861252
#
# number of rings (size 3 to 8) (size 9 to 14) (size 15 to 20)
#    0.000    2.364    1.818    0.545    0.000    3.273 
#    0.000    4.545    0.000    0.000    0.000    0.000 
#    0.000    0.000    0.000    0.000    0.000    0.000 
#
# Total GULP energy -272579.138207 kJ/mol
# GULP energy per Si atom -12389.960828 kJ/mol
# Density = 1.881832 g / cm^3
# Si number density = 18.861252 Si / 1000 Ang^3
#
#
#
# Elastic Constant Matrix: (Units=GPa)
#
#
# Indices 1 2 3 4 5 6 
#
# 1 131.9036 53.9661 40.4259 0.0000 -10.5946 0.0000
# 2 53.9661 89.5342 39.6218 0.0000 -11.0178 0.0000
# 3 40.4259 39.6218 70.3228 0.0000 -3.5460 0.0000
# 4 0.0000 0.0000 0.0000 8.5724 0.0000 -10.4667
# 5 -10.5946 -11.0178 -3.5460 0.0000 28.3580 0.0000
# 6 0.0000 0.0000 0.0000 -10.4667 0.0000 14.4872
#
#
#
# Elastic Compliance Matrix: (Units=1/GPa)
#
#
# Indices 1 2 3 4 5 6 
#
# 1 0.010697 -0.004731 -0.003396 0.000000 0.001734 0.000000
# 2 -0.004731 0.017639 -0.007006 0.000000 0.004210 0.000000
# 3 -0.003396 -0.007006 0.020045 0.000000 -0.001484 0.000000
# 4 0.000000 0.000000 0.000000 0.989603 0.000000 0.714964
# 5 0.001734 0.004210 -0.001484 0.000000 0.037361 0.000000
# 6 0.000000 0.000000 0.000000 0.714964 0.000000 0.585571
#
#
# Mechanical properties :
#
#
# Convention : Reuss Voigt Hill
#
# Bulk Modulus (GPa) = 55.20630 62.19867 58.70248
# Shear Modulus (GPa) = 2.94599 20.79999 11.87299
#
# Velocity S-wave (km/s) = 1.25113 3.32443 2.51169
# Velocity P-wave (km/s) = 5.60538 6.91262 6.29304
#
# Compressibility (1/GPa) = 0.01811388
#
# Stress axis : x y z
#
# Youngs Moduli (GPa) = 93.48264 56.69171 49.88739
#
# Poissons Ratio (x) = 0.26823 0.16943
# Poissons Ratio (y) = 0.44230 0.34952
# Poissons Ratio (z) = 0.31748 0.39720
#
# Static dielectric constant tensor:
#      x y z
#    x 3.789500 0.000000 0.219260 
#    y 0.000000 3.487400 0.000000 
#    z 0.219260 0.000000 3.352380 
# 
# 
# High freq. dielectric constant tensor:
#      x y z
#    x 1.742980 0.000000 0.021420 
#    y 0.000000 1.736230 0.000000 
#    z 0.021420 0.000000 1.705780 
# 
# From -- ./inp_files/275881.got.cif
#   From: 2010.06.25/outbox.cif.g09.slc.cpg/sg12_138_cif.got.tgz:275881.got - 2010.06.28 00:19:55.
