data_PCOD8089143
_publ_section_title
;
Structure prediction by ZEFSAII (Michael W. Deem and Ramdas Pophale) SiO2 
 PCOD8089143
Probable space group: C 2/M
;
_chemical_formula_sum "Si O2"
_cell_formula_units_Z 64
_cell_length_a 15.260545
_cell_length_b 25.264691
_cell_length_c 9.290248
_cell_angle_alpha 90.000000
_cell_angle_beta 72.733115
_cell_angle_gamma 90.000000
_cell_volume 3420.456112
_symmetry_space_group_name_H-M "C 2/M"
_symmetry_group_IT_number 12
_symmetry_cell_setting 'monoclinic'
loop_
_space_group_symop_operation_xyz
x,y,z
-x,y,-z
-x,-y,-z
x,-y,z
1/2+x,1/2+y,z
1/2-x,1/2+y,-z
1/2-x,1/2-y,-z
1/2+x,1/2-y,z
loop_
_atom_site_type_symbol
_atom_site_label
_atom_site_fract_x
_atom_site_fract_y
_atom_site_fract_z
Si Si1 0.908814 0.437642 0.126969
Si Si2 0.285809 0.141085 0.686650
Si Si3 0.092273 0.561720 0.539832
Si Si4 0.599103 0.232093 0.985867
Si Si5 0.723545 0.135935 0.970255
Si Si6 0.605828 0.309029 0.728991
Si Si7 0.902373 0.184968 0.784481
Si Si8 0.604088 0.243411 0.460412
O O1 0.897642 0.500000 0.118556
O O2 0.917104 0.420166 0.289599
O O3 0.818994 0.413176 0.095464
O O4 0.000000 0.417929 0.000000
O O5 0.326508 0.093087 0.576017
O O6 0.180221 0.144217 0.687293
O O7 0.331029 0.196980 0.625543
O O8 0.294900 0.128576 0.851686
O O9 0.115771 0.500000 0.517342
O O10 0.000000 0.575857 0.500000
O O11 0.677277 0.188851 0.930196
O O12 0.616135 0.283553 0.880855
O O13 0.500000 0.205859 0.000000
O O14 0.602887 0.256296 0.142978
O O15 0.831707 0.141386 0.880707
O O16 0.506422 0.336346 0.753282
O O17 0.626241 0.259765 0.612858
O O18 0.881962 0.200403 0.629576
O O19 0.500000 0.222423 0.500000
#
# Coordination Sequence:
#
# PCOD8089143 Si02
#       8
#     8   8   8   8   8   8   8   8
#     4  10  23  42  62  85 110 138 178 225 278 335
#     4  12  22  34  55  83 112 147 191 226 273 330
#     4  10  23  42  62  84 112 140 172 225 283 333
#     4  10  19  33  51  76 113 149 185 225 269 321
#     4  12  22  33  57  83 109 149 190 229 270 324
#     4  10  22  34  52  79 113 156 188 228 272 318
#     4  10  20  37  51  75 117 152 187 226 269 317
#     4  10  21  34  50  77 114 149 187 232 272 326
#
# _framework density 18.710954999999998
#
# number of rings (size 3 to 8) (size 9 to 14) (size 15 to 20)
#    0.000    1.500    2.500    3.000    3.500    1.500 
#    0.000    0.000    0.000    0.750    0.000    3.500 
#    0.000    0.000    0.000    0.000    0.000    0.000 
#
# Total GULP energy -396806.580442 kJ/mol
# GULP energy per Si atom -12400.205639 kJ/mol
# Density = 1.866837 g / cm^3
# Si number density = 18.710955 Si / 1000 Ang^3
#
#
#
# Elastic Constant Matrix: (Units=GPa)
#
#
# Indices 1 2 3 4 5 6 
#
# 1 124.7150 47.2035 57.5816 0.0000 -8.2788 0.0000
# 2 47.2035 51.0097 35.7498 0.0000 -4.8295 0.0000
# 3 57.5816 35.7498 108.3182 0.0000 -6.3389 0.0000
# 4 0.0000 0.0000 0.0000 21.0117 0.0000 -4.3054
# 5 -8.2788 -4.8295 -6.3389 0.0000 29.5154 0.0000
# 6 0.0000 0.0000 0.0000 -4.3054 0.0000 25.6530
#
#
#
# Elastic Compliance Matrix: (Units=1/GPa)
#
#
# Indices 1 2 3 4 5 6 
#
# 1 0.013601 -0.009685 -0.003953 0.000000 0.001381 0.000000
# 2 -0.009685 0.032568 -0.005517 0.000000 0.001428 0.000000
# 3 -0.003953 -0.005517 0.013202 0.000000 0.000824 0.000000
# 4 0.000000 0.000000 0.000000 0.049287 0.000000 0.008272
# 5 0.001381 0.001428 0.000824 0.000000 0.034679 0.000000
# 6 0.000000 0.000000 0.000000 0.008272 0.000000 0.040370
#
#
# Mechanical properties :
#
#
# Convention : Reuss Voigt Hill
#
# Bulk Modulus (GPa) = 47.47896 62.79029 55.13463
# Shear Modulus (GPa) = 21.83058 24.80321 23.31689
#
# Velocity S-wave (km/s) = 3.41944 3.64483 3.53393
# Velocity P-wave (km/s) = 6.40470 7.16547 6.79574
#
# Compressibility (1/GPa) = 0.02106196
#
# Stress axis : x y z
#
# Youngs Moduli (GPa) = 73.52633 30.70517 75.74376
#
# Poissons Ratio (x) = 0.29737 0.29940
# Poissons Ratio (y) = 0.71208 0.41787
# Poissons Ratio (z) = 0.29064 0.16940
#
# Static dielectric constant tensor:
#      x y z
#    x 3.606450 0.000000 -0.020550 
#    y 0.000000 2.996600 0.000000 
#    z -0.020550 0.000000 3.665520 
# 
# 
# High freq. dielectric constant tensor:
#      x y z
#    x 1.733050 0.000000 0.003690 
#    y 0.000000 1.678430 0.000000 
#    z 0.003690 0.000000 1.750000 
# 
# From -- ./inp_files/66966.got.cif
#   From: 2010.06.25/outbox.cif.g09.slc.cpg/sg12_34_cif.got.tgz:66966.got - 2010.06.28 00:19:55.
