data_PCOD8089740
_publ_section_title
;
Structure prediction by ZEFSAII (Michael W. Deem and Ramdas Pophale) SiO2 
 PCOD8089740
Probable space group: C 2/M
;
_chemical_formula_sum "Si O2"
_cell_formula_units_Z 60
_cell_length_a 23.557161
_cell_length_b 13.368388
_cell_length_c 12.927755
_cell_angle_alpha 90.000000
_cell_angle_beta 58.421737
_cell_angle_gamma 90.000000
_cell_volume 3468.381063
_symmetry_space_group_name_H-M "C 2/M"
_symmetry_group_IT_number 12
_symmetry_cell_setting 'monoclinic'
loop_
_space_group_symop_operation_xyz
x,y,z
-x,y,-z
-x,-y,-z
x,-y,z
1/2+x,1/2+y,z
1/2-x,1/2+y,-z
1/2-x,1/2-y,-z
1/2+x,1/2-y,z
loop_
_atom_site_type_symbol
_atom_site_label
_atom_site_fract_x
_atom_site_fract_y
_atom_site_fract_z
Si Si1 0.371187 0.115773 0.639363
Si Si2 0.313076 0.384116 0.471788
Si Si3 0.253348 0.716925 0.337472
Si Si4 0.537298 0.382807 0.066828
Si Si5 0.321542 0.719785 0.056855
Si Si6 0.000000 0.251695 0.500000
Si Si7 0.532004 0.384917 0.654367
Si Si8 0.301230 0.114286 0.919054
O O1 0.311730 0.150757 0.621980
O O2 0.435934 0.178946 0.551082
O O3 0.351756 0.133433 0.776808
O O4 0.385907 0.000000 0.602344
O O5 0.293744 0.500000 0.499590
O O6 0.300873 0.346792 0.366971
O O7 0.266581 0.323105 0.594596
O O8 0.389503 0.365935 0.428126
O O9 0.294661 0.741659 0.196252
O O10 0.551494 0.500000 0.045768
O O11 0.492567 0.354879 0.208243
O O12 0.500000 0.344389 0.000000
O O13 0.606709 0.327870 0.008058
O O14 0.273402 0.644751 0.041247
O O15 0.326765 0.824726 0.992960
O O16 0.993837 0.182273 0.606960
O O17 0.514340 0.500000 0.647566
O O18 0.299986 0.000000 0.954400
#
# Coordination Sequence:
#
# PCOD8089740 Si02
#       8
#     8   8   8   8   8   4   8   8
#     4  10  20  34  52  76 102 137 177 217 261 306
#     4  10  20  36  55  78 105 137 175 217 265 311
#     4  10  20  35  55  77 104 135 173 223 263 309
#     4  10  20  34  54  80 106 137 176 216 261 316
#     4  10  19  33  54  79 104 137 173 213 266 307
#     4  12  20  34  52  76 110 140 174 216 256 322
#     4  10  21  35  53  78 109 142 173 213 266 319
#     4   9  19  34  52  75 105 135 173 217 259 309
#
# _framework density 17.299137999999999
#
# number of rings (size 3 to 8) (size 9 to 14) (size 15 to 20)
#    0.000    2.000    1.333    2.800    0.000    3.200 
#    0.000    0.000    0.000    0.400    0.000    0.000 
#    0.000    0.000    0.000    0.000    0.000    0.000 
#
# Total GULP energy -372123.427993 kJ/mol
# GULP energy per Si atom -12404.114266 kJ/mol
# Density = 1.725976 g / cm^3
# Si number density = 17.299138 Si / 1000 Ang^3
#
#
#
# Elastic Constant Matrix: (Units=GPa)
#
#
# Indices 1 2 3 4 5 6 
#
# 1 66.3745 27.7599 30.9473 0.0000 9.9148 0.0000
# 2 27.7599 97.4691 40.0547 0.0000 5.8562 0.0000
# 3 30.9473 40.0547 80.4452 0.0000 13.0728 0.0000
# 4 0.0000 0.0000 0.0000 22.3674 0.0000 1.9968
# 5 9.9148 5.8562 13.0728 0.0000 31.9710 0.0000
# 6 0.0000 0.0000 0.0000 1.9968 0.0000 29.7406
#
#
#
# Elastic Compliance Matrix: (Units=1/GPa)
#
#
# Indices 1 2 3 4 5 6 
#
# 1 0.019355 -0.003111 -0.005371 0.000000 -0.003236 0.000000
# 2 -0.003111 0.013401 -0.005606 0.000000 0.000802 0.000000
# 3 -0.005371 -0.005606 0.018050 0.000000 -0.004688 0.000000
# 4 0.000000 0.000000 0.000000 0.044978 0.000000 -0.003020
# 5 -0.003236 0.000802 -0.004688 0.000000 0.034052 0.000000
# 6 0.000000 0.000000 0.000000 -0.003020 0.000000 0.033827
#
#
# Mechanical properties :
#
#
# Convention : Reuss Voigt Hill
#
# Bulk Modulus (GPa) = 44.18867 49.09029 46.63948
# Shear Modulus (GPa) = 25.07745 26.51759 25.79752
#
# Velocity S-wave (km/s) = 3.81154 3.91946 3.86587
# Velocity P-wave (km/s) = 6.70595 6.99441 6.85170
#
# Compressibility (1/GPa) = 0.02263023
#
# Stress axis : x y z
#
# Youngs Moduli (GPa) = 51.66711 74.61942 55.40055
#
# Poissons Ratio (x) = 0.23212 0.29755
# Poissons Ratio (y) = 0.16072 0.31060
# Poissons Ratio (z) = 0.27750 0.41835
#
# Static dielectric constant tensor:
#      x y z
#    x 3.241750 0.000000 0.105670 
#    y 0.000000 3.242990 0.000000 
#    z 0.105670 0.000000 3.450120 
# 
# 
# High freq. dielectric constant tensor:
#      x y z
#    x 1.672780 0.000000 0.002640 
#    y 0.000000 1.668430 0.000000 
#    z 0.002640 0.000000 1.672530 
# 
# From -- ./inp_files/176456.got.cif
#   From: 2010.06.25/outbox.cif.g09.slc.cpg/sg12_89_cif.got.tgz:176456.got - 2010.06.28 00:19:55.
