data_PCOD8089678
_publ_section_title
;
Structure prediction by ZEFSAII (Michael W. Deem and Ramdas Pophale) SiO2 
 PCOD8089678
Probable space group: C 2/M
;
_chemical_formula_sum "Si O2"
_cell_formula_units_Z 56
_cell_length_a 29.390411
_cell_length_b 9.343163
_cell_length_c 21.505660
_cell_angle_alpha 90.000000
_cell_angle_beta 30.843531
_cell_angle_gamma 90.000000
_cell_volume 3027.692139
_symmetry_space_group_name_H-M "C 2/M"
_symmetry_group_IT_number 12
_symmetry_cell_setting 'monoclinic'
loop_
_space_group_symop_operation_xyz
x,y,z
-x,y,-z
-x,-y,-z
x,-y,z
1/2+x,1/2+y,z
1/2-x,1/2+y,-z
1/2-x,1/2-y,-z
1/2+x,1/2-y,z
loop_
_atom_site_type_symbol
_atom_site_label
_atom_site_fract_x
_atom_site_fract_y
_atom_site_fract_z
Si Si1 0.416963 0.833997 0.354727
Si Si2 0.763788 0.332645 0.211182
Si Si3 0.719149 0.334102 0.126054
Si Si4 0.776867 0.335080 0.622293
Si Si5 0.465228 0.162553 0.971506
Si Si6 0.887375 0.169904 0.269940
Si Si7 0.115417 0.333326 0.150603
O O1 0.366149 0.807993 0.478840
O O2 0.369247 0.738468 0.358484
O O3 0.518283 0.782657 0.243612
O O4 0.410868 0.000000 0.341949
O O5 0.760698 0.500000 0.229576
O O6 0.715902 0.295271 0.202581
O O7 0.713555 0.252386 0.325391
O O8 0.865123 0.280580 0.087958
O O9 0.699701 0.500000 0.137590
O O10 0.642170 0.246336 0.182511
O O11 0.816076 0.294331 0.984841
O O12 0.765217 0.500000 0.653712
O O13 0.692007 0.282718 0.682347
O O14 0.520495 0.267739 0.863251
O O15 0.471337 0.000000 0.937983
O O16 0.500000 0.169778 0.000000
O O17 0.893506 0.000000 0.269161
O O18 0.115135 0.500000 0.166558
#
# Coordination Sequence:
#
# PCOD8089678 Si02
#       7
#     8   8   8   8   8   8   8
#     4  10  21  38  57  75 102 142 184 220 258 313
#     4  10  20  35  55  79 107 143 180 213 258 317
#     4   9  18  33  55  82 108 130 163 215 269 317
#     4  10  22  37  52  75 108 143 179 221 262 306
#     4  10  19  33  54  77 104 141 178 211 254 312
#     4  11  22  34  52  80 110 139 175 223 271 309
#     4   9  18  35  58  80 102 131 172 218 261 312
#
# _framework density 18.495936
#
# number of rings (size 3 to 8) (size 9 to 14) (size 15 to 20)
#    0.000    2.143    1.429    1.714    0.000    5.429 
#    0.000    3.571    0.000    4.286    0.000    0.000 
#    0.000    0.000    0.000    0.000    0.000    0.000 
#
# Total GULP energy -347306.529767 kJ/mol
# GULP energy per Si atom -12403.804635 kJ/mol
# Density = 1.845384 g / cm^3
# Si number density = 18.495936 Si / 1000 Ang^3
#
#
#
# Elastic Constant Matrix: (Units=GPa)
#
#
# Indices 1 2 3 4 5 6 
#
# 1 101.9419 46.6341 36.6686 -0.0006 19.2304 -0.0001
# 2 46.6341 57.6522 34.4266 0.0092 10.8043 -0.0039
# 3 36.6686 34.4266 74.7856 0.0034 13.2944 -0.0015
# 4 -0.0006 0.0092 0.0034 26.0668 -0.0011 11.4512
# 5 19.2304 10.8043 13.2944 -0.0011 23.9064 -0.0001
# 6 -0.0001 -0.0039 -0.0015 11.4512 -0.0001 28.3907
#
#
#
# Elastic Compliance Matrix: (Units=1/GPa)
#
#
# Indices 1 2 3 4 5 6 
#
# 1 0.017065 -0.011292 -0.001815 0.000006 -0.007614 -0.000004
# 2 -0.011292 0.031991 -0.009138 -0.000015 -0.000293 0.000010
# 3 -0.001815 -0.009138 0.019391 0.000001 -0.005194 -0.000001
# 4 0.000006 -0.000015 0.000001 0.046624 0.000004 -0.018806
# 5 -0.007614 -0.000293 -0.005194 0.000004 0.050975 -0.000002
# 6 -0.000004 0.000010 -0.000001 -0.018806 -0.000002 0.042808
#
#
# Mechanical properties :
#
#
# Convention : Reuss Voigt Hill
#
# Bulk Modulus (GPa) = 41.74299 52.20424 46.97362
# Shear Modulus (GPa) = 19.13289 23.44949 21.29119
#
# Velocity S-wave (km/s) = 3.21976 3.56451 3.39651
# Velocity P-wave (km/s) = 6.03657 6.72510 6.39011
#
# Compressibility (1/GPa) = 0.02395612
#
# Stress axis : x y z
#
# Youngs Moduli (GPa) = 58.60112 31.25865 51.56955
#
# Poissons Ratio (x) = 0.35299 0.09361
# Poissons Ratio (y) = 0.66175 0.47123
# Poissons Ratio (z) = 0.10637 0.28563
#
# Static dielectric constant tensor:
#      x y z
#    x 3.425010 0.000000 0.010630 
#    y 0.000000 3.312810 0.000000 
#    z 0.010630 0.000000 3.344000 
# 
# 
# High freq. dielectric constant tensor:
#      x y z
#    x 1.718910 0.000000 0.005830 
#    y 0.000000 1.709710 0.000000 
#    z 0.005830 0.000000 1.711440 
# 
# From -- ./inp_files/249299.got.cif
#   From: 2010.06.25/outbox.cif.g09.slc.cpg/sg12_125_cif.got.tgz:249299.got - 2010.06.28 00:19:55.
