data_PCOD8089601
_publ_section_title
;
Structure prediction by ZEFSAII (Michael W. Deem and Ramdas Pophale) SiO2 
 PCOD8089601
Probable space group: C 2/M
;
_chemical_formula_sum "Si O2"
_cell_formula_units_Z 52
_cell_length_a 14.909760
_cell_length_b 16.104775
_cell_length_c 11.352096
_cell_angle_alpha 90.000000
_cell_angle_beta 71.937520
_cell_angle_gamma 90.000000
_cell_volume 2591.513829
_symmetry_space_group_name_H-M "C 2/M"
_symmetry_group_IT_number 12
_symmetry_cell_setting 'monoclinic'
loop_
_space_group_symop_operation_xyz
x,y,z
-x,y,-z
-x,-y,-z
x,-y,z
1/2+x,1/2+y,z
1/2-x,1/2+y,-z
1/2-x,1/2-y,-z
1/2+x,1/2-y,z
loop_
_atom_site_type_symbol
_atom_site_label
_atom_site_fract_x
_atom_site_fract_y
_atom_site_fract_z
Si Si1 0.831694 0.903215 0.686961
Si Si2 0.000000 0.728254 0.000000
Si Si3 0.507035 0.317146 0.242645
Si Si4 0.147600 0.405728 0.405265
Si Si5 0.659825 0.596970 0.582171
Si Si6 0.017066 0.357851 0.668793
Si Si7 0.619661 0.906552 0.851858
O O1 0.891975 0.849777 0.754987
O O2 0.854513 0.870049 0.545753
O O3 0.722208 0.887315 0.758175
O O4 0.858235 0.000000 0.690242
O O5 0.014520 0.789838 0.103902
O O6 0.908666 0.666546 0.045181
O O7 0.429885 0.388502 0.297572
O O8 0.465835 0.240547 0.334537
O O9 0.167190 0.500000 0.364438
O O10 0.247655 0.361517 0.394093
O O11 0.094658 0.366790 0.314273
O O12 0.080763 0.400582 0.545514
O O13 0.679571 0.500000 0.561265
O O14 0.040985 0.401853 0.781602
O O15 0.615823 0.000000 0.908499
#
# Coordination Sequence:
#
# PCOD8089601 Si02
#       7
#     8   4   8   8   8   8   8
#     4  10  21  38  63  90 114 149 193 240 291 348
#     4  10  25  42  55  84 114 156 198 246 283 336
#     4  11  24  39  57  82 122 153 194 239 287 341
#     4  10  19  33  53  84 120 148 185 228 282 351
#     4  10  21  38  61  88 118 153 192 237 286 348
#     4  10  20  31  53  86 119 154 179 225 294 341
#     4  10  19  39  64  85 113 153 196 238 285 339
#
# _framework density 20.065491999999999
#
# number of rings (size 3 to 8) (size 9 to 14) (size 15 to 20)
#    0.000    1.846    1.538    3.000    4.308    4.923 
#    0.000    3.077    0.000    7.385    0.000    0.000 
#    0.000    0.000    0.000    0.000    0.000    0.000 
#
# Total GULP energy -322271.811576 kJ/mol
# GULP energy per Si atom -12395.069676 kJ/mol
# Density = 2.001982 g / cm^3
# Si number density = 20.065492 Si / 1000 Ang^3
#
#
#
# Elastic Constant Matrix: (Units=GPa)
#
#
# Indices 1 2 3 4 5 6 
#
# 1 133.9802 31.0508 55.6354 0.0000 12.2506 0.0000
# 2 31.0508 47.9797 29.3371 0.0000 2.9370 0.0000
# 3 55.6354 29.3371 103.2009 0.0000 0.5457 0.0000
# 4 0.0000 0.0000 0.0000 28.8854 0.0000 3.8346
# 5 12.2506 2.9370 0.5457 0.0000 21.6112 0.0000
# 6 0.0000 0.0000 0.0000 3.8346 0.0000 19.0336
#
#
#
# Elastic Compliance Matrix: (Units=1/GPa)
#
#
# Indices 1 2 3 4 5 6 
#
# 1 0.010800 -0.003765 -0.004723 0.000000 -0.005491 0.000000
# 2 -0.003765 0.026770 -0.005573 0.000000 -0.001363 0.000000
# 3 -0.004723 -0.005573 0.013804 0.000000 0.003086 0.000000
# 4 0.000000 0.000000 0.000000 0.035571 0.000000 -0.007166
# 5 -0.005491 -0.001363 0.003086 0.000000 0.049492 0.000000
# 6 0.000000 0.000000 0.000000 -0.007166 0.000000 0.053982
#
#
# Mechanical properties :
#
#
# Convention : Reuss Voigt Hill
#
# Bulk Modulus (GPa) = 43.00785 57.46746 50.23765
# Shear Modulus (GPa) = 22.09547 25.18187 23.63867
#
# Velocity S-wave (km/s) = 3.32198 3.54642 3.43603
# Velocity P-wave (km/s) = 6.01618 6.74326 6.39007
#
# Compressibility (1/GPa) = 0.02325157
#
# Stress axis : x y z
#
# Youngs Moduli (GPa) = 92.59635 37.35540 72.44458
#
# Poissons Ratio (x) = 0.14066 0.34213
# Poissons Ratio (y) = 0.34866 0.40372
# Poissons Ratio (z) = 0.43730 0.20817
#
# Static dielectric constant tensor:
#      x y z
#    x 3.896520 0.000000 0.138890 
#    y 0.000000 3.627610 0.000000 
#    z 0.138890 0.000000 3.444210 
# 
# 
# High freq. dielectric constant tensor:
#      x y z
#    x 1.791580 0.000000 0.002720 
#    y 0.000000 1.782700 0.000000 
#    z 0.002720 0.000000 1.755600 
# 
# From -- ./inp_files/143681.got.cif
#   From: 2010.06.25/outbox.cif.g09.slc.cpg/sg12_72_cif.got.tgz:143681.got - 2010.06.28 00:19:55.
