data_PCOD8089085
_publ_section_title
;
Structure prediction by ZEFSAII (Michael W. Deem and Ramdas Pophale) SiO2 
 PCOD8089085
Probable space group: C 2/M
;
_chemical_formula_sum "Si O2"
_cell_formula_units_Z 56
_cell_length_a 25.142454
_cell_length_b 14.517006
_cell_length_c 9.552896
_cell_angle_alpha 90.000000
_cell_angle_beta 63.469002
_cell_angle_gamma 90.000000
_cell_volume 3119.562759
_symmetry_space_group_name_H-M "C 2/M"
_symmetry_group_IT_number 12
_symmetry_cell_setting 'monoclinic'
loop_
_space_group_symop_operation_xyz
x,y,z
-x,y,-z
-x,-y,-z
x,-y,z
1/2+x,1/2+y,z
1/2-x,1/2+y,-z
1/2-x,1/2-y,-z
1/2+x,1/2-y,z
loop_
_atom_site_type_symbol
_atom_site_label
_atom_site_fract_x
_atom_site_fract_y
_atom_site_fract_z
Si Si1 0.586565 0.294008 0.548303
Si Si2 0.718737 0.735755 0.390780
Si Si3 0.188145 0.395820 0.225838
Si Si4 0.495555 0.607721 0.849383
Si Si5 0.935289 0.399249 0.512532
Si Si6 0.739106 0.607064 0.126556
Si Si7 0.897482 0.893175 0.748407
O O1 0.655567 0.310790 0.498685
O O2 0.549678 0.350881 0.701029
O O3 0.571186 0.185584 0.586363
O O4 0.573218 0.329715 0.406379
O O5 0.750000 0.750000 0.500000
O O6 0.712968 0.834277 0.322534
O O7 0.754280 0.665530 0.247689
O O8 0.210022 0.500000 0.228089
O O9 0.116082 0.388776 0.307524
O O10 0.214410 0.361281 0.047276
O O11 0.506711 0.500000 0.841474
O O12 0.432012 0.630540 0.852014
O O13 0.500000 0.649765 0.000000
O O14 0.926943 0.500000 0.448390
O O15 0.000000 0.393836 0.500000
O O16 0.746769 0.500000 0.154451
O O17 0.672267 0.629356 0.150693
O O18 0.906856 0.000000 0.695966
#
# Coordination Sequence:
#
# PCOD8089085 Si02
#       7
#     8   8   8   8   8   8   8
#     4  10  19  33  51  70  95 132 168 198 241 292
#     4  10  21  34  49  73 102 131 166 208 252 298
#     4   9  18  33  52  73  98 128 163 206 251 293
#     4  10  20  32  48  75 107 133 160 197 241 291
#     4   9  17  30  50  74  94 117 159 208 246 283
#     4   9  18  33  53  76 100 129 167 206 247 298
#     4   9  17  30  50  75 102 131 162 195 233 290
#
# _framework density 17.951233999999999
#
# number of rings (size 3 to 8) (size 9 to 14) (size 15 to 20)
#    0.000    2.571    0.000    2.143    0.000    3.429 
#    0.000    2.857    0.000    0.429    0.000    0.000 
#    0.000    0.000    0.000    0.000    0.000    0.000 
#
# Total GULP energy -347084.711381 kJ/mol
# GULP energy per Si atom -12395.882549 kJ/mol
# Density = 1.791038 g / cm^3
# Si number density = 17.951234 Si / 1000 Ang^3
#
#
#
# Elastic Constant Matrix: (Units=GPa)
#
#
# Indices 1 2 3 4 5 6 
#
# 1 92.0302 40.0628 71.0926 0.0000 14.6441 0.0000
# 2 40.0628 53.2030 38.2931 0.0000 7.2365 0.0000
# 3 71.0926 38.2931 118.7618 0.0000 7.1037 0.0000
# 4 0.0000 0.0000 0.0000 27.3229 0.0000 -3.6054
# 5 14.6441 7.2365 7.1037 0.0000 27.6372 0.0000
# 6 0.0000 0.0000 0.0000 -3.6054 0.0000 20.1101
#
#
#
# Elastic Compliance Matrix: (Units=1/GPa)
#
#
# Indices 1 2 3 4 5 6 
#
# 1 0.025199 -0.009618 -0.011512 0.000000 -0.007875 0.000000
# 2 -0.009618 0.028698 -0.003403 0.000000 -0.001543 0.000000
# 3 -0.011512 -0.003403 0.016241 0.000000 0.002817 0.000000
# 4 0.000000 0.000000 0.000000 0.037486 0.000000 0.006721
# 5 -0.007875 -0.001543 0.002817 0.000000 0.040036 0.000000
# 6 0.000000 0.000000 0.000000 0.006721 0.000000 0.050931
#
#
# Mechanical properties :
#
#
# Convention : Reuss Voigt Hill
#
# Bulk Modulus (GPa) = 47.46091 62.54355 55.00223
# Shear Modulus (GPa) = 19.63227 22.65047 21.14137
#
# Velocity S-wave (km/s) = 3.31062 3.55600 3.43550
# Velocity P-wave (km/s) = 6.41169 7.19560 6.81493
#
# Compressibility (1/GPa) = 0.02106997
#
# Stress axis : x y z
#
# Youngs Moduli (GPa) = 39.68359 34.84537 61.57423
#
# Poissons Ratio (x) = 0.33516 0.70886
# Poissons Ratio (y) = 0.38169 0.20956
# Poissons Ratio (z) = 0.45685 0.11859
#
# Static dielectric constant tensor:
#      x y z
#    x 3.238470 0.000000 -0.182990 
#    y 0.000000 3.646250 0.000000 
#    z -0.182990 0.000000 3.298050 
# 
# 
# High freq. dielectric constant tensor:
#      x y z
#    x 1.677140 0.000000 -0.023630 
#    y 0.000000 1.709450 0.000000 
#    z -0.023630 0.000000 1.680820 
# 
# From -- ./inp_files/96742.got.cif
#   From: 2010.06.25/outbox.cif.g09.slc.cpg/sg12_49_cif.got.tgz:96742.got - 2010.06.28 00:19:55.
