data_PCOD8089581
_publ_section_title
;
Structure prediction by ZEFSAII (Michael W. Deem and Ramdas Pophale) SiO2 
 PCOD8089581
Probable space group: C 2/M
;
_chemical_formula_sum "Si O2"
_cell_formula_units_Z 64
_cell_length_a 23.521697
_cell_length_b 9.417656
_cell_length_c 14.208115
_cell_angle_alpha 90.000000
_cell_angle_beta 97.244000
_cell_angle_gamma 90.000000
_cell_volume 3122.249179
_symmetry_space_group_name_H-M "C 2/M"
_symmetry_group_IT_number 12
_symmetry_cell_setting 'monoclinic'
loop_
_space_group_symop_operation_xyz
x,y,z
-x,y,-z
-x,-y,-z
x,-y,z
1/2+x,1/2+y,z
1/2-x,1/2+y,-z
1/2-x,1/2-y,-z
1/2+x,1/2-y,z
loop_
_atom_site_type_symbol
_atom_site_label
_atom_site_fract_x
_atom_site_fract_y
_atom_site_fract_z
Si Si1 0.516474 0.661867 0.717230
Si Si2 0.923518 0.335177 0.113934
Si Si3 0.109025 0.164928 0.283186
Si Si4 0.875187 0.160929 0.373768
Si Si5 0.314012 0.835421 0.212262
Si Si6 0.735173 0.156982 0.085406
Si Si7 0.895924 0.656158 0.904399
Si Si8 0.193337 0.163764 0.458249
O O1 0.524289 0.500000 0.750603
O O2 0.530793 0.752342 0.813322
O O3 0.450747 0.691275 0.672831
O O4 0.558071 0.695467 0.636694
O O5 0.938258 0.500000 0.126960
O O6 0.859533 0.306280 0.138868
O O7 0.928795 0.287443 0.005312
O O8 0.100967 0.237772 0.181211
O O9 0.163778 0.221354 0.355270
O O10 0.118932 0.000000 0.266053
O O11 0.837107 0.279132 0.315541
O O12 0.859384 0.177245 0.479501
O O13 0.860704 0.000000 0.336681
O O14 0.257573 0.743017 0.180663
O O15 0.297552 0.000000 0.218459
O O16 0.668510 0.136262 0.077537
O O17 0.763900 0.000000 0.084352
O O18 0.750000 0.250000 0.000000
O O19 0.920027 0.500000 0.880403
O O20 0.250000 0.250000 0.500000
O O21 0.212327 0.000000 0.452153
#
# Coordination Sequence:
#
# PCOD8089581 Si02
#       8
#     8   8   8   8   8   8   8   8
#     4   9  19  37  61  88 116 146 190 243 289 339
#     4   9  18  35  55  80 115 151 190 230 279 340
#     4  10  23  41  59  85 116 149 194 244 294 343
#     4   9  19  37  61  87 112 148 191 235 292 347
#     4  10  19  33  53  81 115 149 189 238 288 340
#     4  11  21  34  52  78 113 154 200 243 287 340
#     4  10  22  38  54  78 115 159 198 234 284 344
#     4  10  23  42  62  86 118 152 189 236 292 353
#
# _framework density 20.498042999999999
#
# number of rings (size 3 to 8) (size 9 to 14) (size 15 to 20)
#    0.000    2.250    1.250    0.750    1.750    4.500 
#    0.000    5.000    0.000    0.000    0.000    5.250 
#    0.000    0.000    0.000    0.000    0.000    0.000 
#
# Total GULP energy -396550.514096 kJ/mol
# GULP energy per Si atom -12392.203566 kJ/mol
# Density = 2.045139 g / cm^3
# Si number density = 20.498043 Si / 1000 Ang^3
#
#
#
# Elastic Constant Matrix: (Units=GPa)
#
#
# Indices 1 2 3 4 5 6 
#
# 1 75.1229 27.3432 36.1996 0.0000 11.9572 0.0000
# 2 27.3432 87.0902 33.5733 0.0000 8.6589 0.0000
# 3 36.1996 33.5733 90.3240 0.0000 0.4996 0.0000
# 4 0.0000 0.0000 0.0000 30.6500 0.0000 1.9787
# 5 11.9572 8.6589 0.4996 0.0000 23.1123 0.0000
# 6 0.0000 0.0000 0.0000 1.9787 0.0000 25.0511
#
#
#
# Elastic Compliance Matrix: (Units=1/GPa)
#
#
# Indices 1 2 3 4 5 6 
#
# 1 0.018744 -0.002510 -0.006531 0.000000 -0.008615 0.000000
# 2 -0.002510 0.014321 -0.004295 0.000000 -0.003974 0.000000
# 3 -0.006531 -0.004295 0.015260 0.000000 0.004658 0.000000
# 4 0.000000 0.000000 0.000000 0.032794 0.000000 -0.002590
# 5 -0.008615 -0.003974 0.004658 0.000000 0.049112 0.000000
# 6 0.000000 0.000000 0.000000 -0.002590 0.000000 0.040123
#
#
# Mechanical properties :
#
#
# Convention : Reuss Voigt Hill
#
# Bulk Modulus (GPa) = 46.18717 49.64103 47.91410
# Shear Modulus (GPa) = 24.48046 26.12408 25.30227
#
# Velocity S-wave (km/s) = 3.45959 3.57384 3.51718
# Velocity P-wave (km/s) = 6.20804 6.42649 6.31821
#
# Compressibility (1/GPa) = 0.02165103
#
# Stress axis : x y z
#
# Youngs Moduli (GPa) = 53.35095 69.82545 65.53278
#
# Poissons Ratio (x) = 0.17530 0.42801
# Poissons Ratio (y) = 0.13394 0.28147
# Poissons Ratio (z) = 0.34845 0.29991
#
# Static dielectric constant tensor:
#      x y z
#    x 4.307980 0.000000 -0.060600 
#    y 0.000000 4.080800 0.000000 
#    z -0.060600 0.000000 3.773460 
# 
# 
# High freq. dielectric constant tensor:
#      x y z
#    x 1.803030 0.000000 0.000090 
#    y 0.000000 1.796180 0.000000 
#    z 0.000090 0.000000 1.792170 
# 
# From -- ./inp_files/238685.got.cif
#   From: 2010.06.25/outbox.cif.g09.slc.cpg/sg12_120_cif.got.tgz:238685.got - 2010.06.28 00:19:55.
