data_PCOD8089040
_publ_section_title
;
Structure prediction by ZEFSAII (Michael W. Deem and Ramdas Pophale) SiO2 
 PCOD8089040
Probable space group: C 2/M
;
_chemical_formula_sum "Si O2"
_cell_formula_units_Z 64
_cell_length_a 25.426347
_cell_length_b 9.396334
_cell_length_c 16.957725
_cell_angle_alpha 90.000000
_cell_angle_beta 117.059593
_cell_angle_gamma 90.000000
_cell_volume 3607.949376
_symmetry_space_group_name_H-M "C 2/M"
_symmetry_group_IT_number 12
_symmetry_cell_setting 'monoclinic'
loop_
_space_group_symop_operation_xyz
x,y,z
-x,y,-z
-x,-y,-z
x,-y,z
1/2+x,1/2+y,z
1/2-x,1/2+y,-z
1/2-x,1/2-y,-z
1/2+x,1/2-y,z
loop_
_atom_site_type_symbol
_atom_site_label
_atom_site_fract_x
_atom_site_fract_y
_atom_site_fract_z
Si Si1 0.289339 0.167475 0.250852
Si Si2 0.661619 0.336939 0.219584
Si Si3 0.748630 0.340774 0.920892
Si Si4 0.912495 0.668181 0.403246
Si Si5 0.379114 0.156992 0.948694
Si Si6 0.476198 0.336986 0.070751
Si Si7 0.971384 0.331373 0.601912
Si Si8 0.565406 0.337187 0.270523
O O1 0.231443 0.200726 0.265071
O O2 0.288778 0.255453 0.169678
O O3 0.347059 0.222419 0.336939
O O4 0.293249 0.000000 0.233397
O O5 0.651761 0.500000 0.186301
O O6 0.623159 0.243408 0.134039
O O7 0.633353 0.313380 0.287260
O O8 0.721677 0.500000 0.915373
O O9 0.814788 0.357137 0.938990
O O10 0.750000 0.250000 0.000000
O O11 0.913997 0.500000 0.407087
O O12 0.929848 0.723551 0.502014
O O13 0.961258 0.717189 0.371762
O O14 0.405336 0.000000 0.949905
O O15 0.418625 0.237956 0.040977
O O16 0.456813 0.500000 0.066030
O O17 0.522954 0.295250 0.169281
O O18 0.500000 0.303533 0.000000
O O19 0.967388 0.500000 0.609723
O O20 0.948162 0.261756 0.665453
O O21 0.555603 0.500000 0.289523
#
# Coordination Sequence:
#
# PCOD8089040 Si02
#       8
#     8   8   8   8   8   8   8   8
#     4   9  17  32  57  78  94 128 174 212 249 299
#     4   9  17  32  51  70  98 135 167 200 247 302
#     4  10  21  35  49  71 103 135 167 208 254 300
#     4   8  16  34  57  78  99 128 169 208 252 311
#     4  10  20  32  48  71  98 127 168 214 250 288
#     4  10  19  33  50  68  98 138 172 201 242 301
#     4   9  18  34  55  76 102 133 162 205 259 305
#     4  10  20  33  49  73 104 133 169 208 247 301
#
# _framework density 17.738606999999998
#
# number of rings (size 3 to 8) (size 9 to 14) (size 15 to 20)
#    0.000    2.625    1.250    1.500    0.000    3.750 
#    0.000    6.875    0.000    0.000    0.000    0.000 
#    0.000    0.000    0.000    0.000    0.000    0.000 
#
# Total GULP energy -396629.608264 kJ/mol
# GULP energy per Si atom -12394.675258 kJ/mol
# Density = 1.769823 g / cm^3
# Si number density = 17.738607 Si / 1000 Ang^3
#
#
#
# Elastic Constant Matrix: (Units=GPa)
#
#
# Indices 1 2 3 4 5 6 
#
# 1 88.2723 41.3418 71.9809 0.0000 6.6802 0.0000
# 2 41.3418 75.0553 53.7701 0.0000 -0.4397 0.0000
# 3 71.9809 53.7701 120.6758 0.0000 -1.2794 0.0000
# 4 0.0000 0.0000 0.0000 24.3507 0.0000 -6.4521
# 5 6.6802 -0.4397 -1.2794 0.0000 33.5291 0.0000
# 6 0.0000 0.0000 0.0000 -6.4521 0.0000 23.8819
#
#
#
# Elastic Compliance Matrix: (Units=1/GPa)
#
#
# Indices 1 2 3 4 5 6 
#
# 1 0.023802 -0.004304 -0.012336 0.000000 -0.005269 0.000000
# 2 -0.004304 0.020349 -0.006490 0.000000 0.000877 0.000000
# 3 -0.012336 -0.006490 0.018569 0.000000 0.003081 0.000000
# 4 0.000000 0.000000 0.000000 0.044233 0.000000 0.011950
# 5 -0.005269 0.000877 0.003081 0.000000 0.031004 0.000000
# 6 0.000000 0.000000 0.000000 0.011950 0.000000 0.045101
#
#
# Mechanical properties :
#
#
# Convention : Reuss Voigt Hill
#
# Bulk Modulus (GPa) = 60.75254 68.68767 64.72010
# Shear Modulus (GPa) = 21.29419 24.14638 22.72028
#
# Velocity S-wave (km/s) = 3.46850 3.69349 3.58276
# Velocity P-wave (km/s) = 7.09674 7.54953 7.32663
#
# Compressibility (1/GPa) = 0.01646022
#
# Stress axis : x y z
#
# Youngs Moduli (GPa) = 42.01303 49.14179 53.85248
#
# Poissons Ratio (x) = 0.21152 0.66430
# Poissons Ratio (y) = 0.18083 0.34953
# Poissons Ratio (z) = 0.51825 0.31895
#
# Static dielectric constant tensor:
#      x y z
#    x 3.338390 0.000000 0.264810 
#    y 0.000000 3.398790 0.000000 
#    z 0.264810 0.000000 3.222790 
# 
# 
# High freq. dielectric constant tensor:
#      x y z
#    x 1.689280 0.000000 0.004150 
#    y 0.000000 1.677180 0.000000 
#    z 0.004150 0.000000 1.667960 
# 
# From -- ./inp_files/244250.got.cif
#   From: 2010.06.25/outbox.cif.g09.slc.cpg/sg12_123_cif.got.tgz:244250.got - 2010.06.28 00:19:55.
