data_PCOD8089745
_publ_section_title
;
Structure prediction by ZEFSAII (Michael W. Deem and Ramdas Pophale) SiO2 
 PCOD8089745
Probable space group: C 2/M
;
_chemical_formula_sum "Si O2"
_cell_formula_units_Z 64
_cell_length_a 18.642440
_cell_length_b 15.136905
_cell_length_c 13.901757
_cell_angle_alpha 90.000000
_cell_angle_beta 58.793606
_cell_angle_gamma 90.000000
_cell_volume 3355.299381
_symmetry_space_group_name_H-M "C 2/M"
_symmetry_group_IT_number 12
_symmetry_cell_setting 'monoclinic'
loop_
_space_group_symop_operation_xyz
x,y,z
-x,y,-z
-x,-y,-z
x,-y,z
1/2+x,1/2+y,z
1/2-x,1/2+y,-z
1/2-x,1/2-y,-z
1/2+x,1/2-y,z
loop_
_atom_site_type_symbol
_atom_site_label
_atom_site_fract_x
_atom_site_fract_y
_atom_site_fract_z
Si Si1 0.641393 0.339508 0.138839
Si Si2 0.674237 0.097288 0.992946
Si Si3 0.644556 0.400980 0.779716
Si Si4 0.029841 0.097898 0.683495
Si Si5 0.884530 0.340125 0.767406
Si Si6 0.045442 0.728208 0.569309
Si Si7 0.405590 0.264561 0.030808
Si Si8 0.172368 0.401122 0.397960
O O1 0.571517 0.396951 0.242777
O O2 0.664604 0.252927 0.185816
O O3 0.725874 0.392925 0.061894
O O4 0.598243 0.308022 0.070629
O O5 0.629612 0.101769 0.127929
O O6 0.656728 0.000000 0.962540
O O7 0.638353 0.168427 0.942422
O O8 0.642611 0.500000 0.826589
O O9 0.565429 0.387854 0.765632
O O10 0.644347 0.328661 0.863174
O O11 0.728456 0.388463 0.658355
O O12 0.069272 0.173179 0.587525
O O13 0.054316 0.000000 0.627620
O O14 0.850782 0.390055 0.697859
O O15 0.984024 0.319139 0.688516
O O16 0.128208 0.668895 0.499159
O O17 0.000000 0.737170 0.500000
O O18 0.500000 0.252013 0.000000
O O19 0.144583 0.500000 0.447808
#
# Coordination Sequence:
#
# PCOD8089745 Si02
#       8
#     8   8   8   8   8   8   8   8
#     4  10  19  35  54  81 111 145 185 225 273 321
#     4  11  22  34  55  82 114 155 191 223 264 325
#     4  10  21  35  55  82 106 137 179 224 279 328
#     4  10  20  35  55  78 107 137 174 224 275 329
#     4   9  18  33  53  77 107 138 181 226 271 315
#     4   9  20  35  54  78 102 134 176 221 275 325
#     4  11  21  36  56  81 117 150 182 226 275 328
#     4  10  19  33  54  79 106 135 174 226 272 319
#
# _framework density 19.074304999999999
#
# number of rings (size 3 to 8) (size 9 to 14) (size 15 to 20)
#    0.000    2.000    1.250    3.750    0.000    6.000 
#    0.000    0.000    0.000    0.750    0.000    0.000 
#    0.000    0.000    0.000    0.000    0.000    0.000 
#
# Total GULP energy -396753.112175 kJ/mol
# GULP energy per Si atom -12398.534755 kJ/mol
# Density = 1.903089 g / cm^3
# Si number density = 19.074305 Si / 1000 Ang^3
#
#
#
# Elastic Constant Matrix: (Units=GPa)
#
#
# Indices 1 2 3 4 5 6 
#
# 1 64.8887 43.5265 22.7990 0.0000 -12.2545 0.0000
# 2 43.5265 162.0717 61.7598 0.0000 -9.7142 0.0000
# 3 22.7990 61.7598 86.9222 0.0000 -13.2986 0.0000
# 4 0.0000 0.0000 0.0000 32.2970 0.0000 1.9226
# 5 -12.2545 -9.7142 -13.2986 0.0000 17.1018 0.0000
# 6 0.0000 0.0000 0.0000 1.9226 0.0000 21.3906
#
#
#
# Elastic Compliance Matrix: (Units=1/GPa)
#
#
# Indices 1 2 3 4 5 6 
#
# 1 0.021026 -0.004834 -0.000222 0.000000 0.012148 0.000000
# 2 -0.004834 0.009573 -0.005938 0.000000 -0.002644 0.000000
# 3 -0.000222 -0.005938 0.017300 0.000000 0.009921 0.000000
# 4 0.000000 0.000000 0.000000 0.031129 0.000000 -0.002798
# 5 0.012148 -0.002644 0.009921 0.000000 0.073391 0.000000
# 6 0.000000 0.000000 0.000000 -0.002798 0.000000 0.047001
#
#
# Mechanical properties :
#
#
# Convention : Reuss Voigt Hill
#
# Bulk Modulus (GPa) = 38.59454 63.33923 50.96688
# Shear Modulus (GPa) = 21.73498 26.54436 24.13967
#
# Velocity S-wave (km/s) = 3.37930 3.73450 3.56133
# Velocity P-wave (km/s) = 5.95851 7.20236 6.60976
#
# Compressibility (1/GPa) = 0.02591040
#
# Stress axis : x y z
#
# Youngs Moduli (GPa) = 47.56065 104.46333 57.80475
#
# Poissons Ratio (x) = 0.50500 0.01280
# Poissons Ratio (y) = 0.22992 0.34325
# Poissons Ratio (z) = 0.01053 0.62032
#
# Static dielectric constant tensor:
#      x y z
#    x 3.324540 0.000000 -0.164370 
#    y 0.000000 3.640290 0.000000 
#    z -0.164370 0.000000 3.438550 
# 
# 
# High freq. dielectric constant tensor:
#      x y z
#    x 1.726710 0.000000 -0.017430 
#    y 0.000000 1.750220 0.000000 
#    z -0.017430 0.000000 1.728030 
# 
# From -- ./inp_files/225261.got.cif
#   From: 2010.06.25/outbox.cif.g09.slc.cpg/sg12_113_cif.got.tgz:225261.got - 2010.06.28 00:19:55.
