data_PCOD8089939
_publ_section_title
;
Structure prediction by ZEFSAII (Michael W. Deem and Ramdas Pophale) SiO2 
 PCOD8089939
Probable space group: C 2/M
;
_chemical_formula_sum "Si O2"
_cell_formula_units_Z 56
_cell_length_a 17.943281
_cell_length_b 9.182902
_cell_length_c 28.828019
_cell_angle_alpha 90.000000
_cell_angle_beta 141.019974
_cell_angle_gamma 90.000000
_cell_volume 2988.005421
_symmetry_space_group_name_H-M "C 2/M"
_symmetry_group_IT_number 12
_symmetry_cell_setting 'monoclinic'
loop_
_space_group_symop_operation_xyz
x,y,z
-x,y,-z
-x,-y,-z
x,-y,z
1/2+x,1/2+y,z
1/2-x,1/2+y,-z
1/2-x,1/2-y,-z
1/2+x,1/2-y,z
loop_
_atom_site_type_symbol
_atom_site_label
_atom_site_fract_x
_atom_site_fract_y
_atom_site_fract_z
Si Si1 0.203891 0.828485 0.432471
Si Si2 0.133229 0.670804 0.574615
Si Si3 0.221620 0.829373 0.708178
Si Si4 0.938948 0.172740 0.285738
Si Si5 0.082753 0.327144 0.999336
Si Si6 0.849307 0.173404 0.143474
Si Si7 0.994166 0.670556 0.856636
O O1 0.250000 0.750000 0.500000
O O2 0.287348 0.783626 0.430468
O O3 0.072343 0.771374 0.357642
O O4 0.205679 0.000000 0.442341
O O5 0.139394 0.500000 0.587446
O O6 0.182990 0.751206 0.643046
O O7 0.000000 0.722377 0.500000
O O8 0.142935 0.767570 0.712420
O O9 0.356728 0.792707 0.784677
O O10 0.200753 0.000000 0.691420
O O11 0.890252 0.232370 0.213397
O O12 0.934095 0.000000 0.282491
O O13 0.079564 0.500000 0.000567
O O14 0.216200 0.270359 0.070581
O O15 0.034063 0.273471 0.926418
O O16 0.000000 0.261736 0.000000
O O17 0.934204 0.240686 0.146453
O O18 0.858145 0.000000 0.144446
O O19 0.020135 0.500000 0.862877
#
# Coordination Sequence:
#
# PCOD8089939 Si02
#       7
#     8   8   8   8   8   8   8
#     4  10  20  34  52  73  99 130 164 205 248 294
#     4  10  21  36  53  76 106 135 164 205 257 307
#     4  10  20  34  53  75 100 133 171 211 252 295
#     4   9  18  33  52  74  98 127 169 212 244 287
#     4   9  17  31  53  78 102 133 174 214 250 294
#     4  10  19  33  55  77 100 136 174 206 250 307
#     4  10  20  33  50  76 107 132 163 213 260 296
#
# _framework density 18.741599000000001
#
# number of rings (size 3 to 8) (size 9 to 14) (size 15 to 20)
#    0.000    2.286    0.000    3.000    0.000    6.000 
#    0.000    1.429    0.000    3.429    0.000    0.000 
#    0.000    0.000    0.000    0.000    0.000    0.000 
#
# Total GULP energy -347273.473419 kJ/mol
# GULP energy per Si atom -12402.624051 kJ/mol
# Density = 1.869894 g / cm^3
# Si number density = 18.741599 Si / 1000 Ang^3
#
#
#
# Elastic Constant Matrix: (Units=GPa)
#
#
# Indices 1 2 3 4 5 6 
#
# 1 192.5977 43.4009 105.5895 0.0000 -3.7237 0.0000
# 2 43.4009 25.2505 43.4372 0.0000 -3.3537 -0.0001
# 3 105.5895 43.4372 200.5370 0.0000 -9.2679 0.0000
# 4 0.0000 0.0000 0.0000 21.5099 0.0000 -4.2161
# 5 -3.7237 -3.3537 -9.2679 0.0000 41.6747 0.0000
# 6 0.0000 -0.0001 0.0000 -4.2161 0.0000 26.3750
#
#
#
# Elastic Compliance Matrix: (Units=1/GPa)
#
#
# Indices 1 2 3 4 5 6 
#
# 1 0.009075 -0.011815 -0.002249 0.000000 -0.000640 0.000000
# 2 -0.011815 0.078682 -0.010688 0.000000 0.002899 0.000000
# 3 -0.002249 -0.010688 0.008524 0.000000 0.000835 0.000000
# 4 0.000000 0.000000 0.000000 0.047994 0.000000 0.007672
# 5 -0.000640 0.002899 0.000835 0.000000 0.024357 0.000000
# 6 0.000000 0.000000 0.000000 0.007672 0.000000 0.039141
#
#
# Mechanical properties :
#
#
# Convention : Reuss Voigt Hill
#
# Bulk Modulus (GPa) = 21.37759 89.24895 55.31327
# Shear Modulus (GPa) = 18.32381 32.97575 25.64978
#
# Velocity S-wave (km/s) = 3.13022 4.19918 3.70347
# Velocity P-wave (km/s) = 4.94931 8.44008 6.91848
#
# Compressibility (1/GPa) = 0.04677796
#
# Stress axis : x y z
#
# Youngs Moduli (GPa) = 110.19169 12.70943 117.31226
#
# Poissons Ratio (x) = 0.15016 0.26380
# Poissons Ratio (y) = 1.30191 1.25381
# Poissons Ratio (z) = 0.24779 0.13584
#
# Static dielectric constant tensor:
#      x y z
#    x 3.600040 0.000000 0.062790 
#    y 0.000000 3.049070 0.000000 
#    z 0.062790 0.000000 3.690780 
# 
# 
# High freq. dielectric constant tensor:
#      x y z
#    x 1.748870 0.000000 0.001710 
#    y 0.000000 1.685970 0.000000 
#    z 0.001710 0.000000 1.748970 
# 
# From -- ./inp_files/213406.got.cif
#   From: 2010.06.25/outbox.cif.g09.slc.cpg/sg12_107_cif.got.tgz:213406.got - 2010.06.28 00:19:55.
