data_PCOD8089104
_publ_section_title
;
Structure prediction by ZEFSAII (Michael W. Deem and Ramdas Pophale) SiO2 
 PCOD8089104
Probable space group: C 2/M
;
_chemical_formula_sum "Si O2"
_cell_formula_units_Z 56
_cell_length_a 9.872021
_cell_length_b 25.669463
_cell_length_c 14.179247
_cell_angle_alpha 90.000000
_cell_angle_beta 112.898648
_cell_angle_gamma 90.000000
_cell_volume 3309.995470
_symmetry_space_group_name_H-M "C 2/M"
_symmetry_group_IT_number 12
_symmetry_cell_setting 'monoclinic'
loop_
_space_group_symop_operation_xyz
x,y,z
-x,y,-z
-x,-y,-z
x,-y,z
1/2+x,1/2+y,z
1/2-x,1/2+y,-z
1/2-x,1/2-y,-z
1/2+x,1/2-y,z
loop_
_atom_site_type_symbol
_atom_site_label
_atom_site_fract_x
_atom_site_fract_y
_atom_site_fract_z
Si Si1 0.432577 0.162001 0.274470
Si Si2 0.595993 0.192976 0.944332
Si Si3 0.959771 0.442500 0.631780
Si Si4 0.877900 0.154756 0.706858
Si Si5 0.915084 0.754252 0.574656
Si Si6 0.249754 0.556946 0.585862
Si Si7 0.567918 0.310335 0.923955
O O1 0.401680 0.166944 0.156202
O O2 0.514375 0.106230 0.293269
O O3 0.280717 0.167242 0.291026
O O4 0.538728 0.204534 0.350210
O O5 0.522233 0.249686 0.906788
O O6 0.500000 0.164570 0.000000
O O7 0.757456 0.190154 0.031320
O O8 0.953038 0.500000 0.679878
O O9 0.805059 0.432527 0.535798
O O10 0.099611 0.441645 0.602309
O O11 0.932419 0.194891 0.643033
O O12 0.869360 0.098383 0.654655
O O13 0.003114 0.155827 0.820647
O O14 0.750000 0.750000 0.500000
O O15 0.000000 0.759248 0.500000
O O16 0.324759 0.500000 0.614398
O O17 0.500000 0.335671 0.000000
#
# Coordination Sequence:
#
# PCOD8089104 Si02
#       7
#     8   8   8   8   8   8   8
#     4  11  20  33  53  76 108 144 174 217 270 312
#     4  10  21  33  52  75 104 135 180 222 255 314
#     4   8  15  28  49  75 103 137 181 218 253 306
#     4  11  20  33  54  76 107 144 175 215 266 318
#     4  12  24  34  49  78 114 142 172 210 264 321
#     4   8  15  29  50  76 103 137 178 219 256 304
#     4  10  19  33  51  72  99 138 180 216 258 311
#
# _framework density 16.918451999999998
#
# number of rings (size 3 to 8) (size 9 to 14) (size 15 to 20)
#    0.000    2.000    4.286    1.714    2.000    1.143 
#    0.000    0.000    0.000    2.143    0.000    2.000 
#    0.000    0.000    0.000    0.000    0.000    0.000 
#
# Total GULP energy -346875.199590 kJ/mol
# GULP energy per Si atom -12388.399985 kJ/mol
# Density = 1.687994 g / cm^3
# Si number density = 16.918452 Si / 1000 Ang^3
#
#
#
# Elastic Constant Matrix: (Units=GPa)
#
#
# Indices 1 2 3 4 5 6 
#
# 1 59.3550 20.9731 23.4132 0.0000 0.1684 0.0000
# 2 20.9731 119.5658 57.8811 0.0000 7.3875 0.0000
# 3 23.4132 57.8811 101.2869 0.0000 8.2313 0.0000
# 4 0.0000 0.0000 0.0000 15.8586 0.0000 3.7881
# 5 0.1684 7.3875 8.2313 0.0000 29.3368 0.0000
# 6 0.0000 0.0000 0.0000 3.7881 0.0000 15.8770
#
#
#
# Elastic Compliance Matrix: (Units=1/GPa)
#
#
# Indices 1 2 3 4 5 6 
#
# 1 0.018818 -0.001692 -0.003488 0.000000 0.001297 0.000000
# 2 -0.001692 0.011748 -0.006225 0.000000 -0.001202 0.000000
# 3 -0.003488 -0.006225 0.014436 0.000000 -0.002463 0.000000
# 4 0.000000 0.000000 0.000000 0.066868 0.000000 -0.015954
# 5 0.001297 -0.001202 -0.002463 0.000000 0.035073 0.000000
# 6 0.000000 0.000000 0.000000 -0.015954 0.000000 0.066791
#
#
# Mechanical properties :
#
#
# Convention : Reuss Voigt Hill
#
# Bulk Modulus (GPa) = 45.06076 53.86026 49.46051
# Shear Modulus (GPa) = 20.49662 24.07717 22.28689
#
# Velocity S-wave (km/s) = 3.48443 3.77653 3.63342
# Velocity P-wave (km/s) = 6.54830 7.13587 6.84839
#
# Compressibility (1/GPa) = 0.02219226
#
# Stress axis : x y z
#
# Youngs Moduli (GPa) = 53.14044 85.12080 69.26888
#
# Poissons Ratio (x) = 0.14406 0.24162
# Poissons Ratio (y) = 0.08994 0.43117
# Poissons Ratio (z) = 0.18536 0.52984
#
# Static dielectric constant tensor:
#      x y z
#    x 2.982730 0.000000 0.048530 
#    y 0.000000 3.387310 0.000000 
#    z 0.048530 0.000000 3.182730 
# 
# 
# High freq. dielectric constant tensor:
#      x y z
#    x 1.632600 0.000000 0.006930 
#    y 0.000000 1.635380 0.000000 
#    z 0.006930 0.000000 1.656020 
# 
# From -- ./inp_files/170497.got.cif
#   From: 2010.06.25/outbox.cif.g09.slc.cpg/sg12_86_cif.got.tgz:170497.got - 2010.06.28 00:19:55.
