data_PCOD8089660
_publ_section_title
;
Structure prediction by ZEFSAII (Michael W. Deem and Ramdas Pophale) SiO2 
 PCOD8089660
Probable space group: C 2/M
;
_chemical_formula_sum "Si O2"
_cell_formula_units_Z 40
_cell_length_a 23.106441
_cell_length_b 8.548598
_cell_length_c 11.475779
_cell_angle_alpha 90.000000
_cell_angle_beta 108.268471
_cell_angle_gamma 90.000000
_cell_volume 2152.533774
_symmetry_space_group_name_H-M "C 2/M"
_symmetry_group_IT_number 12
_symmetry_cell_setting 'monoclinic'
loop_
_space_group_symop_operation_xyz
x,y,z
-x,y,-z
-x,-y,-z
x,-y,z
1/2+x,1/2+y,z
1/2-x,1/2+y,-z
1/2-x,1/2-y,-z
1/2+x,1/2-y,z
loop_
_atom_site_type_symbol
_atom_site_label
_atom_site_fract_x
_atom_site_fract_y
_atom_site_fract_z
Si Si1 0.584552 0.318315 0.114670
Si Si2 0.306380 0.818507 0.686799
Si Si3 0.055887 0.686029 0.610572
Si Si4 0.966136 0.316015 0.142776
Si Si5 0.820361 0.316188 0.428492
O O1 0.570231 0.500000 0.121392
O O2 0.652530 0.279931 0.198616
O O3 0.536790 0.220092 0.161621
O O4 0.577886 0.272670 0.975035
O O5 0.236362 0.773191 0.664955
O O6 0.325787 0.774110 0.567945
O O7 0.316150 0.000000 0.718858
O O8 0.053561 0.500000 0.604496
O O9 0.050316 0.745774 0.739212
O O10 0.119123 0.746701 0.596385
O O11 0.000000 0.755450 0.500000
O O12 0.955174 0.500000 0.124054
O O13 0.810483 0.500000 0.404404
#
# Coordination Sequence:
#
# PCOD8089660 Si02
#       5
#     8   8   8   8   8
#     4  11  21  34  52  74 103 136 171 211 255 297
#     4  10  19  33  54  77 102 134 172 210 250 299
#     4   9  17  31  53  79 105 133 163 201 252 305
#     4  10  19  33  54  78 103 132 170 209 249 302
#     4   9  18  33  53  78 106 133 166 208 253 301
#
# _framework density 18.582750999999998
#
# number of rings (size 3 to 8) (size 9 to 14) (size 15 to 20)
#    0.000    2.200    0.000    5.400    0.000    4.000 
#    0.000    3.000    0.000    4.200    0.000    0.000 
#    0.000    0.000    0.000    0.000    0.000    0.000 
#
# Total GULP energy -248066.941764 kJ/mol
# GULP energy per Si atom -12403.347088 kJ/mol
# Density = 1.854046 g / cm^3
# Si number density = 18.582751 Si / 1000 Ang^3
#
#
#
# Elastic Constant Matrix: (Units=GPa)
#
#
# Indices 1 2 3 4 5 6 
#
# 1 132.3687 14.7207 82.7585 0.0000 -1.2319 0.0000
# 2 14.7207 46.9059 27.7317 0.0000 5.5280 0.0000
# 3 82.7585 27.7317 128.6420 0.0000 7.9601 0.0000
# 4 0.0000 0.0000 0.0000 20.5450 0.0000 7.9529
# 5 -1.2319 5.5280 7.9601 0.0000 33.8444 0.0000
# 6 0.0000 0.0000 0.0000 7.9529 0.0000 25.2395
#
#
#
# Elastic Compliance Matrix: (Units=1/GPa)
#
#
# Indices 1 2 3 4 5 6 
#
# 1 0.012857 0.000760 -0.008581 0.000000 0.002362 0.000000
# 2 0.000760 0.024741 -0.005656 0.000000 -0.002683 0.000000
# 3 -0.008581 -0.005656 0.014689 0.000000 -0.002843 0.000000
# 4 0.000000 0.000000 0.000000 0.055435 0.000000 -0.017467
# 5 0.002362 -0.002683 -0.002843 0.000000 0.030740 0.000000
# 6 0.000000 0.000000 0.000000 -0.017467 0.000000 0.045124
#
#
# Mechanical properties :
#
#
# Convention : Reuss Voigt Hill
#
# Bulk Modulus (GPa) = 39.47536 62.03761 50.75648
# Shear Modulus (GPa) = 22.83237 28.10616 25.46927
#
# Velocity S-wave (km/s) = 3.50907 3.89329 3.70616
# Velocity P-wave (km/s) = 6.14062 7.32579 6.75923
#
# Compressibility (1/GPa) = 0.02533226
#
# Stress axis : x y z
#
# Youngs Moduli (GPa) = 77.77660 40.41851 68.07589
#
# Poissons Ratio (x) = -0.03072 0.58419
# Poissons Ratio (y) = -0.05911 0.38507
# Poissons Ratio (z) = 0.66744 0.22863
#
# Static dielectric constant tensor:
#      x y z
#    x 3.418910 0.000000 0.013390 
#    y 0.000000 3.209440 0.000000 
#    z 0.013390 0.000000 3.482590 
# 
# 
# High freq. dielectric constant tensor:
#      x y z
#    x 1.714540 0.000000 0.009970 
#    y 0.000000 1.708740 0.000000 
#    z 0.009970 0.000000 1.722980 
# 
# From -- ./inp_files/162719.got.cif
#   From: 2010.06.25/outbox.cif.g09.slc.cpg/sg12_82_cif.got.tgz:162719.got - 2010.06.28 00:19:55.
