data_PCOD8089933
_publ_section_title
;
Structure prediction by ZEFSAII (Michael W. Deem and Ramdas Pophale) SiO2 
 PCOD8089933
Probable space group: C 2/M
;
_chemical_formula_sum "Si O2"
_cell_formula_units_Z 56
_cell_length_a 20.606846
_cell_length_b 9.213294
_cell_length_c 19.796201
_cell_angle_alpha 90.000000
_cell_angle_beta 57.240384
_cell_angle_gamma 90.000000
_cell_volume 3160.658398
_symmetry_space_group_name_H-M "C 2/M"
_symmetry_group_IT_number 12
_symmetry_cell_setting 'monoclinic'
loop_
_space_group_symop_operation_xyz
x,y,z
-x,y,-z
-x,-y,-z
x,-y,z
1/2+x,1/2+y,z
1/2-x,1/2+y,-z
1/2-x,1/2-y,-z
1/2+x,1/2-y,z
loop_
_atom_site_type_symbol
_atom_site_label
_atom_site_fract_x
_atom_site_fract_y
_atom_site_fract_z
Si Si1 0.292579 0.328616 0.914981
Si Si2 0.184754 0.667970 0.496151
Si Si3 0.456633 0.165307 0.094336
Si Si4 0.408481 0.834468 0.326501
Si Si5 0.247391 0.830859 0.346035
Si Si6 0.215065 0.671553 0.822411
Si Si7 0.528947 0.329537 0.176186
O O1 0.279061 0.500000 0.930425
O O2 0.258379 0.266798 0.863745
O O3 0.382240 0.288322 0.863381
O O4 0.250000 0.250000 0.000000
O O5 0.207040 0.500000 0.476282
O O6 0.250000 0.750000 0.500000
O O7 0.106709 0.685919 0.584336
O O8 0.181454 0.740856 0.423752
O O9 0.371771 0.232778 0.131760
O O10 0.502595 0.261695 0.120969
O O11 0.451981 0.000000 0.124298
O O12 0.500000 0.172157 0.000000
O O13 0.332962 0.792304 0.325088
O O14 0.479559 0.732951 0.266278
O O15 0.430937 0.000000 0.297960
O O16 0.240591 0.784601 0.271439
O O17 0.230387 0.000000 0.366626
O O18 0.210831 0.500000 0.830859
O O19 0.515996 0.500000 0.180833
#
# Coordination Sequence:
#
# PCOD8089933 Si02
#       7
#     8   8   8   8   8   8   8
#     4  10  22  39  56  75 101 136 176 215 257 307
#     4   9  17  28  45  72 105 136 167 206 250 302
#     4  10  19  33  55  76  95 130 174 210 252 308
#     4   9  17  31  50  73 102 136 174 205 243 306
#     4   9  16  29  50  75 101 130 169 215 255 296
#     4   9  17  33  54  74  99 133 175 214 249 302
#     4  11  22  33  50  78 109 133 162 214 266 303
#
# _framework density 17.717827
#
# number of rings (size 3 to 8) (size 9 to 14) (size 15 to 20)
#    0.000    2.429    1.429    2.571    0.000    5.429 
#    0.000    1.429    0.000    0.857    0.000    6.000 
#    0.000    0.000    0.000    0.000    0.000    0.000 
#
# Total GULP energy -347106.095986 kJ/mol
# GULP energy per Si atom -12396.646285 kJ/mol
# Density = 1.767750 g / cm^3
# Si number density = 17.717827 Si / 1000 Ang^3
#
#
#
# Elastic Constant Matrix: (Units=GPa)
#
#
# Indices 1 2 3 4 5 6 
#
# 1 102.9031 43.0008 62.0080 0.0000 9.3942 0.0007
# 2 43.0008 73.5142 61.9847 0.0001 -4.7593 0.0021
# 3 62.0080 61.9847 152.7768 -0.0002 11.0036 -0.0004
# 4 0.0000 0.0001 -0.0002 30.7035 0.0000 -3.0804
# 5 9.3942 -4.7593 11.0036 0.0000 25.3131 0.0000
# 6 0.0007 0.0021 -0.0004 -3.0804 0.0000 17.9753
#
#
#
# Elastic Compliance Matrix: (Units=1/GPa)
#
#
# Indices 1 2 3 4 5 6 
#
# 1 0.014683 -0.006442 -0.002959 0.000000 -0.005374 0.000000
# 2 -0.006442 0.025100 -0.008342 0.000000 0.010736 -0.000003
# 3 -0.002959 -0.008342 0.011526 0.000000 -0.005481 0.000001
# 4 0.000000 0.000000 0.000000 0.033139 0.000000 0.005679
# 5 -0.005374 0.010736 -0.005481 0.000000 0.045901 -0.000001
# 6 0.000000 -0.000003 0.000001 0.005679 -0.000001 0.056605
#
#
# Mechanical properties :
#
#
# Convention : Reuss Voigt Hill
#
# Bulk Modulus (GPa) = 63.19906 73.68680 68.44293
# Shear Modulus (GPa) = 21.95734 25.61176 23.78455
#
# Velocity S-wave (km/s) = 3.52416 3.80615 3.66786
# Velocity P-wave (km/s) = 7.23234 7.80993 7.52668
#
# Compressibility (1/GPa) = 0.01582302
#
# Stress axis : x y z
#
# Youngs Moduli (GPa) = 68.10403 39.84102 86.76193
#
# Poissons Ratio (x) = 0.25665 0.25672
# Poissons Ratio (y) = 0.43872 0.72378
# Poissons Ratio (z) = 0.20152 0.33236
#
# Static dielectric constant tensor:
#      x y z
#    x 3.162990 0.000000 0.155620 
#    y 0.000000 3.251360 0.000000 
#    z 0.155620 0.000000 4.016410 
# 
# 
# High freq. dielectric constant tensor:
#      x y z
#    x 1.649120 0.000000 0.005110 
#    y 0.000000 1.671480 0.000000 
#    z 0.005110 0.000000 1.708150 
# 
# From -- ./inp_files/319023.got.cif
#   From: 2010.06.25/outbox.cif.g09.slc.cpg/sg12_160_cif.got.tgz:319023.got - 2010.06.28 00:19:55.
