data_PCOD8089198
_publ_section_title
;
Structure prediction by ZEFSAII (Michael W. Deem and Ramdas Pophale) SiO2 
 PCOD8089198
Probable space group: C 2/M
;
_chemical_formula_sum "Si O2"
_cell_formula_units_Z 48
_cell_length_a 31.280236
_cell_length_b 8.618760
_cell_length_c 9.040588
_cell_angle_alpha 90.000000
_cell_angle_beta 90.002648
_cell_angle_gamma 90.000000
_cell_volume 2437.314016
_symmetry_space_group_name_H-M "C 2/M"
_symmetry_group_IT_number 12
_symmetry_cell_setting 'monoclinic'
loop_
_space_group_symop_operation_xyz
x,y,z
-x,y,-z
-x,-y,-z
x,-y,z
1/2+x,1/2+y,z
1/2-x,1/2+y,-z
1/2-x,1/2-y,-z
1/2+x,1/2-y,z
loop_
_atom_site_type_symbol
_atom_site_label
_atom_site_fract_x
_atom_site_fract_y
_atom_site_fract_z
Si Si1 0.582753 0.684437 0.666166
Si Si2 0.168108 0.184181 0.829249
Si Si3 0.084792 0.185156 0.332413
Si Si4 0.168270 0.815585 0.165717
Si Si5 0.251238 0.816664 0.337212
Si Si6 0.999333 0.814911 0.832853
O O1 0.580952 0.500000 0.663622
O O2 0.624205 0.741104 0.755124
O O3 0.584578 0.749760 0.499507
O O4 0.540666 0.750481 0.746914
O O5 0.206343 0.264395 0.744130
O O6 0.173482 0.000000 0.818271
O O7 0.168234 0.243941 0.997535
O O8 0.126636 0.250572 0.249506
O O9 0.042975 0.248100 0.248244
O O10 0.085106 0.000000 0.332580
O O11 0.210463 0.751932 0.246996
O O12 0.167093 0.000000 0.168023
O O13 0.250000 0.750000 0.500000
O O14 0.249406 0.000000 0.346660
O O15 0.999721 0.000000 0.832884
O O16 0.000000 0.751207 0.000000
#
# Coordination Sequence:
#
# PCOD8089198 Si02
#       6
#     8   8   8   8   8   8
#     4   9  16  25  40  63  92 127 162 198 242 290
#     4  10  19  33  52  73  99 130 164 201 246 295
#     4   9  15  24  38  59  91 127 161 197 242 293
#     4   9  18  31  48  70  97 130 164 203 249 295
#     4  11  22  36  53  74 100 129 164 203 245 291
#     4   9  15  22  34  56  89 127 163 198 239 288
#
# _framework density 19.693812000000001
#
# number of rings (size 3 to 8) (size 9 to 14) (size 15 to 20)
#    0.000    2.500    0.000    3.500    0.000    8.667 
#    0.000    0.833    0.000    0.000    0.000    0.000 
#    0.000   18.000    0.000    0.000    0.000    0.167 
#
# Total GULP energy -297614.136850 kJ/mol
# GULP energy per Si atom -12400.589035 kJ/mol
# Density = 1.964899 g / cm^3
# Si number density = 19.693812 Si / 1000 Ang^3
#
#
#
# Elastic Constant Matrix: (Units=GPa)
#
#
# Indices 1 2 3 4 5 6 
#
# 1 199.7095 18.1775 107.3620 0.0000 0.2935 0.0000
# 2 18.1775 15.8843 16.9150 0.0000 0.8241 0.0000
# 3 107.3620 16.9150 214.9109 0.0000 1.2011 0.0000
# 4 0.0000 0.0000 0.0000 14.7186 0.0000 -2.4824
# 5 0.2935 0.8241 1.2011 0.0000 50.2308 0.0000
# 6 0.0000 0.0000 0.0000 -2.4824 0.0000 18.2989
#
#
#
# Elastic Compliance Matrix: (Units=1/GPa)
#
#
# Indices 1 2 3 4 5 6 
#
# 1 0.007165 -0.004795 -0.003203 0.000000 0.000113 0.000000
# 2 -0.004795 0.071973 -0.003263 0.000000 -0.001075 0.000000
# 3 -0.003203 -0.003263 0.006510 0.000000 -0.000083 0.000000
# 4 0.000000 0.000000 0.000000 0.069532 0.000000 0.009433
# 5 0.000113 -0.001075 -0.000083 0.000000 0.019927 0.000000
# 6 0.000000 0.000000 0.000000 0.009433 0.000000 0.055928
#
#
# Mechanical properties :
#
#
# Convention : Reuss Voigt Hill
#
# Bulk Modulus (GPa) = 15.84115 79.49041 47.66578
# Shear Modulus (GPa) = 18.20827 35.85301 27.03064
#
# Velocity S-wave (km/s) = 3.04397 4.27139 3.70881
# Velocity P-wave (km/s) = 4.51835 8.04842 6.52658
#
# Compressibility (1/GPa) = 0.06312672
#
# Stress axis : x y z
#
# Youngs Moduli (GPa) = 139.56072 13.89402 153.60034
#
# Poissons Ratio (x) = 0.06662 0.49195
# Poissons Ratio (y) = 0.66920 0.50125
# Poissons Ratio (z) = 0.44698 0.04534
#
# Static dielectric constant tensor:
#      x y z
#    x 3.860090 0.000000 0.063200 
#    y 0.000000 2.878490 0.000000 
#    z 0.063200 0.000000 3.913860 
# 
# 
# High freq. dielectric constant tensor:
#      x y z
#    x 1.789470 0.000000 0.000240 
#    y 0.000000 1.689320 0.000000 
#    z 0.000240 0.000000 1.790380 
# 
# From -- ./inp_files/101991.got.cif
#   From: 2010.06.25/outbox.cif.g09.slc.cpg/sg12_51_cif.got.tgz:101991.got - 2010.06.28 00:19:55.
