data_PCOD8089036
_publ_section_title
;
Structure prediction by ZEFSAII (Michael W. Deem and Ramdas Pophale) SiO2 
 PCOD8089036
Probable space group: C 2/M
;
_chemical_formula_sum "Si O2"
_cell_formula_units_Z 64
_cell_length_a 16.880629
_cell_length_b 25.672129
_cell_length_c 9.663335
_cell_angle_alpha 90.000000
_cell_angle_beta 73.442136
_cell_angle_gamma 90.000000
_cell_volume 4014.064537
_symmetry_space_group_name_H-M "C 2/M"
_symmetry_group_IT_number 12
_symmetry_cell_setting 'monoclinic'
loop_
_space_group_symop_operation_xyz
x,y,z
-x,y,-z
-x,-y,-z
x,-y,z
1/2+x,1/2+y,z
1/2-x,1/2+y,-z
1/2-x,1/2-y,-z
1/2+x,1/2-y,z
loop_
_atom_site_type_symbol
_atom_site_label
_atom_site_fract_x
_atom_site_fract_y
_atom_site_fract_z
Si Si1 0.544003 0.265353 0.343875
Si Si2 0.163062 0.144289 0.200360
Si Si3 0.813570 0.297535 0.622154
Si Si4 0.213006 0.692247 0.670960
Si Si5 0.036039 0.940801 0.340195
Si Si6 0.319894 0.652729 0.123822
Si Si7 0.931943 0.249157 0.144065
Si Si8 0.072950 0.058941 0.863841
O O1 0.500000 0.289807 0.500000
O O2 0.601457 0.307602 0.244274
O O3 0.594846 0.213018 0.361654
O O4 0.470870 0.252499 0.275955
O O5 0.235925 0.146403 0.278531
O O6 0.114553 0.090562 0.244553
O O7 0.201036 0.149289 0.028170
O O8 0.816302 0.324873 0.468741
O O9 0.772216 0.241553 0.625908
O O10 0.763824 0.333646 0.753568
O O11 0.137740 0.706463 0.810811
O O12 0.000000 0.917158 0.500000
O O13 0.959073 0.937879 0.275708
O O14 0.066808 0.000000 0.344932
O O15 0.392433 0.694027 0.119972
O O16 0.348443 0.596044 0.160730
O O17 0.000000 0.266943 0.000000
O O18 0.099066 0.000000 0.891130
O O19 0.000000 0.078907 0.000000
#
# Coordination Sequence:
#
# PCOD8089036 Si02
#       8
#     8   8   8   8   8   8   8   8
#     4  11  20  32  48  66  90 124 161 193 232 276
#     4  11  21  31  47  68  94 128 158 191 234 277
#     4   9  20  33  45  64  92 122 156 195 229 277
#     4   9  20  33  45  64  92 124 156 191 234 274
#     4  10  21  34  48  70  96 124 160 198 231 269
#     4  11  21  31  46  69  96 125 161 190 231 278
#     4  11  20  31  48  68  93 123 158 197 229 272
#     4  10  19  33  50  67  94 126 158 195 229 266
#
# _framework density 15.943939
#
# number of rings (size 3 to 8) (size 9 to 14) (size 15 to 20)
#    0.000    1.750    3.750    1.500    5.250    1.500 
#    0.000    0.000    0.000    0.000    0.000    0.000 
#    0.000    2.000    0.000    0.125    0.000    0.000 
#
# Total GULP energy -396789.158310 kJ/mol
# GULP energy per Si atom -12399.661197 kJ/mol
# Density = 1.590765 g / cm^3
# Si number density = 15.943939 Si / 1000 Ang^3
#
#
#
# Elastic Constant Matrix: (Units=GPa)
#
#
# Indices 1 2 3 4 5 6 
#
# 1 50.5391 23.1375 17.9480 0.0000 6.8032 0.0000
# 2 23.1375 56.9291 23.0348 0.0000 -0.9063 0.0000
# 3 17.9480 23.0348 105.3608 0.0000 5.9648 0.0000
# 4 0.0000 0.0000 0.0000 18.7345 0.0000 0.4876
# 5 6.8032 -0.9063 5.9648 0.0000 27.5296 0.0000
# 6 0.0000 0.0000 0.0000 0.4876 0.0000 13.4001
#
#
#
# Elastic Compliance Matrix: (Units=1/GPa)
#
#
# Indices 1 2 3 4 5 6 
#
# 1 0.025801 -0.009821 -0.001892 0.000000 -0.006289 0.000000
# 2 -0.009821 0.023076 -0.003597 0.000000 0.003966 0.000000
# 3 -0.001892 -0.003597 0.010711 0.000000 -0.001972 0.000000
# 4 0.000000 0.000000 0.000000 0.053428 0.000000 -0.001944
# 5 -0.006289 0.003966 -0.001972 0.000000 0.038437 0.000000
# 6 0.000000 0.000000 0.000000 -0.001944 0.000000 0.074697
#
#
# Mechanical properties :
#
#
# Convention : Reuss Voigt Hill
#
# Bulk Modulus (GPa) = 34.51914 37.89662 36.20788
# Shear Modulus (GPa) = 18.76697 21.84675 20.30686
#
# Velocity S-wave (km/s) = 3.43455 3.70567 3.57268
# Velocity P-wave (km/s) = 6.11764 6.49073 6.30694
#
# Compressibility (1/GPa) = 0.02896944
#
# Stress axis : x y z
#
# Youngs Moduli (GPa) = 38.75756 43.33586 93.35834
#
# Poissons Ratio (x) = 0.42560 0.17664
# Poissons Ratio (y) = 0.38064 0.33576
# Poissons Ratio (z) = 0.07333 0.15586
#
# Static dielectric constant tensor:
#      x y z
#    x 3.046690 0.000000 0.132150 
#    y 0.000000 2.772570 0.000000 
#    z 0.132150 0.000000 3.250650 
# 
# 
# High freq. dielectric constant tensor:
#      x y z
#    x 1.596810 0.000000 0.010510 
#    y 0.000000 1.569210 0.000000 
#    z 0.010510 0.000000 1.636600 
# 
# From -- ./inp_files/66965.got.cif
#   From: 2010.06.25/outbox.cif.g09.slc.cpg/sg12_34_cif.got.tgz:66965.got - 2010.06.28 00:19:55.
