data_PCOD8089959
_publ_section_title
;
Structure prediction by ZEFSAII (Michael W. Deem and Ramdas Pophale) SiO2 
 PCOD8089959
Probable space group: C 2/M
;
_chemical_formula_sum "Si O2"
_cell_formula_units_Z 56
_cell_length_a 13.932911
_cell_length_b 13.543437
_cell_length_c 16.056097
_cell_angle_alpha 90.000000
_cell_angle_beta 70.600795
_cell_angle_gamma 90.000000
_cell_volume 2857.768763
_symmetry_space_group_name_H-M "C 2/M"
_symmetry_group_IT_number 12
_symmetry_cell_setting 'monoclinic'
loop_
_space_group_symop_operation_xyz
x,y,z
-x,y,-z
-x,-y,-z
x,-y,z
1/2+x,1/2+y,z
1/2-x,1/2+y,-z
1/2-x,1/2-y,-z
1/2+x,1/2-y,z
loop_
_atom_site_type_symbol
_atom_site_label
_atom_site_fract_x
_atom_site_fract_y
_atom_site_fract_z
Si Si1 0.568395 0.349357 0.909130
Si Si2 0.330942 0.116287 0.428738
Si Si3 0.902989 0.274008 0.888930
Si Si4 0.777412 0.884623 0.004752
Si Si5 0.694726 0.221136 0.392639
Si Si6 0.979874 0.726057 0.687932
Si Si7 0.115423 0.108047 0.715305
O O1 0.511916 0.244935 0.903396
O O2 0.679002 0.340615 0.919724
O O3 0.576760 0.408188 0.820766
O O4 0.500000 0.405145 0.000000
O O5 0.336896 0.151298 0.522113
O O6 0.238311 0.173578 0.410504
O O7 0.438435 0.140506 0.354239
O O8 0.309733 0.000000 0.429055
O O9 0.842896 0.360123 0.955756
O O10 0.919852 0.304476 0.788595
O O11 0.835315 0.172643 0.913442
O O12 0.794381 0.000000 0.987717
O O13 0.595809 0.240823 0.366594
O O14 0.777402 0.164194 0.313076
O O15 0.035842 0.830903 0.683100
O O16 0.126719 0.000000 0.670980
#
# Coordination Sequence:
#
# PCOD8089959 Si02
#       7
#     8   8   8   8   8   8   8
#     4   9  18  31  51  76 106 140 177 219 262 301
#     4  10  22  39  58  81 106 135 174 216 261 318
#     4   9  20  34  50  78 113 138 173 226 265 303
#     4  10  19  33  55  78 103 143 186 219 259 308
#     4  10  21  38  57  78 107 139 172 215 265 316
#     4  10  21  35  54  80 109 140 174 215 266 316
#     4  10  20  33  52  80 109 139 179 221 260 309
#
# _framework density 19.595707000000001
#
# number of rings (size 3 to 8) (size 9 to 14) (size 15 to 20)
#    0.000    2.286    0.000    2.143    0.000   10.857 
#    0.000    0.000    0.000   15.857    0.000    0.000 
#    0.000    0.000    0.000    0.000    0.000    0.000 
#
# Total GULP energy -346992.419456 kJ/mol
# GULP energy per Si atom -12392.586409 kJ/mol
# Density = 1.955111 g / cm^3
# Si number density = 19.595707 Si / 1000 Ang^3
#
#
#
# Elastic Constant Matrix: (Units=GPa)
#
#
# Indices 1 2 3 4 5 6 
#
# 1 66.2854 35.8623 17.7493 0.0000 -1.9634 0.0000
# 2 35.8623 124.1283 44.7500 0.0000 -2.4182 0.0000
# 3 17.7493 44.7500 102.2867 0.0000 -7.6986 0.0000
# 4 0.0000 0.0000 0.0000 13.6018 0.0000 -2.6037
# 5 -1.9634 -2.4182 -7.6986 0.0000 25.8542 0.0000
# 6 0.0000 0.0000 0.0000 -2.6037 0.0000 12.9104
#
#
#
# Elastic Compliance Matrix: (Units=1/GPa)
#
#
# Indices 1 2 3 4 5 6 
#
# 1 0.017978 -0.004837 -0.000956 0.000000 0.000628 0.000000
# 2 -0.004837 0.010870 -0.003956 0.000000 -0.000529 0.000000
# 3 -0.000956 -0.003956 0.011907 0.000000 0.003103 0.000000
# 4 0.000000 0.000000 0.000000 0.076472 0.000000 0.015422
# 5 0.000628 -0.000529 0.003103 0.000000 0.039601 0.000000
# 6 0.000000 0.000000 0.000000 0.015422 0.000000 0.080567
#
#
# Mechanical properties :
#
#
# Convention : Reuss Voigt Hill
#
# Bulk Modulus (GPa) = 47.04576 54.38039 50.71308
# Shear Modulus (GPa) = 18.94104 23.42920 21.18512
#
# Velocity S-wave (km/s) = 3.11238 3.46154 3.29159
# Velocity P-wave (km/s) = 6.08080 6.61723 6.35468
#
# Compressibility (1/GPa) = 0.02125590
#
# Stress axis : x y z
#
# Youngs Moduli (GPa) = 55.62372 92.00050 83.98763
#
# Poissons Ratio (x) = 0.44502 0.08030
# Poissons Ratio (y) = 0.26906 0.33224
# Poissons Ratio (z) = 0.05318 0.36393
#
# Static dielectric constant tensor:
#      x y z
#    x 3.636930 0.000000 -0.140200 
#    y 0.000000 3.317880 0.000000 
#    z -0.140200 0.000000 3.730020 
# 
# 
# High freq. dielectric constant tensor:
#      x y z
#    x 1.762220 0.000000 -0.014220 
#    y 0.000000 1.740010 0.000000 
#    z -0.014220 0.000000 1.771950 
# 
# From -- ./inp_files/268620.got.cif
#   From: 2010.06.25/outbox.cif.g09.slc.cpg/sg12_135_cif.got.tgz:268620.got - 2010.06.28 00:19:55.
