data_PCOD8089361
_publ_section_title
;
Structure prediction by ZEFSAII (Michael W. Deem and Ramdas Pophale) SiO2 
 PCOD8089361
Probable space group: C 2/M
;
_chemical_formula_sum "Si O2"
_cell_formula_units_Z 64
_cell_length_a 19.089371
_cell_length_b 9.384506
_cell_length_c 26.958059
_cell_angle_alpha 90.000000
_cell_angle_beta 135.408909
_cell_angle_gamma 90.000000
_cell_volume 3390.431338
_symmetry_space_group_name_H-M "C 2/M"
_symmetry_group_IT_number 12
_symmetry_cell_setting 'monoclinic'
loop_
_space_group_symop_operation_xyz
x,y,z
-x,y,-z
-x,-y,-z
x,-y,z
1/2+x,1/2+y,z
1/2-x,1/2+y,-z
1/2-x,1/2-y,-z
1/2+x,1/2-y,z
loop_
_atom_site_type_symbol
_atom_site_label
_atom_site_fract_x
_atom_site_fract_y
_atom_site_fract_z
Si Si1 0.266719 0.667730 0.559046
Si Si2 0.529820 0.163733 0.902148
Si Si3 0.800416 0.334419 0.941550
Si Si4 0.926109 0.164859 0.166597
Si Si5 0.643998 0.669596 0.684436
Si Si6 0.614395 0.833618 0.569138
Si Si7 0.317789 0.836361 0.842082
Si Si8 0.008773 0.167765 0.311347
O O1 0.261578 0.500000 0.545544
O O2 0.250000 0.750000 0.500000
O O3 0.184042 0.712443 0.557952
O O4 0.376123 0.714654 0.633054
O O5 0.511644 0.249313 0.842534
O O6 0.430784 0.182206 0.883551
O O7 0.551250 0.000000 0.899246
O O8 0.620655 0.232231 0.979915
O O9 0.828790 0.500000 0.950748
O O10 0.689271 0.310626 0.905124
O O11 0.808144 0.261717 0.891071
O O12 0.952744 0.227428 0.234285
O O13 0.956530 0.000000 0.178674
O O14 0.645085 0.500000 0.676244
O O15 0.647475 0.744691 0.633283
O O16 0.741066 0.726917 0.763157
O O17 0.546492 0.721336 0.666464
O O18 0.500000 0.796203 0.500000
O O19 0.628459 0.000000 0.587799
O O20 0.285166 0.000000 0.831752
O O21 0.997611 0.000000 0.305175
#
# Coordination Sequence:
#
# PCOD8089361 Si02
#       8
#     8   8   8   8   8   8   8   8
#     4  10  21  37  57  80 106 137 171 207 249 302
#     4  10  20  31  49  77 106 132 168 219 265 305
#     4   9  16  31  53  74  98 136 178 213 255 306
#     4  10  19  33  53  74 101 139 176 210 254 309
#     4  10  19  34  57  79 101 133 178 222 250 289
#     4  10  22  38  55  79 112 141 164 201 260 317
#     4   9  17  31  51  76 103 133 173 218 259 299
#     4   9  18  34  55  76 100 135 177 214 249 297
#
# _framework density 18.876653999999998
#
# number of rings (size 3 to 8) (size 9 to 14) (size 15 to 20)
#    0.000    2.375    1.250    1.500    1.750    2.250 
#    0.000    1.250    0.000    3.000    0.000    0.000 
#    0.000    0.000    0.000    0.000    0.000    0.000 
#
# Total GULP energy -396732.000637 kJ/mol
# GULP energy per Si atom -12397.875020 kJ/mol
# Density = 1.883369 g / cm^3
# Si number density = 18.876654 Si / 1000 Ang^3
#
#
#
# Elastic Constant Matrix: (Units=GPa)
#
#
# Indices 1 2 3 4 5 6 
#
# 1 103.0871 30.9119 57.6776 0.0000 -10.3444 0.0000
# 2 30.9119 31.1059 29.5937 0.0000 -8.8710 0.0000
# 3 57.6776 29.5937 119.7176 0.0000 -6.3772 0.0000
# 4 0.0000 0.0000 0.0000 23.5812 0.0000 -7.7480
# 5 -10.3444 -8.8710 -6.3772 0.0000 40.1600 0.0000
# 6 0.0000 0.0000 0.0000 -7.7480 0.0000 16.6804
#
#
#
# Elastic Compliance Matrix: (Units=1/GPa)
#
#
# Indices 1 2 3 4 5 6 
#
# 1 0.015744 -0.010743 -0.004881 0.000000 0.000907 0.000000
# 2 -0.010743 0.051866 -0.007244 0.000000 0.007539 0.000000
# 3 -0.004881 -0.007244 0.012448 0.000000 -0.000881 0.000000
# 4 0.000000 0.000000 0.000000 0.050044 0.000000 0.023245
# 5 0.000907 0.007539 -0.000881 0.000000 0.026660 0.000000
# 6 0.000000 0.000000 0.000000 0.023245 0.000000 0.070748
#
#
# Mechanical properties :
#
#
# Convention : Reuss Voigt Hill
#
# Bulk Modulus (GPa) = 29.13544 54.47522 41.80533
# Shear Modulus (GPa) = 17.56313 25.13282 21.34797
#
# Velocity S-wave (km/s) = 3.05358 3.65283 3.36656
# Velocity P-wave (km/s) = 5.28210 6.83462 6.10789
#
# Compressibility (1/GPa) = 0.03432246
#
# Stress axis : x y z
#
# Youngs Moduli (GPa) = 63.51580 19.28037 80.33217
#
# Poissons Ratio (x) = 0.20714 0.39211
# Poissons Ratio (y) = 0.68237 0.58189
# Poissons Ratio (z) = 0.31003 0.13966
#
# Static dielectric constant tensor:
#      x y z
#    x 3.567880 0.000000 0.085900 
#    y 0.000000 3.008750 0.000000 
#    z 0.085900 0.000000 3.698140 
# 
# 
# High freq. dielectric constant tensor:
#      x y z
#    x 1.746810 0.000000 0.000360 
#    y 0.000000 1.679690 0.000000 
#    z 0.000360 0.000000 1.749160 
# 
# From -- ./inp_files/343053.got.cif
#   From: 2010.06.25/outbox.cif.g09.slc.cpg/sg12_172_cif.got.tgz:343053.got - 2010.06.28 00:19:55.
