data_PCOD8089506
_publ_section_title
;
Structure prediction by ZEFSAII (Michael W. Deem and Ramdas Pophale) SiO2 
 PCOD8089506
Probable space group: C 2/M
;
_chemical_formula_sum "Si O2"
_cell_formula_units_Z 60
_cell_length_a 15.132277
_cell_length_b 14.574466
_cell_length_c 31.652962
_cell_angle_alpha 90.000000
_cell_angle_beta 29.040109
_cell_angle_gamma 90.000000
_cell_volume 3388.679812
_symmetry_space_group_name_H-M "C 2/M"
_symmetry_group_IT_number 12
_symmetry_cell_setting 'monoclinic'
loop_
_space_group_symop_operation_xyz
x,y,z
-x,y,-z
-x,-y,-z
x,-y,z
1/2+x,1/2+y,z
1/2-x,1/2+y,-z
1/2-x,1/2-y,-z
1/2+x,1/2-y,z
loop_
_atom_site_type_symbol
_atom_site_label
_atom_site_fract_x
_atom_site_fract_y
_atom_site_fract_z
Si Si1 0.131091 0.241150 0.179167
Si Si2 0.000000 0.657478 0.000000
Si Si3 0.515151 0.891516 0.596159
Si Si4 0.182320 0.896507 0.680504
Si Si5 0.698499 0.895890 0.997083
Si Si6 0.521570 0.234592 0.136026
Si Si7 0.385819 0.766601 0.718933
Si Si8 0.353690 0.395935 0.399502
O O1 0.344900 0.221758 0.084997
O O2 0.059943 0.298649 0.168312
O O3 0.104582 0.291642 0.235188
O O4 0.011535 0.148897 0.228950
O O5 0.082512 0.595450 0.002575
O O6 0.348596 0.852968 0.637366
O O7 0.502242 0.845719 0.647531
O O8 0.705121 0.862605 0.495469
O O9 0.504540 0.000000 0.605531
O O10 0.238404 0.889274 0.608076
O O11 0.153432 0.000000 0.707240
O O12 0.573116 0.852178 0.085864
O O13 0.758828 0.000000 0.984313
O O14 0.868069 0.828065 0.919934
O O15 0.316430 0.263933 0.214136
O O16 0.469686 0.667782 0.672563
O O17 0.417848 0.500000 0.381943
#
# Coordination Sequence:
#
# PCOD8089506 Si02
#       8
#     8   4   8   8   8   8   8   8
#     4  10  20  34  53  77 110 140 178 218 258 312
#     4  10  19  34  54  82 109 136 167 222 276 318
#     4  10  19  33  53  78 109 141 175 217 267 320
#     4   9  17  30  51  78 108 136 169 218 275 324
#     4  10  21  36  56  80 106 139 177 220 269 316
#     4  10  21  37  53  78 110 140 176 218 265 314
#     4  11  20  35  55  79 107 144 176 219 264 313
#     4   9  19  33  53  81 107 135 174 222 274 322
#
# _framework density 17.706009999999999
#
# number of rings (size 3 to 8) (size 9 to 14) (size 15 to 20)
#    0.000    2.133    2.667    1.000    0.000    5.333 
#    0.000    0.667    0.000    0.800    0.000    1.867 
#    0.000    0.000    0.000    0.000    0.000    0.000 
#
# Total GULP energy -371886.173169 kJ/mol
# GULP energy per Si atom -12396.205772 kJ/mol
# Density = 1.766571 g / cm^3
# Si number density = 17.706010 Si / 1000 Ang^3
#
#
#
# Elastic Constant Matrix: (Units=GPa)
#
#
# Indices 1 2 3 4 5 6 
#
# 1 68.4334 32.0912 40.6111 -0.0014 10.5945 -0.0002
# 2 32.0912 63.9124 32.8439 -0.0003 7.7382 0.0013
# 3 40.6111 32.8439 105.7285 -0.0006 15.2002 -0.0009
# 4 -0.0014 -0.0003 -0.0006 17.2816 0.0024 1.1496
# 5 10.5945 7.7382 15.2002 0.0024 31.4181 -0.0007
# 6 -0.0002 0.0013 -0.0009 1.1496 -0.0007 17.6136
#
#
#
# Elastic Compliance Matrix: (Units=1/GPa)
#
#
# Indices 1 2 3 4 5 6 
#
# 1 0.022070 -0.007847 -0.005640 0.000002 -0.002781 0.000000
# 2 -0.007847 0.021517 -0.003535 0.000000 -0.000944 -0.000002
# 3 -0.005640 -0.003535 0.013245 0.000000 -0.003636 0.000001
# 4 0.000002 0.000000 0.000000 0.058117 -0.000005 -0.003793
# 5 -0.002781 -0.000944 -0.003636 -0.000005 0.034758 0.000002
# 6 0.000000 -0.000002 0.000001 -0.003793 0.000002 0.057022
#
#
# Mechanical properties :
#
#
# Convention : Reuss Voigt Hill
#
# Bulk Modulus (GPa) = 43.87896 49.90743 46.89319
# Shear Modulus (GPa) = 20.13148 22.09787 21.11468
#
# Velocity S-wave (km/s) = 3.37558 3.53660 3.45703
# Velocity P-wave (km/s) = 6.32681 6.70258 6.51740
#
# Compressibility (1/GPa) = 0.02278997
#
# Stress axis : x y z
#
# Youngs Moduli (GPa) = 45.31091 46.47520 75.49920
#
# Poissons Ratio (x) = 0.36467 0.42581
# Poissons Ratio (y) = 0.35553 0.26685
# Poissons Ratio (z) = 0.25555 0.16427
#
# Static dielectric constant tensor:
#      x y z
#    x 3.434320 0.000000 0.173800 
#    y 0.000000 3.013520 0.000000 
#    z 0.173800 0.000000 3.442150 
# 
# 
# High freq. dielectric constant tensor:
#      x y z
#    x 1.684270 0.000000 0.006900 
#    y 0.000000 1.652100 0.000000 
#    z 0.006900 0.000000 1.701760 
# 
# From -- ./inp_files/376496.got.cif
#   From: 2010.06.25/outbox.cif.g09.slc.cpg/sg12_189_cif.got.tgz:376496.got - 2010.06.28 00:19:55.
