data_PCOD8089120
_publ_section_title
;
Structure prediction by ZEFSAII (Michael W. Deem and Ramdas Pophale) SiO2 
 PCOD8089120
Probable space group: C 2/M
;
_chemical_formula_sum "Si O2"
_cell_formula_units_Z 64
_cell_length_a 28.656894
_cell_length_b 8.919691
_cell_length_c 16.693370
_cell_angle_alpha 90.000000
_cell_angle_beta 115.574670
_cell_angle_gamma 90.000000
_cell_volume 3848.936792
_symmetry_space_group_name_H-M "C 2/M"
_symmetry_group_IT_number 12
_symmetry_cell_setting 'monoclinic'
loop_
_space_group_symop_operation_xyz
x,y,z
-x,y,-z
-x,-y,-z
x,-y,z
1/2+x,1/2+y,z
1/2-x,1/2+y,-z
1/2-x,1/2-y,-z
1/2+x,1/2-y,z
loop_
_atom_site_type_symbol
_atom_site_label
_atom_site_fract_x
_atom_site_fract_y
_atom_site_fract_z
Si Si1 0.122980 0.329666 0.467839
Si Si2 0.492951 0.825021 0.585028
Si Si3 0.824416 0.175480 0.091829
Si Si4 0.715576 0.825317 0.089780
Si Si5 0.912414 0.827148 0.276189
Si Si6 0.708980 0.172432 0.410795
Si Si7 0.833425 0.827566 0.353770
Si Si8 0.771429 0.823399 0.741140
O O1 0.128385 0.500000 0.505538
O O2 0.062908 0.284444 0.419524
O O3 0.150640 0.316909 0.402322
O O4 0.153005 0.212856 0.545652
O O5 0.500000 0.757662 0.500000
O O6 0.533627 0.759422 0.678891
O O7 0.502985 0.000000 0.588383
O O8 0.775071 0.210513 0.111279
O O9 0.876176 0.228221 0.176390
O O10 0.825743 0.000000 0.072342
O O11 0.822002 0.268592 0.008357
O O12 0.699142 0.739331 0.158744
O O13 0.706423 0.000000 0.096505
O O14 0.883523 0.796652 0.338028
O O15 0.925296 0.000000 0.273810
O O16 0.750000 0.250000 0.500000
O O17 0.706467 0.250691 0.323087
O O18 0.726131 0.000000 0.413164
O O19 0.788120 0.720180 0.290605
O O20 0.815070 0.000000 0.333340
O O21 0.778449 0.000000 0.740637
#
# Coordination Sequence:
#
# PCOD8089120 Si02
#       8
#     8   8   8   8   8   8   8   8
#     4  10  21  36  50  70 101 136 171 212 256 298
#     4  10  20  33  50  73 101 134 172 211 249 298
#     4   9  18  33  49  72 104 134 166 206 252 301
#     4  10  19  33  51  74 102 133 169 207 249 301
#     4  10  20  33  49  73 103 137 172 208 250 297
#     4  11  22  35  52  74 101 134 174 213 253 301
#     4  11  20  31  49  72 101 135 173 213 249 295
#     4  12  23  34  50  73 102 138 174 209 255 303
#
# _framework density 16.627969
#
# number of rings (size 3 to 8) (size 9 to 14) (size 15 to 20)
#    0.000    1.625    3.750    2.250    0.000    2.750 
#    0.000    0.000    0.000    0.000    0.000    0.875 
#    0.000    7.000    0.000    0.000    0.000    0.000 
#
# Total GULP energy -396799.894042 kJ/mol
# GULP energy per Si atom -12399.996689 kJ/mol
# Density = 1.659012 g / cm^3
# Si number density = 16.627969 Si / 1000 Ang^3
#
#
#
# Elastic Constant Matrix: (Units=GPa)
#
#
# Indices 1 2 3 4 5 6 
#
# 1 75.6438 32.9427 43.9433 0.0000 -2.0382 0.0000
# 2 32.9427 85.3922 52.7772 0.0000 -9.3191 0.0000
# 3 43.9433 52.7772 120.1345 0.0000 -5.8739 0.0000
# 4 0.0000 0.0000 0.0000 31.2882 0.0000 0.6739
# 5 -2.0382 -9.3191 -5.8739 0.0000 26.8084 0.0000
# 6 0.0000 0.0000 0.0000 0.6739 0.0000 22.5100
#
#
#
# Elastic Compliance Matrix: (Units=1/GPa)
#
#
# Indices 1 2 3 4 5 6 
#
# 1 0.017705 -0.003999 -0.004772 0.000000 -0.001090 0.000000
# 2 -0.003999 0.017434 -0.005979 0.000000 0.004446 0.000000
# 3 -0.004772 -0.005979 0.012713 0.000000 0.000344 0.000000
# 4 0.000000 0.000000 0.000000 0.031982 0.000000 -0.000957
# 5 -0.001090 0.004446 0.000344 0.000000 0.038840 0.000000
# 6 0.000000 0.000000 0.000000 -0.000957 0.000000 0.044453
#
#
# Mechanical properties :
#
#
# Convention : Reuss Voigt Hill
#
# Bulk Modulus (GPa) = 54.49405 60.05521 57.27463
# Shear Modulus (GPa) = 25.15793 26.22180 25.68986
#
# Velocity S-wave (km/s) = 3.89394 3.97542 3.93489
# Velocity P-wave (km/s) = 7.28427 7.56752 7.42725
#
# Compressibility (1/GPa) = 0.01835063
#
# Stress axis : x y z
#
# Youngs Moduli (GPa) = 56.48243 57.35903 78.65938
#
# Poissons Ratio (x) = 0.22941 0.37539
# Poissons Ratio (y) = 0.22590 0.47028
# Poissons Ratio (z) = 0.26955 0.34293
#
# Static dielectric constant tensor:
#      x y z
#    x 3.052350 0.000000 -0.024270 
#    y 0.000000 3.170530 0.000000 
#    z -0.024270 0.000000 3.159690 
# 
# 
# High freq. dielectric constant tensor:
#      x y z
#    x 1.613610 0.000000 -0.003730 
#    y 0.000000 1.647740 0.000000 
#    z -0.003730 0.000000 1.632740 
# 
# From -- ./inp_files/249234.got.cif
#   From: 2010.06.25/outbox.cif.g09.slc.cpg/sg12_125_cif.got.tgz:249234.got - 2010.06.28 00:19:55.
