data_PCOD8089579
_publ_section_title
;
Structure prediction by ZEFSAII (Michael W. Deem and Ramdas Pophale) SiO2 
 PCOD8089579
Probable space group: C 2/M
;
_chemical_formula_sum "Si O2"
_cell_formula_units_Z 64
_cell_length_a 30.169479
_cell_length_b 8.746355
_cell_length_c 19.043238
_cell_angle_alpha 90.000000
_cell_angle_beta 40.551461
_cell_angle_gamma 90.000000
_cell_volume 3266.904339
_symmetry_space_group_name_H-M "C 2/M"
_symmetry_group_IT_number 12
_symmetry_cell_setting 'monoclinic'
loop_
_space_group_symop_operation_xyz
x,y,z
-x,y,-z
-x,-y,-z
x,-y,z
1/2+x,1/2+y,z
1/2-x,1/2+y,-z
1/2-x,1/2-y,-z
1/2+x,1/2-y,z
loop_
_atom_site_type_symbol
_atom_site_label
_atom_site_fract_x
_atom_site_fract_y
_atom_site_fract_z
Si Si1 0.332911 0.320899 0.809083
Si Si2 0.915390 0.821677 0.844344
Si Si3 0.812685 0.320432 0.378174
Si Si4 0.699740 0.678234 0.910125
Si Si5 0.073678 0.329820 0.410725
Si Si6 0.714292 0.323500 0.735322
Si Si7 0.931794 0.822902 0.316307
Si Si8 0.866147 0.334647 0.516175
O O1 0.323377 0.500000 0.830347
O O2 0.374654 0.251970 0.826005
O O3 0.257721 0.251643 0.889735
O O4 0.374359 0.283741 0.689033
O O5 0.991568 0.753597 0.765476
O O6 0.924678 0.000000 0.818427
O O7 0.872471 0.789291 0.966259
O O8 0.803322 0.500000 0.395709
O O9 0.750000 0.250000 0.500000
O O10 0.815203 0.272740 0.293669
O O11 0.887886 0.270030 0.312497
O O12 0.717984 0.500000 0.884050
O O13 0.693138 0.741190 0.838029
O O14 0.076210 0.500000 0.372631
O O15 0.083639 0.347067 0.480591
O O16 0.000000 0.252820 0.500000
O O17 0.691730 0.500000 0.753937
O O18 0.794216 0.299412 0.636588
O O19 0.890108 0.803341 0.438490
O O20 0.934376 0.000000 0.291433
O O21 0.864666 0.500000 0.477191
#
# Coordination Sequence:
#
# PCOD8089579 Si02
#       8
#     8   8   8   8   8   8   8   8
#     4  11  21  34  55  86 120 151 193 242 286 337
#     4   9  21  39  59  85 116 153 197 239 283 335
#     4  12  24  39  61  88 117 149 185 231 287 347
#     4  10  20  40  64  83 113 156 199 241 279 329
#     4  10  20  34  52  77 112 155 197 234 280 340
#     4  10  20  36  60  86 112 145 189 235 281 335
#     4  11  22  38  60  86 116 151 190 235 287 344
#     4  10  19  33  53  81 114 148 188 232 279 339
#
# _framework density 19.590412000000001
#
# number of rings (size 3 to 8) (size 9 to 14) (size 15 to 20)
#    0.000    1.625    2.500    3.000    0.000    1.250 
#    0.000    4.375    0.000    3.750    0.000    0.000 
#    0.000    0.000    0.000    0.000    0.000    0.000 
#
# Total GULP energy -396547.052331 kJ/mol
# GULP energy per Si atom -12392.095385 kJ/mol
# Density = 1.954582 g / cm^3
# Si number density = 19.590412 Si / 1000 Ang^3
#
#
#
# Elastic Constant Matrix: (Units=GPa)
#
#
# Indices 1 2 3 4 5 6 
#
# 1 -187.4117 37.9157 -706.6919 -0.2971 167.8614 0.0378
# 2 37.9157 66.9176 21.9005 0.0408 1.1893 -0.0126
# 3 -706.6919 21.9005-1661.0356 -0.6747 376.8165 0.0617
# 4 -0.2971 0.0408 -0.6747 22.4185 0.1338 -0.3668
# 5 167.8614 1.1893 376.8165 0.1338 -49.1225 -0.0186
# 6 0.0378 -0.0126 0.0617 -0.3668 -0.0186 28.7963
#
#
#
# Elastic Compliance Matrix: (Units=1/GPa)
#
#
# Indices 1 2 3 4 5 6 
#
# 1 0.009960 -0.004113 -0.004602 0.000009 -0.001370 -0.000006
# 2 -0.004113 0.016812 0.001519 -0.000027 -0.001994 0.000008
# 3 -0.004602 0.001519 0.002950 -0.000016 0.006937 0.000005
# 4 0.000009 -0.000027 -0.000016 0.044615 0.000026 0.000568
# 5 -0.001370 -0.001994 0.006937 0.000026 0.028124 0.000005
# 6 -0.000006 0.000008 0.000005 0.000568 0.000005 0.034734
#
#
# Mechanical properties :
#
#
# Convention : Reuss Voigt Hill
#
# Bulk Modulus (GPa) = 65.23218 -341.69790 -138.23286
# Shear Modulus (GPa) = 31.90895 -75.22512 -21.65809
#
# Velocity S-wave (km/s) = 4.04022 -6.20341 -3.32858
# Velocity P-wave (km/s) = 7.42528 15.03693 9.24593
#
# Compressibility (1/GPa) = 0.01532986
#
# Stress axis : x y z
#
# Youngs Moduli (GPa) = 100.40582 59.48051 339.01834
#
# Poissons Ratio (x) = 0.24462 1.56027
# Poissons Ratio (y) = 0.41292 -0.51499
# Poissons Ratio (z) = 0.46210 -0.09035
#
# Static dielectric constant tensor:
#      x y z
#    x 4.068320 -0.000140 0.112120 
#    y -0.000140 3.520080 -0.000110 
#    z 0.112120 -0.000110 3.583710 
# 
# 
# High freq. dielectric constant tensor:
#      x y z
#    x 1.776410 0.000000 0.000800 
#    y 0.000000 1.741280 0.000010 
#    z 0.000800 0.000010 1.753930 
# 
# From -- ./inp_files/295517.got.cif
#   From: 2010.06.25/outbox.cif.g09.slc.cpg/sg12_148_cif.got.tgz:295517.got - 2010.06.28 00:19:55.
