data_PCOD8089831
_publ_section_title
;
Structure prediction by ZEFSAII (Michael W. Deem and Ramdas Pophale) SiO2 
 PCOD8089831
Probable space group: C 2/M
;
_chemical_formula_sum "Si O2"
_cell_formula_units_Z 64
_cell_length_a 18.691468
_cell_length_b 9.131440
_cell_length_c 20.576800
_cell_angle_alpha 90.000000
_cell_angle_beta 79.669107
_cell_angle_gamma 90.000000
_cell_volume 3455.112986
_symmetry_space_group_name_H-M "C 2/M"
_symmetry_group_IT_number 12
_symmetry_cell_setting 'monoclinic'
loop_
_space_group_symop_operation_xyz
x,y,z
-x,y,-z
-x,-y,-z
x,-y,z
1/2+x,1/2+y,z
1/2-x,1/2+y,-z
1/2-x,1/2-y,-z
1/2+x,1/2-y,z
loop_
_atom_site_type_symbol
_atom_site_label
_atom_site_fract_x
_atom_site_fract_y
_atom_site_fract_z
Si Si1 0.157851 0.332680 0.090111
Si Si2 0.582331 0.331158 0.987828
Si Si3 0.018389 0.829078 0.427610
Si Si4 0.647265 0.665762 0.321011
Si Si5 0.935081 0.332174 0.770635
Si Si6 0.438390 0.326324 0.312697
Si Si7 0.309655 0.832468 0.273165
Si Si8 0.197105 0.169758 0.861523
O O1 0.167899 0.500000 0.067184
O O2 0.092872 0.314821 0.151951
O O3 0.234463 0.274593 0.106604
O O4 0.135092 0.243233 0.031019
O O5 0.577339 0.500000 0.008453
O O6 0.621080 0.309716 0.911956
O O7 0.500000 0.264582 0.000000
O O8 0.101707 0.794122 0.393520
O O9 0.000000 0.752451 0.500000
O O10 0.965436 0.771509 0.379038
O O11 0.004513 0.000000 0.437270
O O12 0.625536 0.500000 0.302928
O O13 0.628403 0.776454 0.266448
O O14 0.732108 0.677604 0.321495
O O15 0.952952 0.500000 0.750841
O O16 0.007040 0.234503 0.751151
O O17 0.435141 0.500000 0.307347
O O18 0.359999 0.259199 0.312994
O O19 0.307778 0.766393 0.201773
O O20 0.336102 0.000000 0.263295
O O21 0.209384 0.000000 0.840216
#
# Coordination Sequence:
#
# PCOD8089831 Si02
#       8
#     8   8   8   8   8   8   8   8
#     4  10  21  36  56  79 105 139 179 223 273 329
#     4  10  23  39  55  78 106 139 181 229 277 327
#     4   8  15  32  58  83 107 142 187 224 260 316
#     4   9  18  33  54  82 111 143 181 220 265 317
#     4  10  19  33  54  81 109 139 179 224 270 322
#     4  10  21  35  54  80 112 147 182 223 273 321
#     4  11  22  35  54  82 114 145 182 227 275 322
#     4  10  21  39  57  77 107 144 185 224 274 331
#
# _framework density 18.523271999999999
#
# number of rings (size 3 to 8) (size 9 to 14) (size 15 to 20)
#    0.000    2.250    1.250    2.250    1.750    2.750 
#    0.000    0.625    0.000    9.375    0.000    0.000 
#    0.000    0.000    0.000    0.000    0.000    0.000 
#
# Total GULP energy -396768.346915 kJ/mol
# GULP energy per Si atom -12399.010841 kJ/mol
# Density = 1.848111 g / cm^3
# Si number density = 18.523272 Si / 1000 Ang^3
#
#
#
# Elastic Constant Matrix: (Units=GPa)
#
#
# Indices 1 2 3 4 5 6 
#
# 1 122.6002 41.5456 51.2871 0.0000 3.4796 0.0000
# 2 41.5456 75.4734 38.3397 0.0000 0.0649 0.0000
# 3 51.2871 38.3397 91.6085 0.0000 -4.5873 0.0000
# 4 0.0000 0.0000 0.0000 18.7036 0.0000 3.8833
# 5 3.4796 0.0649 -4.5873 0.0000 21.9296 0.0000
# 6 0.0000 0.0000 0.0000 3.8833 0.0000 30.3299
#
#
#
# Elastic Compliance Matrix: (Units=1/GPa)
#
#
# Indices 1 2 3 4 5 6 
#
# 1 0.011660 -0.003843 -0.005064 0.000000 -0.002898 0.000000
# 2 -0.003843 0.018145 -0.005472 0.000000 -0.000589 0.000000
# 3 -0.005064 -0.005472 0.016253 0.000000 0.004220 0.000000
# 4 0.000000 0.000000 0.000000 0.054926 0.000000 -0.007032
# 5 -0.002898 -0.000589 0.004220 0.000000 0.046945 0.000000
# 6 0.000000 0.000000 0.000000 -0.007032 0.000000 0.033871
#
#
# Mechanical properties :
#
#
# Convention : Reuss Voigt Hill
#
# Bulk Modulus (GPa) = 57.80764 61.33631 59.57197
# Shear Modulus (GPa) = 23.11336 24.75994 23.93665
#
# Velocity S-wave (km/s) = 3.53626 3.66005 3.59868
# Velocity P-wave (km/s) = 6.92455 7.14467 7.03547
#
# Compressibility (1/GPa) = 0.01729875
#
# Stress axis : x y z
#
# Youngs Moduli (GPa) = 85.76502 55.11010 61.52788
#
# Poissons Ratio (x) = 0.21180 0.31160
# Poissons Ratio (y) = 0.32961 0.33669
# Poissons Ratio (z) = 0.43435 0.30157
#
# Static dielectric constant tensor:
#      x y z
#    x 3.572060 0.000000 -0.118660 
#    y 0.000000 3.346930 0.000000 
#    z -0.118660 0.000000 3.379340 
# 
# 
# High freq. dielectric constant tensor:
#      x y z
#    x 1.727410 0.000000 -0.009560 
#    y 0.000000 1.709030 0.000000 
#    z -0.009560 0.000000 1.704050 
# 
# From -- ./inp_files/314192.got.cif
#   From: 2010.06.25/outbox.cif.g09.slc.cpg/sg12_158_cif.got.tgz:314192.got - 2010.06.28 00:19:55.
