data_PCOD8089872
_publ_section_title
;
Structure prediction by ZEFSAII (Michael W. Deem and Ramdas Pophale) SiO2 
 PCOD8089872
Probable space group: C 2/M
;
_chemical_formula_sum "Si O2"
_cell_formula_units_Z 64
_cell_length_a 20.661054
_cell_length_b 8.829787
_cell_length_c 31.840208
_cell_angle_alpha 90.000000
_cell_angle_beta 142.808369
_cell_angle_gamma 90.000000
_cell_volume 3511.256182
_symmetry_space_group_name_H-M "C 2/M"
_symmetry_group_IT_number 12
_symmetry_cell_setting 'monoclinic'
loop_
_space_group_symop_operation_xyz
x,y,z
-x,y,-z
-x,-y,-z
x,-y,z
1/2+x,1/2+y,z
1/2-x,1/2+y,-z
1/2-x,1/2-y,-z
1/2+x,1/2-y,z
loop_
_atom_site_type_symbol
_atom_site_label
_atom_site_fract_x
_atom_site_fract_y
_atom_site_fract_z
Si Si1 0.711126 0.822573 0.179192
Si Si2 0.109054 0.675413 0.679014
Si Si3 0.972102 0.679993 0.531234
Si Si4 0.002229 0.178480 0.953659
Si Si5 0.270237 0.679536 0.965508
Si Si6 0.851306 0.820600 0.172356
Si Si7 0.751316 0.819935 0.546576
Si Si8 0.463958 0.823509 0.683833
O O1 0.783381 0.767462 0.255359
O O2 0.594592 0.749134 0.122818
O O3 0.765877 0.771858 0.163767
O O4 0.698315 0.000000 0.175426
O O5 0.140467 0.500000 0.692960
O O6 0.061123 0.736939 0.610476
O O7 0.018839 0.703689 0.667323
O O8 0.974598 0.500000 0.531795
O O9 0.854878 0.735056 0.484218
O O10 0.000000 0.748096 0.500000
O O11 0.987339 0.000000 0.946029
O O12 0.112059 0.228899 0.988725
O O13 0.000000 0.242281 0.000000
O O14 0.257784 0.500000 0.960597
O O15 0.182629 0.747438 0.888919
O O16 0.250000 0.750000 0.000000
O O17 0.966821 0.753574 0.243729
O O18 0.859593 0.000000 0.172169
O O19 0.750000 0.750000 0.500000
O O20 0.849676 0.757687 0.624554
O O21 0.757605 0.000000 0.545870
O O22 0.449979 0.000000 0.686536
#
# Coordination Sequence:
#
# PCOD8089872 Si02
#       8
#     8   8   8   8   8   8   8   8
#     4  10  20  32  53  84 113 141 179 233 280 319
#     4   9  17  32  53  77 106 142 182 223 271 329
#     4   9  18  34  55  79 107 142 183 223 268 324
#     4  10  20  36  58  83 110 144 186 226 271 330
#     4  11  23  39  59  83 114 151 187 229 277 333
#     4  10  20  35  55  83 114 147 185 227 279 330
#     4  11  20  33  54  82 110 141 183 231 278 327
#     4  10  19  33  54  82 110 142 184 229 278 326
#
# _framework density 18.227094999999998
#
# number of rings (size 3 to 8) (size 9 to 14) (size 15 to 20)
#    0.000    2.000    2.500    1.875    0.000    2.750 
#    0.000    1.250    0.000    9.375    0.000    0.000 
#    0.000    0.000    0.000    0.000    0.000    0.000 
#
# Total GULP energy -396904.142593 kJ/mol
# GULP energy per Si atom -12403.254456 kJ/mol
# Density = 1.818561 g / cm^3
# Si number density = 18.227095 Si / 1000 Ang^3
#
#
#
# Elastic Constant Matrix: (Units=GPa)
#
#
# Indices 1 2 3 4 5 6 
#
# 1 114.0868 41.4124 79.7434 0.0000 -5.2181 0.0000
# 2 41.4124 58.6244 46.3528 0.0001 1.9309 0.0002
# 3 79.7434 46.3528 175.7902 0.0000 -1.8641 0.0001
# 4 0.0000 0.0001 0.0000 35.0180 0.0000 1.4585
# 5 -5.2181 1.9309 -1.8641 0.0000 29.7119 -0.0001
# 6 0.0000 0.0002 0.0001 1.4585 -0.0001 22.3303
#
#
#
# Elastic Compliance Matrix: (Units=1/GPa)
#
#
# Indices 1 2 3 4 5 6 
#
# 1 0.014715 -0.006606 -0.004905 0.000000 0.002706 0.000000
# 2 -0.006606 0.024609 -0.003524 0.000000 -0.002981 0.000000
# 3 -0.004905 -0.003524 0.008842 0.000000 -0.000078 0.000000
# 4 0.000000 0.000000 0.000000 0.028635 0.000000 -0.001870
# 5 0.002706 -0.002981 -0.000078 0.000000 0.034321 0.000000
# 6 0.000000 0.000000 0.000000 -0.001870 0.000000 0.044904
#
#
# Mechanical properties :
#
#
# Convention : Reuss Voigt Hill
#
# Bulk Modulus (GPa) = 55.25864 75.94651 65.60257
# Shear Modulus (GPa) = 26.02460 29.47825 27.75142
#
# Velocity S-wave (km/s) = 3.78272 4.02590 3.90620
# Velocity P-wave (km/s) = 7.03287 7.96039 7.51096
#
# Compressibility (1/GPa) = 0.01809672
#
# Stress axis : x y z
#
# Youngs Moduli (GPa) = 67.95734 40.63628 113.09900
#
# Poissons Ratio (x) = 0.26844 0.55471
# Poissons Ratio (y) = 0.44892 0.39854
# Poissons Ratio (z) = 0.33330 0.14319
#
# Static dielectric constant tensor:
#      x y z
#    x 3.273010 0.000000 0.026670 
#    y 0.000000 3.264080 0.000000 
#    z 0.026670 0.000000 3.560410 
# 
# 
# High freq. dielectric constant tensor:
#      x y z
#    x 1.678890 0.000000 0.003870 
#    y 0.000000 1.702460 0.000000 
#    z 0.003870 0.000000 1.724360 
# 
# From -- ./inp_files/378473.got.cif
#   From: 2010.06.25/outbox.cif.g09.slc.cpg/sg12_190_cif.got.tgz:378473.got - 2010.06.28 00:19:55.
