data_PCOD8089832
_publ_section_title
;
Structure prediction by ZEFSAII (Michael W. Deem and Ramdas Pophale) SiO2 
 PCOD8089832
Probable space group: C 2/M
;
_chemical_formula_sum "Si O2"
_cell_formula_units_Z 40
_cell_length_a 11.764828
_cell_length_b 13.502266
_cell_length_c 20.890354
_cell_angle_alpha 90.000000
_cell_angle_beta 143.258235
_cell_angle_gamma 90.000000
_cell_volume 1985.140718
_symmetry_space_group_name_H-M "C 2/M"
_symmetry_group_IT_number 12
_symmetry_cell_setting 'monoclinic'
loop_
_space_group_symop_operation_xyz
x,y,z
-x,y,-z
-x,-y,-z
x,-y,z
1/2+x,1/2+y,z
1/2-x,1/2+y,-z
1/2-x,1/2-y,-z
1/2+x,1/2-y,z
loop_
_atom_site_type_symbol
_atom_site_label
_atom_site_fract_x
_atom_site_fract_y
_atom_site_fract_z
Si Si1 0.854484 0.388353 0.824620
Si Si2 0.750845 0.279559 0.894530
Si Si3 0.219840 0.111072 0.006871
Si Si4 0.510405 0.732799 0.669253
Si Si5 0.378882 0.116433 0.508881
O O1 0.783531 0.500000 0.801405
O O2 0.893859 0.341014 0.913051
O O3 0.683255 0.328422 0.712771
O O4 0.053204 0.383888 0.877544
O O5 0.862800 0.186120 0.977175
O O6 0.574286 0.241500 0.770820
O O7 0.666049 0.351141 0.911755
O O8 0.139999 0.000000 0.980105
O O9 0.478675 0.832873 0.615136
O O10 0.328072 0.662905 0.591846
O O11 0.500000 0.138060 0.500000
O O12 0.363168 0.000000 0.515662
#
# Coordination Sequence:
#
# PCOD8089832 Si02
#       5
#     8   8   8   8   8
#     4   9  18  33  55  76 101 138 177 212 254 309
#     4   9  20  32  53  80 109 138 170 215 256 308
#     4  10  19  33  54  81 109 140 175 211 257 307
#     4   9  21  34  56  79 105 133 179 220 258 308
#     4  10  21  38  57  76 103 139 176 218 268 318
#
# _framework density 20.149705000000001
#
# number of rings (size 3 to 8) (size 9 to 14) (size 15 to 20)
#    1.200    1.400    0.000    1.800    2.800    2.400 
#    0.000    0.000    0.000   13.800    0.000    0.000 
#    0.000    0.000    0.000    0.000    0.000    0.000 
#
# Total GULP energy -247770.953008 kJ/mol
# GULP energy per Si atom -12388.547650 kJ/mol
# Density = 2.010384 g / cm^3
# Si number density = 20.149705 Si / 1000 Ang^3
#
#
#
# Elastic Constant Matrix: (Units=GPa)
#
#
# Indices 1 2 3 4 5 6 
#
# 1 45.3530 16.1814 11.5079 0.0001 1.2410 0.0000
# 2 16.1814 131.1316 25.1202 0.0000 -18.4654 0.0000
# 3 11.5079 25.1202 69.3205 0.0001 -0.7933 0.0000
# 4 0.0001 0.0000 0.0001 28.4144 0.0001 -1.2311
# 5 1.2410 -18.4654 -0.7933 0.0001 14.7943 0.0000
# 6 0.0000 0.0000 0.0000 -1.2311 0.0000 24.9402
#
#
#
# Elastic Compliance Matrix: (Units=1/GPa)
#
#
# Indices 1 2 3 4 5 6 
#
# 1 0.024136 -0.003317 -0.002877 0.000000 -0.006319 0.000000
# 2 -0.003317 0.010488 -0.003099 0.000000 0.013203 0.000000
# 3 -0.002877 -0.003099 0.015995 0.000000 -0.002769 0.000000
# 4 0.000000 0.000000 0.000000 0.035269 0.000000 0.001741
# 5 -0.006319 0.013203 -0.002769 0.000000 0.084454 0.000000
# 6 0.000000 0.000000 0.000000 0.001741 0.000000 0.040182
#
#
# Mechanical properties :
#
#
# Convention : Reuss Voigt Hill
#
# Bulk Modulus (GPa) = 31.21832 39.04711 35.13272
# Shear Modulus (GPa) = 20.85190 26.49616 23.67403
#
# Velocity S-wave (km/s) = 3.22040 3.63018 3.43141
# Velocity P-wave (km/s) = 5.41800 6.08206 5.75961
#
# Compressibility (1/GPa) = 0.03203247
#
# Stress axis : x y z
#
# Youngs Moduli (GPa) = 41.43252 95.34699 62.52096
#
# Poissons Ratio (x) = 0.31626 0.17988
# Poissons Ratio (y) = 0.13743 0.19375
# Poissons Ratio (z) = 0.11920 0.29547
#
# Static dielectric constant tensor:
#      x y z
#    x 3.390850 0.000000 0.050850 
#    y 0.000000 3.762370 0.000000 
#    z 0.050850 0.000000 3.534610 
# 
# 
# High freq. dielectric constant tensor:
#      x y z
#    x 1.772180 0.000000 0.005490 
#    y 0.000000 1.793150 0.000000 
#    z 0.005490 0.000000 1.779840 
# 
# From -- ./inp_files/203641.got.cif
#   From: 2010.06.25/outbox.cif.g09.slc.cpg/sg12_102_cif.got.tgz:203641.got - 2010.06.28 00:19:55.
