data_PCOD8089443
_publ_section_title
;
Structure prediction by ZEFSAII (Michael W. Deem and Ramdas Pophale) SiO2 
 PCOD8089443
Probable space group: C 2/M
;
_chemical_formula_sum "Si O2"
_cell_formula_units_Z 48
_cell_length_a 27.081234
_cell_length_b 9.199368
_cell_length_c 10.625601
_cell_angle_alpha 90.000000
_cell_angle_beta 112.557129
_cell_angle_gamma 90.000000
_cell_volume 2444.644267
_symmetry_space_group_name_H-M "C 2/M"
_symmetry_group_IT_number 12
_symmetry_cell_setting 'monoclinic'
loop_
_space_group_symop_operation_xyz
x,y,z
-x,y,-z
-x,-y,-z
x,-y,z
1/2+x,1/2+y,z
1/2-x,1/2+y,-z
1/2-x,1/2-y,-z
1/2+x,1/2-y,z
loop_
_atom_site_type_symbol
_atom_site_label
_atom_site_fract_x
_atom_site_fract_y
_atom_site_fract_z
Si Si1 0.462662 0.670996 0.581230
Si Si2 0.645630 0.171380 0.135609
Si Si3 0.038400 0.672528 0.154653
Si Si4 0.254543 0.157880 0.624023
Si Si5 0.192602 0.672035 0.927242
Si Si6 0.145035 0.839522 0.657069
O O1 0.500000 0.719400 0.500000
O O2 0.468825 0.500000 0.613604
O O3 0.477303 0.752498 0.727095
O O4 0.402676 0.714000 0.480094
O O5 0.595636 0.236248 0.163716
O O6 0.701503 0.232098 0.244206
O O7 0.640311 0.000000 0.139643
O O8 0.650203 0.215782 0.994370
O O9 0.037943 0.500000 0.178182
O O10 0.000000 0.712941 0.000000
O O11 0.250000 0.250000 0.500000
O O12 0.197548 0.143594 0.628476
O O13 0.276394 0.000000 0.607021
O O14 0.204386 0.500000 0.935956
O O15 0.158594 0.720027 0.773954
O O16 0.250000 0.750000 0.000000
O O17 0.130632 0.000000 0.700247
#
# Coordination Sequence:
#
# PCOD8089443 Si02
#       6
#     8   8   8   8   8   8
#     4  10  23  42  62  87 122 159 197 248 305 359
#     4   9  19  36  55  79 116 151 184 238 295 341
#     4  10  22  40  63  89 118 154 200 251 299 354
#     4  10  19  33  53  76 107 143 181 231 286 343
#     4  11  21  36  59  87 120 155 194 237 292 354
#     4  10  21  38  57  81 117 154 193 242 293 348
#
# _framework density 19.634757
#
# number of rings (size 3 to 8) (size 9 to 14) (size 15 to 20)
#    0.000    2.000    1.667    1.500    2.333    2.000 
#    0.000    1.667    0.000    0.000    0.000    0.000 
#    0.000    0.000    0.000    0.000    0.000    0.000 
#
# Total GULP energy -297328.373107 kJ/mol
# GULP energy per Si atom -12388.682213 kJ/mol
# Density = 1.959007 g / cm^3
# Si number density = 19.634757 Si / 1000 Ang^3
#
#
#
# Elastic Constant Matrix: (Units=GPa)
#
#
# Indices 1 2 3 4 5 6 
#
# 1 114.4364 30.2928 56.7348 0.0000 -2.9301 0.0000
# 2 30.2928 67.8909 56.8173 0.0000 -11.1756 0.0000
# 3 56.7348 56.8173 151.5775 0.0000 -7.5323 0.0000
# 4 0.0000 0.0000 0.0000 38.4356 0.0000 -6.7778
# 5 -2.9301 -11.1756 -7.5323 0.0000 41.0030 0.0000
# 6 0.0000 0.0000 0.0000 -6.7778 0.0000 -14.6085
#
#
#
# Elastic Compliance Matrix: (Units=1/GPa)
#
#
# Indices 1 2 3 4 5 6 
#
# 1 0.010942 -0.002195 -0.003293 0.000000 -0.000421 0.000000
# 2 -0.002195 0.022724 -0.007464 0.000000 0.004665 0.000000
# 3 -0.003293 -0.007464 0.010612 0.000000 -0.000320 0.000000
# 4 0.000000 0.000000 0.000000 0.024050 0.000000 -0.011158
# 5 -0.000421 0.004665 -0.000320 0.000000 0.025571 0.000000
# 6 0.000000 0.000000 0.000000 -0.011158 0.000000 -0.063276
#
#
# Mechanical properties :
#
#
# Convention : Reuss Voigt Hill
#
# Bulk Modulus (GPa) = 54.43227 69.06608 61.74918
# Shear Modulus (GPa) = 79.80584 25.63667 52.72126
#
# Velocity S-wave (km/s) = 6.38227 3.61734 5.18742
# Velocity P-wave (km/s) = 9.06056 7.25938 8.20952
#
# Compressibility (1/GPa) = 0.01837145
#
# Stress axis : x y z
#
# Youngs Moduli (GPa) = 91.39415 44.00663 94.23271
#
# Poissons Ratio (x) = 0.09660 0.31035
# Poissons Ratio (y) = 0.20063 0.70338
# Poissons Ratio (z) = 0.30101 0.32848
#
# Static dielectric constant tensor:
#      x y z
#    x 3.761280 0.000000 0.066980 
#    y 0.000000 3.445980 0.000000 
#    z 0.066980 0.000000 3.691660 
# 
# 
# High freq. dielectric constant tensor:
#      x y z
#    x 1.774350 0.000000 0.001660 
#    y 0.000000 1.741790 0.000000 
#    z 0.001660 0.000000 1.774650 
# 
# From -- ./inp_files/102810.got.cif
#   From: 2010.06.25/outbox.cif.g09.slc.cpg/sg12_52_cif.got.tgz:102810.got - 2010.06.28 00:19:55.
