data_PCOD8089327
_publ_section_title
;
Structure prediction by ZEFSAII (Michael W. Deem and Ramdas Pophale) SiO2 
 PCOD8089327
Probable space group: C 2/M
;
_chemical_formula_sum "Si O2"
_cell_formula_units_Z 48
_cell_length_a 10.697209
_cell_length_b 23.107989
_cell_length_c 9.740667
_cell_angle_alpha 90.000000
_cell_angle_beta 79.927782
_cell_angle_gamma 90.000000
_cell_volume 2370.696241
_symmetry_space_group_name_H-M "C 2/M"
_symmetry_group_IT_number 12
_symmetry_cell_setting 'monoclinic'
loop_
_space_group_symop_operation_xyz
x,y,z
-x,y,-z
-x,-y,-z
x,-y,z
1/2+x,1/2+y,z
1/2-x,1/2+y,-z
1/2-x,1/2-y,-z
1/2+x,1/2-y,z
loop_
_atom_site_type_symbol
_atom_site_label
_atom_site_fract_x
_atom_site_fract_y
_atom_site_fract_z
Si Si1 0.302870 0.849210 0.749874
Si Si2 0.623604 0.662431 0.035710
Si Si3 0.833635 0.806168 0.469236
Si Si4 0.286107 0.849923 0.255931
Si Si5 0.992604 0.567397 0.339622
Si Si6 0.502856 0.756521 0.756425
O O1 0.223018 0.852938 0.626646
O O2 0.377320 0.909835 0.757800
O O3 0.408519 0.800865 0.704946
O O4 0.215224 0.827415 0.889984
O O5 0.711475 0.630987 0.132112
O O6 0.563980 0.722413 0.105904
O O7 0.500000 0.626693 0.000000
O O8 0.750000 0.750000 0.500000
O O9 0.830148 0.837905 0.616593
O O10 0.968036 0.787065 0.377077
O O11 0.371648 0.902516 0.292543
O O12 0.371720 0.791733 0.214792
O O13 0.980575 0.500000 0.312457
O O14 0.000000 0.581784 0.500000
#
# Coordination Sequence:
#
# PCOD8089327 Si02
#       6
#     8   8   8   8   8   8
#     4  11  22  37  57  89 126 154 208 251 294 360
#     4  12  25  37  53  86 130 175 198 235 292 367
#     4  10  19  33  52  86 122 163 194 239 288 356
#     4  10  23  37  59  90 124 155 205 248 294 363
#     4  10  21  42  72  94 112 144 196 272 328 349
#     4  10  21  33  58  83 127 167 202 233 297 350
#
# _framework density 20.247216000000002
#
# number of rings (size 3 to 8) (size 9 to 14) (size 15 to 20)
#    0.000    1.500    3.333    2.500    2.333    5.333 
#    0.000    1.667    0.000    2.000    0.000    3.500 
#    0.000    0.000    0.000    0.000    0.000    0.000 
#
# Total GULP energy -297314.544386 kJ/mol
# GULP energy per Si atom -12388.106016 kJ/mol
# Density = 2.020113 g / cm^3
# Si number density = 20.247216 Si / 1000 Ang^3
#
#
#
# Elastic Constant Matrix: (Units=GPa)
#
#
# Indices 1 2 3 4 5 6 
#
# 1 121.4827 45.7229 51.8979 0.0000 1.4386 0.0000
# 2 45.7229 84.4532 26.1951 0.0000 -9.9969 0.0000
# 3 51.8979 26.1951 97.2430 0.0000 -4.7151 0.0000
# 4 0.0000 0.0000 0.0000 19.7734 0.0000 0.7484
# 5 1.4386 -9.9969 -4.7151 0.0000 40.3408 0.0000
# 6 0.0000 0.0000 0.0000 0.7484 0.0000 13.0412
#
#
#
# Elastic Compliance Matrix: (Units=1/GPa)
#
#
# Indices 1 2 3 4 5 6 
#
# 1 0.012608 -0.005445 -0.005380 0.000000 -0.002428 0.000000
# 2 -0.005445 0.015597 -0.001105 0.000000 0.003930 0.000000
# 3 -0.005380 -0.001105 0.013525 0.000000 0.001499 0.000000
# 4 0.000000 0.000000 0.000000 0.050683 0.000000 -0.002909
# 5 -0.002428 0.003930 0.001499 0.000000 0.026024 0.000000
# 6 0.000000 0.000000 0.000000 -0.002909 0.000000 0.076847
#
#
# Mechanical properties :
#
#
# Convention : Reuss Voigt Hill
#
# Bulk Modulus (GPa) = 55.95800 61.20117 58.57958
# Shear Modulus (GPa) = 22.21241 26.58862 24.40052
#
# Velocity S-wave (km/s) = 3.31578 3.62774 3.47526
# Velocity P-wave (km/s) = 6.50819 6.91664 6.71552
#
# Compressibility (1/GPa) = 0.01787055
#
# Stress axis : x y z
#
# Youngs Moduli (GPa) = 79.31587 64.11686 73.93713
#
# Poissons Ratio (x) = 0.34909 0.39776
# Poissons Ratio (y) = 0.43184 0.08171
# Poissons Ratio (z) = 0.42670 0.07085
#
# Static dielectric constant tensor:
#      x y z
#    x 4.138970 0.000000 -0.106550 
#    y 0.000000 3.234900 0.000000 
#    z -0.106550 0.000000 4.022640 
# 
# 
# High freq. dielectric constant tensor:
#      x y z
#    x 1.812960 0.000000 -0.000220 
#    y 0.000000 1.720310 0.000000 
#    z -0.000220 0.000000 1.808620 
# 
# From -- ./inp_files/50621.got.cif
#   From: 2010.06.25/outbox.cif.g09.slc.cpg/sg12_26_cif.got.tgz:50621.got - 2010.06.28 00:19:55.
