data_PCOD8089150
_publ_section_title
;
Structure prediction by ZEFSAII (Michael W. Deem and Ramdas Pophale) SiO2 
 PCOD8089150
Probable space group: C 2/M
;
_chemical_formula_sum "Si O2"
_cell_formula_units_Z 56
_cell_length_a 13.859432
_cell_length_b 19.147361
_cell_length_c 16.243747
_cell_angle_alpha 90.000000
_cell_angle_beta 133.009221
_cell_angle_gamma 90.000000
_cell_volume 3152.120781
_symmetry_space_group_name_H-M "C 2/M"
_symmetry_group_IT_number 12
_symmetry_cell_setting 'monoclinic'
loop_
_space_group_symop_operation_xyz
x,y,z
-x,y,-z
-x,-y,-z
x,-y,z
1/2+x,1/2+y,z
1/2-x,1/2+y,-z
1/2-x,1/2-y,-z
1/2+x,1/2-y,z
loop_
_atom_site_type_symbol
_atom_site_label
_atom_site_fract_x
_atom_site_fract_y
_atom_site_fract_z
Si Si1 0.710053 0.422329 0.330072
Si Si2 0.175660 0.660775 0.748058
Si Si3 0.410956 0.421163 0.184388
Si Si4 0.621732 0.154549 0.456858
Si Si5 0.835128 0.800387 0.460417
Si Si6 0.634673 0.582003 0.030181
Si Si7 0.388901 0.318507 0.310523
O O1 0.726134 0.500000 0.301426
O O2 0.732947 0.365285 0.273184
O O3 0.566854 0.413171 0.285303
O O4 0.812202 0.413480 0.464850
O O5 0.241367 0.627825 0.867404
O O6 0.169381 0.744247 0.751775
O O7 0.026899 0.632942 0.650098
O O8 0.363784 0.500000 0.173618
O O9 0.341253 0.373325 0.213531
O O10 0.375138 0.397997 0.071335
O O11 0.694084 0.180402 0.416147
O O12 0.639330 0.216881 0.534809
O O13 0.836229 0.836340 0.371450
O O14 0.952090 0.823481 0.590383
O O15 0.663260 0.500000 0.059332
O O16 0.500000 0.602225 0.000000
#
# Coordination Sequence:
#
# PCOD8089150 Si02
#       7
#     8   8   8   8   8   8   8
#     4  11  20  33  53  83 116 143 178 225 281 340
#     4  11  21  31  54  84 111 144 182 226 280 333
#     4  10  21  37  58  78 107 150 189 228 275 327
#     4  10  19  33  51  80 115 150 177 217 282 332
#     4   9  18  33  54  78 112 150 181 216 274 337
#     4  10  20  37  57  78 111 153 186 223 278 333
#     4  10  19  34  56  81 109 144 189 229 270 325
#
# _framework density 17.765816999999998
#
# number of rings (size 3 to 8) (size 9 to 14) (size 15 to 20)
#    0.000    1.857    4.286    0.857    0.000    2.286 
#    0.000    2.143    0.000    0.000    0.000    2.000 
#    0.000    0.000    0.000    0.000    0.000    0.000 
#
# Total GULP energy -347058.248993 kJ/mol
# GULP energy per Si atom -12394.937464 kJ/mol
# Density = 1.772538 g / cm^3
# Si number density = 17.765817 Si / 1000 Ang^3
#
#
#
# Elastic Constant Matrix: (Units=GPa)
#
#
# Indices 1 2 3 4 5 6 
#
# 1 65.6070 38.3361 23.8703 0.0000 -17.3833 0.0000
# 2 38.3361 81.8336 50.0636 0.0000 -17.6163 0.0000
# 3 23.8703 50.0636 93.8187 0.0000 -17.3066 0.0000
# 4 0.0000 0.0000 0.0000 27.9339 0.0000 -4.8417
# 5 -17.3833 -17.6163 -17.3066 0.0000 28.2763 0.0000
# 6 0.0000 0.0000 0.0000 -4.8417 0.0000 27.2860
#
#
#
# Elastic Compliance Matrix: (Units=1/GPa)
#
#
# Indices 1 2 3 4 5 6 
#
# 1 0.022636 -0.009199 0.000743 0.000000 0.008640 0.000000
# 2 -0.009199 0.022852 -0.009323 0.000000 0.002875 0.000000
# 3 0.000743 -0.009323 0.016298 0.000000 0.004623 0.000000
# 4 0.000000 0.000000 0.000000 0.036935 0.000000 0.006554
# 5 0.008640 0.002875 0.004623 0.000000 0.045298 0.000000
# 6 0.000000 0.000000 0.000000 0.006554 0.000000 0.037812
#
#
# Mechanical properties :
#
#
# Convention : Reuss Voigt Hill
#
# Bulk Modulus (GPa) = 38.12752 51.75545 44.94148
# Shear Modulus (GPa) = 22.11097 25.29854 23.70475
#
# Velocity S-wave (km/s) = 3.53169 3.77769 3.65676
# Velocity P-wave (km/s) = 6.17561 6.94429 6.57120
#
# Compressibility (1/GPa) = 0.02622777
#
# Stress axis : x y z
#
# Youngs Moduli (GPa) = 44.17657 43.75953 61.35792
#
# Poissons Ratio (x) = 0.40255 -0.04560
# Poissons Ratio (y) = 0.40639 0.57207
# Poissons Ratio (z) = -0.03283 0.40799
#
# Static dielectric constant tensor:
#      x y z
#    x 3.125440 0.000000 -0.028710 
#    y 0.000000 3.248360 0.000000 
#    z -0.028710 0.000000 3.253660 
# 
# 
# High freq. dielectric constant tensor:
#      x y z
#    x 1.678000 0.000000 -0.009380 
#    y 0.000000 1.672290 0.000000 
#    z -0.009380 0.000000 1.677820 
# 
# From -- ./inp_files/147053.got.cif
#   From: 2010.06.25/outbox.cif.g09.slc.cpg/sg12_74_cif.got.tgz:147053.got - 2010.06.28 00:19:55.
