data_PCOD8089322
_publ_section_title
;
Structure prediction by ZEFSAII (Michael W. Deem and Ramdas Pophale) SiO2 
 PCOD8089322
Probable space group: C 2/M
;
_chemical_formula_sum "Si O2"
_cell_formula_units_Z 40
_cell_length_a 18.965521
_cell_length_b 7.792695
_cell_length_c 20.228059
_cell_angle_alpha 90.000000
_cell_angle_beta 45.316735
_cell_angle_gamma 90.000000
_cell_volume 2125.588818
_symmetry_space_group_name_H-M "C 2/M"
_symmetry_group_IT_number 12
_symmetry_cell_setting 'monoclinic'
loop_
_space_group_symop_operation_xyz
x,y,z
-x,y,-z
-x,-y,-z
x,-y,z
1/2+x,1/2+y,z
1/2-x,1/2+y,-z
1/2-x,1/2-y,-z
1/2+x,1/2-y,z
loop_
_atom_site_type_symbol
_atom_site_label
_atom_site_fract_x
_atom_site_fract_y
_atom_site_fract_z
Si Si1 0.506153 0.804804 0.924363
Si Si2 0.994996 0.802756 0.290013
Si Si3 0.853836 0.811667 0.268537
Si Si4 0.337081 0.000000 0.606664
Si Si5 0.496786 0.000000 0.612118
Si Si6 0.360889 0.798018 0.910948
O O1 0.614516 0.794509 0.817745
O O2 0.425891 0.721590 0.928192
O O3 0.475676 0.000000 0.955928
O O4 0.500000 0.711039 0.000000
O O5 0.998113 0.674787 0.349706
O O6 0.099743 0.789430 0.182210
O O7 0.903566 0.738058 0.303128
O O8 0.979712 0.000000 0.324411
O O9 0.733793 0.829417 0.351428
O O10 0.902104 0.000000 0.227400
O O11 0.394910 0.000000 0.637742
O O12 0.409496 0.000000 0.497506
O O13 0.375345 0.000000 0.893064
O O14 0.250000 0.750000 0.000000
#
# Coordination Sequence:
#
# PCOD8089322 Si02
#       6
#     8   8   8   4   4   8
#     4   9  18  32  52  79 112 152 192 233 280 339
#     4  10  20  38  61  86 114 156 200 241 286 353
#     4   8  18  37  55  78 115 146 193 239 283 340
#     4   9  22  42  57  88 121 147 188 255 303 353
#     4  11  22  40  66  84 122 153 189 249 309 349
#     4  10  19  33  52  81 119 154 188 238 287 336
#
# _framework density 18.818314999999998
#
# number of rings (size 3 to 8) (size 9 to 14) (size 15 to 20)
#    0.600    2.000    1.000    0.600    1.400    3.600 
#    0.000    6.000    0.000    0.000    0.000    0.000 
#    0.000    0.000    0.000    0.000    0.000    0.000 
#
# Total GULP energy -247789.547371 kJ/mol
# GULP energy per Si atom -12389.477369 kJ/mol
# Density = 1.877548 g / cm^3
# Si number density = 18.818315 Si / 1000 Ang^3
#
#
#
# Elastic Constant Matrix: (Units=GPa)
#
#
# Indices 1 2 3 4 5 6 
#
# 1 117.6426 33.8857 84.2215 -0.0002 -1.2292 0.0003
# 2 33.8857 67.0095 31.2891 -0.0004 12.4088 0.0013
# 3 84.2215 31.2891 124.6405 0.0000 3.3598 0.0001
# 4 -0.0002 -0.0004 0.0000 25.7694 0.0000 -2.2757
# 5 -1.2292 12.4088 3.3598 0.0000 38.7241 -0.0001
# 6 0.0003 0.0013 0.0001 -2.2757 -0.0001 22.7759
#
#
#
# Elastic Compliance Matrix: (Units=1/GPa)
#
#
# Indices 1 2 3 4 5 6 
#
# 1 0.017544 -0.004344 -0.010842 0.000000 0.002890 0.000000
# 2 -0.004344 0.019031 -0.001678 0.000000 -0.006091 -0.000001
# 3 -0.010842 -0.001678 0.015802 0.000000 -0.001177 0.000000
# 4 0.000000 0.000000 0.000000 0.039151 0.000000 0.003912
# 5 0.002890 -0.006091 -0.001177 0.000000 0.027969 0.000000
# 6 0.000000 -0.000001 0.000000 0.003912 0.000000 0.044297
#
#
# Mechanical properties :
#
#
# Convention : Reuss Voigt Hill
#
# Bulk Modulus (GPa) = 53.62175 67.56501 60.59338
# Shear Modulus (GPa) = 24.54124 28.11364 26.32744
#
# Velocity S-wave (km/s) = 3.61517 3.86936 3.74442
# Velocity P-wave (km/s) = 6.78102 7.47960 7.13886
#
# Compressibility (1/GPa) = 0.01864915
#
# Stress axis : x y z
#
# Youngs Moduli (GPa) = 57.00099 52.54466 63.28312
#
# Poissons Ratio (x) = 0.22826 0.68610
# Poissons Ratio (y) = 0.24762 0.10618
# Poissons Ratio (z) = 0.61799 0.08817
#
# Static dielectric constant tensor:
#      x y z
#    x 3.698490 0.000000 0.098300 
#    y 0.000000 3.336690 0.000000 
#    z 0.098300 0.000000 3.354960 
# 
# 
# High freq. dielectric constant tensor:
#      x y z
#    x 1.723070 0.000000 0.003960 
#    y 0.000000 1.717180 0.000000 
#    z 0.003960 0.000000 1.724750 
# 
# From -- ./inp_files/273967.got.cif
#   From: 2010.06.25/outbox.cif.g09.slc.cpg/sg12_137_cif.got.tgz:273967.got - 2010.06.28 00:19:55.
