data_PCOD8089098
_publ_section_title
;
Structure prediction by ZEFSAII (Michael W. Deem and Ramdas Pophale) SiO2 
 PCOD8089098
Probable space group: C 2/M
;
_chemical_formula_sum "Si O2"
_cell_formula_units_Z 64
_cell_length_a 24.767661
_cell_length_b 9.356268
_cell_length_c 23.260166
_cell_angle_alpha 90.000000
_cell_angle_beta 46.663124
_cell_angle_gamma 90.000000
_cell_volume 3920.420766
_symmetry_space_group_name_H-M "C 2/M"
_symmetry_group_IT_number 12
_symmetry_cell_setting 'monoclinic'
loop_
_space_group_symop_operation_xyz
x,y,z
-x,y,-z
-x,-y,-z
x,-y,z
1/2+x,1/2+y,z
1/2-x,1/2+y,-z
1/2-x,1/2-y,-z
1/2+x,1/2-y,z
loop_
_atom_site_type_symbol
_atom_site_label
_atom_site_fract_x
_atom_site_fract_y
_atom_site_fract_z
Si Si1 0.301847 0.835860 0.690278
Si Si2 0.580859 0.664736 0.576929
Si Si3 0.129305 0.165536 0.668226
Si Si4 0.441336 0.838347 0.991620
Si Si5 0.271734 0.669299 0.597989
Si Si6 0.659862 0.337718 0.860911
Si Si7 0.453087 0.335571 0.157238
Si Si8 0.470834 0.166266 0.582680
O O1 0.278756 0.730923 0.656483
O O2 0.246473 0.810593 0.784304
O O3 0.383908 0.800569 0.652344
O O4 0.296004 0.000000 0.672538
O O5 0.564938 0.500000 0.575484
O O6 0.586837 0.694985 0.640111
O O7 0.656076 0.713808 0.490776
O O8 0.511634 0.753581 0.604265
O O9 0.201910 0.263045 0.616647
O O10 0.072869 0.207924 0.760211
O O11 0.153814 0.000000 0.655966
O O12 0.475196 0.758652 0.911532
O O13 0.422792 0.000000 0.987799
O O14 0.500000 0.828895 0.000000
O O15 0.365597 0.763096 0.068081
O O16 0.260888 0.500000 0.609246
O O17 0.644950 0.500000 0.891216
O O18 0.615126 0.303205 0.835385
O O19 0.477496 0.500000 0.135993
O O20 0.500000 0.223973 0.500000
O O21 0.489216 0.000000 0.575184
#
# Coordination Sequence:
#
# PCOD8089098 Si02
#       8
#     8   8   8   8   8   8   8   8
#     4  10  19  33  51  72  96 130 167 202 243 288
#     4  10  22  36  50  70  98 131 167 206 248 289
#     4  10  20  35  51  69  97 134 169 200 238 291
#     4   9  17  27  41  65  98 127 150 187 237 286
#     4  11  21  31  47  73 100 129 163 204 247 287
#     4   9  16  28  46  67  92 124 162 195 229 283
#     4   9  16  28  47  67  90 126 163 191 228 284
#     4  10  20  34  54  73  93 126 168 209 248 288
#
# _framework density 16.324777999999998
#
# number of rings (size 3 to 8) (size 9 to 14) (size 15 to 20)
#    0.000    2.250    2.500    1.125    0.000    4.250 
#    0.000    0.000    0.000    0.000    0.000    0.875 
#    0.000    0.000    0.000    0.000    0.000    0.000 
#
# Total GULP energy -396874.396751 kJ/mol
# GULP energy per Si atom -12402.324898 kJ/mol
# Density = 1.628762 g / cm^3
# Si number density = 16.324778 Si / 1000 Ang^3
#
#
#
# Elastic Constant Matrix: (Units=GPa)
#
#
# Indices 1 2 3 4 5 6 
#
# 1 74.4475 38.6422 41.8940 0.0002 -6.9029 -0.0004
# 2 38.6422 70.0519 45.8746 -0.0001 -8.2987 -0.0006
# 3 41.8940 45.8746 111.7453 0.0003 -17.5562 -0.0001
# 4 0.0002 -0.0001 0.0003 21.3096 -0.0001 -0.9269
# 5 -6.9029 -8.2987 -17.5562 -0.0001 16.3045 0.0002
# 6 -0.0004 -0.0006 -0.0001 -0.9269 0.0002 24.8162
#
#
#
# Elastic Compliance Matrix: (Units=1/GPa)
#
#
# Indices 1 2 3 4 5 6 
#
# 1 0.020096 -0.008418 -0.004110 0.000000 -0.000202 0.000000
# 2 -0.008418 0.023083 -0.006060 0.000000 0.001660 0.000000
# 3 -0.004110 -0.006060 0.014708 0.000000 0.011012 0.000000
# 4 0.000000 0.000000 0.000000 0.047004 0.000000 0.001756
# 5 -0.000202 0.001660 0.011012 0.000000 0.073950 0.000000
# 6 0.000000 0.000000 0.000000 0.001756 0.000000 0.040362
#
#
# Mechanical properties :
#
#
# Convention : Reuss Voigt Hill
#
# Bulk Modulus (GPa) = 48.28134 56.56292 52.42213
# Shear Modulus (GPa) = 18.99111 21.14165 20.06638
#
# Velocity S-wave (km/s) = 3.41446 3.60261 3.50980
# Velocity P-wave (km/s) = 6.72194 7.21310 6.97184
#
# Compressibility (1/GPa) = 0.02071194
#
# Stress axis : x y z
#
# Youngs Moduli (GPa) = 49.76218 43.32101 67.99183
#
# Poissons Ratio (x) = 0.36466 0.27945
# Poissons Ratio (y) = 0.41888 0.41201
# Poissons Ratio (z) = 0.20452 0.26252
#
# Static dielectric constant tensor:
#      x y z
#    x 2.763240 0.000000 -0.070420 
#    y 0.000000 3.116470 0.000000 
#    z -0.070420 0.000000 3.197710 
# 
# 
# High freq. dielectric constant tensor:
#      x y z
#    x 1.587260 0.000000 -0.006760 
#    y 0.000000 1.631240 0.000000 
#    z -0.006760 0.000000 1.634580 
# 
# From -- ./inp_files/348533.got.cif
#   From: 2010.06.25/outbox.cif.g09.slc.cpg/sg12_175_cif.got.tgz:348533.got - 2010.06.28 00:19:55.
