data_PCOD8089806
_publ_section_title
;
Structure prediction by ZEFSAII (Michael W. Deem and Ramdas Pophale) SiO2 
 PCOD8089806
Probable space group: C 2/M
;
_chemical_formula_sum "Si O2"
_cell_formula_units_Z 56
_cell_length_a 33.514989
_cell_length_b 8.797133
_cell_length_c 12.491439
_cell_angle_alpha 90.000000
_cell_angle_beta 120.622020
_cell_angle_gamma 90.000000
_cell_volume 3169.326386
_symmetry_space_group_name_H-M "C 2/M"
_symmetry_group_IT_number 12
_symmetry_cell_setting 'monoclinic'
loop_
_space_group_symop_operation_xyz
x,y,z
-x,y,-z
-x,-y,-z
x,-y,z
1/2+x,1/2+y,z
1/2-x,1/2+y,-z
1/2-x,1/2-y,-z
1/2+x,1/2-y,z
loop_
_atom_site_type_symbol
_atom_site_label
_atom_site_fract_x
_atom_site_fract_y
_atom_site_fract_z
Si Si1 0.046188 0.322821 0.832838
Si Si2 0.112793 0.680138 0.523973
Si Si3 0.797745 0.821652 0.438185
Si Si4 0.701816 0.321847 0.314964
Si Si5 0.554765 0.820086 0.243351
Si Si6 0.450206 0.321136 0.388800
Si Si7 0.889078 0.322529 0.882325
O O1 0.042632 0.500000 0.796252
O O2 0.056202 0.223522 0.742769
O O3 0.998359 0.266106 0.821559
O O4 0.087532 0.292577 0.971759
O O5 0.113467 0.500000 0.526668
O O6 0.164935 0.740897 0.586397
O O7 0.082952 0.744265 0.383424
O O8 0.090589 0.739820 0.602554
O O9 0.747313 0.763210 0.334233
O O10 0.807780 0.776194 0.574994
O O11 0.800560 0.000000 0.423666
O O12 0.709820 0.500000 0.313304
O O13 0.658955 0.268158 0.184479
O O14 0.577303 0.757472 0.164866
O O15 0.556871 0.000000 0.244679
O O16 0.500000 0.263692 0.500000
O O17 0.445131 0.500000 0.396198
O O18 0.878976 0.500000 0.849873
#
# Coordination Sequence:
#
# PCOD8089806 Si02
#       7
#     8   8   8   8   8   8   8
#     4  10  20  35  55  78 106 145 188 224 263 317
#     4  11  20  33  57  81 107 141 180 223 270 320
#     4  10  20  34  53  79 110 141 177 221 270 318
#     4  10  20  33  52  78 110 144 179 217 264 322
#     4   9  17  30  51  79 109 141 176 218 263 315
#     4  11  23  37  53  75 107 144 184 229 271 311
#     4  10  19  33  54  80 111 144 180 221 268 320
#
# _framework density 17.669369
#
# number of rings (size 3 to 8) (size 9 to 14) (size 15 to 20)
#    0.000    1.857    2.857    2.143    0.000    4.000 
#    0.000    0.714    0.000    2.571    0.000    0.000 
#    0.000    0.000    0.000    0.000    0.000    0.000 
#
# Total GULP energy -347320.801580 kJ/mol
# GULP energy per Si atom -12404.314342 kJ/mol
# Density = 1.762915 g / cm^3
# Si number density = 17.669369 Si / 1000 Ang^3
#
#
#
# Elastic Constant Matrix: (Units=GPa)
#
#
# Indices 1 2 3 4 5 6 
#
# 1 127.4703 42.1560 49.5637 0.0000 11.6232 0.0000
# 2 42.1560 60.5692 28.7316 0.0000 2.5613 0.0000
# 3 49.5637 28.7316 86.6520 0.0000 5.9979 0.0000
# 4 0.0000 0.0000 0.0000 24.8427 0.0000 2.6545
# 5 11.6232 2.5613 5.9979 0.0000 26.0795 0.0000
# 6 0.0000 0.0000 0.0000 2.6545 0.0000 27.3156
#
#
#
# Elastic Compliance Matrix: (Units=1/GPa)
#
#
# Indices 1 2 3 4 5 6 
#
# 1 0.011944 -0.005978 -0.004595 0.000000 -0.003679 0.000000
# 2 -0.005978 0.022588 -0.004168 0.000000 0.001404 0.000000
# 3 -0.004595 -0.004168 0.015629 0.000000 -0.001137 0.000000
# 4 0.000000 0.000000 0.000000 0.040676 0.000000 -0.003953
# 5 -0.003679 0.001404 -0.001137 0.000000 0.040108 0.000000
# 6 0.000000 0.000000 0.000000 -0.003953 0.000000 0.036993
#
#
# Mechanical properties :
#
#
# Convention : Reuss Voigt Hill
#
# Bulk Modulus (GPa) = 48.35462 57.28825 52.82143
# Shear Modulus (GPa) = 24.47230 25.93024 25.20127
#
# Velocity S-wave (km/s) = 3.72561 3.83498 3.78069
# Velocity P-wave (km/s) = 6.77737 7.21819 7.00125
#
# Compressibility (1/GPa) = 0.02068055
#
# Stress axis : x y z
#
# Youngs Moduli (GPa) = 83.72362 44.27105 63.98214
#
# Poissons Ratio (x) = 0.26464 0.29400
# Poissons Ratio (y) = 0.50048 0.26666
# Poissons Ratio (z) = 0.38472 0.18451
#
# Static dielectric constant tensor:
#      x y z
#    x 3.296940 0.000000 0.069260 
#    y 0.000000 3.120410 0.000000 
#    z 0.069260 0.000000 3.123830 
# 
# 
# High freq. dielectric constant tensor:
#      x y z
#    x 1.685680 0.000000 0.009420 
#    y 0.000000 1.675840 0.000000 
#    z 0.009420 0.000000 1.664950 
# 
# From -- ./inp_files/180999.got.cif
#   From: 2010.06.25/outbox.cif.g09.slc.cpg/sg12_91_cif.got.tgz:180999.got - 2010.06.28 00:19:55.
