data_PCOD8089748
_publ_section_title
;
Structure prediction by ZEFSAII (Michael W. Deem and Ramdas Pophale) SiO2 
 PCOD8089748
Probable space group: C 2/M
;
_chemical_formula_sum "Si O2"
_cell_formula_units_Z 64
_cell_length_a 15.515664
_cell_length_b 8.831940
_cell_length_c 26.547117
_cell_angle_alpha 90.000000
_cell_angle_beta 115.959934
_cell_angle_gamma 90.000000
_cell_volume 3270.785152
_symmetry_space_group_name_H-M "C 2/M"
_symmetry_group_IT_number 12
_symmetry_cell_setting 'monoclinic'
loop_
_space_group_symop_operation_xyz
x,y,z
-x,y,-z
-x,-y,-z
x,-y,z
1/2+x,1/2+y,z
1/2-x,1/2+y,-z
1/2-x,1/2-y,-z
1/2+x,1/2-y,z
loop_
_atom_site_type_symbol
_atom_site_label
_atom_site_fract_x
_atom_site_fract_y
_atom_site_fract_z
Si Si1 0.442100 0.179322 0.058357
Si Si2 0.642140 0.179262 0.067936
Si Si3 0.449475 0.820230 0.260452
Si Si4 0.321733 0.677893 0.557787
Si Si5 0.163576 0.321168 0.333363
Si Si6 0.999771 0.326461 0.557762
Si Si7 0.331107 0.174367 0.325696
Si Si8 0.155983 0.319874 0.865886
O O1 0.552994 0.230064 0.080576
O O2 0.395701 0.246958 0.097349
O O3 0.439771 0.000000 0.059239
O O4 0.379781 0.234305 0.994657
O O5 0.736215 0.261611 0.111781
O O6 0.657511 0.000000 0.074003
O O7 0.557956 0.759798 0.292461
O O8 0.388079 0.760827 0.292075
O O9 0.403190 0.758787 0.197099
O O10 0.451028 0.000000 0.261540
O O11 0.306147 0.500000 0.554503
O O12 0.250000 0.750000 0.500000
O O13 0.298093 0.742251 0.606532
O O14 0.429985 0.718656 0.571027
O O15 0.163706 0.500000 0.341110
O O16 0.235226 0.273531 0.306924
O O17 0.964102 0.500000 0.553878
O O18 0.105000 0.307418 0.607771
O O19 0.000000 0.274602 0.500000
O O20 0.302337 0.000000 0.309938
O O21 0.157615 0.500000 0.867710
#
# Coordination Sequence:
#
# PCOD8089748 Si02
#       8
#     8   8   8   8   8   8   8   8
#     4   8  16  31  52  76 109 149 186 224 281 344
#     4   9  17  32  52  77 109 146 184 233 286 329
#     4   9  20  38  57  77 111 153 185 224 284 343
#     4  12  24  38  59  87 118 149 186 231 280 337
#     4  11  22  40  62  85 112 148 190 232 281 340
#     4  10  20  36  59  84 114 149 184 224 282 340
#     4  10  20  38  59  81 112 148 182 227 287 339
#     4  10  19  33  54  79 106 145 192 230 274 337
#
# _framework density 19.567167999999999
#
# number of rings (size 3 to 8) (size 9 to 14) (size 15 to 20)
#    0.000    2.125    1.250    3.375    0.000    2.750 
#    0.000    5.000    0.000    0.000    0.000    0.000 
#    0.000    0.000    0.000    0.000    0.000    0.000 
#
# Total GULP energy -396848.810967 kJ/mol
# GULP energy per Si atom -12401.525343 kJ/mol
# Density = 1.952263 g / cm^3
# Si number density = 19.567168 Si / 1000 Ang^3
#
#
#
# Elastic Constant Matrix: (Units=GPa)
#
#
# Indices 1 2 3 4 5 6 
#
# 1 143.7115 33.1242 60.7083 0.0000 7.0624 0.0000
# 2 33.1242 57.5840 24.2142 0.0000 4.6412 0.0000
# 3 60.7083 24.2142 119.5748 0.0000 8.1395 0.0000
# 4 0.0000 0.0000 0.0000 17.1868 0.0000 2.2846
# 5 7.0624 4.6412 8.1395 0.0000 28.8088 0.0000
# 6 0.0000 0.0000 0.0000 2.2846 0.0000 34.4347
#
#
#
# Elastic Compliance Matrix: (Units=1/GPa)
#
#
# Indices 1 2 3 4 5 6 
#
# 1 0.009565 -0.003748 -0.004057 0.000000 -0.000595 0.000000
# 2 -0.003748 0.020566 -0.002140 0.000000 -0.001790 0.000000
# 3 -0.004057 -0.002140 0.010976 0.000000 -0.001762 0.000000
# 4 0.000000 0.000000 0.000000 0.058702 0.000000 -0.003895
# 5 -0.000595 -0.001790 -0.001762 0.000000 0.035644 0.000000
# 6 0.000000 0.000000 0.000000 -0.003895 0.000000 0.029299
#
#
# Mechanical properties :
#
#
# Convention : Reuss Voigt Hill
#
# Bulk Modulus (GPa) = 47.13123 61.88486 54.50805
# Shear Modulus (GPa) = 26.08050 29.60763 27.84407
#
# Velocity S-wave (km/s) = 3.65481 3.89411 3.77636
# Velocity P-wave (km/s) = 6.47683 7.20516 6.85068
#
# Compressibility (1/GPa) = 0.02121735
#
# Stress axis : x y z
#
# Youngs Moduli (GPa) = 104.54452 48.62341 91.10934
#
# Poissons Ratio (x) = 0.18226 0.36961
# Poissons Ratio (y) = 0.39188 0.19495
# Poissons Ratio (z) = 0.42411 0.10404
#
# Static dielectric constant tensor:
#      x y z
#    x 3.786940 0.000000 -0.131010 
#    y 0.000000 3.264500 0.000000 
#    z -0.131010 0.000000 3.738700 
# 
# 
# High freq. dielectric constant tensor:
#      x y z
#    x 1.776320 0.000000 -0.001540 
#    y 0.000000 1.728150 0.000000 
#    z -0.001540 0.000000 1.761870 
# 
# From -- ./inp_files/360007.got.cif
#   From: 2010.06.25/outbox.cif.g09.slc.cpg/sg12_181_cif.got.tgz:360007.got - 2010.06.28 00:19:55.
