data_PCOD8089374
_publ_section_title
;
Structure prediction by ZEFSAII (Michael W. Deem and Ramdas Pophale) SiO2 
 PCOD8089374
Probable space group: C 2/M
;
_chemical_formula_sum "Si O2"
_cell_formula_units_Z 56
_cell_length_a 19.181391
_cell_length_b 9.585160
_cell_length_c 20.008790
_cell_angle_alpha 90.000000
_cell_angle_beta 122.438228
_cell_angle_gamma 90.000000
_cell_volume 3104.755604
_symmetry_space_group_name_H-M "C 2/M"
_symmetry_group_IT_number 12
_symmetry_cell_setting 'monoclinic'
loop_
_space_group_symop_operation_xyz
x,y,z
-x,y,-z
-x,-y,-z
x,-y,z
1/2+x,1/2+y,z
1/2-x,1/2+y,-z
1/2-x,1/2-y,-z
1/2+x,1/2-y,z
loop_
_atom_site_type_symbol
_atom_site_label
_atom_site_fract_x
_atom_site_fract_y
_atom_site_fract_z
Si Si1 0.989544 0.155498 0.681155
Si Si2 0.472876 0.654300 0.828823
Si Si3 0.713193 0.662359 0.278456
Si Si4 0.256328 0.841552 0.937061
Si Si5 0.169833 0.167428 0.757249
Si Si6 0.308449 0.335178 0.578279
Si Si7 0.056250 0.657823 0.970696
O O1 0.993890 0.152121 0.762536
O O2 0.902235 0.224757 0.614440
O O3 0.075196 0.223473 0.698825
O O4 0.987848 0.000000 0.651546
O O5 0.485040 0.500000 0.865194
O O6 0.378762 0.703153 0.793091
O O7 0.539727 0.755926 0.895420
O O8 0.731433 0.500000 0.272808
O O9 0.777345 0.759378 0.272879
O O10 0.720770 0.692302 0.361190
O O11 0.199884 0.787183 0.846942
O O12 0.232369 0.000000 0.944008
O O13 0.250000 0.750000 0.000000
O O14 0.349526 0.832715 0.958137
O O15 0.177144 0.000000 0.753796
O O16 0.304625 0.500000 0.560689
O O17 0.250000 0.250000 0.500000
O O18 0.028951 0.500000 0.941762
O O19 0.000000 0.723029 0.000000
#
# Coordination Sequence:
#
# PCOD8089374 Si02
#       7
#     8   8   8   8   8   8   8
#     4   8  16  32  53  74  96 125 162 202 239 281
#     4   9  17  32  52  69  89 125 170 207 241 288
#     4   9  19  34  52  76 104 131 161 204 253 293
#     4  10  21  34  49  71  99 133 171 211 254 296
#     4  10  19  33  53  74  98 132 172 207 243 294
#     4   9  18  35  57  79 103 129 160 199 242 292
#     4  10  20  32  45  66  97 127 159 207 257 291
#
# _framework density 18.036847000000002
#
# number of rings (size 3 to 8) (size 9 to 14) (size 15 to 20)
#    0.000    2.714    0.000    3.429    0.000    4.857 
#    0.000    4.286    0.000    4.286    0.000    0.000 
#    0.000    0.000    0.000    0.000    0.000    0.000 
#
# Total GULP energy -347004.894233 kJ/mol
# GULP energy per Si atom -12393.031937 kJ/mol
# Density = 1.799579 g / cm^3
# Si number density = 18.036847 Si / 1000 Ang^3
#
#
#
# Elastic Constant Matrix: (Units=GPa)
#
#
# Indices 1 2 3 4 5 6 
#
# 1 113.3774 34.0889 33.2746 0.0000 14.0659 0.0000
# 2 34.0889 51.2021 39.2041 0.0000 3.4042 0.0000
# 3 33.2746 39.2041 97.0035 0.0000 16.8622 0.0000
# 4 0.0000 0.0000 0.0000 31.3310 0.0000 -3.6519
# 5 14.0659 3.4042 16.8622 0.0000 23.9449 0.0000
# 6 0.0000 0.0000 0.0000 -3.6519 0.0000 27.4409
#
#
#
# Elastic Compliance Matrix: (Units=1/GPa)
#
#
# Indices 1 2 3 4 5 6 
#
# 1 0.011791 -0.007448 -0.000016 0.000000 -0.005856 0.000000
# 2 -0.007448 0.033437 -0.012412 0.000000 0.008362 0.000000
# 3 -0.000016 -0.012412 0.017118 0.000000 -0.010280 0.000000
# 4 0.000000 0.000000 0.000000 0.032420 0.000000 0.004315
# 5 -0.005856 0.008362 -0.010280 0.000000 0.051253 0.000000
# 6 0.000000 0.000000 0.000000 0.004315 0.000000 0.037016
#
#
# Mechanical properties :
#
#
# Convention : Reuss Voigt Hill
#
# Bulk Modulus (GPa) = 44.26333 52.74644 48.50489
# Shear Modulus (GPa) = 21.70895 26.87772 24.29334
#
# Velocity S-wave (km/s) = 3.47304 3.86444 3.67396
# Velocity P-wave (km/s) = 6.37781 7.01563 6.70431
#
# Compressibility (1/GPa) = 0.02259206
#
# Stress axis : x y z
#
# Youngs Moduli (GPa) = 84.81189 29.90697 58.41772
#
# Poissons Ratio (x) = 0.22275 0.00096
# Poissons Ratio (y) = 0.63168 0.72510
# Poissons Ratio (z) = 0.00140 0.37122
#
# Static dielectric constant tensor:
#      x y z
#    x 3.519140 0.000000 0.262240 
#    y 0.000000 3.162420 0.000000 
#    z 0.262240 0.000000 3.245750 
# 
# 
# High freq. dielectric constant tensor:
#      x y z
#    x 1.709400 0.000000 0.014740 
#    y 0.000000 1.676020 0.000000 
#    z 0.014740 0.000000 1.685930 
# 
# From -- ./inp_files/314450.got.cif
#   From: 2010.06.25/outbox.cif.g09.slc.cpg/sg12_158_cif.got.tgz:314450.got - 2010.06.28 00:19:55.
