data_PCOD8089453
_publ_section_title
;
Structure prediction by ZEFSAII (Michael W. Deem and Ramdas Pophale) SiO2 
 PCOD8089453
Probable space group: C 2/M
;
_chemical_formula_sum "Si O2"
_cell_formula_units_Z 64
_cell_length_a 20.726080
_cell_length_b 9.384344
_cell_length_c 18.155528
_cell_angle_alpha 90.000000
_cell_angle_beta 73.770312
_cell_angle_gamma 90.000000
_cell_volume 3390.537916
_symmetry_space_group_name_H-M "C 2/M"
_symmetry_group_IT_number 12
_symmetry_cell_setting 'monoclinic'
loop_
_space_group_symop_operation_xyz
x,y,z
-x,y,-z
-x,-y,-z
x,-y,z
1/2+x,1/2+y,z
1/2-x,1/2+y,-z
1/2-x,1/2-y,-z
1/2+x,1/2-y,z
loop_
_atom_site_type_symbol
_atom_site_label
_atom_site_fract_x
_atom_site_fract_y
_atom_site_fract_z
Si Si1 0.472400 0.158442 0.183897
Si Si2 0.185235 0.163113 0.001271
Si Si3 0.860497 0.332452 0.705476
Si Si4 0.383421 0.156980 0.353885
Si Si5 0.370821 0.665687 0.136370
Si Si6 0.502432 0.169663 0.416141
Si Si7 0.898625 0.834184 0.827927
Si Si8 0.217489 0.162964 0.693923
O O1 0.418250 0.141949 0.264552
O O2 0.438359 0.243208 0.127539
O O3 0.531956 0.250560 0.198489
O O4 0.496282 0.000000 0.151151
O O5 0.129990 0.185783 0.081502
O O6 0.207156 0.000000 0.987445
O O7 0.250000 0.250000 0.000000
O O8 0.156813 0.218551 0.932976
O O9 0.863608 0.500000 0.725027
O O10 0.928092 0.279244 0.643148
O O11 0.850521 0.239975 0.782845
O O12 0.796697 0.301067 0.673322
O O13 0.436412 0.228248 0.394313
O O14 0.316318 0.250196 0.362703
O O15 0.361566 0.000000 0.389199
O O16 0.391345 0.500000 0.127918
O O17 0.315140 0.696540 0.216241
O O18 0.500000 0.228284 0.500000
O O19 0.500311 0.000000 0.414320
O O20 0.908770 0.000000 0.805107
O O21 0.205730 0.000000 0.676777
#
# Coordination Sequence:
#
# PCOD8089453 Si02
#       8
#     8   8   8   8   8   8   8   8
#     4  10  19  33  53  77 101 134 178 220 261 311
#     4  10  22  37  52  72 102 139 179 220 269 320
#     4  10  19  35  56  80 107 137 182 225 260 316
#     4   9  17  32  53  77 105 137 175 216 258 311
#     4   9  18  34  51  71 101 137 175 216 267 316
#     4   9  17  32  56  82 106 137 177 219 264 315
#     4  11  22  34  52  78 106 138 174 219 271 316
#     4   9  18  31  53  78 102 138 176 216 262 309
#
# _framework density 18.876059999999999
#
# number of rings (size 3 to 8) (size 9 to 14) (size 15 to 20)
#    0.000    2.375    1.250    1.500    0.000    4.000 
#    0.000    5.625    0.000    1.500    0.000    0.000 
#    0.000    0.000    0.000    0.000    0.000    0.000 
#
# Total GULP energy -396740.455855 kJ/mol
# GULP energy per Si atom -12398.139245 kJ/mol
# Density = 1.883310 g / cm^3
# Si number density = 18.876060 Si / 1000 Ang^3
#
#
#
# Elastic Constant Matrix: (Units=GPa)
#
#
# Indices 1 2 3 4 5 6 
#
# 1 124.1341 55.0945 41.0632 0.0000 33.1496 0.0000
# 2 55.0945 78.9629 29.9413 0.0000 16.0339 0.0000
# 3 41.0632 29.9413 81.2635 0.0000 26.2853 0.0000
# 4 0.0000 0.0000 0.0000 17.2514 0.0000 8.6158
# 5 33.1496 16.0339 26.2853 0.0000 30.1703 0.0000
# 6 0.0000 0.0000 0.0000 8.6158 0.0000 33.5604
#
#
#
# Elastic Compliance Matrix: (Units=1/GPa)
#
#
# Indices 1 2 3 4 5 6 
#
# 1 0.014810 -0.007653 -0.000997 0.000000 -0.011336 0.000000
# 2 -0.007653 0.019090 -0.003627 0.000000 0.001423 0.000000
# 3 -0.000997 -0.003627 0.018335 0.000000 -0.012951 0.000000
# 4 0.000000 0.000000 0.000000 0.066492 0.000000 -0.017070
# 5 -0.011336 0.001423 -0.012951 0.000000 0.056128 0.000000
# 6 0.000000 0.000000 0.000000 -0.017070 0.000000 0.034179
#
#
# Mechanical properties :
#
#
# Convention : Reuss Voigt Hill
#
# Bulk Modulus (GPa) = 36.12604 59.61758 47.87181
# Shear Modulus (GPa) = 20.59186 26.74718 23.66952
#
# Velocity S-wave (km/s) = 3.30646 3.76838 3.54495
# Velocity P-wave (km/s) = 5.81008 7.11242 6.49398
#
# Compressibility (1/GPa) = 0.02768087
#
# Stress axis : x y z
#
# Youngs Moduli (GPa) = 67.52385 52.38287 54.54102
#
# Poissons Ratio (x) = 0.40089 0.05437
# Poissons Ratio (y) = 0.51677 0.19782
# Poissons Ratio (z) = 0.06731 0.18999
#
# Static dielectric constant tensor:
#      x y z
#    x 3.636280 0.000000 -0.044080 
#    y 0.000000 4.373310 0.000000 
#    z -0.044080 0.000000 3.856810 
# 
# 
# High freq. dielectric constant tensor:
#      x y z
#    x 1.737290 0.000000 0.017950 
#    y 0.000000 1.718560 0.000000 
#    z 0.017950 0.000000 1.715980 
# 
# From -- ./inp_files/281341.got.cif
#   From: 2010.06.25/outbox.cif.g09.slc.cpg/sg12_141_cif.got.tgz:281341.got - 2010.06.28 00:19:55.
