data_PCOD8089680
_publ_section_title
;
Structure prediction by ZEFSAII (Michael W. Deem and Ramdas Pophale) SiO2 
 PCOD8089680
Probable space group: C 2/M
;
_chemical_formula_sum "Si O2"
_cell_formula_units_Z 64
_cell_length_a 30.657845
_cell_length_b 9.162749
_cell_length_c 24.273281
_cell_angle_alpha 90.000000
_cell_angle_beta 28.773435
_cell_angle_gamma 90.000000
_cell_volume 3282.120040
_symmetry_space_group_name_H-M "C 2/M"
_symmetry_group_IT_number 12
_symmetry_cell_setting 'monoclinic'
loop_
_space_group_symop_operation_xyz
x,y,z
-x,y,-z
-x,-y,-z
x,-y,z
1/2+x,1/2+y,z
1/2-x,1/2+y,-z
1/2-x,1/2-y,-z
1/2+x,1/2-y,z
loop_
_atom_site_type_symbol
_atom_site_label
_atom_site_fract_x
_atom_site_fract_y
_atom_site_fract_z
Si Si1 0.756438 0.169910 0.745420
Si Si2 0.266399 0.338119 0.428068
Si Si3 0.849515 0.172134 0.530616
Si Si4 0.214752 0.828498 0.161760
Si Si5 0.040546 0.161727 0.820337
Si Si6 0.401865 0.661250 0.131836
Si Si7 0.046865 0.828695 0.275464
Si Si8 0.882178 0.824703 0.921099
O O1 0.832330 0.205789 0.614801
O O2 0.787297 0.222038 0.772063
O O3 0.661706 0.247424 0.837701
O O4 0.735608 0.000000 0.769455
O O5 0.222885 0.500000 0.477739
O O6 0.250000 0.250000 0.500000
O O7 0.228796 0.255409 0.415966
O O8 0.374375 0.350718 0.313610
O O9 0.947923 0.233134 0.402485
O O10 0.840972 0.000000 0.528635
O O11 0.116326 0.787735 0.247062
O O12 0.235234 0.000000 0.133284
O O13 0.287007 0.743034 0.044331
O O14 0.079435 0.245764 0.831048
O O15 0.956469 0.236600 0.882389
O O16 0.007757 0.000000 0.875411
O O17 0.357095 0.500000 0.191066
O O18 0.500000 0.640423 0.000000
O O19 0.085508 0.766696 0.174704
O O20 0.036787 0.000000 0.280216
O O21 0.875407 0.000000 0.928809
#
# Coordination Sequence:
#
# PCOD8089680 Si02
#       8
#     8   8   8   8   8   8   8   8
#     4  10  21  35  54  81 114 145 182 232 281 330
#     4  11  21  35  55  80 112 147 181 225 271 325
#     4  10  20  37  58  81 109 147 190 232 277 331
#     4  10  21  37  55  81 113 146 182 230 289 337
#     4   9  18  32  51  77 106 138 175 213 263 322
#     4  10  19  33  54  77 104 142 184 220 262 327
#     4   9  19  36  59  81 108 146 188 233 281 335
#     4  10  19  35  58  82 106 140 186 233 276 330
#
# _framework density 19.499590999999999
#
# number of rings (size 3 to 8) (size 9 to 14) (size 15 to 20)
#    0.000    2.125    1.250    2.250    0.000    4.250 
#    0.000    6.875    0.000    0.000    0.000    2.625 
#    0.000    0.000    0.000    0.000    0.000    0.000 
#
# Total GULP energy -396511.602869 kJ/mol
# GULP energy per Si atom -12390.987590 kJ/mol
# Density = 1.945521 g / cm^3
# Si number density = 19.499591 Si / 1000 Ang^3
#
#
#
# Elastic Constant Matrix: (Units=GPa)
#
#
# Indices 1 2 3 4 5 6 
#
# 1 119.6411 23.9667 31.3968 -0.0315 3.8236 0.0062
# 2 23.9667 38.5033 23.9409 0.0424 2.2072 -0.0323
# 3 31.3968 23.9409 99.6700 0.0323 1.9169 -0.0418
# 4 -0.0315 0.0424 0.0323 103.8910 -0.0538 -46.1612
# 5 3.8236 2.2072 1.9169 -0.0538 37.6889 0.0312
# 6 0.0062 -0.0323 -0.0418 -46.1612 0.0312 48.8954
#
#
#
# Elastic Compliance Matrix: (Units=1/GPa)
#
#
# Indices 1 2 3 4 5 6 
#
# 1 0.009865 -0.004914 -0.001915 0.000005 -0.000616 -0.000001
# 2 -0.004914 0.033056 -0.006371 -0.000010 -0.001113 0.000009
# 3 -0.001915 -0.006371 0.012168 0.000002 -0.000051 0.000008
# 4 0.000005 -0.000010 0.000002 0.016581 0.000011 0.015653
# 5 -0.000616 -0.001113 -0.000051 0.000011 0.026663 -0.000008
# 6 -0.000001 0.000009 0.000008 0.015653 -0.000008 0.035230
#
#
# Mechanical properties :
#
#
# Convention : Reuss Voigt Hill
#
# Bulk Modulus (GPa) = 34.85777 46.26926 40.56352
# Shear Modulus (GPa) = 29.49407 49.99574 39.74491
#
# Velocity S-wave (km/s) = 3.89337 5.06903 4.51959
# Velocity P-wave (km/s) = 6.17463 7.61839 6.93419
#
# Compressibility (1/GPa) = 0.02868800
#
# Stress axis : x y z
#
# Youngs Moduli (GPa) = 101.36751 30.25187 82.18516
#
# Poissons Ratio (x) = 0.14867 0.15741
# Poissons Ratio (y) = 0.49816 0.52357
# Poissons Ratio (z) = 0.19415 0.19272
#
# Static dielectric constant tensor:
#      x y z
#    x 3.463730 0.000180 0.029720 
#    y 0.000180 2.579420 -0.000200 
#    z 0.029720 -0.000200 3.461810 
# 
# 
# High freq. dielectric constant tensor:
#      x y z
#    x 1.772360 0.000000 0.008550 
#    y 0.000000 1.722180 0.000000 
#    z 0.008550 0.000000 1.767020 
# 
# From -- ./inp_files/353413.got.cif
#   From: 2010.06.25/outbox.cif.g09.slc.cpg/sg12_177_cif.got.tgz:353413.got - 2010.06.28 00:19:55.
