data_PCOD8089794
_publ_section_title
;
Structure prediction by ZEFSAII (Michael W. Deem and Ramdas Pophale) SiO2 
 PCOD8089794
Probable space group: C 2/M
;
_chemical_formula_sum "Si O2"
_cell_formula_units_Z 56
_cell_length_a 23.929533
_cell_length_b 9.167517
_cell_length_c 14.134382
_cell_angle_alpha 90.000000
_cell_angle_beta 83.943269
_cell_angle_gamma 90.000000
_cell_volume 3083.413071
_symmetry_space_group_name_H-M "C 2/M"
_symmetry_group_IT_number 12
_symmetry_cell_setting 'monoclinic'
loop_
_space_group_symop_operation_xyz
x,y,z
-x,y,-z
-x,-y,-z
x,-y,z
1/2+x,1/2+y,z
1/2-x,1/2+y,-z
1/2-x,1/2-y,-z
1/2+x,1/2-y,z
loop_
_atom_site_type_symbol
_atom_site_label
_atom_site_fract_x
_atom_site_fract_y
_atom_site_fract_z
Si Si1 0.805369 0.169761 0.522351
Si Si2 0.541912 0.170020 0.801604
Si Si3 0.413867 0.828882 0.836085
Si Si4 0.824141 0.172743 0.733660
Si Si5 0.373214 0.668397 0.332262
Si Si6 0.627321 0.830487 0.948159
Si Si7 0.286047 0.671514 0.186126
O O1 0.750000 0.250000 0.500000
O O2 0.823024 0.217255 0.623859
O O3 0.856419 0.209580 0.442367
O O4 0.791416 0.000000 0.518742
O O5 0.478237 0.223765 0.822976
O O6 0.571089 0.244268 0.705950
O O7 0.574328 0.211839 0.892036
O O8 0.544147 0.000000 0.782173
O O9 0.382228 0.734457 0.763320
O O10 0.408297 0.000000 0.814224
O O11 0.388357 0.791889 0.942513
O O12 0.773483 0.248968 0.798271
O O13 0.820503 0.000000 0.748841
O O14 0.388099 0.500000 0.318126
O O15 0.320858 0.710000 0.274280
O O16 0.680977 0.733427 0.910624
O O17 0.642802 0.000000 0.932718
O O18 0.276005 0.500000 0.174970
#
# Coordination Sequence:
#
# PCOD8089794 Si02
#       7
#     8   8   8   8   8   8   8
#     4  10  20  35  56  81 107 137 175 217 264 315
#     4   9  18  34  57  82 105 135 179 222 262 310
#     4  10  21  37  55  76 107 145 179 218 266 312
#     4  11  23  36  53  78 109 143 179 217 262 318
#     4   9  18  33  54  81 108 134 169 217 269 314
#     4   9  18  34  57  81 105 136 178 224 266 312
#     4  10  19  33  54  80 109 139 173 219 269 316
#
# _framework density 18.161691999999999
#
# number of rings (size 3 to 8) (size 9 to 14) (size 15 to 20)
#    0.000    2.286    1.429    1.286    0.000    5.143 
#    0.000    0.714    0.000    8.571    0.000    0.000 
#    0.000    0.000    0.000    0.000    0.000    0.000 
#
# Total GULP energy -347284.063412 kJ/mol
# GULP energy per Si atom -12403.002265 kJ/mol
# Density = 1.812036 g / cm^3
# Si number density = 18.161692 Si / 1000 Ang^3
#
#
#
# Elastic Constant Matrix: (Units=GPa)
#
#
# Indices 1 2 3 4 5 6 
#
# 1 70.8195 36.3354 49.9770 0.0000 1.1546 0.0000
# 2 36.3354 55.4823 42.7072 0.0000 0.7920 0.0000
# 3 49.9770 42.7072 111.5671 0.0000 -3.2966 0.0000
# 4 0.0000 0.0000 0.0000 28.2785 0.0000 -2.3528
# 5 1.1546 0.7920 -3.2966 0.0000 22.1105 0.0000
# 6 0.0000 0.0000 0.0000 -2.3528 0.0000 33.8417
#
#
#
# Elastic Compliance Matrix: (Units=1/GPa)
#
#
# Indices 1 2 3 4 5 6 
#
# 1 0.024551 -0.010691 -0.006962 0.000000 -0.001937 0.000000
# 2 -0.010691 0.030335 -0.006869 0.000000 -0.001552 0.000000
# 3 -0.006962 -0.006869 0.014794 0.000000 0.002815 0.000000
# 4 0.000000 0.000000 0.000000 0.035568 0.000000 0.002473
# 5 -0.001937 -0.001552 0.002815 0.000000 0.045804 0.000000
# 6 0.000000 0.000000 0.000000 0.002473 0.000000 0.029721
#
#
# Mechanical properties :
#
#
# Convention : Reuss Voigt Hill
#
# Bulk Modulus (GPa) = 48.46036 55.10088 51.78062
# Shear Modulus (GPa) = 21.12414 24.10278 22.61346
#
# Velocity S-wave (km/s) = 3.41415 3.64692 3.53245
# Velocity P-wave (km/s) = 6.50250 6.93818 6.72387
#
# Compressibility (1/GPa) = 0.02063542
#
# Stress axis : x y z
#
# Youngs Moduli (GPa) = 40.73212 32.96545 67.59330
#
# Poissons Ratio (x) = 0.35245 0.47060
# Poissons Ratio (y) = 0.43549 0.46427
# Poissons Ratio (z) = 0.28358 0.22642
#
# Static dielectric constant tensor:
#      x y z
#    x 3.371290 0.000000 -0.099230 
#    y 0.000000 3.298790 0.000000 
#    z -0.099230 0.000000 3.456500 
# 
# 
# High freq. dielectric constant tensor:
#      x y z
#    x 1.698340 0.000000 -0.011760 
#    y 0.000000 1.701970 0.000000 
#    z -0.011760 0.000000 1.703400 
# 
# From -- ./inp_files/231043.got.cif
#   From: 2010.06.25/outbox.cif.g09.slc.cpg/sg12_116_cif.got.tgz:231043.got - 2010.06.28 00:19:55.
