data_PCOD8089378
_publ_section_title
;
Structure prediction by ZEFSAII (Michael W. Deem and Ramdas Pophale) SiO2 
 PCOD8089378
Probable space group: C 2/M
;
_chemical_formula_sum "Si O2"
_cell_formula_units_Z 64
_cell_length_a 24.213372
_cell_length_b 9.022704
_cell_length_c 19.973566
_cell_angle_alpha 90.000000
_cell_angle_beta 122.788133
_cell_angle_gamma 90.000000
_cell_volume 3668.408409
_symmetry_space_group_name_H-M "C 2/M"
_symmetry_group_IT_number 12
_symmetry_cell_setting 'monoclinic'
loop_
_space_group_symop_operation_xyz
x,y,z
-x,y,-z
-x,-y,-z
x,-y,z
1/2+x,1/2+y,z
1/2-x,1/2+y,-z
1/2-x,1/2-y,-z
1/2+x,1/2-y,z
loop_
_atom_site_type_symbol
_atom_site_label
_atom_site_fract_x
_atom_site_fract_y
_atom_site_fract_z
Si Si1 0.044054 0.325224 0.432130
Si Si2 0.621054 0.673357 0.837913
Si Si3 0.027292 0.170218 0.290791
Si Si4 0.907872 0.675525 0.045265
Si Si5 0.348299 0.329680 0.882221
Si Si6 0.542309 0.672910 0.151917
Si Si7 0.802112 0.672232 0.224856
Si Si8 0.593734 0.175431 0.602080
O O1 0.045405 0.500000 0.425124
O O2 0.064514 0.257764 0.374098
O O3 0.093593 0.271741 0.524060
O O4 0.971384 0.266033 0.403281
O O5 0.632564 0.500000 0.857517
O O6 0.550287 0.705574 0.758896
O O7 0.626526 0.755119 0.912382
O O8 0.677320 0.736263 0.826911
O O9 0.056385 0.219594 0.237967
O O10 0.041596 0.000000 0.313567
O O11 0.909632 0.500000 0.053592
O O12 0.981449 0.735666 0.082365
O O13 0.864482 0.721056 0.953410
O O14 0.359103 0.500000 0.911786
O O15 0.393409 0.290391 0.848396
O O16 0.274071 0.301193 0.810142
O O17 0.522354 0.500000 0.136023
O O18 0.818057 0.500000 0.221947
O O19 0.841901 0.731564 0.316132
O O20 0.590360 0.000000 0.599407
#
# Coordination Sequence:
#
# PCOD8089378 Si02
#       8
#     8   8   8   8   8   8   8   8
#     4   9  15  26  47  72 100 130 158 196 245 289
#     4  10  20  34  51  73 103 135 163 199 252 301
#     4   9  17  29  47  72  99 126 160 202 244 290
#     4  11  22  35  54  77  99 125 163 212 253 292
#     4  10  21  36  54  73  96 133 170 204 250 297
#     4   9  19  36  54  73 100 130 164 207 253 296
#     4  10  19  33  53  74  99 132 172 207 238 292
#     4   8  15  27  45  72 102 129 159 197 240 289
#
# _framework density 17.446259000000001
#
# number of rings (size 3 to 8) (size 9 to 14) (size 15 to 20)
#    0.000    2.500    1.250    3.375    0.000    5.000 
#    0.000    1.875    0.000    0.750    0.000    0.000 
#    0.000    0.000    0.000    0.000    0.000    0.250 
#
# Total GULP energy -396745.872673 kJ/mol
# GULP energy per Si atom -12398.308521 kJ/mol
# Density = 1.740655 g / cm^3
# Si number density = 17.446259 Si / 1000 Ang^3
#
#
#
# Elastic Constant Matrix: (Units=GPa)
#
#
# Indices 1 2 3 4 5 6 
#
# 1 80.0881 32.9757 65.4655 0.0000 0.6760 0.0000
# 2 32.9757 66.5209 47.7268 0.0000 -4.0249 0.0000
# 3 65.4655 47.7268 132.8697 0.0000 -13.6169 0.0000
# 4 0.0000 0.0000 0.0000 25.5035 0.0000 -7.3052
# 5 0.6760 -4.0249 -13.6169 0.0000 21.3771 0.0000
# 6 0.0000 0.0000 0.0000 -7.3052 0.0000 20.0175
#
#
#
# Elastic Compliance Matrix: (Units=1/GPa)
#
#
# Indices 1 2 3 4 5 6 
#
# 1 0.023036 -0.004267 -0.010671 0.000000 -0.008329 0.000000
# 2 -0.004267 0.021058 -0.005393 0.000000 0.000664 0.000000
# 3 -0.010671 -0.005393 0.015675 0.000000 0.009307 0.000000
# 4 0.000000 0.000000 0.000000 0.043788 0.000000 0.015980
# 5 -0.008329 0.000664 0.009307 0.000000 0.053096 0.000000
# 6 0.000000 0.000000 0.000000 0.015980 0.000000 0.055788
#
#
# Mechanical properties :
#
#
# Convention : Reuss Voigt Hill
#
# Bulk Modulus (GPa) = 52.34004 63.53497 57.93751
# Shear Modulus (GPa) = 19.26991 22.26700 20.76846
#
# Velocity S-wave (km/s) = 3.32705 3.57644 3.45400
# Velocity P-wave (km/s) = 6.69514 7.31786 7.01342
#
# Compressibility (1/GPa) = 0.01910583
#
# Stress axis : x y z
#
# Youngs Moduli (GPa) = 43.41016 47.48755 63.79689
#
# Poissons Ratio (x) = 0.20265 0.68076
# Poissons Ratio (y) = 0.18525 0.34408
# Poissons Ratio (z) = 0.46322 0.25612
#
# Static dielectric constant tensor:
#      x y z
#    x 3.133580 0.000000 -0.168560 
#    y 0.000000 3.069530 0.000000 
#    z -0.168560 0.000000 3.428690 
# 
# 
# High freq. dielectric constant tensor:
#      x y z
#    x 1.653200 0.000000 -0.019070 
#    y 0.000000 1.659200 0.000000 
#    z -0.019070 0.000000 1.675190 
# 
# From -- ./inp_files/324245.got.cif
#   From: 2010.06.25/outbox.cif.g09.slc.cpg/sg12_163_cif.got.tgz:324245.got - 2010.06.28 00:19:55.
