data_PCOD8089569
_publ_section_title
;
Structure prediction by ZEFSAII (Michael W. Deem and Ramdas Pophale) SiO2 
 PCOD8089569
Probable space group: C 2/M
;
_chemical_formula_sum "Si O2"
_cell_formula_units_Z 36
_cell_length_a 13.884650
_cell_length_b 24.400227
_cell_length_c 9.860228
_cell_angle_alpha 90.000000
_cell_angle_beta 147.324240
_cell_angle_gamma 90.000000
_cell_volume 1803.501150
_symmetry_space_group_name_H-M "C 2/M"
_symmetry_group_IT_number 12
_symmetry_cell_setting 'monoclinic'
loop_
_space_group_symop_operation_xyz
x,y,z
-x,y,-z
-x,-y,-z
x,-y,z
1/2+x,1/2+y,z
1/2-x,1/2+y,-z
1/2-x,1/2-y,-z
1/2+x,1/2-y,z
loop_
_atom_site_type_symbol
_atom_site_label
_atom_site_fract_x
_atom_site_fract_y
_atom_site_fract_z
Si Si1 0.817974 0.143909 0.031297
Si Si2 0.500000 0.825363 0.500000
Si Si3 0.590721 0.266307 0.409671
Si Si4 0.083485 0.061131 0.450412
Si Si5 0.190784 0.650224 0.177182
O O1 0.700074 0.141387 0.028198
O O2 0.931060 0.200344 0.146324
O O3 0.951270 0.091787 0.188432
O O4 0.678761 0.138644 0.740040
O O5 0.484902 0.789448 0.618008
O O6 0.750000 0.250000 0.500000
O O7 0.661752 0.304016 0.615937
O O8 0.266657 0.095303 0.684502
O O9 0.000000 0.059494 0.500000
O O10 0.123114 0.000000 0.442579
O O11 0.000000 0.671888 0.000000
#
# Coordination Sequence:
#
# PCOD8089569 Si02
#       5
#     8   4   8   8   8
#     4  10  21  37  50  80 109 141 187 223 268 330
#     4  12  22  34  53  74 115 152 178 222 268 320
#     4  11  22  34  54  76 109 150 180 220 271 323
#     4   8  16  34  57  76 103 139 177 231 281 317
#     4  10  19  33  53  81 111 136 180 228 269 325
#
# _framework density 19.961175000000001
#
# number of rings (size 3 to 8) (size 9 to 14) (size 15 to 20)
#    0.000    2.000    2.222    3.333    3.111    0.444 
#    0.000    0.556    0.000    0.000    0.000   20.222 
#    0.000    0.000    0.000    0.000    0.000    0.000 
#
# Total GULP energy -223142.467867 kJ/mol
# GULP energy per Si atom -12396.803770 kJ/mol
# Density = 1.991574 g / cm^3
# Si number density = 19.961175 Si / 1000 Ang^3
#
#
#
# Elastic Constant Matrix: (Units=GPa)
#
#
# Indices 1 2 3 4 5 6 
#
# 1 53.2784 0.1307 1.0290 0.0000 14.3979 0.0000
# 2 0.1307 92.9882 46.1280 0.0000 -1.3550 0.0000
# 3 1.0290 46.1280 142.9282 0.0000 13.1816 0.0000
# 4 0.0000 0.0000 0.0000 13.9618 0.0000 3.3153
# 5 14.3979 -1.3550 13.1816 0.0000 22.4305 0.0000
# 6 0.0000 0.0000 0.0000 3.3153 0.0000 16.9466
#
#
#
# Elastic Compliance Matrix: (Units=1/GPa)
#
#
# Indices 1 2 3 4 5 6 
#
# 1 0.023009 -0.001075 0.001638 0.000000 -0.015797 0.000000
# 2 -0.001075 0.013102 -0.004607 0.000000 0.004189 0.000000
# 3 0.001638 -0.004607 0.009087 0.000000 -0.006670 0.000000
# 4 0.000000 0.000000 0.000000 0.075113 0.000000 -0.014695
# 5 -0.015797 0.004189 -0.006670 0.000000 0.058895 0.000000
# 6 0.000000 0.000000 0.000000 -0.014695 0.000000 0.061883
#
#
# Mechanical properties :
#
#
# Convention : Reuss Voigt Hill
#
# Bulk Modulus (GPa) = 26.94690 42.64113 34.79401
# Shear Modulus (GPa) = 19.11695 26.79491 22.95593
#
# Velocity S-wave (km/s) = 3.09804 3.66779 3.39489
# Velocity P-wave (km/s) = 5.13090 6.27258 5.73024
#
# Compressibility (1/GPa) = 0.03711003
#
# Stress axis : x y z
#
# Youngs Moduli (GPa) = 43.46057 76.32421 110.05087
#
# Poissons Ratio (x) = 0.08206 -0.18029
# Poissons Ratio (y) = 0.04673 0.50701
# Poissons Ratio (z) = -0.07120 0.35163
#
# Static dielectric constant tensor:
#      x y z
#    x 3.232540 0.000000 0.194480 
#    y 0.000000 3.827050 0.000000 
#    z 0.194480 0.000000 3.695830 
# 
# 
# High freq. dielectric constant tensor:
#      x y z
#    x 1.751510 0.000000 0.019650 
#    y 0.000000 1.756660 0.000000 
#    z 0.019650 0.000000 1.781710 
# 
# From -- ./inp_files/40180.got.cif
#   From: 2010.06.25/outbox.cif.g09.slc.cpg/sg12_21_cif.got.tgz:40180.got - 2010.06.28 00:19:55.
