data_PCOD8089167
_publ_section_title
;
Structure prediction by ZEFSAII (Michael W. Deem and Ramdas Pophale) SiO2 
 PCOD8089167
Probable space group: C 2/M
;
_chemical_formula_sum "Si O2"
_cell_formula_units_Z 56
_cell_length_a 25.042233
_cell_length_b 8.975118
_cell_length_c 15.098695
_cell_angle_alpha 90.000000
_cell_angle_beta 104.949574
_cell_angle_gamma 90.000000
_cell_volume 3278.677086
_symmetry_space_group_name_H-M "C 2/M"
_symmetry_group_IT_number 12
_symmetry_cell_setting 'monoclinic'
loop_
_space_group_symop_operation_xyz
x,y,z
-x,y,-z
-x,-y,-z
x,-y,z
1/2+x,1/2+y,z
1/2-x,1/2+y,-z
1/2-x,1/2-y,-z
1/2+x,1/2-y,z
loop_
_atom_site_type_symbol
_atom_site_label
_atom_site_fract_x
_atom_site_fract_y
_atom_site_fract_z
Si Si1 0.239106 0.324323 0.588536
Si Si2 0.064951 0.823359 0.393285
Si Si3 0.616701 0.171913 0.578848
Si Si4 0.575765 0.676289 0.096857
Si Si5 0.453482 0.172595 0.282685
Si Si6 0.649819 0.323372 0.281689
Si Si7 0.454887 0.323816 0.105167
O O1 0.242492 0.500000 0.575934
O O2 0.250000 0.250000 0.500000
O O3 0.180261 0.273933 0.602236
O O4 0.287013 0.270984 0.677321
O O5 0.078761 0.767420 0.497288
O O6 0.112595 0.765204 0.347325
O O7 0.006748 0.760505 0.337878
O O8 0.060788 0.000000 0.392211
O O9 0.596173 0.197384 0.669626
O O10 0.611425 0.000000 0.547994
O O11 0.577082 0.500000 0.093662
O O12 0.626129 0.740679 0.178159
O O13 0.518631 0.723177 0.119024
O O14 0.579026 0.731992 0.996440
O O15 0.431678 0.236897 0.180112
O O16 0.468831 0.000000 0.279703
O O17 0.645469 0.500000 0.276998
O O18 0.448716 0.500000 0.117770
#
# Coordination Sequence:
#
# PCOD8089167 Si02
#       7
#     8   8   8   8   8   8   8
#     4  10  19  33  52  72  95 127 167 206 241 282
#     4  11  20  32  52  76  98 126 166 207 242 285
#     4  10  22  36  48  67 101 139 168 195 241 296
#     4   8  14  27  49  75  99 120 152 203 255 290
#     4  11  22  34  47  68 103 140 164 193 241 299
#     4   9  16  28  50  76  98 120 155 202 248 287
#     4   9  16  29  51  74  96 125 159 201 246 291
#
# _framework density 17.08006
#
# number of rings (size 3 to 8) (size 9 to 14) (size 15 to 20)
#    0.000    2.286    2.857    2.143    0.000    2.857 
#    0.000    1.429    0.000    0.857    0.000    0.000 
#    0.000    0.000    0.000    0.000    0.000    0.143 
#
# Total GULP energy -347112.354053 kJ/mol
# GULP energy per Si atom -12396.869788 kJ/mol
# Density = 1.704118 g / cm^3
# Si number density = 17.080060 Si / 1000 Ang^3
#
#
#
# Elastic Constant Matrix: (Units=GPa)
#
#
# Indices 1 2 3 4 5 6 
#
# 1 84.4214 27.6357 54.2052 0.0000 -6.1372 0.0000
# 2 27.6357 43.5611 35.2653 0.0000 -7.0432 0.0000
# 3 54.2052 35.2653 153.9319 0.0000 -1.1710 0.0000
# 4 0.0000 0.0000 0.0000 21.7133 0.0000 -3.4220
# 5 -6.1372 -7.0432 -1.1710 0.0000 25.6636 0.0000
# 6 0.0000 0.0000 0.0000 -3.4220 0.0000 17.1789
#
#
#
# Elastic Compliance Matrix: (Units=1/GPa)
#
#
# Indices 1 2 3 4 5 6 
#
# 1 0.017100 -0.006956 -0.004413 0.000000 0.001979 0.000000
# 2 -0.006956 0.032509 -0.004945 0.000000 0.007033 0.000000
# 3 -0.004413 -0.004945 0.009168 0.000000 -0.001994 0.000000
# 4 0.000000 0.000000 0.000000 0.047547 0.000000 0.009471
# 5 0.001979 0.007033 -0.001994 0.000000 0.041278 0.000000
# 6 0.000000 0.000000 0.000000 0.009471 0.000000 0.060098
#
#
# Mechanical properties :
#
#
# Convention : Reuss Voigt Hill
#
# Bulk Modulus (GPa) = 38.24098 57.34743 47.79421
# Shear Modulus (GPa) = 20.07678 23.89836 21.98757
#
# Velocity S-wave (km/s) = 3.43221 3.74464 3.59182
# Velocity P-wave (km/s) = 6.17613 7.23498 6.72642
#
# Compressibility (1/GPa) = 0.02614995
#
# Stress axis : x y z
#
# Youngs Moduli (GPa) = 58.48091 30.76030 109.07521
#
# Poissons Ratio (x) = 0.21396 0.48133
# Poissons Ratio (y) = 0.40678 0.53937
# Poissons Ratio (z) = 0.25806 0.15211
#
# Static dielectric constant tensor:
#      x y z
#    x 3.235850 0.000000 0.141950 
#    y 0.000000 2.966900 0.000000 
#    z 0.141950 0.000000 3.895690 
# 
# 
# High freq. dielectric constant tensor:
#      x y z
#    x 1.639010 0.000000 0.003190 
#    y 0.000000 1.635020 0.000000 
#    z 0.003190 0.000000 1.668500 
# 
# From -- ./inp_files/237868.got.cif
#   From: 2010.06.25/outbox.cif.g09.slc.cpg/sg12_119_cif.got.tgz:237868.got - 2010.06.28 00:19:55.
