data_PCOD8089867
_publ_section_title
;
Structure prediction by ZEFSAII (Michael W. Deem and Ramdas Pophale) SiO2 
 PCOD8089867
Probable space group: C 2/M
;
_chemical_formula_sum "Si O2"
_cell_formula_units_Z 48
_cell_length_a 18.980406
_cell_length_b 10.267922
_cell_length_c 13.453268
_cell_angle_alpha 90.000000
_cell_angle_beta 103.799938
_cell_angle_gamma 90.000000
_cell_volume 2546.216057
_symmetry_space_group_name_H-M "C 2/M"
_symmetry_group_IT_number 12
_symmetry_cell_setting 'monoclinic'
loop_
_space_group_symop_operation_xyz
x,y,z
-x,y,-z
-x,-y,-z
x,-y,z
1/2+x,1/2+y,z
1/2-x,1/2+y,-z
1/2-x,1/2-y,-z
1/2+x,1/2-y,z
loop_
_atom_site_type_symbol
_atom_site_label
_atom_site_fract_x
_atom_site_fract_y
_atom_site_fract_z
Si Si1 0.817003 0.346954 0.529026
Si Si2 0.658294 0.146357 0.681439
Si Si3 0.838487 0.858753 0.043677
Si Si4 0.223513 0.724640 0.154381
Si Si5 0.940938 0.347343 0.173801
Si Si6 0.899863 0.646633 0.747717
O O1 0.793997 0.500000 0.537699
O O2 0.750000 0.250000 0.500000
O O3 0.861198 0.330817 0.440648
O O4 0.866544 0.292896 0.635713
O O5 0.726971 0.231645 0.736957
O O6 0.587459 0.176374 0.723602
O O7 0.684094 0.000000 0.708396
O O8 0.771297 0.865292 0.098074
O O9 0.892884 0.739307 0.082969
O O10 0.877657 0.000000 0.062857
O O11 0.806725 0.843819 0.921893
O O12 0.155346 0.650140 0.178784
O O13 0.934583 0.500000 0.139820
O O14 0.022766 0.290130 0.196703
O O15 0.919942 0.500000 0.727525
#
# Coordination Sequence:
#
# PCOD8089867 Si02
#       6
#     8   8   8   8   8   8
#     4  10  19  33  54  82 109 135 173 216 261 311
#     4   9  17  32  54  78 106 140 173 212 260 311
#     4  10  21  36  55  80 106 139 180 221 266 315
#     4  10  19  33  55  78 107 138 175 221 265 313
#     4   9  20  37  54  76 109 144 177 214 261 315
#     4  10  20  34  54  80 107 139 178 218 261 312
#
# _framework density 18.851503000000001
#
# number of rings (size 3 to 8) (size 9 to 14) (size 15 to 20)
#    0.000    2.333    1.667    1.000    0.000    6.000 
#    0.000    8.333    0.000    0.000    0.000    3.500 
#    0.000    0.000    0.000    0.000    0.000    0.000 
#
# Total GULP energy -297409.438495 kJ/mol
# GULP energy per Si atom -12392.059937 kJ/mol
# Density = 1.880860 g / cm^3
# Si number density = 18.851503 Si / 1000 Ang^3
#
#
#
# Elastic Constant Matrix: (Units=GPa)
#
#
# Indices 1 2 3 4 5 6 
#
# 1 107.1294 24.7090 34.9663 0.0000 15.7068 0.0000
# 2 24.7090 75.9339 24.3668 0.0000 13.0413 0.0000
# 3 34.9663 24.3668 102.0391 0.0000 3.3835 0.0000
# 4 0.0000 0.0000 0.0000 14.1673 0.0000 4.2407
# 5 15.7068 13.0413 3.3835 0.0000 22.6926 0.0000
# 6 0.0000 0.0000 0.0000 4.2407 0.0000 19.0363
#
#
#
# Elastic Compliance Matrix: (Units=1/GPa)
#
#
# Indices 1 2 3 4 5 6 
#
# 1 0.011814 -0.001578 -0.003448 0.000000 -0.006757 0.000000
# 2 -0.001578 0.015962 -0.003018 0.000000 -0.007631 0.000000
# 3 -0.003448 -0.003018 0.011623 0.000000 0.002388 0.000000
# 4 0.000000 0.000000 0.000000 0.075628 0.000000 -0.016848
# 5 -0.006757 -0.007631 0.002388 0.000000 0.052774 0.000000
# 6 0.000000 0.000000 0.000000 -0.016848 0.000000 0.056284
#
#
# Mechanical properties :
#
#
# Convention : Reuss Voigt Hill
#
# Bulk Modulus (GPa) = 42.89527 50.35406 46.62466
# Shear Modulus (GPa) = 20.16592 24.58324 22.37458
#
# Velocity S-wave (km/s) = 3.27421 3.61508 3.44886
# Velocity P-wave (km/s) = 6.09078 6.64785 6.37540
#
# Compressibility (1/GPa) = 0.02331260
#
# Stress axis : x y z
#
# Youngs Moduli (GPa) = 84.64312 62.64953 86.03530
#
# Poissons Ratio (x) = 0.09884 0.29662
# Poissons Ratio (y) = 0.13353 0.25965
# Poissons Ratio (z) = 0.29182 0.18908
#
# Static dielectric constant tensor:
#      x y z
#    x 3.453560 0.000000 -0.039610 
#    y 0.000000 3.220090 0.000000 
#    z -0.039610 0.000000 3.615650 
# 
# 
# High freq. dielectric constant tensor:
#      x y z
#    x 1.722350 0.000000 -0.007040 
#    y 0.000000 1.708870 0.000000 
#    z -0.007040 0.000000 1.740450 
# 
# From -- ./inp_files/153651.got.cif
#   From: 2010.06.25/outbox.cif.g09.slc.cpg/sg12_77_cif.got.tgz:153651.got - 2010.06.28 00:19:55.
