data_PCOD8089061
_publ_section_title
;
Structure prediction by ZEFSAII (Michael W. Deem and Ramdas Pophale) SiO2 
 PCOD8089061
Probable space group: C 2/M
;
_chemical_formula_sum "Si O2"
_cell_formula_units_Z 64
_cell_length_a 29.726191
_cell_length_b 9.108491
_cell_length_c 25.881904
_cell_angle_alpha 90.000000
_cell_angle_beta 149.813719
_cell_angle_gamma 90.000000
_cell_volume 3523.614654
_symmetry_space_group_name_H-M "C 2/M"
_symmetry_group_IT_number 12
_symmetry_cell_setting 'monoclinic'
loop_
_space_group_symop_operation_xyz
x,y,z
-x,y,-z
-x,-y,-z
x,-y,z
1/2+x,1/2+y,z
1/2-x,1/2+y,-z
1/2-x,1/2-y,-z
1/2+x,1/2-y,z
loop_
_atom_site_type_symbol
_atom_site_label
_atom_site_fract_x
_atom_site_fract_y
_atom_site_fract_z
Si Si1 0.171287 0.326213 0.285360
Si Si2 0.502031 0.329444 0.275631
Si Si3 0.679717 0.172330 0.073865
Si Si4 0.010598 0.675246 0.844784
Si Si5 0.376796 0.328181 0.244836
Si Si6 0.263025 0.825513 0.758603
Si Si7 0.201779 0.828510 0.498884
Si Si8 0.090356 0.331185 0.620745
O O1 0.165865 0.500000 0.278581
O O2 0.186061 0.267415 0.241863
O O3 0.253580 0.274292 0.403234
O O4 0.078323 0.263440 0.215443
O O5 0.498748 0.500000 0.256958
O O6 0.485489 0.232537 0.209259
O O7 0.423963 0.287880 0.238063
O O8 0.596999 0.289507 0.396010
O O9 0.772307 0.217934 0.137781
O O10 0.680924 0.223577 0.135018
O O11 0.667283 0.000000 0.059580
O O12 0.595477 0.241785 0.960216
O O13 0.011031 0.500000 0.843322
O O14 0.386475 0.500000 0.267407
O O15 0.424376 0.239058 0.337623
O O16 0.165911 0.753099 0.663605
O O17 0.249340 0.000000 0.744007
O O18 0.250000 0.750000 0.500000
O O19 0.218373 0.000000 0.507660
O O20 0.118332 0.500000 0.655009
O O21 0.000000 0.312520 0.500000
#
# Coordination Sequence:
#
# PCOD8089061 Si02
#       8
#     8   8   8   8   8   8   8   8
#     4   9  18  31  51  78 102 130 171 210 248 301
#     4  10  21  34  51  76 105 134 171 215 253 297
#     4   8  16  32  53  77 101 128 168 217 256 292
#     4  10  19  33  53  75 104 137 170 210 255 303
#     4   9  19  36  55  75 100 133 173 213 251 298
#     4   9  18  34  55  76 101 133 172 211 251 300
#     4  10  19  33  50  72 102 134 168 210 254 299
#     4  10  21  35  50  75 107 134 166 209 255 305
#
# _framework density 18.163166
#
# number of rings (size 3 to 8) (size 9 to 14) (size 15 to 20)
#    0.000    2.625    1.250    1.125    1.750    2.500 
#    0.000    6.250    0.000    0.000    0.000    4.375 
#    0.000    0.000    0.000    0.000    0.000    0.000 
#
# Total GULP energy -396749.421782 kJ/mol
# GULP energy per Si atom -12398.419431 kJ/mol
# Density = 1.812183 g / cm^3
# Si number density = 18.163166 Si / 1000 Ang^3
#
#
#
# Elastic Constant Matrix: (Units=GPa)
#
#
# Indices 1 2 3 4 5 6 
#
# 1 166.7202 33.1812 83.5013 0.0000 -10.3307 0.0000
# 2 33.1812 35.7373 34.4562 0.0000 -2.7986 0.0000
# 3 83.5013 34.4562 154.7504 0.0000 -3.2392 0.0000
# 4 0.0000 0.0000 0.0000 20.5355 0.0000 -4.2123
# 5 -10.3307 -2.7986 -3.2392 0.0000 16.5587 0.0000
# 6 0.0000 0.0000 0.0000 -4.2123 0.0000 23.9772
#
#
#
# Elastic Compliance Matrix: (Units=1/GPa)
#
#
# Indices 1 2 3 4 5 6 
#
# 1 0.009039 -0.004391 -0.003813 0.000000 0.004151 0.000000
# 2 -0.004391 0.038100 -0.006061 0.000000 0.002514 0.000000
# 3 -0.003813 -0.006061 0.009838 0.000000 -0.001478 0.000000
# 4 0.000000 0.000000 0.000000 0.050517 0.000000 0.008875
# 5 0.004151 0.002514 -0.001478 0.000000 0.063117 0.000000
# 6 0.000000 0.000000 0.000000 0.008875 0.000000 0.043265
#
#
# Mechanical properties :
#
#
# Convention : Reuss Voigt Hill
#
# Bulk Modulus (GPa) = 35.15366 73.27616 54.21491
# Shear Modulus (GPa) = 19.85017 25.95222 22.90119
#
# Velocity S-wave (km/s) = 3.30946 3.78410 3.55471
# Velocity P-wave (km/s) = 5.83093 7.71514 6.83824
#
# Compressibility (1/GPa) = 0.02844654
#
# Stress axis : x y z
#
# Youngs Moduli (GPa) = 110.63437 26.24686 101.64861
#
# Poissons Ratio (x) = 0.11526 0.38754
# Poissons Ratio (y) = 0.48583 0.61610
# Poissons Ratio (z) = 0.42180 0.15908
#
# Static dielectric constant tensor:
#      x y z
#    x 3.607230 0.000000 0.053170 
#    y 0.000000 3.091240 0.000000 
#    z 0.053170 0.000000 3.635370 
# 
# 
# High freq. dielectric constant tensor:
#      x y z
#    x 1.710390 0.000000 -0.000030 
#    y 0.000000 1.671340 0.000000 
#    z -0.000030 0.000000 1.710810 
# 
# From -- ./inp_files/353575.got.cif
#   From: 2010.06.25/outbox.cif.g09.slc.cpg/sg12_177_cif.got.tgz:353575.got - 2010.06.28 00:19:55.
