data_PCOD8089881
_publ_section_title
;
Structure prediction by ZEFSAII (Michael W. Deem and Ramdas Pophale) SiO2 
 PCOD8089881
Probable space group: C 2/M
;
_chemical_formula_sum "Si O2"
_cell_formula_units_Z 56
_cell_length_a 29.797584
_cell_length_b 8.827476
_cell_length_c 21.665608
_cell_angle_alpha 90.000000
_cell_angle_beta 146.854575
_cell_angle_gamma 90.000000
_cell_volume 3115.946103
_symmetry_space_group_name_H-M "C 2/M"
_symmetry_group_IT_number 12
_symmetry_cell_setting 'monoclinic'
loop_
_space_group_symop_operation_xyz
x,y,z
-x,y,-z
-x,-y,-z
x,-y,z
1/2+x,1/2+y,z
1/2-x,1/2+y,-z
1/2-x,1/2-y,-z
1/2+x,1/2-y,z
loop_
_atom_site_type_symbol
_atom_site_label
_atom_site_fract_x
_atom_site_fract_y
_atom_site_fract_z
Si Si1 0.752340 0.324331 0.904699
Si Si2 0.214595 0.178048 0.520916
Si Si3 0.547453 0.176668 0.309833
Si Si4 0.485047 0.177588 0.868498
Si Si5 0.333673 0.673797 0.752583
Si Si6 0.871090 0.324675 0.153253
Si Si7 0.655153 0.326268 0.092637
O O1 0.748987 0.500000 0.883533
O O2 0.665119 0.274647 0.832753
O O3 0.769475 0.228039 0.863033
O O4 0.824709 0.287392 0.036231
O O5 0.250000 0.250000 0.500000
O O6 0.121118 0.228451 0.424254
O O7 0.267597 0.227154 0.640424
O O8 0.220140 0.000000 0.520187
O O9 0.536600 0.222593 0.226240
O O10 0.465968 0.218621 0.254086
O O11 0.567777 0.000000 0.338988
O O12 0.425547 0.268554 0.845441
O O13 0.473634 0.000000 0.866631
O O14 0.577786 0.220680 0.990015
O O15 0.326587 0.500000 0.723232
O O16 0.315079 0.692854 0.803187
O O17 0.859342 0.500000 0.156535
O O18 0.632259 0.500000 0.051797
#
# Coordination Sequence:
#
# PCOD8089881 Si02
#       7
#     8   8   8   8   8   8   8
#     4  10  19  33  54  82 113 144 183 226 273 329
#     4  12  24  38  58  82 109 145 188 234 279 324
#     4  10  20  36  57  82 114 147 183 226 275 330
#     4  11  21  35  56  83 114 149 185 225 277 329
#     4  11  24  40  56  78 110 151 193 230 274 329
#     4   9  18  34  54  80 112 145 180 221 274 330
#     4  11  23  37  55  80 114 152 188 227 275 332
#
# _framework density 17.972069000000001
#
# number of rings (size 3 to 8) (size 9 to 14) (size 15 to 20)
#    0.000    1.429    2.857    3.429    0.000    5.714 
#    0.000    0.000    0.000    0.857    0.000    6.000 
#    0.000    0.000    0.000    0.000    0.000    0.000 
#
# Total GULP energy -347364.059934 kJ/mol
# GULP energy per Si atom -12405.859283 kJ/mol
# Density = 1.793116 g / cm^3
# Si number density = 17.972069 Si / 1000 Ang^3
#
#
#
# Elastic Constant Matrix: (Units=GPa)
#
#
# Indices 1 2 3 4 5 6 
#
# 1 118.6606 52.8927 44.0307 0.0000 7.2614 0.0000
# 2 52.8927 90.7522 41.1776 0.0000 2.4057 0.0000
# 3 44.0307 41.1776 68.7536 0.0000 9.4201 0.0000
# 4 0.0000 0.0000 0.0000 30.4142 0.0000 3.2608
# 5 7.2614 2.4057 9.4201 0.0000 24.2341 0.0000
# 6 0.0000 0.0000 0.0000 3.2608 0.0000 30.2249
#
#
#
# Elastic Compliance Matrix: (Units=1/GPa)
#
#
# Indices 1 2 3 4 5 6 
#
# 1 0.012572 -0.005114 -0.004798 0.000000 -0.001395 0.000000
# 2 -0.005114 0.017316 -0.007468 0.000000 0.002716 0.000000
# 3 -0.004798 -0.007468 0.023017 0.000000 -0.006768 0.000000
# 4 0.000000 0.000000 0.000000 0.033264 0.000000 -0.003589
# 5 -0.001395 0.002716 -0.006768 0.000000 0.044043 0.000000
# 6 0.000000 0.000000 0.000000 -0.003589 0.000000 0.033472
#
#
# Mechanical properties :
#
#
# Convention : Reuss Voigt Hill
#
# Bulk Modulus (GPa) = 55.10677 61.59649 58.35163
# Shear Modulus (GPa) = 24.45064 26.31233 25.38149
#
# Velocity S-wave (km/s) = 3.69247 3.83047 3.76210
# Velocity P-wave (km/s) = 6.99343 7.34242 7.17005
#
# Compressibility (1/GPa) = 0.01814659
#
# Stress axis : x y z
#
# Youngs Moduli (GPa) = 79.53913 57.75039 43.44540
#
# Poissons Ratio (x) = 0.29531 0.20845
# Poissons Ratio (y) = 0.40673 0.32445
# Poissons Ratio (z) = 0.38162 0.43129
#
# Static dielectric constant tensor:
#      x y z
#    x 3.390120 0.000000 0.078870 
#    y 0.000000 3.409710 0.000000 
#    z 0.078870 0.000000 3.213200 
# 
# 
# High freq. dielectric constant tensor:
#      x y z
#    x 1.697140 0.000000 0.009410 
#    y 0.000000 1.707770 0.000000 
#    z 0.009410 0.000000 1.674940 
# 
# From -- ./inp_files/288223.got.cif
#   From: 2010.06.25/outbox.cif.g09.slc.cpg/sg12_145_cif.got.tgz:288223.got - 2010.06.28 00:19:55.
