data_PCOD8089474
_publ_section_title
;
Structure prediction by ZEFSAII (Michael W. Deem and Ramdas Pophale) SiO2 
 PCOD8089474
Probable space group: C 2/M
;
_chemical_formula_sum "Si O2"
_cell_formula_units_Z 56
_cell_length_a 29.314250
_cell_length_b 10.233365
_cell_length_c 10.526581
_cell_angle_alpha 90.000000
_cell_angle_beta 73.930776
_cell_angle_gamma 90.000000
_cell_volume 3034.418131
_symmetry_space_group_name_H-M "C 2/M"
_symmetry_group_IT_number 12
_symmetry_cell_setting 'monoclinic'
loop_
_space_group_symop_operation_xyz
x,y,z
-x,y,-z
-x,-y,-z
x,-y,z
1/2+x,1/2+y,z
1/2-x,1/2+y,-z
1/2-x,1/2-y,-z
1/2+x,1/2-y,z
loop_
_atom_site_type_symbol
_atom_site_label
_atom_site_fract_x
_atom_site_fract_y
_atom_site_fract_z
Si Si1 0.927313 0.648474 0.837520
Si Si2 0.896768 0.347894 0.592531
Si Si3 0.959884 0.856213 0.429683
Si Si4 0.113026 0.654695 0.876491
Si Si5 0.288187 0.149895 0.316724
Si Si6 0.518983 0.728228 0.852087
Si Si7 0.790033 0.646502 0.613423
O O1 0.913648 0.500000 0.826308
O O2 0.916967 0.712845 0.709059
O O3 0.981581 0.658587 0.843024
O O4 0.892789 0.705358 0.973906
O O5 0.910613 0.500000 0.555543
O O6 0.919437 0.255927 0.466269
O O7 0.840363 0.330889 0.640717
O O8 0.980432 0.867834 0.269727
O O9 0.000000 0.816458 0.500000
O O10 0.939385 0.000000 0.479477
O O11 0.107214 0.500000 0.871571
O O12 0.164248 0.699620 0.788502
O O13 0.071756 0.716187 0.823129
O O14 0.246174 0.245820 0.303649
O O15 0.297186 0.164417 0.458452
O O16 0.275663 0.000000 0.289695
O O17 0.500000 0.663006 0.000000
O O18 0.770963 0.500000 0.657653
#
# Coordination Sequence:
#
# PCOD8089474 Si02
#       7
#     8   8   8   8   8   8   8
#     4   9  17  30  50  78 107 138 173 216 264 312
#     4  10  20  35  56  80 105 136 178 219 262 311
#     4  11  23  37  52  76 111 145 175 213 261 312
#     4   9  17  30  51  78 108 136 173 223 267 306
#     4   9  17  31  50  72  99 132 170 212 264 318
#     4  10  19  33  53  77 106 142 182 216 258 311
#     4   9  18  32  51  74 100 129 167 219 266 307
#
# _framework density 18.454937000000001
#
# number of rings (size 3 to 8) (size 9 to 14) (size 15 to 20)
#    0.000    2.429    1.429    1.286    0.000    5.143 
#    0.000    4.286    0.000    1.714    0.000    0.000 
#    0.000    0.000    0.000    0.000    0.000    0.000 
#
# Total GULP energy -346977.141716 kJ/mol
# GULP energy per Si atom -12392.040776 kJ/mol
# Density = 1.841293 g / cm^3
# Si number density = 18.454937 Si / 1000 Ang^3
#
#
#
# Elastic Constant Matrix: (Units=GPa)
#
#
# Indices 1 2 3 4 5 6 
#
# 1 92.3142 52.7528 50.6126 0.0000 -12.9775 0.0000
# 2 52.7528 80.7760 38.4160 0.0000 -14.7198 0.0000
# 3 50.6126 38.4160 100.9553 0.0000 -5.9982 0.0000
# 4 0.0000 0.0000 0.0000 12.6516 0.0000 -6.1545
# 5 -12.9775 -14.7198 -5.9982 0.0000 32.6135 0.0000
# 6 0.0000 0.0000 0.0000 -6.1545 0.0000 22.8688
#
#
#
# Elastic Compliance Matrix: (Units=1/GPa)
#
#
# Indices 1 2 3 4 5 6 
#
# 1 0.020189 -0.009755 -0.006262 0.000000 0.002479 0.000000
# 2 -0.009755 0.021010 -0.002802 0.000000 0.005086 0.000000
# 3 -0.006262 -0.002802 0.014041 0.000000 -0.001174 0.000000
# 4 0.000000 0.000000 0.000000 0.090948 0.000000 0.024476
# 5 0.002479 0.005086 -0.001174 0.000000 0.033728 0.000000
# 6 0.000000 0.000000 0.000000 0.024476 0.000000 0.050315
#
#
# Mechanical properties :
#
#
# Convention : Reuss Voigt Hill
#
# Bulk Modulus (GPa) = 56.81241 61.95646 59.38443
# Shear Modulus (GPa) = 18.26577 22.44441 20.35509
#
# Velocity S-wave (km/s) = 3.14944 3.49115 3.32469
# Velocity P-wave (km/s) = 6.63902 7.06367 6.85463
#
# Compressibility (1/GPa) = 0.01760179
#
# Stress axis : x y z
#
# Youngs Moduli (GPa) = 49.53255 47.59639 71.21820
#
# Poissons Ratio (x) = 0.46429 0.44598
# Poissons Ratio (y) = 0.48318 0.19957
# Poissons Ratio (z) = 0.31018 0.13337
#
# Static dielectric constant tensor:
#      x y z
#    x 3.302840 0.000000 0.014610 
#    y 0.000000 3.174780 0.000000 
#    z 0.014610 0.000000 3.628070 
# 
# 
# High freq. dielectric constant tensor:
#      x y z
#    x 1.706500 0.000000 0.002500 
#    y 0.000000 1.690530 0.000000 
#    z 0.002500 0.000000 1.719020 
# 
# From -- ./inp_files/103149.got.cif
#   From: 2010.06.25/outbox.cif.g09.slc.cpg/sg12_52_cif.got.tgz:103149.got - 2010.06.28 00:19:55.
