data_PCOD8089037
_publ_section_title
;
Structure prediction by ZEFSAII (Michael W. Deem and Ramdas Pophale) SiO2 
 PCOD8089037
Probable space group: C 2/M
;
_chemical_formula_sum "Si O2"
_cell_formula_units_Z 64
_cell_length_a 30.006339
_cell_length_b 9.075567
_cell_length_c 14.920627
_cell_angle_alpha 90.000000
_cell_angle_beta 101.355845
_cell_angle_gamma 90.000000
_cell_volume 3983.707429
_symmetry_space_group_name_H-M "C 2/M"
_symmetry_group_IT_number 12
_symmetry_cell_setting 'monoclinic'
loop_
_space_group_symop_operation_xyz
x,y,z
-x,y,-z
-x,-y,-z
x,-y,z
1/2+x,1/2+y,z
1/2-x,1/2+y,-z
1/2-x,1/2-y,-z
1/2+x,1/2-y,z
loop_
_atom_site_type_symbol
_atom_site_label
_atom_site_fract_x
_atom_site_fract_y
_atom_site_fract_z
Si Si1 0.042320 0.825978 0.134307
Si Si2 0.189526 0.829353 0.124062
Si Si3 0.624793 0.172790 0.236575
Si Si4 0.287737 0.328058 0.395333
Si Si5 0.688281 0.170305 0.422946
Si Si6 0.056626 0.826257 0.939418
Si Si7 0.790689 0.674236 0.213700
Si Si8 0.652991 0.671654 0.914534
O O1 0.074433 0.742688 0.217755
O O2 0.989528 0.782662 0.131859
O O3 0.049869 0.000000 0.147013
O O4 0.055517 0.766651 0.040631
O O5 0.154021 0.737599 0.167316
O O6 0.240217 0.775007 0.165933
O O7 0.182484 0.000000 0.145758
O O8 0.180964 0.800619 0.016228
O O9 0.647154 0.211005 0.340873
O O10 0.621671 0.000000 0.220435
O O11 0.296978 0.500000 0.387095
O O12 0.316991 0.269213 0.490756
O O13 0.234822 0.291613 0.389766
O O14 0.304322 0.244743 0.313588
O O15 0.687876 0.000000 0.451684
O O16 0.101223 0.769575 0.905612
O O17 0.059354 0.000000 0.950235
O O18 0.794400 0.500000 0.222310
O O19 0.825912 0.730989 0.154687
O O20 0.654387 0.500000 0.888090
#
# Coordination Sequence:
#
# PCOD8089037 Si02
#       8
#     8   8   8   8   8   8   8   8
#     4   9  16  30  50  70  94 125 163 199 239 286
#     4  10  20  33  48  66  94 133 172 201 228 276
#     4  11  20  30  47  73 102 129 156 194 245 289
#     4  10  19  33  51  70  92 125 162 199 239 282
#     4   9  19  33  48  69  97 125 156 197 242 286
#     4   8  15  29  50  70  91 125 165 204 237 276
#     4  11  22  33  47  70  98 130 165 202 243 282
#     4  10  19  33  50  68  93 130 172 205 235 274
#
# _framework density 16.065438
#
# number of rings (size 3 to 8) (size 9 to 14) (size 15 to 20)
#    0.000    2.250    2.500    2.250    0.000    2.500 
#    0.000    1.875    0.000    0.000    0.000    0.875 
#    0.000    7.000    0.000    0.000    0.000    0.000 
#
# Total GULP energy -396807.096998 kJ/mol
# GULP energy per Si atom -12400.221781 kJ/mol
# Density = 1.602887 g / cm^3
# Si number density = 16.065438 Si / 1000 Ang^3
#
#
#
# Elastic Constant Matrix: (Units=GPa)
#
#
# Indices 1 2 3 4 5 6 
#
# 1 84.9859 30.3541 47.4749 0.0000 11.7244 0.0000
# 2 30.3541 58.5869 46.0981 0.0000 2.6074 0.0000
# 3 47.4749 46.0981 95.6270 0.0000 6.8297 0.0000
# 4 0.0000 0.0000 0.0000 28.0328 0.0000 -0.7648
# 5 11.7244 2.6074 6.8297 0.0000 22.6955 0.0000
# 6 0.0000 0.0000 0.0000 -0.7648 0.0000 23.3111
#
#
#
# Elastic Compliance Matrix: (Units=1/GPa)
#
#
# Indices 1 2 3 4 5 6 
#
# 1 0.017653 -0.003752 -0.006474 0.000000 -0.006740 0.000000
# 2 -0.003752 0.028313 -0.011949 0.000000 0.002281 0.000000
# 3 -0.006474 -0.011949 0.019514 0.000000 -0.001155 0.000000
# 4 0.000000 0.000000 0.000000 0.035704 0.000000 0.001171
# 5 -0.006740 0.002281 -0.001155 0.000000 0.047629 0.000000
# 6 0.000000 0.000000 0.000000 0.001171 0.000000 0.042937
#
#
# Mechanical properties :
#
#
# Convention : Reuss Voigt Hill
#
# Bulk Modulus (GPa) = 47.32566 54.11712 50.72139
# Shear Modulus (GPa) = 20.56406 22.49271 21.52839
#
# Velocity S-wave (km/s) = 3.58162 3.74581 3.66463
# Velocity P-wave (km/s) = 6.82832 7.24339 7.03891
#
# Compressibility (1/GPa) = 0.02113019
#
# Stress axis : x y z
#
# Youngs Moduli (GPa) = 56.64717 35.31970 51.24604
#
# Poissons Ratio (x) = 0.13253 0.33175
# Poissons Ratio (y) = 0.21256 0.61232
# Poissons Ratio (z) = 0.36672 0.42202
#
# Static dielectric constant tensor:
#      x y z
#    x 3.206880 0.000000 0.168260 
#    y 0.000000 2.951470 0.000000 
#    z 0.168260 0.000000 2.975180 
# 
# 
# High freq. dielectric constant tensor:
#      x y z
#    x 1.603370 0.000000 0.013330 
#    y 0.000000 1.612020 0.000000 
#    z 0.013330 0.000000 1.604620 
# 
# From -- ./inp_files/248491.got.cif
#   From: 2010.06.25/outbox.cif.g09.slc.cpg/sg12_125_cif.got.tgz:248491.got - 2010.06.28 00:19:55.
