data_PCOD8089084
_publ_section_title
;
Structure prediction by ZEFSAII (Michael W. Deem and Ramdas Pophale) SiO2 
 PCOD8089084
Probable space group: C 2/M
;
_chemical_formula_sum "Si O2"
_cell_formula_units_Z 56
_cell_length_a 30.435163
_cell_length_b 12.640640
_cell_length_c 8.518312
_cell_angle_alpha 90.000000
_cell_angle_beta 74.044441
_cell_angle_gamma 90.000000
_cell_volume 3150.912374
_symmetry_space_group_name_H-M "C 2/M"
_symmetry_group_IT_number 12
_symmetry_cell_setting 'monoclinic'
loop_
_space_group_symop_operation_xyz
x,y,z
-x,y,-z
-x,-y,-z
x,-y,z
1/2+x,1/2+y,z
1/2-x,1/2+y,-z
1/2-x,1/2-y,-z
1/2+x,1/2-y,z
loop_
_atom_site_type_symbol
_atom_site_label
_atom_site_fract_x
_atom_site_fract_y
_atom_site_fract_z
Si Si1 0.552195 0.374758 0.271059
Si Si2 0.140306 0.214776 0.042952
Si Si3 0.770846 0.878930 0.911827
Si Si4 0.710922 0.280748 0.418777
Si Si5 0.451025 0.375438 0.374696
Si Si6 0.361810 0.624758 0.285336
Si Si7 0.185976 0.624900 0.191365
O O1 0.558284 0.500000 0.250986
O O2 0.588566 0.321042 0.121399
O O3 0.501230 0.338739 0.266969
O O4 0.560258 0.332114 0.440096
O O5 0.176460 0.141089 0.097685
O O6 0.146701 0.333210 0.109031
O O7 0.150465 0.201132 0.848208
O O8 0.763337 0.848971 0.738501
O O9 0.758879 0.000000 0.944377
O O10 0.733158 0.828256 0.067817
O O11 0.750000 0.250000 0.500000
O O12 0.673447 0.353320 0.540646
O O13 0.685328 0.178936 0.364631
O O14 0.452031 0.500000 0.392532
O O15 0.412444 0.340542 0.290314
O O16 0.359655 0.500000 0.242020
O O17 0.181170 0.500000 0.216557
#
# Coordination Sequence:
#
# PCOD8089084 Si02
#       7
#     8   8   8   8   8   8   8
#     4   9  16  29  49  73 102 135 166 199 244 305
#     4  11  20  32  50  73  99 134 170 202 242 298
#     4  10  19  33  51  70  95 128 163 204 253 302
#     4  11  21  33  50  75 101 130 167 207 249 299
#     4   8  16  29  46  72 105 134 161 196 246 308
#     4  11  21  32  49  78 111 135 159 199 251 310
#     4  10  22  38  53  69  96 134 177 218 250 285
#
# _framework density 17.772629999999999
#
# number of rings (size 3 to 8) (size 9 to 14) (size 15 to 20)
#    0.000    2.000    0.000    7.714    0.000    4.000 
#    0.000    2.857    0.000    0.000    0.000   10.000 
#    0.000    0.000    0.000    0.000    0.000    0.000 
#
# Total GULP energy -347039.003100 kJ/mol
# GULP energy per Si atom -12394.250111 kJ/mol
# Density = 1.773218 g / cm^3
# Si number density = 17.772630 Si / 1000 Ang^3
#
#
#
# Elastic Constant Matrix: (Units=GPa)
#
#
# Indices 1 2 3 4 5 6 
#
# 1 96.5340 22.7116 34.6656 0.0000 5.0509 0.0000
# 2 22.7116 48.5503 17.2130 0.0000 6.8452 0.0000
# 3 34.6656 17.2130 87.0716 0.0000 4.3411 0.0000
# 4 0.0000 0.0000 0.0000 22.0654 0.0000 0.6871
# 5 5.0509 6.8452 4.3411 0.0000 35.7320 0.0000
# 6 0.0000 0.0000 0.0000 0.6871 0.0000 21.6477
#
#
#
# Elastic Compliance Matrix: (Units=1/GPa)
#
#
# Indices 1 2 3 4 5 6 
#
# 1 0.012967 -0.004494 -0.004251 0.000000 -0.000455 0.000000
# 2 -0.004494 0.024214 -0.002815 0.000000 -0.003661 0.000000
# 3 -0.004251 -0.002815 0.013760 0.000000 -0.000532 0.000000
# 4 0.000000 0.000000 0.000000 0.045365 0.000000 -0.001440
# 5 -0.000455 -0.003661 -0.000532 0.000000 0.028816 0.000000
# 6 0.000000 0.000000 0.000000 -0.001440 0.000000 0.046240
#
#
# Mechanical properties :
#
#
# Convention : Reuss Voigt Hill
#
# Bulk Modulus (GPa) = 35.94544 42.37069 39.15807
# Shear Modulus (GPa) = 24.53905 26.39339 25.46622
#
# Velocity S-wave (km/s) = 3.71984 3.85783 3.78946
# Velocity P-wave (km/s) = 6.22243 6.61332 6.42085
#
# Compressibility (1/GPa) = 0.02781994
#
# Stress axis : x y z
#
# Youngs Moduli (GPa) = 77.11931 41.29865 72.67265
#
# Poissons Ratio (x) = 0.18561 0.30895
# Poissons Ratio (y) = 0.34661 0.20457
# Poissons Ratio (z) = 0.32786 0.11625
#
# Static dielectric constant tensor:
#      x y z
#    x 3.588370 0.000000 0.015440 
#    y 0.000000 3.097630 0.000000 
#    z 0.015440 0.000000 3.364930 
# 
# 
# High freq. dielectric constant tensor:
#      x y z
#    x 1.687760 0.000000 0.000540 
#    y 0.000000 1.652920 0.000000 
#    z 0.000540 0.000000 1.694980 
# 
# From -- ./inp_files/103965.got.cif
#   From: 2010.06.25/outbox.cif.g09.slc.cpg/sg12_52_cif.got.tgz:103965.got - 2010.06.28 00:19:55.
