data_PCOD8089705
_publ_section_title
;
Structure prediction by ZEFSAII (Michael W. Deem and Ramdas Pophale) SiO2 
 PCOD8089705
Probable space group: C 2/M
;
_chemical_formula_sum "Si O2"
_cell_formula_units_Z 48
_cell_length_a 20.276117
_cell_length_b 9.029217
_cell_length_c 31.590097
_cell_angle_alpha 90.000000
_cell_angle_beta 152.472232
_cell_angle_gamma 90.000000
_cell_volume 2672.978856
_symmetry_space_group_name_H-M "C 2/M"
_symmetry_group_IT_number 12
_symmetry_cell_setting 'monoclinic'
loop_
_space_group_symop_operation_xyz
x,y,z
-x,y,-z
-x,-y,-z
x,-y,z
1/2+x,1/2+y,z
1/2-x,1/2+y,-z
1/2-x,1/2-y,-z
1/2+x,1/2-y,z
loop_
_atom_site_type_symbol
_atom_site_label
_atom_site_fract_x
_atom_site_fract_y
_atom_site_fract_z
Si Si1 0.379377 0.172766 0.051466
Si Si2 0.694809 0.323618 0.425900
Si Si3 0.857599 0.673733 0.943376
Si Si4 0.846912 0.325626 0.426768
Si Si5 0.405748 0.830247 0.756957
Si Si6 0.068000 0.327105 0.764441
O O1 0.525767 0.213749 0.159057
O O2 0.350692 0.000000 0.038642
O O3 0.250000 0.250000 0.000000
O O4 0.388783 0.225975 0.008783
O O5 0.686128 0.500000 0.426135
O O6 0.750000 0.250000 0.500000
O O7 0.802419 0.277196 0.449015
O O8 0.537898 0.260015 0.327131
O O9 0.822317 0.500000 0.920287
O O10 0.726396 0.763193 0.848501
O O11 0.000000 0.716571 0.000000
O O12 0.848779 0.500000 0.424375
O O13 0.733663 0.268105 0.328275
O O14 0.000000 0.259415 0.500000
O O15 0.521978 0.798514 0.786623
O O16 0.356967 0.000000 0.727797
O O17 0.065642 0.500000 0.751182
#
# Coordination Sequence:
#
# PCOD8089705 Si02
#       6
#     8   8   8   8   8   8
#     4  10  19  33  54  78 105 136 177 221 258 308
#     4  10  20  36  58  81 107 139 178 218 263 316
#     4  10  21  36  53  76 111 146 175 214 269 321
#     4   9  19  36  56  78 107 138 171 215 265 313
#     4   9  18  32  52  79 105 134 176 219 259 307
#     4  10  19  34  56  79 106 138 179 222 263 313
#
# _framework density 17.957492999999999
#
# number of rings (size 3 to 8) (size 9 to 14) (size 15 to 20)
#    0.000    2.333    1.667    1.000    0.000    2.667 
#    3.000    0.000    0.000    0.000    0.000    0.000 
#    0.000    0.000    0.000    0.000    0.000    0.000 
#
# Total GULP energy -297616.242229 kJ/mol
# GULP energy per Si atom -12400.676760 kJ/mol
# Density = 1.791662 g / cm^3
# Si number density = 17.957493 Si / 1000 Ang^3
#
#
#
# Elastic Constant Matrix: (Units=GPa)
#
#
# Indices 1 2 3 4 5 6 
#
# 1 108.1126 41.4459 84.1954 0.0000 -0.3626 0.0000
# 2 41.4459 51.6239 53.3646 0.0000 -0.6309 0.0002
# 3 84.1954 53.3646 154.2726 0.0003 0.3769 0.0000
# 4 0.0000 0.0000 0.0003 37.4410 0.0000 -0.1252
# 5 -0.3626 -0.6309 0.3769 0.0000 35.4958 0.0000
# 6 0.0000 0.0002 0.0000 -0.1252 0.0000 20.0867
#
#
#
# Elastic Compliance Matrix: (Units=1/GPa)
#
#
# Indices 1 2 3 4 5 6 
#
# 1 0.017367 -0.006449 -0.007247 0.000000 0.000140 0.000000
# 2 -0.006449 0.032562 -0.007746 0.000000 0.000595 0.000000
# 3 -0.007247 -0.007746 0.013118 0.000000 -0.000351 0.000000
# 4 0.000000 0.000000 0.000000 0.026709 0.000000 0.000167
# 5 0.000140 0.000595 -0.000351 0.000000 0.028188 0.000000
# 6 0.000000 0.000000 0.000000 0.000167 0.000000 0.049785
#
#
# Mechanical properties :
#
#
# Convention : Reuss Voigt Hill
#
# Bulk Modulus (GPa) = 49.59735 74.66898 62.13316
# Shear Modulus (GPa) = 23.00609 27.60491 25.30550
#
# Velocity S-wave (km/s) = 3.58319 3.92501 3.75799
# Velocity P-wave (km/s) = 6.69315 7.88747 7.31473
#
# Compressibility (1/GPa) = 0.02016237
#
# Stress axis : x y z
#
# Youngs Moduli (GPa) = 57.58205 30.71025 76.23401
#
# Poissons Ratio (x) = 0.19805 0.55250
# Poissons Ratio (y) = 0.37135 0.59047
# Poissons Ratio (z) = 0.41732 0.23787
#
# Static dielectric constant tensor:
#      x y z
#    x 3.313380 0.000000 -0.056040 
#    y 0.000000 3.298870 0.000000 
#    z -0.056040 0.000000 3.403190 
# 
# 
# High freq. dielectric constant tensor:
#      x y z
#    x 1.680830 0.000000 -0.005150 
#    y 0.000000 1.694930 0.000000 
#    z -0.005150 0.000000 1.704660 
# 
# From -- ./inp_files/229932.got.cif
#   From: 2010.06.25/outbox.cif.g09.slc.cpg/sg12_115_cif.got.tgz:229932.got - 2010.06.28 00:19:55.
