data_PCOD8089382
_publ_section_title
;
Structure prediction by ZEFSAII (Michael W. Deem and Ramdas Pophale) SiO2 
 PCOD8089382
Probable space group: C 2/M
;
_chemical_formula_sum "Si O2"
_cell_formula_units_Z 56
_cell_length_a 30.322805
_cell_length_b 9.660429
_cell_length_c 18.989888
_cell_angle_alpha 90.000000
_cell_angle_beta 34.245040
_cell_angle_gamma 90.000000
_cell_volume 3130.335296
_symmetry_space_group_name_H-M "C 2/M"
_symmetry_group_IT_number 12
_symmetry_cell_setting 'monoclinic'
loop_
_space_group_symop_operation_xyz
x,y,z
-x,y,-z
-x,-y,-z
x,-y,z
1/2+x,1/2+y,z
1/2-x,1/2+y,-z
1/2-x,1/2-y,-z
1/2+x,1/2-y,z
loop_
_atom_site_type_symbol
_atom_site_label
_atom_site_fract_x
_atom_site_fract_y
_atom_site_fract_z
Si Si1 0.792667 0.339877 0.847021
Si Si2 0.542667 0.661472 0.870829
Si Si3 0.657419 0.843646 0.063512
Si Si4 0.078924 0.665008 0.431121
Si Si5 0.993549 0.340147 0.209660
Si Si6 0.626774 0.161503 0.518739
Si Si7 0.278890 0.661118 0.395545
O O1 0.771475 0.500000 0.866817
O O2 0.836568 0.307916 0.862104
O O3 0.848641 0.287000 0.711664
O O4 0.712356 0.256109 0.945620
O O5 0.531892 0.500000 0.868742
O O6 0.497514 0.749062 0.871730
O O7 0.635047 0.702333 0.746995
O O8 0.500000 0.700692 0.000000
O O9 0.568803 0.819663 0.158708
O O10 0.684805 0.000000 0.012752
O O11 0.073103 0.500000 0.441349
O O12 0.095563 0.728076 0.486924
O O13 0.000000 0.726058 0.500000
O O14 0.981433 0.500000 0.203693
O O15 0.921028 0.280524 0.351055
O O16 0.718966 0.189956 0.409884
O O17 0.608234 0.000000 0.538448
O O18 0.276053 0.500000 0.421676
O O19 0.250000 0.750000 0.500000
#
# Coordination Sequence:
#
# PCOD8089382 Si02
#       7
#     8   8   8   8   8   8   8
#     4   9  17  30  49  73 100 134 171 207 251 304
#     4  10  22  37  53  77 109 137 166 216 274 319
#     4   9  18  31  48  71 101 134 169 209 253 302
#     4   9  16  27  47  76 105 129 163 212 256 297
#     4  10  19  33  53  75 100 133 174 215 257 311
#     4   9  17  29  49  75  99 130 171 213 256 300
#     4  10  19  34  55  76 102 136 173 216 260 310
#
# _framework density 17.889458000000001
#
# number of rings (size 3 to 8) (size 9 to 14) (size 15 to 20)
#    0.000    2.571    1.429    0.857    0.000    5.429 
#    0.000    2.857    0.000    2.143    0.000    0.000 
#    0.000    0.000    0.000    0.000    0.000    0.000 
#
# Total GULP energy -347134.734502 kJ/mol
# GULP energy per Si atom -12397.669089 kJ/mol
# Density = 1.784874 g / cm^3
# Si number density = 17.889458 Si / 1000 Ang^3
#
#
#
# Elastic Constant Matrix: (Units=GPa)
#
#
# Indices 1 2 3 4 5 6 
#
# 1 90.7263 28.5032 42.7359 -0.0021 6.6812 0.0003
# 2 28.5032 37.5023 36.5270 0.0006 3.6038 -0.0003
# 3 42.7359 36.5270 122.0537 -0.0024 9.1661 0.0006
# 4 -0.0021 0.0006 -0.0024 22.9745 0.0014 -2.0003
# 5 6.6812 3.6038 9.1661 0.0014 30.2100 -0.0004
# 6 0.0003 -0.0003 0.0006 -2.0003 -0.0004 21.7258
#
#
#
# Elastic Compliance Matrix: (Units=1/GPa)
#
#
# Indices 1 2 3 4 5 6 
#
# 1 0.015112 -0.008888 -0.002517 0.000001 -0.001518 0.000000
# 2 -0.008888 0.042898 -0.009711 -0.000003 -0.000205 0.000001
# 3 -0.002517 -0.009711 0.012128 0.000001 -0.001965 0.000000
# 4 0.000001 -0.000003 0.000001 0.043878 -0.000002 0.004040
# 5 -0.001518 -0.000205 -0.001965 -0.000002 0.034058 0.000000
# 6 0.000000 0.000001 0.000000 0.004040 0.000000 0.046400
#
#
# Mechanical properties :
#
#
# Convention : Reuss Voigt Hill
#
# Bulk Modulus (GPa) = 35.83421 51.75716 43.79568
# Shear Modulus (GPa) = 20.32449 24.48315 22.40382
#
# Velocity S-wave (km/s) = 3.37429 3.70345 3.54269
# Velocity P-wave (km/s) = 5.93763 6.87618 6.42407
#
# Compressibility (1/GPa) = 0.02790630
#
# Stress axis : x y z
#
# Youngs Moduli (GPa) = 66.17235 23.31115 82.45232
#
# Poissons Ratio (x) = 0.20719 0.20757
# Poissons Ratio (y) = 0.58813 0.80066
# Poissons Ratio (z) = 0.16659 0.22637
#
# Static dielectric constant tensor:
#      x y z
#    x 3.374850 0.000000 -0.038380 
#    y 0.000000 3.043580 0.000010 
#    z -0.038380 0.000010 3.454950 
# 
# 
# High freq. dielectric constant tensor:
#      x y z
#    x 1.697420 0.000000 -0.006440 
#    y 0.000000 1.654880 0.000000 
#    z -0.006440 0.000000 1.698710 
# 
# From -- ./inp_files/280854.got.cif
#   From: 2010.06.25/outbox.cif.g09.slc.cpg/sg12_141_cif.got.tgz:280854.got - 2010.06.28 00:19:55.
