data_PCOD8089741
_publ_section_title
;
Structure prediction by ZEFSAII (Michael W. Deem and Ramdas Pophale) SiO2 
 PCOD8089741
Probable space group: C 2/M
;
_chemical_formula_sum "Si O2"
_cell_formula_units_Z 40
_cell_length_a 18.223187
_cell_length_b 12.451889
_cell_length_c 17.297157
_cell_angle_alpha 90.000000
_cell_angle_beta 33.053340
_cell_angle_gamma 90.000000
_cell_volume 2140.745371
_symmetry_space_group_name_H-M "C 2/M"
_symmetry_group_IT_number 12
_symmetry_cell_setting 'monoclinic'
loop_
_space_group_symop_operation_xyz
x,y,z
-x,y,-z
-x,-y,-z
x,-y,z
1/2+x,1/2+y,z
1/2-x,1/2+y,-z
1/2-x,1/2-y,-z
1/2+x,1/2-y,z
loop_
_atom_site_type_symbol
_atom_site_label
_atom_site_fract_x
_atom_site_fract_y
_atom_site_fract_z
Si Si1 0.058739 0.622053 0.122059
Si Si2 0.383375 0.244330 0.159851
Si Si3 0.460719 0.732344 0.340152
Si Si4 0.267241 0.375515 0.394019
Si Si5 0.796831 0.876547 0.797984
O O1 0.032914 0.500000 0.170087
O O2 0.942278 0.653128 0.164344
O O3 0.052572 0.695276 0.203180
O O4 0.204611 0.636526 0.955281
O O5 0.330813 0.345335 0.255114
O O6 0.260682 0.192392 0.221782
O O7 0.500000 0.287200 0.000000
O O8 0.372062 0.648415 0.369931
O O9 0.367882 0.807829 0.474551
O O10 0.554720 0.664879 0.314049
O O11 0.230388 0.500000 0.426731
O O12 0.803436 0.000000 0.765971
#
# Coordination Sequence:
#
# PCOD8089741 Si02
#       5
#     8   8   8   8   8
#     4   9  17  32  55  79 105 136 165 202 253 304
#     4   9  19  35  54  77 104 134 170 207 248 303
#     4  10  20  34  53  78 104 131 171 213 251 300
#     4  10  21  37  54  72 101 139 172 208 255 303
#     4  10  19  33  54  79 105 132 168 212 253 295
#
# _framework density 18.685082000000001
#
# number of rings (size 3 to 8) (size 9 to 14) (size 15 to 20)
#    0.000    2.400    0.000    2.400    0.000    3.600 
#    0.000    7.000    0.000    1.200    0.000    0.000 
#    0.000    0.000    0.000    0.000    0.000    0.000 
#
# Total GULP energy -248071.701425 kJ/mol
# GULP energy per Si atom -12403.585071 kJ/mol
# Density = 1.864255 g / cm^3
# Si number density = 18.685082 Si / 1000 Ang^3
#
#
#
# Elastic Constant Matrix: (Units=GPa)
#
#
# Indices 1 2 3 4 5 6 
#
# 1 84.9184 29.6204 45.4110 0.0000 -10.5065 0.0000
# 2 29.6204 85.2011 46.9883 -0.0001 3.2630 0.0001
# 3 45.4110 46.9883 84.4872 -0.0001 -4.9587 0.0001
# 4 0.0000 -0.0001 -0.0001 21.5549 0.0000 -4.1448
# 5 -10.5065 3.2630 -4.9587 0.0000 31.8011 0.0000
# 6 0.0000 0.0001 0.0001 -4.1448 0.0000 16.7335
#
#
#
# Elastic Compliance Matrix: (Units=1/GPa)
#
#
# Indices 1 2 3 4 5 6 
#
# 1 0.017252 -0.001746 -0.008030 0.000000 0.004627 0.000000
# 2 -0.001746 0.017443 -0.008983 0.000000 -0.003767 0.000000
# 3 -0.008030 -0.008983 0.021241 0.000000 0.001581 0.000000
# 4 0.000000 0.000000 0.000000 0.048713 0.000000 0.012066
# 5 0.004627 -0.003767 0.001581 0.000000 0.033607 0.000000
# 6 0.000000 0.000000 0.000000 0.012066 0.000000 0.062749
#
#
# Mechanical properties :
#
#
# Convention : Reuss Voigt Hill
#
# Bulk Modulus (GPa) = 54.29975 55.40516 54.85245
# Shear Modulus (GPa) = 20.43632 22.85702 21.64667
#
# Velocity S-wave (km/s) = 3.31074 3.50133 3.40737
# Velocity P-wave (km/s) = 6.61349 6.78692 6.70076
#
# Compressibility (1/GPa) = 0.01841629
#
# Stress axis : x y z
#
# Youngs Moduli (GPa) = 57.96562 57.33075 47.07880
#
# Poissons Ratio (x) = 0.10012 0.37803
# Poissons Ratio (y) = 0.10123 0.42293
# Poissons Ratio (z) = 0.46545 0.51502
#
# Static dielectric constant tensor:
#      x y z
#    x 3.275130 0.000000 0.080680 
#    y 0.000000 3.255950 0.000000 
#    z 0.080680 0.000000 3.534130 
# 
# 
# High freq. dielectric constant tensor:
#      x y z
#    x 1.716740 0.000000 0.000710 
#    y 0.000000 1.719210 0.000000 
#    z 0.000710 0.000000 1.731100 
# 
# From -- ./inp_files/71195.got.cif
#   From: 2010.06.25/outbox.cif.g09.slc.cpg/sg12_36_cif.got.tgz:71195.got - 2010.06.28 00:19:55.
