data_PCOD8089076
_publ_section_title
;
Structure prediction by ZEFSAII (Michael W. Deem and Ramdas Pophale) SiO2 
 PCOD8089076
Probable space group: C 2/M
;
_chemical_formula_sum "Si O2"
_cell_formula_units_Z 56
_cell_length_a 21.412054
_cell_length_b 21.200209
_cell_length_c 11.549950
_cell_angle_alpha 90.000000
_cell_angle_beta 144.877360
_cell_angle_gamma 90.000000
_cell_volume 3016.438390
_symmetry_space_group_name_H-M "C 2/M"
_symmetry_group_IT_number 12
_symmetry_cell_setting 'monoclinic'
loop_
_space_group_symop_operation_xyz
x,y,z
-x,y,-z
-x,-y,-z
x,-y,z
1/2+x,1/2+y,z
1/2-x,1/2+y,-z
1/2-x,1/2-y,-z
1/2+x,1/2-y,z
loop_
_atom_site_type_symbol
_atom_site_label
_atom_site_fract_x
_atom_site_fract_y
_atom_site_fract_z
Si Si1 0.120595 0.356486 0.676763
Si Si2 0.796257 0.426186 0.413602
Si Si3 0.491618 0.926888 0.114726
Si Si4 0.153529 0.338111 0.987051
Si Si5 0.836335 0.812084 0.762241
Si Si6 0.160706 0.232734 0.609248
Si Si7 0.498801 0.723593 0.181370
O O1 0.189220 0.402172 0.696611
O O2 0.174701 0.351645 0.884533
O O3 0.112507 0.284914 0.620990
O O4 0.000000 0.385455 0.500000
O O5 0.764267 0.500000 0.367599
O O6 0.904015 0.411532 0.649206
O O7 0.700337 0.383596 0.326049
O O8 0.381836 0.903205 0.008449
O O9 0.474486 0.000000 0.073752
O O10 0.500000 0.895356 0.000000
O O11 0.052634 0.291530 0.864126
O O12 0.268930 0.317353 0.213315
O O13 0.731822 0.767795 0.619075
O O14 0.910947 0.776299 0.783161
O O15 0.899324 0.818539 0.982627
O O16 0.060086 0.198333 0.389934
#
# Coordination Sequence:
#
# PCOD8089076 Si02
#       7
#     8   8   8   8   8   8   8
#     4  11  19  36  51  80 112 133 182 221 250 322
#     4  10  21  38  58  75 102 144 178 223 270 299
#     4  10  22  35  50  77 107 134 174 218 260 314
#     4  11  21  33  55  78 108 144 174 213 267 312
#     4   9  20  33  51  81 109 130 183 218 252 325
#     4  10  20  31  53  77 108 146 167 209 273 313
#     4  10  19  33  50  81 109 139 169 217 261 321
#
# _framework density 18.564941000000001
#
# number of rings (size 3 to 8) (size 9 to 14) (size 15 to 20)
#    0.000    1.857    2.857    1.714    6.000    0.857 
#    0.000    1.429    0.000    0.857    0.000    1.000 
#    0.000    0.000    0.000    0.000    0.000    0.000 
#
# Total GULP energy -346953.226051 kJ/mol
# GULP energy per Si atom -12391.186645 kJ/mol
# Density = 1.852269 g / cm^3
# Si number density = 18.564941 Si / 1000 Ang^3
#
#
#
# Elastic Constant Matrix: (Units=GPa)
#
#
# Indices 1 2 3 4 5 6 
#
# 1 62.3810 7.7537 9.5446 0.0000 -17.6373 0.0000
# 2 7.7537 40.5253 31.9476 0.0000 -8.1655 0.0000
# 3 9.5446 31.9476 110.1529 0.0000 -23.1446 0.0000
# 4 0.0000 0.0000 0.0000 24.9062 0.0000 1.1926
# 5 -17.6373 -8.1655 -23.1446 0.0000 31.8155 0.0000
# 6 0.0000 0.0000 0.0000 1.1926 0.0000 22.5976
#
#
#
# Elastic Compliance Matrix: (Units=1/GPa)
#
#
# Indices 1 2 3 4 5 6 
#
# 1 0.019254 -0.002558 0.001391 0.000000 0.011029 0.000000
# 2 -0.002558 0.032410 -0.009123 0.000000 0.000263 0.000000
# 3 0.001391 -0.009123 0.013308 0.000000 0.008111 0.000000
# 4 0.000000 0.000000 0.000000 0.040252 0.000000 -0.002124
# 5 0.011029 0.000263 0.008111 0.000000 0.043513 0.000000
# 6 0.000000 0.000000 0.000000 -0.002124 0.000000 0.044365
#
#
# Mechanical properties :
#
#
# Convention : Reuss Voigt Hill
#
# Bulk Modulus (GPa) = 22.52663 34.61679 28.57171
# Shear Modulus (GPa) = 21.88376 26.78474 24.33425
#
# Velocity S-wave (km/s) = 3.43704 3.80249 3.62437
# Velocity P-wave (km/s) = 5.28312 6.16160 5.73919
#
# Compressibility (1/GPa) = 0.04439191
#
# Stress axis : x y z
#
# Youngs Moduli (GPa) = 51.93734 30.85420 75.14369
#
# Poissons Ratio (x) = 0.07893 -0.10452
# Poissons Ratio (y) = 0.13286 0.68553
# Poissons Ratio (z) = -0.07224 0.28148
#
# Static dielectric constant tensor:
#      x y z
#    x 3.441190 0.000000 -0.129120 
#    y 0.000000 3.161010 0.000000 
#    z -0.129120 0.000000 3.692210 
# 
# 
# High freq. dielectric constant tensor:
#      x y z
#    x 1.716720 0.000000 -0.011410 
#    y 0.000000 1.683170 0.000000 
#    z -0.011410 0.000000 1.732100 
# 
# From -- ./inp_files/177935.got.cif
#   From: 2010.06.25/outbox.cif.g09.slc.cpg/sg12_89_cif.got.tgz:177935.got - 2010.06.28 00:19:55.
