data_PCOD8089171
_publ_section_title
;
Structure prediction by ZEFSAII (Michael W. Deem and Ramdas Pophale) SiO2 
 PCOD8089171
Probable space group: C 2/M
;
_chemical_formula_sum "Si O2"
_cell_formula_units_Z 64
_cell_length_a 28.787294
_cell_length_b 8.881804
_cell_length_c 14.114596
_cell_angle_alpha 90.000000
_cell_angle_beta 104.236836
_cell_angle_gamma 90.000000
_cell_volume 3498.026257
_symmetry_space_group_name_H-M "C 2/M"
_symmetry_group_IT_number 12
_symmetry_cell_setting 'monoclinic'
loop_
_space_group_symop_operation_xyz
x,y,z
-x,y,-z
-x,-y,-z
x,-y,z
1/2+x,1/2+y,z
1/2-x,1/2+y,-z
1/2-x,1/2-y,-z
1/2+x,1/2-y,z
loop_
_atom_site_type_symbol
_atom_site_label
_atom_site_fract_x
_atom_site_fract_y
_atom_site_fract_z
Si Si1 0.024614 0.327224 0.221641
Si Si2 0.803713 0.677002 0.318786
Si Si3 0.020908 0.679515 0.611069
Si Si4 0.700829 0.824372 0.274089
Si Si5 0.422206 0.174134 0.090693
Si Si6 0.605817 0.178913 0.129522
Si Si7 0.200199 0.672003 0.479333
Si Si8 0.612109 0.322616 0.741049
O O1 0.037149 0.500000 0.245327
O O2 0.069693 0.250275 0.190562
O O3 0.013307 0.258917 0.320657
O O4 0.979096 0.307881 0.130308
O O5 0.807681 0.500000 0.298682
O O6 0.748129 0.725665 0.281896
O O7 0.825514 0.719763 0.435009
O O8 0.834735 0.769928 0.259952
O O9 0.025775 0.500000 0.618425
O O10 0.073755 0.746431 0.651343
O O11 0.000000 0.733544 0.500000
O O12 0.660492 0.774213 0.178895
O O13 0.675198 0.797024 0.365215
O O14 0.714538 0.000000 0.269867
O O15 0.395085 0.272938 0.154632
O O16 0.407008 0.000000 0.095824
O O17 0.407429 0.239495 0.981009
O O18 0.599358 0.000000 0.127678
O O19 0.212773 0.500000 0.498286
O O20 0.250000 0.750000 0.500000
O O21 0.607392 0.500000 0.729945
#
# Coordination Sequence:
#
# PCOD8089171 Si02
#       8
#     8   8   8   8   8   8   8   8
#     4   8  14  26  48  77 103 129 164 202 240 289
#     4  10  19  33  52  72  97 134 175 208 243 293
#     4   9  18  33  54  80 109 138 168 202 239 287
#     4   9  17  30  48  75 106 130 159 203 254 301
#     4   9  17  32  52  73  97 127 168 211 249 298
#     4   9  16  27  49  77 101 127 161 207 257 299
#     4   8  15  27  45  67  93 124 156 194 238 288
#     4  11  22  35  52  73  99 133 171 210 253 297
#
# _framework density 18.296032
#
# number of rings (size 3 to 8) (size 9 to 14) (size 15 to 20)
#    0.000    2.875    0.000    2.625    0.000    3.250 
#    0.000    5.000    0.000    9.000    0.000    0.000 
#    0.000    0.000    0.000    0.000    0.000    0.000 
#
# Total GULP energy -396459.325972 kJ/mol
# GULP energy per Si atom -12389.353937 kJ/mol
# Density = 1.825439 g / cm^3
# Si number density = 18.296032 Si / 1000 Ang^3
#
#
#
# Elastic Constant Matrix: (Units=GPa)
#
#
# Indices 1 2 3 4 5 6 
#
# 1 100.5074 25.5447 53.9090 0.0000 -11.4826 0.0000
# 2 25.5447 39.5621 24.7755 0.0000 -4.8608 0.0000
# 3 53.9090 24.7755 135.3157 0.0000 -1.0211 0.0000
# 4 0.0000 0.0000 0.0000 15.4496 0.0000 1.2207
# 5 -11.4826 -4.8608 -1.0211 0.0000 20.0551 0.0000
# 6 0.0000 0.0000 0.0000 1.2207 0.0000 19.5161
#
#
#
# Elastic Compliance Matrix: (Units=1/GPa)
#
#
# Indices 1 2 3 4 5 6 
#
# 1 0.014736 -0.005685 -0.004778 0.000000 0.006816 0.000000
# 2 -0.005685 0.031660 -0.003500 0.000000 0.004240 0.000000
# 3 -0.004778 -0.003500 0.009911 0.000000 -0.003080 0.000000
# 4 0.000000 0.000000 0.000000 0.065048 0.000000 -0.004069
# 5 0.006816 0.004240 -0.003080 0.000000 0.054636 0.000000
# 6 0.000000 0.000000 0.000000 -0.004069 0.000000 0.051494
#
#
# Mechanical properties :
#
#
# Convention : Reuss Voigt Hill
#
# Bulk Modulus (GPa) = 35.23479 53.76039 44.49759
# Shear Modulus (GPa) = 18.87695 22.41456 20.64575
#
# Velocity S-wave (km/s) = 3.21557 3.50395 3.36285
# Velocity P-wave (km/s) = 5.75209 6.76887 6.28109
#
# Compressibility (1/GPa) = 0.02838104
#
# Stress axis : x y z
#
# Youngs Moduli (GPa) = 67.86044 31.58535 100.89369
#
# Poissons Ratio (x) = 0.17956 0.48212
# Poissons Ratio (y) = 0.38578 0.35312
# Poissons Ratio (z) = 0.32427 0.11055
#
# Static dielectric constant tensor:
#      x y z
#    x 3.274170 0.000000 -0.215570 
#    y 0.000000 3.040840 0.000000 
#    z -0.215570 0.000000 4.511340 
# 
# 
# High freq. dielectric constant tensor:
#      x y z
#    x 1.698940 0.000000 -0.011440 
#    y 0.000000 1.674990 0.000000 
#    z -0.011440 0.000000 1.714440 
# 
# From -- ./inp_files/244259.got.cif
#   From: 2010.06.25/outbox.cif.g09.slc.cpg/sg12_123_cif.got.tgz:244259.got - 2010.06.28 00:19:55.
