data_PCOD8089121
_publ_section_title
;
Structure prediction by ZEFSAII (Michael W. Deem and Ramdas Pophale) SiO2 
 PCOD8089121
Probable space group: C 2/M
;
_chemical_formula_sum "Si O2"
_cell_formula_units_Z 64
_cell_length_a 14.510125
_cell_length_b 27.762456
_cell_length_c 14.055090
_cell_angle_alpha 90.000000
_cell_angle_beta 139.097268
_cell_angle_gamma 90.000000
_cell_volume 3707.285109
_symmetry_space_group_name_H-M "C 2/M"
_symmetry_group_IT_number 12
_symmetry_cell_setting 'monoclinic'
loop_
_space_group_symop_operation_xyz
x,y,z
-x,y,-z
-x,-y,-z
x,-y,z
1/2+x,1/2+y,z
1/2-x,1/2+y,-z
1/2-x,1/2-y,-z
1/2+x,1/2-y,z
loop_
_atom_site_type_symbol
_atom_site_label
_atom_site_fract_x
_atom_site_fract_y
_atom_site_fract_z
Si Si1 0.156851 0.553058 0.244712
Si Si2 0.157770 0.358843 0.371901
Si Si3 0.353218 0.782241 0.924242
Si Si4 0.331132 0.854536 0.069399
Si Si5 0.651954 0.326312 0.102517
Si Si6 0.825976 0.553402 0.953951
Si Si7 0.151507 0.786897 0.591133
Si Si8 0.855726 0.677784 0.434344
O O1 0.207130 0.500000 0.316946
O O2 0.206232 0.590044 0.365119
O O3 0.221145 0.565924 0.191136
O O4 0.991890 0.553057 0.098178
O O5 0.262883 0.318349 0.416429
O O6 0.172181 0.356563 0.496925
O O7 0.997258 0.350396 0.216795
O O8 0.376662 0.726239 0.965798
O O9 0.233721 0.785138 0.753182
O O10 0.500000 0.805431 0.000000
O O11 0.296935 0.810182 0.972814
O O12 0.249341 0.853855 0.104371
O O13 0.270793 0.903949 0.977490
O O14 0.725857 0.327132 0.262007
O O15 0.500000 0.351457 0.000000
O O16 0.767120 0.500000 0.935718
O O17 0.129562 0.734185 0.526194
O O18 0.000000 0.809378 0.500000
O O19 0.000000 0.659406 0.500000
#
# Coordination Sequence:
#
# PCOD8089121 Si02
#       8
#     8   8   8   8   8   8   8   8
#     4   8  15  28  48  77 106 127 155 206 259 303
#     4  11  19  31  54  75  98 138 175 203 249 309
#     4  10  19  33  51  74 103 132 169 210 254 300
#     4  11  19  30  54  76  99 135 175 206 250 306
#     4  10  22  36  49  71 103 137 174 217 248 284
#     4   8  15  27  47  77 107 127 155 205 259 305
#     4  10  21  33  48  73 105 133 167 212 252 300
#     4  10  20  36  50  68 101 141 178 210 246 290
#
# _framework density 17.263306
#
# number of rings (size 3 to 8) (size 9 to 14) (size 15 to 20)
#    0.000    2.250    2.500    2.250    1.750    1.000 
#    0.000    0.000    0.000    1.875    0.000    1.750 
#    0.000    0.000    0.000    0.000    0.000    0.000 
#
# Total GULP energy -396594.876289 kJ/mol
# GULP energy per Si atom -12393.589884 kJ/mol
# Density = 1.722401 g / cm^3
# Si number density = 17.263306 Si / 1000 Ang^3
#
#
#
# Elastic Constant Matrix: (Units=GPa)
#
#
# Indices 1 2 3 4 5 6 
#
# 1 101.4006 48.0551 35.5413 0.0000 -7.1242 0.0000
# 2 48.0551 86.3198 31.2923 0.0000 -19.8775 0.0000
# 3 35.5413 31.2923 65.9359 0.0000 -3.2757 0.0000
# 4 0.0000 0.0000 0.0000 71.3391 0.0000 -47.8052
# 5 -7.1242 -19.8775 -3.2757 0.0000 34.3923 0.0000
# 6 0.0000 0.0000 0.0000 -47.8052 0.0000 50.6419
#
#
#
# Elastic Compliance Matrix: (Units=1/GPa)
#
#
# Indices 1 2 3 4 5 6 
#
# 1 0.014620 -0.006715 -0.004759 0.000000 -0.001306 0.000000
# 2 -0.006715 0.019302 -0.005080 0.000000 0.009281 0.000000
# 3 -0.004759 -0.005080 0.020042 0.000000 -0.002013 0.000000
# 4 0.000000 0.000000 0.000000 0.038151 0.000000 0.036014
# 5 -0.001306 0.009281 -0.002013 0.000000 0.033978 0.000000
# 6 0.000000 0.000000 0.000000 0.036014 0.000000 0.053743
#
#
# Mechanical properties :
#
#
# Convention : Reuss Voigt Hill
#
# Bulk Modulus (GPa) = 47.94478 53.71486 50.82982
# Shear Modulus (GPa) = 22.73800 40.52583 31.63192
#
# Velocity S-wave (km/s) = 3.63316 4.85037 4.28521
# Velocity P-wave (km/s) = 6.74038 7.90890 7.34791
#
# Compressibility (1/GPa) = 0.02085733
#
# Stress axis : x y z
#
# Youngs Moduli (GPa) = 68.39768 51.80893 49.89457
#
# Poissons Ratio (x) = 0.34789 0.23744
# Poissons Ratio (y) = 0.45927 0.25346
# Poissons Ratio (z) = 0.32550 0.26318
#
# Static dielectric constant tensor:
#      x y z
#    x 3.161270 0.000000 -0.060410 
#    y 0.000000 3.396630 0.000000 
#    z -0.060410 0.000000 3.085970 
# 
# 
# High freq. dielectric constant tensor:
#      x y z
#    x 1.656390 0.000000 -0.008670 
#    y 0.000000 1.646080 0.000000 
#    z -0.008670 0.000000 1.653200 
# 
# From -- ./inp_files/218945.got.cif
#   From: 2010.06.25/outbox.cif.g09.slc.cpg/sg12_110_cif.got.tgz:218945.got - 2010.06.28 00:19:55.
