data_PCOD8089927
_publ_section_title
;
Structure prediction by ZEFSAII (Michael W. Deem and Ramdas Pophale) SiO2 
 PCOD8089927
Probable space group: C 2/M
;
_chemical_formula_sum "Si O2"
_cell_formula_units_Z 36
_cell_length_a 13.666105
_cell_length_b 24.832219
_cell_length_c 5.072331
_cell_angle_alpha 90.000000
_cell_angle_beta 102.291405
_cell_angle_gamma 90.000000
_cell_volume 1681.887298
_symmetry_space_group_name_H-M "C 2/M"
_symmetry_group_IT_number 12
_symmetry_cell_setting 'monoclinic'
loop_
_space_group_symop_operation_xyz
x,y,z
-x,y,-z
-x,-y,-z
x,-y,z
1/2+x,1/2+y,z
1/2-x,1/2+y,-z
1/2-x,1/2-y,-z
1/2+x,1/2-y,z
loop_
_atom_site_type_symbol
_atom_site_label
_atom_site_fract_x
_atom_site_fract_y
_atom_site_fract_z
Si Si1 0.315416 0.610085 0.093130
Si Si2 0.623587 0.790458 0.476140
Si Si3 0.570704 0.500000 0.794548
Si Si4 0.159398 0.177922 0.374058
Si Si5 0.098660 0.643237 0.948657
O O1 0.356387 0.550621 0.147716
O O2 0.332724 0.637108 0.382198
O O3 0.375815 0.643248 0.901254
O O4 0.195801 0.605939 0.949611
O O5 0.736286 0.794690 0.654886
O O6 0.588324 0.728059 0.419881
O O7 0.561084 0.821804 0.671305
O O8 0.626802 0.815389 0.190869
O O9 0.500000 0.500000 0.500000
O O10 0.500000 0.500000 0.000000
O O11 0.000000 0.610306 0.000000
#
# Coordination Sequence:
#
# PCOD8089927 Si02
#       5
#     8   8   4   8   8
#     4  10  21  38  60  81 109 147 188 237 289 331
#     4   9  17  30  52  81 117 155 184 213 259 324
#     4  12  26  46  65  82 105 140 194 254 302 334
#     4   9  17  33  56  81 111 149 187 224 269 326
#     4  10  19  33  54  85 120 152 181 216 272 344
#
# _framework density 21.404525
#
# number of rings (size 3 to 8) (size 9 to 14) (size 15 to 20)
#    0.000    2.222    0.000    3.333    0.000    5.333 
#    0.000   11.667    0.000    0.000    0.000   10.889 
#    0.000    0.000    0.000    0.000    0.000    0.000 
#
# Total GULP energy -223006.040674 kJ/mol
# GULP energy per Si atom -12389.224482 kJ/mol
# Density = 2.135581 g / cm^3
# Si number density = 21.404525 Si / 1000 Ang^3
#
#
#
# Elastic Constant Matrix: (Units=GPa)
#
#
# Indices 1 2 3 4 5 6 
#
# 1 98.9945 57.3811 44.2223 0.0000 -8.3774 0.0000
# 2 57.3811 143.9329 51.6287 0.0000 -1.7732 0.0000
# 3 44.2223 51.6287 116.5153 0.0000 -20.7405 0.0000
# 4 0.0000 0.0000 0.0000 28.0894 0.0000 -1.0619
# 5 -8.3774 -1.7732 -20.7405 0.0000 31.9587 0.0000
# 6 0.0000 0.0000 0.0000 -1.0619 0.0000 8.5566
#
#
#
# Elastic Compliance Matrix: (Units=1/GPa)
#
#
# Indices 1 2 3 4 5 6 
#
# 1 0.014259 -0.004539 -0.003143 0.000000 0.001446 0.000000
# 2 -0.004539 0.009841 -0.003112 0.000000 -0.002663 0.000000
# 3 -0.003143 -0.003112 0.012411 0.000000 0.007058 0.000000
# 4 0.000000 0.000000 0.000000 0.035768 0.000000 0.004439
# 5 0.001446 -0.002663 0.007058 0.000000 0.036102 0.000000
# 6 0.000000 0.000000 0.000000 0.004439 0.000000 0.117420
#
#
# Mechanical properties :
#
#
# Convention : Reuss Voigt Hill
#
# Bulk Modulus (GPa) = 67.01431 73.98966 70.50199
# Shear Modulus (GPa) = 19.81270 27.46831 23.64051
#
# Velocity S-wave (km/s) = 3.04572 3.58620 3.32695
# Velocity P-wave (km/s) = 6.61400 7.19653 6.91141
#
# Compressibility (1/GPa) = 0.01492219
#
# Stress axis : x y z
#
# Youngs Moduli (GPa) = 70.12991 101.61828 80.57611
#
# Poissons Ratio (x) = 0.46129 0.25326
# Poissons Ratio (y) = 0.31835 0.25073
# Poissons Ratio (z) = 0.22042 0.31620
#
# Static dielectric constant tensor:
#      x y z
#    x 4.397750 0.000000 0.013560 
#    y 0.000000 3.406760 0.000000 
#    z 0.013560 0.000000 4.070570 
# 
# 
# High freq. dielectric constant tensor:
#      x y z
#    x 1.853900 0.000000 -0.007820 
#    y 0.000000 1.793840 0.000000 
#    z -0.007820 0.000000 1.863280 
# 
# From -- ./inp_files/11444.got.cif
#   From: 2010.06.25/outbox.cif.g09.slc.cpg/sg12_6_cif.got.tgz:11444.got - 2010.06.28 00:19:55.
