data_PCOD8089620
_publ_section_title
;
Structure prediction by ZEFSAII (Michael W. Deem and Ramdas Pophale) SiO2 
 PCOD8089620
Probable space group: C 2/M
;
_chemical_formula_sum "Si O2"
_cell_formula_units_Z 56
_cell_length_a 19.681816
_cell_length_b 9.020925
_cell_length_c 20.948189
_cell_angle_alpha 90.000000
_cell_angle_beta 54.981642
_cell_angle_gamma 90.000000
_cell_volume 3045.999127
_symmetry_space_group_name_H-M "C 2/M"
_symmetry_group_IT_number 12
_symmetry_cell_setting 'monoclinic'
loop_
_space_group_symop_operation_xyz
x,y,z
-x,y,-z
-x,-y,-z
x,-y,z
1/2+x,1/2+y,z
1/2-x,1/2+y,-z
1/2-x,1/2-y,-z
1/2+x,1/2-y,z
loop_
_atom_site_type_symbol
_atom_site_label
_atom_site_fract_x
_atom_site_fract_y
_atom_site_fract_z
Si Si1 0.834894 0.825666 0.970493
Si Si2 0.354717 0.323788 0.228809
Si Si3 0.959527 0.825581 0.664500
Si Si4 0.573464 0.166287 0.510659
Si Si5 0.910070 0.825669 0.062080
Si Si6 0.975480 0.824753 0.800074
Si Si7 0.183916 0.825027 0.355385
O O1 0.907990 0.760276 0.886192
O O2 0.826936 0.000000 0.964348
O O3 0.750000 0.750000 0.000000
O O4 0.851161 0.785100 0.035173
O O5 0.341036 0.500000 0.238674
O O6 0.370763 0.264269 0.148423
O O7 0.432325 0.272037 0.230435
O O8 0.273645 0.243546 0.297673
O O9 0.875625 0.781364 0.672056
O O10 0.040328 0.745191 0.592257
O O11 0.951488 0.771482 0.741909
O O12 0.975755 0.000000 0.650797
O O13 0.500000 0.162480 0.500000
O O14 0.648963 0.259472 0.440394
O O15 0.603648 0.000000 0.510774
O O16 0.922208 0.000000 0.064066
O O17 0.000000 0.753709 0.000000
O O18 0.972984 0.000000 0.806369
O O19 0.190748 0.000000 0.358901
#
# Coordination Sequence:
#
# PCOD8089620 Si02
#       7
#     8   8   8   8   8   8   8
#     4  10  20  34  53  77 105 136 173 216 259 303
#     4  10  19  33  54  76 101 135 178 219 251 294
#     4   9  18  33  53  76 103 136 170 206 256 311
#     4   9  17  32  54  79 104 131 168 212 254 298
#     4   9  16  31  54  76  98 134 180 217 250 295
#     4   9  18  34  54  74 101 139 176 210 253 306
#     4  10  20  33  52  78 107 136 167 207 256 311
#
# _framework density 18.384772000000002
#
# number of rings (size 3 to 8) (size 9 to 14) (size 15 to 20)
#    0.000    2.571    1.429    0.857    2.000    2.286 
#    0.000    2.857    0.000    0.857    0.000    0.000 
#    0.000    0.000    0.000    0.000    0.000    0.000 
#
# Total GULP energy -347154.461609 kJ/mol
# GULP energy per Si atom -12398.373629 kJ/mol
# Density = 1.834293 g / cm^3
# Si number density = 18.384772 Si / 1000 Ang^3
#
#
#
# Elastic Constant Matrix: (Units=GPa)
#
#
# Indices 1 2 3 4 5 6 
#
# 1 103.5991 33.6609 54.7522 0.0000 -16.7672 -0.0001
# 2 33.6609 47.3000 32.4527 0.0003 -7.7964 -0.0006
# 3 54.7522 32.4527 117.1230 0.0000 -18.7677 0.0000
# 4 0.0000 0.0003 0.0000 25.3183 0.0000 -6.6012
# 5 -16.7672 -7.7964 -18.7677 0.0000 34.5420 0.0000
# 6 -0.0001 -0.0006 0.0000 -6.6012 0.0000 19.8479
#
#
#
# Elastic Compliance Matrix: (Units=1/GPa)
#
#
# Indices 1 2 3 4 5 6 
#
# 1 0.014786 -0.006921 -0.004485 0.000000 0.003178 0.000000
# 2 -0.006921 0.029491 -0.004828 0.000000 0.000673 0.000001
# 3 -0.004485 -0.004828 0.012541 0.000000 0.003547 0.000000
# 4 0.000000 0.000000 0.000000 0.043247 0.000000 0.014384
# 5 0.003178 0.000673 0.003547 0.000000 0.032572 0.000000
# 6 0.000000 0.000001 0.000000 0.014384 0.000000 0.055167
#
#
# Mechanical properties :
#
#
# Convention : Reuss Voigt Hill
#
# Bulk Modulus (GPa) = 41.06956 56.63929 48.85443
# Shear Modulus (GPa) = 21.89243 25.75205 23.82224
#
# Velocity S-wave (km/s) = 3.45453 3.74669 3.60357
# Velocity P-wave (km/s) = 6.18863 7.04212 6.62913
#
# Compressibility (1/GPa) = 0.02434893
#
# Stress axis : x y z
#
# Youngs Moduli (GPa) = 67.63032 33.90901 79.73976
#
# Poissons Ratio (x) = 0.23470 0.35764
# Poissons Ratio (y) = 0.46810 0.38497
# Poissons Ratio (z) = 0.30333 0.16371
#
# Static dielectric constant tensor:
#      x y z
#    x 3.200060 0.000000 -0.223250 
#    y 0.000000 3.123490 0.000000 
#    z -0.223250 0.000000 2.859900 
# 
# 
# High freq. dielectric constant tensor:
#      x y z
#    x 1.703160 0.000000 -0.001210 
#    y 0.000000 1.681130 0.000000 
#    z -0.001210 0.000000 1.726570 
# 
# From -- ./inp_files/319705.got.cif
#   From: 2010.06.25/outbox.cif.g09.slc.cpg/sg12_160_cif.got.tgz:319705.got - 2010.06.28 00:19:55.
