data_PCOD8089819
_publ_section_title
;
Structure prediction by ZEFSAII (Michael W. Deem and Ramdas Pophale) SiO2 
 PCOD8089819
Probable space group: C 2/M
;
_chemical_formula_sum "Si O2"
_cell_formula_units_Z 56
_cell_length_a 27.093576
_cell_length_b 9.096037
_cell_length_c 11.815230
_cell_angle_alpha 90.000000
_cell_angle_beta 103.995248
_cell_angle_gamma 90.000000
_cell_volume 2825.360220
_symmetry_space_group_name_H-M "C 2/M"
_symmetry_group_IT_number 12
_symmetry_cell_setting 'monoclinic'
loop_
_space_group_symop_operation_xyz
x,y,z
-x,y,-z
-x,-y,-z
x,-y,z
1/2+x,1/2+y,z
1/2-x,1/2+y,-z
1/2-x,1/2-y,-z
1/2+x,1/2-y,z
loop_
_atom_site_type_symbol
_atom_site_label
_atom_site_fract_x
_atom_site_fract_y
_atom_site_fract_z
Si Si1 0.804019 0.825630 0.010156
Si Si2 0.899149 0.173809 0.203333
Si Si3 0.498736 0.327956 0.131607
Si Si4 0.613688 0.326310 0.553494
Si Si5 0.320839 0.831700 0.795731
Si Si6 0.912729 0.327459 0.685710
Si Si7 0.227914 0.832308 0.592915
O O1 0.828563 0.777649 0.904409
O O2 0.796202 0.000000 0.007957
O O3 0.750000 0.750000 0.000000
O O4 0.844440 0.770649 0.127002
O O5 0.945242 0.231234 0.151234
O O6 0.909277 0.223908 0.338327
O O7 0.897220 0.000000 0.196052
O O8 0.506808 0.500000 0.161809
O O9 0.543020 0.236442 0.213312
O O10 0.500000 0.294455 0.000000
O O11 0.607918 0.500000 0.531547
O O12 0.584496 0.244807 0.436661
O O13 0.672086 0.274204 0.590664
O O14 0.359195 0.788831 0.715869
O O15 0.263149 0.810179 0.721861
O O16 0.330254 0.000000 0.839501
O O17 0.920279 0.500000 0.675569
O O18 0.250000 0.750000 0.500000
O O19 0.225674 0.000000 0.554650
#
# Coordination Sequence:
#
# PCOD8089819 Si02
#       7
#     8   8   8   8   8   8   8
#     4  11  22  38  61  88 119 153 194 239 289 348
#     4   9  20  39  61  84 114 153 193 240 290 339
#     4  10  21  40  65  88 111 146 197 246 286 343
#     4  10  20  36  59  83 112 153 198 238 284 348
#     4  10  21  37  56  82 119 156 192 240 294 346
#     4  11  23  38  58  86 120 152 187 242 300 345
#     4  10  19  33  54  80 114 153 192 238 286 341
#
# _framework density 19.820481000000001
#
# number of rings (size 3 to 8) (size 9 to 14) (size 15 to 20)
#    0.000    1.857    1.429    2.571    0.000    6.000 
#    0.000    7.857    0.000    0.000    0.000    0.000 
#    0.000    0.000    0.000    0.000    0.000    0.000 
#
# Total GULP energy -347233.319968 kJ/mol
# GULP energy per Si atom -12401.189999 kJ/mol
# Density = 1.977537 g / cm^3
# Si number density = 19.820481 Si / 1000 Ang^3
#
#
#
# Elastic Constant Matrix: (Units=GPa)
#
#
# Indices 1 2 3 4 5 6 
#
# 1 110.1013 36.1426 54.7597 0.0000 -4.9508 0.0000
# 2 36.1426 61.4473 50.8080 0.0000 -1.3213 0.0000
# 3 54.7597 50.8080 135.3202 0.0000 -9.3721 0.0000
# 4 0.0000 0.0000 0.0000 30.6660 0.0000 1.9010
# 5 -4.9508 -1.3213 -9.3721 0.0000 36.8978 0.0000
# 6 0.0000 0.0000 0.0000 1.9010 0.0000 28.6704
#
#
#
# Elastic Compliance Matrix: (Units=1/GPa)
#
#
# Indices 1 2 3 4 5 6 
#
# 1 0.012180 -0.004514 -0.003188 0.000000 0.000663 0.000000
# 2 -0.004514 0.025348 -0.007807 0.000000 -0.001681 0.000000
# 3 -0.003188 -0.007807 0.011769 0.000000 0.002282 0.000000
# 4 0.000000 0.000000 0.000000 0.032744 0.000000 -0.002171
# 5 0.000663 -0.001681 0.002282 0.000000 0.027710 0.000000
# 6 0.000000 0.000000 0.000000 -0.002171 0.000000 0.035023
#
#
# Mechanical properties :
#
#
# Convention : Reuss Voigt Hill
#
# Bulk Modulus (GPa) = 54.70647 65.58772 60.14709
# Shear Modulus (GPa) = 27.48975 30.25742 28.87359
#
# Velocity S-wave (km/s) = 3.72820 3.91138 3.82089
# Velocity P-wave (km/s) = 6.79658 7.31855 7.06239
#
# Compressibility (1/GPa) = 0.01827937
#
# Stress axis : x y z
#
# Youngs Moduli (GPa) = 82.10428 39.45031 84.96572
#
# Poissons Ratio (x) = 0.17806 0.27088
# Poissons Ratio (y) = 0.37058 0.66336
# Poissons Ratio (z) = 0.26176 0.30800
#
# Static dielectric constant tensor:
#      x y z
#    x 3.706100 0.000000 -0.678010 
#    y 0.000000 3.419630 0.000000 
#    z -0.678010 0.000000 0.800120 
# 
# 
# High freq. dielectric constant tensor:
#      x y z
#    x 1.779340 0.000000 -0.001780 
#    y 0.000000 1.751160 0.000000 
#    z -0.001780 0.000000 1.784780 
# 
# From -- ./inp_files/180762.got.cif
#   From: 2010.06.25/outbox.cif.g09.slc.cpg/sg12_91_cif.got.tgz:180762.got - 2010.06.28 00:19:55.
