data_PCOD8089032
_publ_section_title
;
Structure prediction by ZEFSAII (Michael W. Deem and Ramdas Pophale) SiO2 
 PCOD8089032
Probable space group: C 2/M
;
_chemical_formula_sum "Si O2"
_cell_formula_units_Z 64
_cell_length_a 18.729191
_cell_length_b 24.249844
_cell_length_c 16.091339
_cell_angle_alpha 90.000000
_cell_angle_beta 27.834416
_cell_angle_gamma 90.000000
_cell_volume 3412.405830
_symmetry_space_group_name_H-M "C 2/M"
_symmetry_group_IT_number 12
_symmetry_cell_setting 'monoclinic'
loop_
_space_group_symop_operation_xyz
x,y,z
-x,y,-z
-x,-y,-z
x,-y,z
1/2+x,1/2+y,z
1/2-x,1/2+y,-z
1/2-x,1/2-y,-z
1/2+x,1/2-y,z
loop_
_atom_site_type_symbol
_atom_site_label
_atom_site_fract_x
_atom_site_fract_y
_atom_site_fract_z
Si Si1 0.059376 0.634842 0.175719
Si Si2 0.177483 0.747957 0.239571
Si Si3 0.045497 0.646734 0.540522
Si Si4 0.855301 0.196829 0.198404
Si Si5 0.929894 0.062352 0.484003
Si Si6 0.928170 0.436424 0.159975
Si Si7 0.603680 0.653820 0.220958
Si Si8 0.464419 0.258672 0.837700
O O1 0.011438 0.614231 0.318373
O O2 0.983233 0.597718 0.183013
O O3 0.999106 0.697411 0.231350
O O4 0.241101 0.631399 0.979730
O O5 0.272231 0.742003 0.226334
O O6 0.130491 0.812260 0.279560
O O7 0.033154 0.707364 0.382608
O O8 0.288260 0.734960 0.047595
O O9 0.230579 0.650911 0.352590
O O10 0.000000 0.616030 0.500000
O O11 0.912588 0.229905 0.218220
O O12 0.000000 0.169602 0.000000
O O13 0.750438 0.070527 0.668730
O O14 0.000000 0.079139 0.500000
O O15 0.999902 0.100800 0.341166
O O16 0.975856 0.000000 0.414223
O O17 0.976092 0.500000 0.125124
O O18 0.000000 0.413868 0.000000
O O19 0.510576 0.696077 0.258781
#
# Coordination Sequence:
#
# PCOD8089032 Si02
#       8
#     8   8   8   8   8   8   8   8
#     4  11  21  35  58  84 115 152 189 237 290 344
#     4   9  17  35  49  72 109 153 184 224 282 337
#     4  10  19  33  51  75 112 149 188 226 274 335
#     4   9  20  31  48  70 109 153 190 226 270 339
#     4  10  23  41  59  82 111 148 195 240 288 344
#     4  10  23  43  63  85 115 150 194 245 290 339
#     4  11  20  34  58  79 115 149 186 239 290 343
#     4  10  19  33  49  80 117 145 185 235 284 343
#
# _framework density 18.755096000000002
#
# number of rings (size 3 to 8) (size 9 to 14) (size 15 to 20)
#    0.000    2.000    2.500    1.500    1.750    8.000 
#    0.000    0.000    0.000    0.375    0.000    0.000 
#    0.000    7.000    0.000    0.000    0.000    0.000 
#
# Total GULP energy -396667.361800 kJ/mol
# GULP energy per Si atom -12395.855056 kJ/mol
# Density = 1.871241 g / cm^3
# Si number density = 18.755096 Si / 1000 Ang^3
#
#
#
# Elastic Constant Matrix: (Units=GPa)
#
#
# Indices 1 2 3 4 5 6 
#
# 1 115.5983 46.5215 51.4732 -0.0169 15.5089 0.0306
# 2 46.5215 75.8674 38.9657 -0.0392 11.0074 0.0230
# 3 51.4732 38.9657 97.8542 -0.0358 7.6509 0.0405
# 4 -0.0169 -0.0392 -0.0358 21.3765 0.0228 0.6448
# 5 15.5089 11.0074 7.6509 0.0228 31.8543 -0.0320
# 6 0.0306 0.0230 0.0405 0.6448 -0.0320 24.8436
#
#
#
# Elastic Compliance Matrix: (Units=1/GPa)
#
#
# Indices 1 2 3 4 5 6 
#
# 1 0.013306 -0.005270 -0.004623 -0.000003 -0.003547 -0.000008
# 2 -0.005270 0.019233 -0.004655 0.000027 -0.002962 -0.000008
# 3 -0.004623 -0.004655 0.014475 0.000012 0.000383 -0.000013
# 4 -0.000003 0.000027 0.000012 0.046817 -0.000045 -0.001215
# 5 -0.003547 -0.002962 0.000383 -0.000045 0.034051 0.000051
# 6 -0.000008 -0.000008 -0.000013 -0.001215 0.000051 0.040283
#
#
# Mechanical properties :
#
#
# Convention : Reuss Voigt Hill
#
# Bulk Modulus (GPa) = 55.81161 62.58231 59.19696
# Shear Modulus (GPa) = 24.60206 25.77219 25.18712
#
# Velocity S-wave (km/s) = 3.62574 3.71097 3.66860
# Velocity P-wave (km/s) = 6.88119 7.19738 7.04106
#
# Compressibility (1/GPa) = 0.01791742
#
# Stress axis : x y z
#
# Youngs Moduli (GPa) = 75.15383 51.99402 69.08489
#
# Poissons Ratio (x) = 0.27401 0.31941
# Poissons Ratio (y) = 0.39606 0.32158
# Poissons Ratio (z) = 0.34747 0.24203
#
# Static dielectric constant tensor:
#      x y z
#    x 3.670830 -0.000130 0.122070 
#    y -0.000130 3.090870 0.000160 
#    z 0.122070 0.000160 3.656980 
# 
# 
# High freq. dielectric constant tensor:
#      x y z
#    x 1.741670 -0.000010 -0.000320 
#    y -0.000010 1.675550 0.000010 
#    z -0.000320 0.000010 1.740930 
# 
# From -- ./inp_files/228131.got.cif
#   From: 2010.06.25/outbox.cif.g09.slc.cpg/sg12_115_cif.got.tgz:228131.got - 2010.06.28 00:19:55.
