data_PCOD8089869
_publ_section_title
;
Structure prediction by ZEFSAII (Michael W. Deem and Ramdas Pophale) SiO2 
 PCOD8089869
Probable space group: C 2/M
;
_chemical_formula_sum "Si O2"
_cell_formula_units_Z 48
_cell_length_a 29.618224
_cell_length_b 8.981416
_cell_length_c 19.338230
_cell_angle_alpha 90.000000
_cell_angle_beta 148.772263
_cell_angle_gamma 90.000000
_cell_volume 2666.980950
_symmetry_space_group_name_H-M "C 2/M"
_symmetry_group_IT_number 12
_symmetry_cell_setting 'monoclinic'
loop_
_space_group_symop_operation_xyz
x,y,z
-x,y,-z
-x,-y,-z
x,-y,z
1/2+x,1/2+y,z
1/2-x,1/2+y,-z
1/2-x,1/2-y,-z
1/2+x,1/2-y,z
loop_
_atom_site_type_symbol
_atom_site_label
_atom_site_fract_x
_atom_site_fract_y
_atom_site_fract_z
Si Si1 0.002665 0.827122 0.583865
Si Si2 0.842771 0.825821 0.113752
Si Si3 0.617970 0.170740 0.470989
Si Si4 0.961775 0.328772 0.163555
Si Si5 0.036388 0.323050 0.118895
Si Si6 0.729852 0.176516 0.401238
O O1 0.927027 0.729829 0.518676
O O2 0.000000 0.786608 0.500000
O O3 0.096215 0.786038 0.740316
O O4 0.982106 0.000000 0.570073
O O5 0.887720 0.769824 0.102215
O O6 0.827502 0.000000 0.087377
O O7 0.750000 0.750000 0.000000
O O8 0.553856 0.189296 0.322247
O O9 0.703619 0.267835 0.569943
O O10 0.644759 0.000000 0.516945
O O11 0.930742 0.500000 0.124803
O O12 0.976660 0.269568 0.105018
O O13 0.034242 0.500000 0.114956
O O14 0.134853 0.267669 0.254667
O O15 0.000000 0.254927 0.000000
O O16 0.750000 0.250000 0.500000
O O17 0.735600 0.000000 0.416216
#
# Coordination Sequence:
#
# PCOD8089869 Si02
#       6
#     8   8   8   8   8   8
#     4   9  19  37  58  80 106 137 177 221 264 311
#     4  10  20  35  56  80 104 136 176 217 262 313
#     4  10  19  33  54  82 109 138 176 216 266 317
#     4   9  17  33  55  77 103 137 177 216 257 308
#     4   9  18  34  54  77 105 139 178 217 259 305
#     4  11  20  33  55  81 107 138 179 221 261 311
#
# _framework density 17.997878
#
# number of rings (size 3 to 8) (size 9 to 14) (size 15 to 20)
#    0.000    2.333    1.667    1.500    0.000    1.667 
#    3.000    0.000    0.000    3.500    0.000    0.000 
#    0.000    0.000    0.000    0.000    0.000    0.000 
#
# Total GULP energy -297620.395411 kJ/mol
# GULP energy per Si atom -12400.849809 kJ/mol
# Density = 1.795691 g / cm^3
# Si number density = 17.997878 Si / 1000 Ang^3
#
#
#
# Elastic Constant Matrix: (Units=GPa)
#
#
# Indices 1 2 3 4 5 6 
#
# 1 151.2783 57.7977 88.0220 0.0000 -1.0606 0.0000
# 2 57.7977 75.6308 46.6589 0.0000 7.9896 0.0000
# 3 88.0220 46.6589 116.6320 0.0000 2.1033 0.0000
# 4 0.0000 0.0000 0.0000 23.1607 0.0000 4.7676
# 5 -1.0606 7.9896 2.1033 0.0000 36.9370 0.0000
# 6 0.0000 0.0000 0.0000 4.7676 0.0000 35.6506
#
#
#
# Elastic Compliance Matrix: (Units=1/GPa)
#
#
# Indices 1 2 3 4 5 6 
#
# 1 0.013323 -0.005537 -0.007876 0.000000 0.002029 0.000000
# 2 -0.005537 0.020293 -0.003862 0.000000 -0.004328 0.000000
# 3 -0.007876 -0.003862 0.016069 0.000000 -0.000306 0.000000
# 4 0.000000 0.000000 0.000000 0.044399 0.000000 -0.005938
# 5 0.002029 -0.004328 -0.000306 0.000000 0.028085 0.000000
# 6 0.000000 0.000000 0.000000 -0.005938 0.000000 0.028844
#
#
# Mechanical properties :
#
#
# Convention : Reuss Voigt Hill
#
# Bulk Modulus (GPa) = 66.07174 80.94422 73.50798
# Shear Modulus (GPa) = 26.23206 29.22049 27.72627
#
# Velocity S-wave (km/s) = 3.82187 4.03370 3.92922
# Velocity P-wave (km/s) = 7.50108 8.17106 7.84323
#
# Compressibility (1/GPa) = 0.01513506
#
# Stress axis : x y z
#
# Youngs Moduli (GPa) = 75.05967 49.27839 62.23294
#
# Poissons Ratio (x) = 0.27283 0.49017
# Poissons Ratio (y) = 0.41557 0.24033
# Poissons Ratio (z) = 0.59120 0.19030
#
# Static dielectric constant tensor:
#      x y z
#    x 3.655170 0.000000 0.160630 
#    y 0.000000 3.280250 0.000000 
#    z 0.160630 0.000000 3.537230 
# 
# 
# High freq. dielectric constant tensor:
#      x y z
#    x 1.707560 0.000000 0.004130 
#    y 0.000000 1.688150 0.000000 
#    z 0.004130 0.000000 1.683210 
# 
# From -- ./inp_files/229933.got.cif
#   From: 2010.06.25/outbox.cif.g09.slc.cpg/sg12_115_cif.got.tgz:229933.got - 2010.06.28 00:19:55.
