data_PCOD8089399
_publ_section_title
;
Structure prediction by ZEFSAII (Michael W. Deem and Ramdas Pophale) SiO2 
 PCOD8089399
Probable space group: C 2/M
;
_chemical_formula_sum "Si O2"
_cell_formula_units_Z 64
_cell_length_a 19.519622
_cell_length_b 8.650036
_cell_length_c 25.427049
_cell_angle_alpha 90.000000
_cell_angle_beta 54.701599
_cell_angle_gamma 90.000000
_cell_volume 3503.944678
_symmetry_space_group_name_H-M "C 2/M"
_symmetry_group_IT_number 12
_symmetry_cell_setting 'monoclinic'
loop_
_space_group_symop_operation_xyz
x,y,z
-x,y,-z
-x,-y,-z
x,-y,z
1/2+x,1/2+y,z
1/2-x,1/2+y,-z
1/2-x,1/2-y,-z
1/2+x,1/2-y,z
loop_
_atom_site_type_symbol
_atom_site_label
_atom_site_fract_x
_atom_site_fract_y
_atom_site_fract_z
Si Si1 0.618445 0.178757 0.075046
Si Si2 0.713459 0.320324 0.939984
Si Si3 0.056701 0.821253 0.824879
Si Si4 0.690166 0.331007 0.306253
Si Si5 0.409266 0.314351 0.556074
Si Si6 0.256586 0.683118 0.554480
Si Si7 0.197264 0.684227 0.832965
Si Si8 0.853196 0.329881 0.304971
O O1 0.691879 0.215825 0.084039
O O2 0.540666 0.283868 0.125539
O O3 0.592199 0.000000 0.087698
O O4 0.648396 0.221909 0.003261
O O5 0.692129 0.500000 0.956721
O O6 0.701856 0.272156 0.885348
O O7 0.109702 0.721350 0.843037
O O8 0.082453 0.783590 0.753142
O O9 0.073171 0.000000 0.828996
O O10 0.657434 0.500000 0.304105
O O11 0.616915 0.248920 0.373650
O O12 0.724421 0.250253 0.237592
O O13 0.768549 0.348391 0.309943
O O14 0.500000 0.248076 0.500000
O O15 0.409130 0.500000 0.558790
O O16 0.342782 0.255052 0.542382
O O17 0.258547 0.500000 0.550995
O O18 0.250000 0.750000 0.500000
O O19 0.175067 0.735452 0.625216
O O20 0.202997 0.500000 0.838048
O O21 0.895464 0.500000 0.291402
#
# Coordination Sequence:
#
# PCOD8089399 Si02
#       8
#     8   8   8   8   8   8   8   8
#     4  10  21  38  57  75 102 139 169 197 248 309
#     4  10  21  37  56  78 103 131 168 209 245 291
#     4  11  21  33  53  80 104 126 166 219 257 293
#     4   7  12  24  43  66  91 124 162 196 234 288
#     4   8  13  24  44  68  93 122 159 201 241 282
#     4   9  17  29  47  70  97 129 164 203 248 299
#     4  10  19  33  53  75 103 136 169 205 252 306
#     4   8  15  30  48  66  94 133 169 199 245 305
#
# _framework density 18.265129000000002
#
# number of rings (size 3 to 8) (size 9 to 14) (size 15 to 20)
#    0.000    2.875    0.000    4.500    0.000    2.500 
#    0.000    3.750    0.000    1.875    0.000    0.000 
#    0.000    0.000    0.000    0.000    0.000    0.000 
#
# Total GULP energy -396509.525778 kJ/mol
# GULP energy per Si atom -12390.922681 kJ/mol
# Density = 1.822356 g / cm^3
# Si number density = 18.265129 Si / 1000 Ang^3
#
#
#
# Elastic Constant Matrix: (Units=GPa)
#
#
# Indices 1 2 3 4 5 6 
#
# 1 57.4633 12.3031 54.0470 -0.0006 -0.7834 -0.0014
# 2 12.3031 35.5799 17.8157 -0.0019 -2.8004 -0.0015
# 3 54.0470 17.8157 136.0980 0.0001 -0.2876 0.0001
# 4 -0.0006 -0.0019 0.0001 24.5377 -0.0001 4.6837
# 5 -0.7834 -2.8004 -0.2876 -0.0001 31.6822 -0.0007
# 6 -0.0014 -0.0015 0.0001 4.6837 -0.0007 21.0369
#
#
#
# Elastic Compliance Matrix: (Units=1/GPa)
#
#
# Indices 1 2 3 4 5 6 
#
# 1 0.028428 -0.004453 -0.010706 0.000000 0.000212 0.000002
# 2 -0.004453 0.030994 -0.002283 0.000002 0.002609 0.000002
# 3 -0.010706 -0.002283 0.011897 0.000000 -0.000359 -0.000001
# 4 0.000000 0.000002 0.000000 0.042562 0.000000 -0.009476
# 5 0.000212 0.002609 -0.000359 0.000000 0.031796 0.000001
# 6 0.000002 0.000002 -0.000001 -0.009476 0.000001 0.049645
#
#
# Mechanical properties :
#
#
# Convention : Reuss Voigt Hill
#
# Bulk Modulus (GPa) = 27.44589 44.16366 35.80477
# Shear Modulus (GPa) = 20.63106 25.11638 22.87372
#
# Velocity S-wave (km/s) = 3.36450 3.71226 3.54265
# Velocity P-wave (km/s) = 5.49110 6.52734 6.03151
#
# Compressibility (1/GPa) = 0.03643533
#
# Stress axis : x y z
#
# Youngs Moduli (GPa) = 35.17636 32.26408 84.05220
#
# Poissons Ratio (x) = 0.14366 0.89987
# Poissons Ratio (y) = 0.15663 0.19193
# Poissons Ratio (z) = 0.37660 0.07367
#
# Static dielectric constant tensor:
#      x y z
#    x 3.375410 0.000000 0.329770 
#    y 0.000000 3.107900 0.000000 
#    z 0.329770 0.000000 4.319470 
# 
# 
# High freq. dielectric constant tensor:
#      x y z
#    x 1.672240 0.000000 -0.000820 
#    y 0.000000 1.684210 0.000000 
#    z -0.000820 0.000000 1.730140 
# 
# From -- ./inp_files/345948.got.cif
#   From: 2010.06.25/outbox.cif.g09.slc.cpg/sg12_173_cif.got.tgz:345948.got - 2010.06.28 00:19:55.
