data_PCOD8089239
_publ_section_title
;
Structure prediction by ZEFSAII (Michael W. Deem and Ramdas Pophale) SiO2 
 PCOD8089239
Probable space group: C 2/M
;
_chemical_formula_sum "Si O2"
_cell_formula_units_Z 64
_cell_length_a 20.803787
_cell_length_b 9.143252
_cell_length_c 20.276219
_cell_angle_alpha 90.000000
_cell_angle_beta 66.719383
_cell_angle_gamma 90.000000
_cell_volume 3542.803895
_symmetry_space_group_name_H-M "C 2/M"
_symmetry_group_IT_number 12
_symmetry_cell_setting 'monoclinic'
loop_
_space_group_symop_operation_xyz
x,y,z
-x,y,-z
-x,-y,-z
x,-y,z
1/2+x,1/2+y,z
1/2-x,1/2+y,-z
1/2-x,1/2-y,-z
1/2+x,1/2-y,z
loop_
_atom_site_type_symbol
_atom_site_label
_atom_site_fract_x
_atom_site_fract_y
_atom_site_fract_z
Si Si1 0.207508 0.326843 0.279304
Si Si2 0.580930 0.831043 0.956032
Si Si3 0.657186 0.168389 0.580801
Si Si4 0.322729 0.171018 0.959295
Si Si5 0.134771 0.826336 0.806997
Si Si6 0.046985 0.329381 0.730642
Si Si7 0.110776 0.674077 0.203453
Si Si8 0.709863 0.171222 0.422819
O O1 0.205875 0.500000 0.273016
O O2 0.286081 0.270228 0.235322
O O3 0.155643 0.258720 0.245757
O O4 0.181413 0.276706 0.362925
O O5 0.609647 0.726680 0.888048
O O6 0.591204 0.000000 0.931372
O O7 0.500000 0.795219 0.000000
O O8 0.622714 0.792716 0.005313
O O9 0.582204 0.197484 0.644646
O O10 0.655721 0.213364 0.503562
O O11 0.714759 0.259395 0.596072
O O12 0.679162 0.000000 0.578336
O O13 0.356284 0.230813 0.878061
O O14 0.307233 0.000000 0.960682
O O15 0.250000 0.250000 0.000000
O O16 0.086614 0.758978 0.770401
O O17 0.129379 0.000000 0.805527
O O18 0.048650 0.500000 0.749496
O O19 0.968377 0.268617 0.757825
O O20 0.111072 0.500000 0.205515
O O21 0.723758 0.000000 0.414591
#
# Coordination Sequence:
#
# PCOD8089239 Si02
#       8
#     8   8   8   8   8   8   8   8
#     4   9  17  30  49  74 101 132 168 206 248 295
#     4  10  21  37  55  75 100 133 170 209 255 305
#     4   9  17  28  47  75 102 131 167 208 249 291
#     4  10  20  35  55  75  98 132 171 209 253 303
#     4  11  21  33  53  78 101 129 167 212 258 301
#     4  10  19  33  52  75 103 135 171 208 250 304
#     4   9  18  33  52  72  99 135 168 201 249 306
#     4   9  16  29  48  72 103 134 167 206 248 293
#
# _framework density 18.064786999999999
#
# number of rings (size 3 to 8) (size 9 to 14) (size 15 to 20)
#    0.000    2.375    1.250    1.875    0.000    3.750 
#    0.000    2.500    0.000    6.000    0.000    0.000 
#    0.000    5.000    0.000    0.000    0.000    0.000 
#
# Total GULP energy -396734.016195 kJ/mol
# GULP energy per Si atom -12397.938006 kJ/mol
# Density = 1.802367 g / cm^3
# Si number density = 18.064787 Si / 1000 Ang^3
#
#
#
# Elastic Constant Matrix: (Units=GPa)
#
#
# Indices 1 2 3 4 5 6 
#
# 1 164.2666 35.0367 96.1529 0.0000 4.2973 -0.0001
# 2 35.0367 33.3840 37.0982 -0.0001 1.7660 -0.0002
# 3 96.1529 37.0982 171.5387 0.0000 6.2719 -0.0001
# 4 0.0000 -0.0001 0.0000 20.7858 0.0000 -3.3589
# 5 4.2973 1.7660 6.2719 0.0000 29.1327 0.0000
# 6 -0.0001 -0.0002 -0.0001 -3.3589 0.0000 20.4128
#
#
#
# Elastic Compliance Matrix: (Units=1/GPa)
#
#
# Indices 1 2 3 4 5 6 
#
# 1 0.009769 -0.005483 -0.004283 0.000000 -0.000187 0.000000
# 2 -0.005483 0.042517 -0.006105 0.000000 -0.000454 0.000001
# 3 -0.004283 -0.006105 0.009590 0.000000 -0.001063 0.000000
# 4 0.000000 0.000000 0.000000 0.049424 0.000000 0.008133
# 5 -0.000187 -0.000454 -0.001063 0.000000 0.034609 0.000000
# 6 0.000000 0.000001 0.000000 0.008133 0.000000 0.050327
#
#
# Mechanical properties :
#
#
# Convention : Reuss Voigt Hill
#
# Bulk Modulus (GPa) = 33.18587 78.41834 55.80210
# Shear Modulus (GPa) = 21.00623 27.45969 24.23296
#
# Velocity S-wave (km/s) = 3.41372 3.90303 3.66655
# Velocity P-wave (km/s) = 5.82652 7.98845 6.99155
#
# Compressibility (1/GPa) = 0.03013331
#
# Stress axis : x y z
#
# Youngs Moduli (GPa) = 102.36141 23.51978 104.27838
#
# Poissons Ratio (x) = 0.12896 0.44666
# Poissons Ratio (y) = 0.56127 0.63662
# Poissons Ratio (z) = 0.43845 0.14359
#
# Static dielectric constant tensor:
#      x y z
#    x 3.479920 0.000000 0.108230 
#    y 0.000000 3.091210 0.000000 
#    z 0.108230 0.000000 3.774450 
# 
# 
# High freq. dielectric constant tensor:
#      x y z
#    x 1.692640 0.000000 0.005040 
#    y 0.000000 1.669630 0.000000 
#    z 0.005040 0.000000 1.720730 
# 
# From -- ./inp_files/319947.got.cif
#   From: 2010.06.25/outbox.cif.g09.slc.cpg/sg12_160_cif.got.tgz:319947.got - 2010.06.28 00:19:55.
