data_PCOD8089152
_publ_section_title
;
Structure prediction by ZEFSAII (Michael W. Deem and Ramdas Pophale) SiO2 
 PCOD8089152
Probable space group: C 2/M
;
_chemical_formula_sum "Si O2"
_cell_formula_units_Z 64
_cell_length_a 13.490389
_cell_length_b 17.545319
_cell_length_c 15.184742
_cell_angle_alpha 90.000000
_cell_angle_beta 70.528064
_cell_angle_gamma 90.000000
_cell_volume 3388.558445
_symmetry_space_group_name_H-M "C 2/M"
_symmetry_group_IT_number 12
_symmetry_cell_setting 'monoclinic'
loop_
_space_group_symop_operation_xyz
x,y,z
-x,y,-z
-x,-y,-z
x,-y,z
1/2+x,1/2+y,z
1/2-x,1/2+y,-z
1/2-x,1/2-y,-z
1/2+x,1/2-y,z
loop_
_atom_site_type_symbol
_atom_site_label
_atom_site_fract_x
_atom_site_fract_y
_atom_site_fract_z
Si Si1 0.818875 0.711282 0.904880
Si Si2 0.079007 0.283511 0.554376
Si Si3 0.857149 0.082769 0.666137
Si Si4 0.878003 0.587851 0.013085
Si Si5 0.786361 0.864255 0.507649
Si Si6 0.971218 0.762154 0.239409
Si Si7 0.577520 0.583778 0.678997
Si Si8 0.711993 0.807229 0.810182
O O1 0.848670 0.625278 0.926072
O O2 0.748759 0.724198 0.837591
O O3 0.927100 0.755500 0.852355
O O4 0.750000 0.750000 0.000000
O O5 0.149217 0.213731 0.500131
O O6 0.160490 0.352415 0.548092
O O7 0.014279 0.263399 0.662855
O O8 0.000000 0.307518 0.500000
O O9 0.821475 0.081159 0.575880
O O10 0.807620 0.154363 0.730593
O O11 0.982550 0.091406 0.636789
O O12 0.823006 0.000000 0.716031
O O13 0.842730 0.500000 0.020030
O O14 0.815601 0.633010 0.105577
O O15 0.000000 0.595779 0.000000
O O16 0.814724 0.903958 0.406565
O O17 0.935265 0.850639 0.243535
O O18 0.883226 0.706232 0.226992
O O19 0.578911 0.500000 0.723843
#
# Coordination Sequence:
#
# PCOD8089152 Si02
#       8
#     8   8   8   8   8   8   8   8
#     4  10  22  37  59  88 118 152 192 239 295 360
#     4  10  21  33  56  82 116 156 205 245 292 349
#     4  11  20  33  55  85 113 145 194 249 300 342
#     4  10  20  37  60  88 120 147 183 239 300 349
#     4  10  19  33  51  82 112 151 196 246 294 346
#     4  11  20  37  58  84 118 153 203 247 292 357
#     4  10  21  35  54  82 117 154 192 245 302 348
#     4  11  21  36  59  87 114 154 195 239 293 350
#
# _framework density 18.887087000000001
#
# number of rings (size 3 to 8) (size 9 to 14) (size 15 to 20)
#    0.000    1.625    3.750    2.625    0.000    1.000 
#    0.000    0.625    0.000    1.500    0.000    3.500 
#    0.000    0.000    0.000    0.000    0.000    0.000 
#
# Total GULP energy -396544.872102 kJ/mol
# GULP energy per Si atom -12392.027253 kJ/mol
# Density = 1.884410 g / cm^3
# Si number density = 18.887087 Si / 1000 Ang^3
#
#
#
# Elastic Constant Matrix: (Units=GPa)
#
#
# Indices 1 2 3 4 5 6 
#
# 1 70.0223 28.3774 26.6888 0.0000 -3.1770 0.0000
# 2 28.3774 101.9171 43.1781 0.0000 0.6432 0.0000
# 3 26.6888 43.1781 85.1172 0.0000 -8.1377 0.0000
# 4 0.0000 0.0000 0.0000 26.0329 0.0000 3.9857
# 5 -3.1770 0.6432 -8.1377 0.0000 30.8236 0.0000
# 6 0.0000 0.0000 0.0000 3.9857 0.0000 26.6003
#
#
#
# Elastic Compliance Matrix: (Units=1/GPa)
#
#
# Indices 1 2 3 4 5 6 
#
# 1 0.016999 -0.003204 -0.003622 0.000000 0.000863 0.000000
# 2 -0.003204 0.013221 -0.005909 0.000000 -0.002166 0.000000
# 3 -0.003622 -0.005909 0.016269 0.000000 0.004045 0.000000
# 4 0.000000 0.000000 0.000000 0.039315 0.000000 -0.005891
# 5 0.000863 -0.002166 0.004045 0.000000 0.033645 0.000000
# 6 0.000000 0.000000 0.000000 -0.005891 0.000000 0.038476
#
#
# Mechanical properties :
#
#
# Convention : Reuss Voigt Hill
#
# Bulk Modulus (GPa) = 47.57860 50.39393 48.98627
# Shear Modulus (GPa) = 26.26014 27.27884 26.76949
#
# Velocity S-wave (km/s) = 3.73282 3.80453 3.76885
# Velocity P-wave (km/s) = 6.62000 6.78520 6.70311
#
# Compressibility (1/GPa) = 0.02101785
#
# Stress axis : x y z
#
# Youngs Moduli (GPa) = 58.82544 75.63605 61.46764
#
# Poissons Ratio (x) = 0.24234 0.22266
# Poissons Ratio (y) = 0.18848 0.36323
# Poissons Ratio (z) = 0.21309 0.44696
#
# Static dielectric constant tensor:
#      x y z
#    x 3.542950 0.000000 0.038350 
#    y 0.000000 3.595160 0.000000 
#    z 0.038350 0.000000 3.601360 
# 
# 
# High freq. dielectric constant tensor:
#      x y z
#    x 1.724800 0.000000 -0.014620 
#    y 0.000000 1.722170 0.000000 
#    z -0.014620 0.000000 1.729710 
# 
# From -- ./inp_files/216360.got.cif
#   From: 2010.06.25/outbox.cif.g09.slc.cpg/sg12_109_cif.got.tgz:216360.got - 2010.06.28 00:19:55.
