data_PCOD8089059
_publ_section_title
;
Structure prediction by ZEFSAII (Michael W. Deem and Ramdas Pophale) SiO2 
 PCOD8089059
Probable space group: C 2/M
;
_chemical_formula_sum "Si O2"
_cell_formula_units_Z 64
_cell_length_a 25.150668
_cell_length_b 9.132546
_cell_length_c 23.808305
_cell_angle_alpha 90.000000
_cell_angle_beta 45.519043
_cell_angle_gamma 90.000000
_cell_volume 3901.698645
_symmetry_space_group_name_H-M "C 2/M"
_symmetry_group_IT_number 12
_symmetry_cell_setting 'monoclinic'
loop_
_space_group_symop_operation_xyz
x,y,z
-x,y,-z
-x,-y,-z
x,-y,z
1/2+x,1/2+y,z
1/2-x,1/2+y,-z
1/2-x,1/2-y,-z
1/2+x,1/2-y,z
loop_
_atom_site_type_symbol
_atom_site_label
_atom_site_fract_x
_atom_site_fract_y
_atom_site_fract_z
Si Si1 0.309064 0.670607 0.681518
Si Si2 0.586150 0.828441 0.576671
Si Si3 0.121389 0.328598 0.674618
Si Si4 0.438689 0.665451 0.997085
Si Si5 0.270616 0.825297 0.595348
Si Si6 0.661252 0.167214 0.852071
Si Si7 0.455671 0.169846 0.155191
Si Si8 0.459685 0.170282 0.588906
O O1 0.316394 0.500000 0.659866
O O2 0.281681 0.761115 0.648625
O O3 0.248271 0.692586 0.775670
O O4 0.386262 0.732224 0.647483
O O5 0.581105 0.788225 0.645993
O O6 0.662135 0.766755 0.493435
O O7 0.513855 0.767670 0.597628
O O8 0.587032 0.000000 0.565723
O O9 0.143170 0.500000 0.661687
O O10 0.195486 0.233596 0.623517
O O11 0.064236 0.286711 0.766350
O O12 0.420211 0.500000 0.994790
O O13 0.470103 0.743725 0.918125
O O14 0.500000 0.679840 0.000000
O O15 0.362834 0.738975 0.075815
O O16 0.267340 0.000000 0.601717
O O17 0.614885 0.213837 0.830992
O O18 0.643576 0.000000 0.879956
O O19 0.474421 0.000000 0.135741
O O20 0.500000 0.194337 0.500000
O O21 0.438431 0.000000 0.612790
#
# Coordination Sequence:
#
# PCOD8089059 Si02
#       8
#     8   8   8   8   8   8   8   8
#     4  11  21  33  50  74  98 128 167 206 244 287
#     4   9  19  34  51  69  95 131 169 205 244 290
#     4  10  19  33  50  71  98 131 169 202 235 288
#     4   9  17  27  42  67  95 123 154 189 230 283
#     4  11  20  32  49  71  99 132 164 202 249 290
#     4   9  17  30  45  65  94 125 157 192 236 287
#     4   9  16  28  45  65  93 129 158 187 232 285
#     4  10  19  35  53  70  95 129 166 206 252 293
#
# _framework density 16.403110999999999
#
# number of rings (size 3 to 8) (size 9 to 14) (size 15 to 20)
#    0.000    2.250    2.500    1.500    0.000    3.250 
#    0.000    1.250    0.000    0.000    0.000    0.875 
#    0.000    0.000    0.000    0.000    0.000    0.000 
#
# Total GULP energy -396797.670438 kJ/mol
# GULP energy per Si atom -12399.927201 kJ/mol
# Density = 1.636578 g / cm^3
# Si number density = 16.403111 Si / 1000 Ang^3
#
#
#
# Elastic Constant Matrix: (Units=GPa)
#
#
# Indices 1 2 3 4 5 6 
#
# 1 93.3869 34.7636 47.5188 0.0001 1.7547 0.0000
# 2 34.7636 68.8181 50.1060 0.0009 -4.1227 0.0013
# 3 47.5188 50.1060 116.4751 0.0001 -3.6579 -0.0001
# 4 0.0001 0.0009 0.0001 24.1443 0.0000 -6.4372
# 5 1.7547 -4.1227 -3.6579 0.0000 15.5151 0.0001
# 6 0.0000 0.0013 -0.0001 -6.4372 0.0001 19.8805
#
#
#
# Elastic Compliance Matrix: (Units=1/GPa)
#
#
# Indices 1 2 3 4 5 6 
#
# 1 0.014577 -0.004624 -0.004078 0.000000 -0.003839 0.000000
# 2 -0.004624 0.022816 -0.007779 -0.000001 0.004752 -0.000002
# 3 -0.004078 -0.007779 0.013646 0.000000 0.001611 0.000001
# 4 0.000000 -0.000001 0.000000 0.045331 0.000000 0.014678
# 5 -0.003839 0.004752 0.001611 0.000000 0.066530 -0.000001
# 6 0.000000 -0.000002 0.000001 0.014678 -0.000001 0.055053
#
#
# Mechanical properties :
#
#
# Convention : Reuss Voigt Hill
#
# Bulk Modulus (GPa) = 55.32304 60.38410 57.85357
# Shear Modulus (GPa) = 19.45970 21.66077 20.56024
#
# Velocity S-wave (km/s) = 3.44807 3.63785 3.54423
# Velocity P-wave (km/s) = 7.04646 7.38497 7.21770
#
# Compressibility (1/GPa) = 0.01807565
#
# Stress axis : x y z
#
# Youngs Moduli (GPa) = 68.60220 43.82968 73.27903
#
# Poissons Ratio (x) = 0.20267 0.29885
# Poissons Ratio (y) = 0.31722 0.57005
# Poissons Ratio (z) = 0.27978 0.34096
#
# Static dielectric constant tensor:
#      x y z
#    x 2.973260 0.000000 -0.044820 
#    y 0.000000 3.053110 0.000000 
#    z -0.044820 0.000000 3.205140 
# 
# 
# High freq. dielectric constant tensor:
#      x y z
#    x 1.595050 0.000000 -0.002300 
#    y 0.000000 1.626580 0.000000 
#    z -0.002300 0.000000 1.637030 
# 
# From -- ./inp_files/348529.got.cif
#   From: 2010.06.25/outbox.cif.g09.slc.cpg/sg12_175_cif.got.tgz:348529.got - 2010.06.28 00:19:55.
