data_PCOD8089013
_publ_section_title
;
Structure prediction by ZEFSAII (Michael W. Deem and Ramdas Pophale) SiO2 
 PCOD8089013
Probable space group: C 2/M
;
_chemical_formula_sum "Si O2"
_cell_formula_units_Z 48
_cell_length_a 12.539707
_cell_length_b 26.484018
_cell_length_c 13.301720
_cell_angle_alpha 90.000000
_cell_angle_beta 36.497515
_cell_angle_gamma 90.000000
_cell_volume 2627.490811
_symmetry_space_group_name_H-M "C 2/M"
_symmetry_group_IT_number 12
_symmetry_cell_setting 'monoclinic'
loop_
_space_group_symop_operation_xyz
x,y,z
-x,y,-z
-x,-y,-z
x,-y,z
1/2+x,1/2+y,z
1/2-x,1/2+y,-z
1/2-x,1/2-y,-z
1/2+x,1/2-y,z
loop_
_atom_site_type_symbol
_atom_site_label
_atom_site_fract_x
_atom_site_fract_y
_atom_site_fract_z
Si Si1 0.770045 0.740991 0.861042
Si Si2 0.416297 0.632950 0.281255
Si Si3 0.105707 0.756250 0.772212
Si Si4 0.318986 0.367855 0.076078
Si Si5 0.414562 0.696301 0.456172
Si Si6 0.704108 0.055813 0.320590
O O1 0.674451 0.757584 0.830658
O O2 0.809846 0.680850 0.828089
O O3 0.961840 0.770637 0.716886
O O4 0.614823 0.754463 0.065485
O O5 0.344617 0.685362 0.286366
O O6 0.410219 0.640858 0.406921
O O7 0.288994 0.586912 0.347820
O O8 0.616213 0.619984 0.087211
O O9 0.216453 0.720200 0.612136
O O10 0.225666 0.415991 0.197227
O O11 0.500000 0.353392 0.000000
O O12 0.500000 0.691650 0.500000
O O13 0.500000 0.049476 0.500000
O O14 0.792592 0.000000 0.245491
#
# Coordination Sequence:
#
# PCOD8089013 Si02
#       6
#     8   8   8   8   8   8
#     4   9  15  29  45  66 102 136 173 203 245 296
#     4  10  19  33  47  74 100 131 178 204 250 309
#     4   9  16  29  44  69 100 137 174 209 242 296
#     4   9  16  30  49  70 100 132 165 210 251 310
#     4  10  21  30  47  71 104 146 175 209 241 286
#     4  10  21  35  55  80 102 127 161 213 276 321
#
# _framework density 18.268381000000002
#
# number of rings (size 3 to 8) (size 9 to 14) (size 15 to 20)
#    0.000    2.500    5.000    0.500    2.333    5.667 
#    3.000    0.000    0.000    0.500    0.000    0.000 
#    0.000    2.667    0.000    0.000    0.000    0.000 
#
# Total GULP energy -297393.490151 kJ/mol
# GULP energy per Si atom -12391.395423 kJ/mol
# Density = 1.822680 g / cm^3
# Si number density = 18.268381 Si / 1000 Ang^3
#
#
#
# Elastic Constant Matrix: (Units=GPa)
#
#
# Indices 1 2 3 4 5 6 
#
# 1 45.2588 35.5396 50.7382 0.0000 2.3421 0.0000
# 2 35.5396 122.3618 55.4505 0.0000 3.2547 0.0000
# 3 50.7382 55.4505 121.7891 0.0000 12.8980 0.0000
# 4 0.0000 0.0000 0.0000 19.9893 0.0000 -5.2988
# 5 2.3421 3.2547 12.8980 0.0000 33.0261 0.0000
# 6 0.0000 0.0000 0.0000 -5.2988 0.0000 16.3486
#
#
#
# Elastic Compliance Matrix: (Units=1/GPa)
#
#
# Indices 1 2 3 4 5 6 
#
# 1 0.044848 -0.005641 -0.016521 0.000000 0.003828 0.000000
# 2 -0.005641 0.011030 -0.002711 0.000000 0.000372 0.000000
# 3 -0.016521 -0.002711 0.016874 0.000000 -0.005151 0.000000
# 4 0.000000 0.000000 0.000000 0.054729 0.000000 0.017738
# 5 0.003828 0.000372 -0.005151 0.000000 0.031983 0.000000
# 6 0.000000 0.000000 0.000000 0.017738 0.000000 0.066917
#
#
# Mechanical properties :
#
#
# Convention : Reuss Voigt Hill
#
# Bulk Modulus (GPa) = 43.46895 63.65180 53.56037
# Shear Modulus (GPa) = 17.61846 23.71822 20.66834
#
# Velocity S-wave (km/s) = 3.10889 3.60713 3.36724
# Velocity P-wave (km/s) = 6.06079 7.22958 6.67083
#
# Compressibility (1/GPa) = 0.02300493
#
# Stress axis : x y z
#
# Youngs Moduli (GPa) = 22.29768 90.66551 59.26441
#
# Poissons Ratio (x) = 0.51144 0.97910
# Poissons Ratio (y) = 0.12578 0.16067
# Poissons Ratio (z) = 0.36838 0.24580
#
# Static dielectric constant tensor:
#      x y z
#    x 3.513860 0.000000 0.305760 
#    y 0.000000 3.221110 0.000000 
#    z 0.305760 0.000000 4.037710 
# 
# 
# High freq. dielectric constant tensor:
#      x y z
#    x 1.704060 0.000000 0.016290 
#    y 0.000000 1.659100 0.000000 
#    z 0.016290 0.000000 1.736370 
# 
# From -- ./inp_files/63378.got.cif
#   From: 2010.06.25/outbox.cif.g09.slc.cpg/sg12_32_cif.got.tgz:63378.got - 2010.06.28 00:19:55.
