data_PCOD8089860
_publ_section_title
;
Structure prediction by ZEFSAII (Michael W. Deem and Ramdas Pophale) SiO2 
 PCOD8089860
Probable space group: C 2/M
;
_chemical_formula_sum "Si O2"
_cell_formula_units_Z 56
_cell_length_a 22.828992
_cell_length_b 8.876448
_cell_length_c 14.947475
_cell_angle_alpha 90.000000
_cell_angle_beta 87.041864
_cell_angle_gamma 90.000000
_cell_volume 3024.925654
_symmetry_space_group_name_H-M "C 2/M"
_symmetry_group_IT_number 12
_symmetry_cell_setting 'monoclinic'
loop_
_space_group_symop_operation_xyz
x,y,z
-x,y,-z
-x,-y,-z
x,-y,z
1/2+x,1/2+y,z
1/2-x,1/2+y,-z
1/2-x,1/2-y,-z
1/2+x,1/2-y,z
loop_
_atom_site_type_symbol
_atom_site_label
_atom_site_fract_x
_atom_site_fract_y
_atom_site_fract_z
Si Si1 0.431217 0.669633 0.522795
Si Si2 0.419443 0.826802 0.348410
Si Si3 0.753975 0.322067 0.902346
Si Si4 0.935803 0.827624 0.031288
Si Si5 0.371183 0.672687 0.852229
Si Si6 0.448428 0.823079 0.698935
Si Si7 0.143697 0.325972 0.826680
O O1 0.500000 0.677735 0.500000
O O2 0.409448 0.500000 0.541223
O O3 0.399003 0.734360 0.437357
O O4 0.415828 0.768695 0.611007
O O5 0.483364 0.775388 0.308309
O O6 0.371168 0.799595 0.276016
O O7 0.423418 0.000000 0.376919
O O8 0.755769 0.500000 0.913667
O O9 0.811373 0.265649 0.845569
O O10 0.698476 0.277447 0.847005
O O11 0.750000 0.250000 0.000000
O O12 0.913022 0.721338 0.111855
O O13 0.939337 0.000000 0.065001
O O14 0.891545 0.813410 0.952518
O O15 0.000000 0.768446 0.000000
O O16 0.359627 0.500000 0.826771
O O17 0.421105 0.739627 0.785510
O O18 0.439328 0.000000 0.710714
O O19 0.158291 0.500000 0.845251
#
# Coordination Sequence:
#
# PCOD8089860 Si02
#       7
#     8   8   8   8   8   8   8
#     4   9  17  30  51  79 110 145 183 223 267 320
#     4   9  19  34  53  81 114 147 181 220 270 325
#     4  12  24  40  59  78 103 140 187 232 274 322
#     4  10  21  35  52  77 110 145 178 219 271 323
#     4  11  22  36  55  79 109 143 182 227 270 321
#     4  10  19  33  54  81 114 148 181 221 270 325
#     4  11  22  36  56  80 108 143 183 227 271 323
#
# _framework density 18.512853
#
# number of rings (size 3 to 8) (size 9 to 14) (size 15 to 20)
#    0.000    1.714    1.429    3.857    0.000    4.286 
#    0.000    0.000    0.000    0.857    0.000    0.000 
#    0.000    0.000    0.000    0.000    0.000    0.000 
#
# Total GULP energy -347317.056170 kJ/mol
# GULP energy per Si atom -12404.180577 kJ/mol
# Density = 1.847072 g / cm^3
# Si number density = 18.512853 Si / 1000 Ang^3
#
#
#
# Elastic Constant Matrix: (Units=GPa)
#
#
# Indices 1 2 3 4 5 6 
#
# 1 64.4042 22.6277 -0.2777 0.0000 12.2106 0.0000
# 2 22.6277 109.8656 30.2289 0.0000 7.8661 0.0000
# 3 -0.2777 30.2289 57.7942 0.0000 14.8224 0.0000
# 4 0.0000 0.0000 0.0000 31.1150 0.0000 -1.9015
# 5 12.2106 7.8661 14.8224 0.0000 19.5481 0.0000
# 6 0.0000 0.0000 0.0000 -1.9015 0.0000 29.2032
#
#
#
# Elastic Compliance Matrix: (Units=1/GPa)
#
#
# Indices 1 2 3 4 5 6 
#
# 1 0.020262 -0.004887 0.006698 0.000000 -0.015769 0.000000
# 2 -0.004887 0.011811 -0.007157 0.000000 0.003727 0.000000
# 3 0.006698 -0.007157 0.026582 0.000000 -0.021460 0.000000
# 4 0.000000 0.000000 0.000000 0.032267 0.000000 0.002101
# 5 -0.015769 0.003727 -0.021460 0.000000 0.075778 0.000000
# 6 0.000000 0.000000 0.000000 0.002101 0.000000 0.034380
#
#
# Mechanical properties :
#
#
# Convention : Reuss Voigt Hill
#
# Bulk Modulus (GPa) = 20.84944 37.46911 29.15927
# Shear Modulus (GPa) = 21.95291 27.93892 24.94591
#
# Velocity S-wave (km/s) = 3.44731 3.88901 3.67480
# Velocity P-wave (km/s) = 5.20882 6.35998 5.81297
#
# Compressibility (1/GPa) = 0.04796293
#
# Stress axis : x y z
#
# Youngs Moduli (GPa) = 49.35228 84.66753 37.61943
#
# Poissons Ratio (x) = 0.41377 -0.25196
# Poissons Ratio (y) = 0.24119 0.26924
# Poissons Ratio (z) = -0.33055 0.60595
#
# Static dielectric constant tensor:
#      x y z
#    x 3.261060 0.000000 0.056190 
#    y 0.000000 3.516270 0.000000 
#    z 0.056190 0.000000 3.409210 
# 
# 
# High freq. dielectric constant tensor:
#      x y z
#    x 1.693810 0.000000 0.007100 
#    y 0.000000 1.729880 0.000000 
#    z 0.007100 0.000000 1.717560 
# 
# From -- ./inp_files/230846.got.cif
#   From: 2010.06.25/outbox.cif.g09.slc.cpg/sg12_116_cif.got.tgz:230846.got - 2010.06.28 00:19:55.
