data_PCOD8089910
_publ_section_title
;
Structure prediction by ZEFSAII (Michael W. Deem and Ramdas Pophale) SiO2 
 PCOD8089910
Probable space group: C 2/M
;
_chemical_formula_sum "Si O2"
_cell_formula_units_Z 64
_cell_length_a 28.657642
_cell_length_b 8.838802
_cell_length_c 15.086969
_cell_angle_alpha 90.000000
_cell_angle_beta 125.784199
_cell_angle_gamma 90.000000
_cell_volume 3100.110970
_symmetry_space_group_name_H-M "C 2/M"
_symmetry_group_IT_number 12
_symmetry_cell_setting 'monoclinic'
loop_
_space_group_symop_operation_xyz
x,y,z
-x,y,-z
-x,-y,-z
x,-y,z
1/2+x,1/2+y,z
1/2-x,1/2+y,-z
1/2-x,1/2-y,-z
1/2+x,1/2-y,z
loop_
_atom_site_type_symbol
_atom_site_label
_atom_site_fract_x
_atom_site_fract_y
_atom_site_fract_z
Si Si1 0.829760 0.679129 0.818667
Si Si2 0.927046 0.179354 0.171375
Si Si3 0.216400 0.326694 0.742650
Si Si4 0.953473 0.679608 0.021852
Si Si5 0.004485 0.676519 0.401359
Si Si6 0.370879 0.823659 0.498878
Si Si7 0.189886 0.674340 0.910006
Si Si8 0.806289 0.324555 0.598667
O O1 0.828691 0.500000 0.818507
O O2 0.776907 0.739087 0.818819
O O3 0.823759 0.744677 0.712452
O O4 0.890637 0.736839 0.922231
O O5 0.964088 0.243662 0.129388
O O6 0.861984 0.243117 0.096758
O O7 0.956231 0.231328 0.295229
O O8 0.924808 0.000000 0.163873
O O9 0.231499 0.500000 0.737638
O O10 0.177124 0.253282 0.620871
O O11 0.180925 0.312432 0.794257
O O12 0.957419 0.500000 0.038051
O O13 0.000000 0.733490 0.000000
O O14 0.997702 0.500000 0.368940
O O15 0.066354 0.746080 0.444460
O O16 0.000000 0.704139 0.500000
O O17 0.356891 0.792321 0.585517
O O18 0.373620 0.000000 0.477726
O O19 0.190413 0.500000 0.941477
O O20 0.250000 0.750000 0.000000
O O21 0.793442 0.500000 0.594288
O O22 0.750000 0.250000 0.500000
#
# Coordination Sequence:
#
# PCOD8089910 Si02
#       8
#     8   8   8   8   8   8   8   8
#     4  10  21  35  56  88 120 152 198 251 302 359
#     4  12  26  43  63  92 130 167 205 256 317 380
#     4  10  20  36  59  87 116 153 193 238 296 362
#     4  10  23  43  67  89 116 162 217 267 315 370
#     4  10  21  40  67  93 120 161 211 260 309 369
#     4   9  18  33  57  84 113 149 195 243 292 353
#     4  11  23  40  64  91 120 156 205 254 307 371
#     4  10  19  33  54  83 118 154 193 240 296 360
#
# _framework density 20.644421999999999
#
# number of rings (size 3 to 8) (size 9 to 14) (size 15 to 20)
#    0.000    1.750    1.250    3.000    1.750    6.000 
#    0.000    1.250    0.000    0.000    0.000    0.000 
#    0.000    0.000    0.000    0.000    0.000    0.000 
#
# Total GULP energy -396847.690974 kJ/mol
# GULP energy per Si atom -12401.490343 kJ/mol
# Density = 2.059743 g / cm^3
# Si number density = 20.644422 Si / 1000 Ang^3
#
#
#
# Elastic Constant Matrix: (Units=GPa)
#
#
# Indices 1 2 3 4 5 6 
#
# 1 127.0982 39.4597 31.6568 0.0000 6.5169 0.0000
# 2 39.4597 67.3019 32.6379 0.0000 -1.2606 0.0000
# 3 31.6568 32.6379 88.6777 0.0000 2.1567 0.0000
# 4 0.0000 0.0000 0.0000 29.3153 0.0000 1.8059
# 5 6.5169 -1.2606 2.1567 0.0000 40.2155 0.0000
# 6 0.0000 0.0000 0.0000 1.8059 0.0000 26.2457
#
#
#
# Elastic Compliance Matrix: (Units=1/GPa)
#
#
# Indices 1 2 3 4 5 6 
#
# 1 0.009934 -0.005059 -0.001644 0.000000 -0.001680 0.000000
# 2 -0.005059 0.020697 -0.005855 0.000000 0.001783 0.000000
# 3 -0.001644 -0.005855 0.014035 0.000000 -0.000670 0.000000
# 4 0.000000 0.000000 0.000000 0.034257 0.000000 -0.002357
# 5 -0.001680 0.001783 -0.000670 0.000000 0.025230 0.000000
# 6 0.000000 0.000000 0.000000 -0.002357 0.000000 0.038264
#
#
# Mechanical properties :
#
#
# Convention : Reuss Voigt Hill
#
# Bulk Modulus (GPa) = 51.14785 54.50962 52.82873
# Shear Modulus (GPa) = 28.72755 31.11019 29.91887
#
# Velocity S-wave (km/s) = 3.73438 3.88616 3.81103
# Velocity P-wave (km/s) = 6.58966 6.82625 6.70900
#
# Compressibility (1/GPa) = 0.01955116
#
# Stress axis : x y z
#
# Youngs Moduli (GPa) = 100.66376 48.31560 71.25164
#
# Poissons Ratio (x) = 0.24442 0.11711
# Poissons Ratio (y) = 0.50924 0.41718
# Poissons Ratio (z) = 0.16545 0.28289
#
# Static dielectric constant tensor:
#      x y z
#    x 4.743860 0.000000 -0.586690 
#    y 0.000000 3.494530 0.000000 
#    z -0.586690 0.000000 4.222730 
# 
# 
# High freq. dielectric constant tensor:
#      x y z
#    x 1.820680 0.000000 -0.006730 
#    y 0.000000 1.775600 0.000000 
#    z -0.006730 0.000000 1.819250 
# 
# From -- ./inp_files/250120.got.cif
#   From: 2010.06.25/outbox.cif.g09.slc.cpg/sg12_126_cif.got.tgz:250120.got - 2010.06.28 00:19:55.
