data_PCOD8089497
_publ_section_title
;
Structure prediction by ZEFSAII (Michael W. Deem and Ramdas Pophale) SiO2 
 PCOD8089497
Probable space group: C 2/M
;
_chemical_formula_sum "Si O2"
_cell_formula_units_Z 52
_cell_length_a 11.290722
_cell_length_b 28.510709
_cell_length_c 9.023359
_cell_angle_alpha 90.000000
_cell_angle_beta 81.151252
_cell_angle_gamma 90.000000
_cell_volume 2870.105940
_symmetry_space_group_name_H-M "C 2/M"
_symmetry_group_IT_number 12
_symmetry_cell_setting 'monoclinic'
loop_
_space_group_symop_operation_xyz
x,y,z
-x,y,-z
-x,-y,-z
x,-y,z
1/2+x,1/2+y,z
1/2-x,1/2+y,-z
1/2-x,1/2-y,-z
1/2+x,1/2-y,z
loop_
_atom_site_type_symbol
_atom_site_label
_atom_site_fract_x
_atom_site_fract_y
_atom_site_fract_z
Si Si1 0.667650 0.624991 0.341940
Si Si2 0.000000 0.613457 0.000000
Si Si3 0.617185 0.285245 0.893148
Si Si4 0.305997 0.946453 0.154517
Si Si5 0.108157 0.132474 0.681277
Si Si6 0.312090 0.186020 0.084220
Si Si7 0.631747 0.553736 0.910892
O O1 0.723342 0.573819 0.300595
O O2 0.680680 0.633770 0.513861
O O3 0.531397 0.624342 0.317442
O O4 0.741830 0.663195 0.234840
O O5 0.063101 0.579087 0.868007
O O6 0.107087 0.648862 0.023828
O O7 0.630167 0.315940 0.743271
O O8 0.612181 0.229410 0.859272
O O9 0.500000 0.302877 0.000000
O O10 0.727846 0.294214 0.976296
O O11 0.330362 0.000000 0.185305
O O12 0.235388 0.938664 0.013079
O O13 0.158628 0.090404 0.774155
O O14 0.635304 0.500000 0.851258
O O15 0.500000 0.565083 0.000000
#
# Coordination Sequence:
#
# PCOD8089497 Si02
#       7
#     8   4   8   8   8   8   8
#     4  10  21  33  51  78 113 144 174 214 276 322
#     4  10  19  34  54  82 106 134 179 226 262 316
#     4  11  20  35  59  81 107 138 183 225 267 311
#     4  10  20  35  56  79 107 143 183 226 266 313
#     4  11  20  33  52  79 113 144 171 220 270 327
#     4  10  21  36  56  81 106 141 179 222 266 313
#     4  10  19  33  53  78 106 138 179 224 268 310
#
# _framework density 18.117798000000001
#
# number of rings (size 3 to 8) (size 9 to 14) (size 15 to 20)
#    0.000    1.692    3.846    2.538    0.000    1.231 
#    0.000    1.538    0.000   14.769    0.000   12.923 
#    0.000    0.000    0.000    0.000    0.000    0.000 
#
# Total GULP energy -322165.266237 kJ/mol
# GULP energy per Si atom -12390.971778 kJ/mol
# Density = 1.807656 g / cm^3
# Si number density = 18.117798 Si / 1000 Ang^3
#
#
#
# Elastic Constant Matrix: (Units=GPa)
#
#
# Indices 1 2 3 4 5 6 
#
# 1 63.1487 38.4939 33.4946 0.0000 -17.5393 0.0000
# 2 38.4939 144.8968 56.4039 0.0000 -10.3716 0.0000
# 3 33.4946 56.4039 107.9984 0.0000 -10.5590 0.0000
# 4 0.0000 0.0000 0.0000 16.8778 0.0000 -5.2035
# 5 -17.5393 -10.3716 -10.5590 0.0000 15.2458 0.0000
# 6 0.0000 0.0000 0.0000 -5.2035 0.0000 23.7836
#
#
#
# Elastic Compliance Matrix: (Units=1/GPa)
#
#
# Indices 1 2 3 4 5 6 
#
# 1 0.027655 -0.003920 -0.003947 0.000000 0.026415 0.000000
# 2 -0.003920 0.009344 -0.003737 0.000000 -0.000741 0.000000
# 3 -0.003947 -0.003737 0.012596 0.000000 0.001640 0.000000
# 4 0.000000 0.000000 0.000000 0.063535 0.000000 0.013900
# 5 0.026415 -0.000741 0.001640 0.000000 0.096613 0.000000
# 6 0.000000 0.000000 0.000000 0.013900 0.000000 0.045087
#
#
# Mechanical properties :
#
#
# Convention : Reuss Voigt Hill
#
# Bulk Modulus (GPa) = 37.89680 63.64765 50.77222
# Shear Modulus (GPa) = 17.43168 23.69155 20.56161
#
# Velocity S-wave (km/s) = 3.10519 3.62005 3.37246
# Velocity P-wave (km/s) = 5.81537 7.25804 6.57639
#
# Compressibility (1/GPa) = 0.02638745
#
# Stress axis : x y z
#
# Youngs Moduli (GPa) = 36.15939 107.01485 79.39202
#
# Poissons Ratio (x) = 0.41946 0.31338
# Poissons Ratio (y) = 0.14173 0.29669
# Poissons Ratio (z) = 0.14273 0.39992
#
# Static dielectric constant tensor:
#      x y z
#    x 3.460700 0.000000 -0.136290 
#    y 0.000000 3.780620 0.000000 
#    z -0.136290 0.000000 3.170270 
# 
# 
# High freq. dielectric constant tensor:
#      x y z
#    x 1.700110 0.000000 -0.013760 
#    y 0.000000 1.727200 0.000000 
#    z -0.013760 0.000000 1.666640 
# 
# From -- ./inp_files/53756.got.cif
#   From: 2010.06.25/outbox.cif.g09.slc.cpg/sg12_27_cif.got.tgz:53756.got - 2010.06.28 00:19:55.
