data_PCOD8089827
_publ_section_title
;
Structure prediction by ZEFSAII (Michael W. Deem and Ramdas Pophale) SiO2 
 PCOD8089827
Probable space group: C 2/M
;
_chemical_formula_sum "Si O2"
_cell_formula_units_Z 64
_cell_length_a 32.438558
_cell_length_b 9.196940
_cell_length_c 12.141447
_cell_angle_alpha 90.000000
_cell_angle_beta 91.216943
_cell_angle_gamma 90.000000
_cell_volume 3621.407313
_symmetry_space_group_name_H-M "C 2/M"
_symmetry_group_IT_number 12
_symmetry_cell_setting 'monoclinic'
loop_
_space_group_symop_operation_xyz
x,y,z
-x,y,-z
-x,-y,-z
x,-y,z
1/2+x,1/2+y,z
1/2-x,1/2+y,-z
1/2-x,1/2-y,-z
1/2+x,1/2-y,z
loop_
_atom_site_type_symbol
_atom_site_label
_atom_site_fract_x
_atom_site_fract_y
_atom_site_fract_z
Si Si1 0.985874 0.673264 0.117030
Si Si2 0.116273 0.830912 0.418756
Si Si3 0.853740 0.167757 0.344277
Si Si4 0.689985 0.670901 0.259913
Si Si5 0.258632 0.670147 0.386679
Si Si6 0.062935 0.332527 0.254485
Si Si7 0.394114 0.828619 0.145909
Si Si8 0.363500 0.832313 0.906315
O O1 0.985355 0.500000 0.108535
O O2 0.940746 0.733460 0.145387
O O3 0.018134 0.723863 0.212821
O O4 0.000000 0.737497 0.000000
O O5 0.122671 0.779568 0.544282
O O6 0.157629 0.792396 0.354390
O O7 0.076761 0.751410 0.364926
O O8 0.107153 0.000000 0.410949
O O9 0.805509 0.194133 0.355499
O O10 0.869488 0.260952 0.244395
O O11 0.863330 0.000000 0.321749
O O12 0.699173 0.500000 0.251095
O O13 0.731641 0.757188 0.289040
O O14 0.672512 0.729979 0.143200
O O15 0.247985 0.500000 0.399049
O O16 0.250000 0.750000 0.500000
O O17 0.061309 0.500000 0.287227
O O18 0.094031 0.304780 0.155636
O O19 0.395269 0.000000 0.161857
O O20 0.370560 0.786793 0.032605
O O21 0.349870 0.000000 0.894461
#
# Coordination Sequence:
#
# PCOD8089827 Si02
#       8
#     8   8   8   8   8   8   8   8
#     4   9  15  29  53  80 109 137 171 221 270 307
#     4   9  18  34  51  72 106 141 171 212 265 315
#     4  10  22  39  54  73 108 146 174 211 268 321
#     4  10  19  33  54  81 108 136 175 220 267 314
#     4  11  21  36  57  81 107 137 177 223 268 314
#     4   9  16  28  52  81 104 133 173 218 265 309
#     4  10  20  34  55  81 108 141 181 220 262 317
#     4   9  17  31  51  79 109 137 174 218 266 314
#
# _framework density 17.672687
#
# number of rings (size 3 to 8) (size 9 to 14) (size 15 to 20)
#    0.000    2.375    2.500    0.750    0.000    2.500 
#    0.000    1.875    0.000    4.500    0.000    0.000 
#    0.000    0.000    0.000    0.000    0.000    0.000 
#
# Total GULP energy -396817.168221 kJ/mol
# GULP energy per Si atom -12400.536507 kJ/mol
# Density = 1.763246 g / cm^3
# Si number density = 17.672687 Si / 1000 Ang^3
#
#
#
# Elastic Constant Matrix: (Units=GPa)
#
#
# Indices 1 2 3 4 5 6 
#
# 1 96.8038 49.8835 66.1724 0.0000 24.5267 0.0000
# 2 49.8835 62.8704 54.6678 0.0000 14.1487 0.0000
# 3 66.1724 54.6678 135.7868 0.0000 20.9111 0.0000
# 4 0.0000 0.0000 0.0000 30.8413 0.0000 2.1398
# 5 24.5267 14.1487 20.9111 0.0000 29.2615 0.0000
# 6 0.0000 0.0000 0.0000 2.1398 0.0000 23.0194
#
#
#
# Elastic Compliance Matrix: (Units=1/GPa)
#
#
# Indices 1 2 3 4 5 6 
#
# 1 0.021517 -0.010915 -0.004637 0.000000 -0.009444 0.000000
# 2 -0.010915 0.030789 -0.006959 0.000000 -0.000766 0.000000
# 3 -0.004637 -0.006959 0.012708 0.000000 -0.001830 0.000000
# 4 0.000000 0.000000 0.000000 0.032635 0.000000 -0.003034
# 5 -0.009444 -0.000766 -0.001830 0.000000 0.043768 0.000000
# 6 0.000000 0.000000 0.000000 -0.003034 0.000000 0.043724
#
#
# Mechanical properties :
#
#
# Convention : Reuss Voigt Hill
#
# Bulk Modulus (GPa) = 50.01896 70.76759 60.39328
# Shear Modulus (GPa) = 21.11249 24.94027 23.02638
#
# Velocity S-wave (km/s) = 3.46011 3.76071 3.61354
# Velocity P-wave (km/s) = 6.65789 7.68034 7.18732
#
# Compressibility (1/GPa) = 0.01999242
#
# Stress axis : x y z
#
# Youngs Moduli (GPa) = 46.47385 32.47894 78.69302
#
# Poissons Ratio (x) = 0.35451 0.36491
# Poissons Ratio (y) = 0.50727 0.54759
# Poissons Ratio (z) = 0.21551 0.22601
#
# Static dielectric constant tensor:
#      x y z
#    x 3.401220 0.000000 0.255670 
#    y 0.000000 3.154320 0.000000 
#    z 0.255670 0.000000 3.258820 
# 
# 
# High freq. dielectric constant tensor:
#      x y z
#    x 1.678920 0.000000 0.023660 
#    y 0.000000 1.669170 0.000000 
#    z 0.023660 0.000000 1.679010 
# 
# From -- ./inp_files/187539.got.cif
#   From: 2010.06.25/outbox.cif.g09.slc.cpg/sg12_94_cif.got.tgz:187539.got - 2010.06.28 00:19:55.
