data_PCOD8089207
_publ_section_title
;
Structure prediction by ZEFSAII (Michael W. Deem and Ramdas Pophale) SiO2 
 PCOD8089207
Probable space group: C 2/M
;
_chemical_formula_sum "Si O2"
_cell_formula_units_Z 56
_cell_length_a 14.906802
_cell_length_b 9.189747
_cell_length_c 28.650284
_cell_angle_alpha 90.000000
_cell_angle_beta 49.008757
_cell_angle_gamma 90.000000
_cell_volume 2962.473840
_symmetry_space_group_name_H-M "C 2/M"
_symmetry_group_IT_number 12
_symmetry_cell_setting 'monoclinic'
loop_
_space_group_symop_operation_xyz
x,y,z
-x,y,-z
-x,-y,-z
x,-y,z
1/2+x,1/2+y,z
1/2-x,1/2+y,-z
1/2-x,1/2-y,-z
1/2+x,1/2-y,z
loop_
_atom_site_type_symbol
_atom_site_label
_atom_site_fract_x
_atom_site_fract_y
_atom_site_fract_z
Si Si1 0.890944 0.663357 0.067857
Si Si2 0.529879 0.327121 0.270642
Si Si3 0.309201 0.338039 0.938805
Si Si4 0.472721 0.667161 0.189449
Si Si5 0.404286 0.829212 0.493316
Si Si6 0.224434 0.167216 0.812202
Si Si7 0.869462 0.170543 0.410664
O O1 0.922075 0.500000 0.075358
O O2 0.773036 0.658307 0.078068
O O3 0.867885 0.771716 0.118313
O O4 0.000000 0.725324 0.000000
O O5 0.540053 0.500000 0.268018
O O6 0.476943 0.266043 0.239947
O O7 0.659360 0.262077 0.232791
O O8 0.443922 0.272904 0.341046
O O9 0.331870 0.500000 0.950693
O O10 0.431502 0.261723 0.879171
O O11 0.250000 0.250000 0.000000
O O12 0.513372 0.500000 0.179428
O O13 0.339775 0.681859 0.215866
O O14 0.500000 0.775106 0.500000
O O15 0.268271 0.792294 0.554123
O O16 0.424635 0.750073 0.436991
O O17 0.422581 0.000000 0.478993
O O18 0.254786 0.000000 0.813796
O O19 0.884742 0.000000 0.414310
#
# Coordination Sequence:
#
# PCOD8089207 Si02
#       7
#     8   8   8   8   8   8   8
#     4  10  20  35  55  77 104 140 178 219 277 343
#     4  10  20  39  59  75 109 153 188 220 270 339
#     4  10  19  33  52  74 101 135 172 215 272 329
#     4   9  19  36  55  74 103 142 177 219 276 333
#     4   9  18  34  57  86 118 149 183 224 269 319
#     4  11  22  35  55  82 107 136 182 235 279 319
#     4   9  19  34  56  84 111 149 189 224 269 319
#
# _framework density 18.903120999999999
#
# number of rings (size 3 to 8) (size 9 to 14) (size 15 to 20)
#    0.000    2.286    1.429    1.286    0.000    2.857 
#    0.000    5.000    0.000    0.000    0.000    0.000 
#    0.000    0.000    0.000    0.000    0.000    0.000 
#
# Total GULP energy -347104.438763 kJ/mol
# GULP energy per Si atom -12396.587099 kJ/mol
# Density = 1.886010 g / cm^3
# Si number density = 18.903121 Si / 1000 Ang^3
#
#
#
# Elastic Constant Matrix: (Units=GPa)
#
#
# Indices 1 2 3 4 5 6 
#
# 1 117.4067 23.4021 53.7814 0.0000 9.1515 0.0000
# 2 23.4021 35.8950 35.1596 0.0000 9.1956 0.0000
# 3 53.7814 35.1596 150.6008 0.0000 14.4347 0.0000
# 4 0.0000 0.0000 0.0000 23.9352 0.0000 -0.9974
# 5 9.1515 9.1956 14.4347 0.0000 25.4619 0.0000
# 6 0.0000 0.0000 0.0000 -0.9974 0.0000 22.2105
#
#
#
# Elastic Compliance Matrix: (Units=1/GPa)
#
#
# Indices 1 2 3 4 5 6 
#
# 1 0.010658 -0.004007 -0.002794 0.000000 -0.000800 0.000000
# 2 -0.004007 0.039563 -0.006952 0.000000 -0.008907 0.000000
# 3 -0.002794 -0.006952 0.009437 0.000000 -0.001835 0.000000
# 4 0.000000 0.000000 0.000000 0.041858 0.000000 0.001880
# 5 -0.000800 -0.008907 -0.001835 0.000000 0.043819 0.000000
# 6 0.000000 0.000000 0.000000 0.001880 0.000000 0.045108
#
#
# Mechanical properties :
#
#
# Convention : Reuss Voigt Hill
#
# Bulk Modulus (GPa) = 31.10244 58.73210 44.91727
# Shear Modulus (GPa) = 21.86601 27.09214 24.47907
#
# Velocity S-wave (km/s) = 3.40478 3.78988 3.60248
# Velocity P-wave (km/s) = 5.65208 7.09144 6.41227
#
# Compressibility (1/GPa) = 0.03215182
#
# Stress axis : x y z
#
# Youngs Moduli (GPa) = 93.82307 25.27644 105.96923
#
# Poissons Ratio (x) = 0.10129 0.29609
# Poissons Ratio (y) = 0.37596 0.73666
# Poissons Ratio (z) = 0.26215 0.17571
#
# Static dielectric constant tensor:
#      x y z
#    x 3.724820 0.000000 0.212080 
#    y 0.000000 3.327510 0.000000 
#    z 0.212080 0.000000 3.765850 
# 
# 
# High freq. dielectric constant tensor:
#      x y z
#    x 1.741720 0.000000 -0.002320 
#    y 0.000000 1.711960 0.000000 
#    z -0.002320 0.000000 1.735990 
# 
# From -- ./inp_files/308894.got.cif
#   From: 2010.06.25/outbox.cif.g09.slc.cpg/sg12_155_cif.got.tgz:308894.got - 2010.06.28 00:19:55.
