data_PCOD8089236
_publ_section_title
;
Structure prediction by ZEFSAII (Michael W. Deem and Ramdas Pophale) SiO2 
 PCOD8089236
Probable space group: C 2/M
;
_chemical_formula_sum "Si O2"
_cell_formula_units_Z 48
_cell_length_a 14.209219
_cell_length_b 8.797759
_cell_length_c 22.242655
_cell_angle_alpha 90.000000
_cell_angle_beta 71.963289
_cell_angle_gamma 90.000000
_cell_volume 2643.898071
_symmetry_space_group_name_H-M "C 2/M"
_symmetry_group_IT_number 12
_symmetry_cell_setting 'monoclinic'
loop_
_space_group_symop_operation_xyz
x,y,z
-x,y,-z
-x,-y,-z
x,-y,z
1/2+x,1/2+y,z
1/2-x,1/2+y,-z
1/2-x,1/2-y,-z
1/2+x,1/2-y,z
loop_
_atom_site_type_symbol
_atom_site_label
_atom_site_fract_x
_atom_site_fract_y
_atom_site_fract_z
Si Si1 0.868537 0.679346 0.766024
Si Si2 0.221948 0.180693 0.330059
Si Si3 0.961701 0.320524 0.571906
Si Si4 0.795963 0.175490 0.900138
Si Si5 0.388618 0.676230 0.009102
Si Si6 0.568639 0.821259 0.668822
O O1 0.858556 0.500000 0.759408
O O2 0.794619 0.758278 0.733800
O O3 0.841685 0.724878 0.838439
O O4 0.980370 0.734999 0.729995
O O5 0.141039 0.238780 0.393270
O O6 0.327185 0.249249 0.331261
O O7 0.220492 0.000000 0.329182
O O8 0.942198 0.500000 0.576576
O O9 0.043495 0.273491 0.605328
O O10 0.000000 0.263456 0.500000
O O11 0.683452 0.225741 0.934678
O O12 0.796139 0.000000 0.881366
O O13 0.864195 0.206709 0.944412
O O14 0.373838 0.500000 0.028607
O O15 0.500000 0.730357 0.000000
O O16 0.577727 0.000000 0.671772
#
# Coordination Sequence:
#
# PCOD8089236 Si02
#       6
#     8   8   8   8   8   8
#     4  10  20  36  54  72 100 136 170 203 249 304
#     4  10  19  33  52  75 102 129 166 213 254 292
#     4   9  18  34  53  73 101 136 169 200 244 304
#     4  10  20  34  53  78 105 132 167 209 251 293
#     4   9  19  36  55  76 104 136 169 205 246 296
#     4   8  17  33  51  72 100 133 165 203 250 297
#
# _framework density 18.155011999999999
#
# number of rings (size 3 to 8) (size 9 to 14) (size 15 to 20)
#    0.000    2.667    0.000    2.500    0.000    3.333 
#    0.000   11.667    0.000    0.000    0.000    0.000 
#    0.000    0.000    0.000    0.000    0.000    0.000 
#
# Total GULP energy -297608.141380 kJ/mol
# GULP energy per Si atom -12400.339224 kJ/mol
# Density = 1.811369 g / cm^3
# Si number density = 18.155012 Si / 1000 Ang^3
#
#
#
# Elastic Constant Matrix: (Units=GPa)
#
#
# Indices 1 2 3 4 5 6 
#
# 1 167.8714 36.6396 60.9033 0.0000 -1.2906 0.0000
# 2 36.6396 50.3599 31.5235 0.0000 -1.6434 0.0000
# 3 60.9033 31.5235 125.2918 0.0000 -2.4063 0.0000
# 4 0.0000 0.0000 0.0000 28.6204 0.0000 -3.8968
# 5 -1.2906 -1.6434 -2.4063 0.0000 12.0176 0.0000
# 6 0.0000 0.0000 0.0000 -3.8968 0.0000 24.7687
#
#
#
# Elastic Compliance Matrix: (Units=1/GPa)
#
#
# Indices 1 2 3 4 5 6 
#
# 1 0.007840 -0.003945 -0.002824 0.000000 -0.000263 0.000000
# 2 -0.003945 0.025605 -0.004482 0.000000 0.002180 0.000000
# 3 -0.002824 -0.004482 0.010504 0.000000 0.001187 0.000000
# 4 0.000000 0.000000 0.000000 0.035705 0.000000 0.005617
# 5 -0.000263 0.002180 0.001187 0.000000 0.083719 0.000000
# 6 0.000000 0.000000 0.000000 0.005617 0.000000 0.041257
#
#
# Mechanical properties :
#
#
# Convention : Reuss Voigt Hill
#
# Bulk Modulus (GPa) = 46.62735 66.85066 56.73900
# Shear Modulus (GPa) = 21.34176 27.37845 24.36011
#
# Velocity S-wave (km/s) = 3.43232 3.88756 3.66701
# Velocity P-wave (km/s) = 6.43789 7.55334 7.01781
#
# Compressibility (1/GPa) = 0.02144664
#
# Stress axis : x y z
#
# Youngs Moduli (GPa) = 127.54400 39.05544 95.19789
#
# Poissons Ratio (x) = 0.15409 0.26879
# Poissons Ratio (y) = 0.50322 0.42672
# Poissons Ratio (z) = 0.36012 0.17506
#
# Static dielectric constant tensor:
#      x y z
#    x 3.605110 0.000000 -0.005180 
#    y 0.000000 3.212470 0.000000 
#    z -0.005180 0.000000 3.349470 
# 
# 
# High freq. dielectric constant tensor:
#      x y z
#    x 1.707690 0.000000 -0.000340 
#    y 0.000000 1.694030 0.000000 
#    z -0.000340 0.000000 1.705550 
# 
# From -- ./inp_files/308277.got.cif
#   From: 2010.06.25/outbox.cif.g09.slc.cpg/sg12_155_cif.got.tgz:308277.got - 2010.06.28 00:19:55.
