data_PCOD8089965
_publ_section_title
;
Structure prediction by ZEFSAII (Michael W. Deem and Ramdas Pophale) SiO2 
 PCOD8089965
Probable space group: C 2/M
;
_chemical_formula_sum "Si O2"
_cell_formula_units_Z 56
_cell_length_a 19.799692
_cell_length_b 8.856384
_cell_length_c 21.155954
_cell_angle_alpha 90.000000
_cell_angle_beta 126.417992
_cell_angle_gamma 90.000000
_cell_volume 2985.282871
_symmetry_space_group_name_H-M "C 2/M"
_symmetry_group_IT_number 12
_symmetry_cell_setting 'monoclinic'
loop_
_space_group_symop_operation_xyz
x,y,z
-x,y,-z
-x,-y,-z
x,-y,z
1/2+x,1/2+y,z
1/2-x,1/2+y,-z
1/2-x,1/2-y,-z
1/2+x,1/2-y,z
loop_
_atom_site_type_symbol
_atom_site_label
_atom_site_fract_x
_atom_site_fract_y
_atom_site_fract_z
Si Si1 0.232455 0.670384 0.198298
Si Si2 0.660774 0.322196 0.952976
Si Si3 0.604725 0.671663 0.788647
Si Si4 0.851876 0.177790 0.374153
Si Si5 0.407446 0.321435 0.953742
Si Si6 0.994190 0.321994 0.374004
Si Si7 0.671778 0.678841 0.494057
O O1 0.202435 0.500000 0.192453
O O2 0.298302 0.682338 0.177809
O O3 0.276367 0.732516 0.286660
O O4 0.150790 0.766762 0.136127
O O5 0.672328 0.500000 0.960761
O O6 0.602131 0.277987 0.860494
O O7 0.750000 0.250000 0.000000
O O8 0.620384 0.258878 0.994064
O O9 0.571953 0.500000 0.760385
O O10 0.548969 0.785426 0.716897
O O11 0.823917 0.220225 0.429206
O O12 0.938830 0.258383 0.401789
O O13 0.868264 0.000000 0.374478
O O14 0.407183 0.500000 0.950763
O O15 0.500000 0.254218 0.000000
O O16 0.003841 0.500000 0.387891
O O17 0.085240 0.246525 0.420643
O O18 0.673028 0.500000 0.484181
O O19 0.750000 0.750000 0.500000
#
# Coordination Sequence:
#
# PCOD8089965 Si02
#       7
#     8   8   8   8   8   8   8
#     4   9  17  33  56  80 106 138 181 226 269 325
#     4  10  19  33  55  78 107 143 185 230 277 329
#     4   9  18  34  55  80 109 144 186 231 281 331
#     4   9  20  39  62  85 113 148 185 229 284 338
#     4  10  21  35  50  75 112 146 179 223 276 329
#     4  11  22  36  59  89 117 145 189 238 277 332
#     4  11  23  41  62  84 117 154 186 227 282 339
#
# _framework density 18.758692
#
# number of rings (size 3 to 8) (size 9 to 14) (size 15 to 20)
#    0.000    2.143    1.429    3.000    0.000    6.000 
#    2.571    0.000    0.000    0.000    0.000    0.000 
#    0.000    0.000    0.000    0.000    0.000    0.000 
#
# Total GULP energy -347141.989024 kJ/mol
# GULP energy per Si atom -12397.928179 kJ/mol
# Density = 1.871600 g / cm^3
# Si number density = 18.758692 Si / 1000 Ang^3
#
#
#
# Elastic Constant Matrix: (Units=GPa)
#
#
# Indices 1 2 3 4 5 6 
#
# 1 138.1517 48.1244 71.7281 0.0000 8.7343 0.0000
# 2 48.1244 66.0000 40.2181 0.0000 3.8657 0.0000
# 3 71.7281 40.2181 115.4972 0.0000 5.4077 0.0000
# 4 0.0000 0.0000 0.0000 31.2853 0.0000 5.1724
# 5 8.7343 3.8657 5.4077 0.0000 29.0916 0.0000
# 6 0.0000 0.0000 0.0000 5.1724 0.0000 27.0316
#
#
#
# Elastic Compliance Matrix: (Units=1/GPa)
#
#
# Indices 1 2 3 4 5 6 
#
# 1 0.012107 -0.005318 -0.005578 0.000000 -0.001891 0.000000
# 2 -0.005318 0.021619 -0.004202 0.000000 -0.000495 0.000000
# 3 -0.005578 -0.004202 0.013600 0.000000 -0.000295 0.000000
# 4 0.000000 0.000000 0.000000 0.033008 0.000000 -0.006316
# 5 -0.001891 -0.000495 -0.000295 0.000000 0.035063 0.000000
# 6 0.000000 0.000000 0.000000 -0.006316 0.000000 0.038202
#
#
# Mechanical properties :
#
#
# Convention : Reuss Voigt Hill
#
# Bulk Modulus (GPa) = 58.38310 71.08779 64.73545
# Shear Modulus (GPa) = 26.38460 28.12024 27.25242
#
# Velocity S-wave (km/s) = 3.75444 3.87596 3.81568
# Velocity P-wave (km/s) = 7.07002 7.61636 7.34827
#
# Compressibility (1/GPa) = 0.01712824
#
# Stress axis : x y z
#
# Youngs Moduli (GPa) = 82.59910 46.25634 73.53046
#
# Poissons Ratio (x) = 0.24597 0.41019
# Poissons Ratio (y) = 0.43923 0.30900
# Poissons Ratio (z) = 0.46078 0.19439
#
# Static dielectric constant tensor:
#      x y z
#    x 3.417280 0.000000 -0.118220 
#    y 0.000000 3.329970 0.000000 
#    z -0.118220 0.000000 3.597250 
# 
# 
# High freq. dielectric constant tensor:
#      x y z
#    x 1.713130 0.000000 -0.004670 
#    y 0.000000 1.719570 0.000000 
#    z -0.004670 0.000000 1.742760 
# 
# From -- ./inp_files/320192.got.cif
#   From: 2010.06.25/outbox.cif.g09.slc.cpg/sg12_161_cif.got.tgz:320192.got - 2010.06.28 00:19:55.
