data_PCOD8089082
_publ_section_title
;
Structure prediction by ZEFSAII (Michael W. Deem and Ramdas Pophale) SiO2 
 PCOD8089082
Probable space group: C 2/M
;
_chemical_formula_sum "Si O2"
_cell_formula_units_Z 64
_cell_length_a 28.784151
_cell_length_b 8.911999
_cell_length_c 14.525983
_cell_angle_alpha 90.000000
_cell_angle_beta 107.099679
_cell_angle_gamma 90.000000
_cell_volume 3561.547048
_symmetry_space_group_name_H-M "C 2/M"
_symmetry_group_IT_number 12
_symmetry_cell_setting 'monoclinic'
loop_
_space_group_symop_operation_xyz
x,y,z
-x,y,-z
-x,-y,-z
x,-y,z
1/2+x,1/2+y,z
1/2-x,1/2+y,-z
1/2-x,1/2-y,-z
1/2+x,1/2-y,z
loop_
_atom_site_type_symbol
_atom_site_label
_atom_site_fract_x
_atom_site_fract_y
_atom_site_fract_z
Si Si1 0.400762 0.825452 0.132077
Si Si2 0.748055 0.176235 0.097720
Si Si3 0.308384 0.822873 0.625466
Si Si4 0.394801 0.824750 0.804815
Si Si5 0.209511 0.673716 0.588688
Si Si6 0.501061 0.824855 0.896924
Si Si7 0.667170 0.171545 0.751820
Si Si8 0.652141 0.676952 0.059101
O O1 0.454525 0.760841 0.139786
O O2 0.385922 0.802020 0.231590
O O3 0.396882 0.000000 0.103167
O O4 0.361127 0.734501 0.050288
O O5 0.795627 0.212683 0.182700
O O6 0.701715 0.245803 0.123243
O O7 0.741932 0.000000 0.083949
O O8 0.750000 0.250000 0.000000
O O9 0.357729 0.766955 0.704486
O O10 0.259930 0.756214 0.644256
O O11 0.311510 0.767912 0.521057
O O12 0.304677 0.000000 0.630909
O O13 0.451161 0.794149 0.811228
O O14 0.388922 0.729078 0.894048
O O15 0.386317 0.000000 0.821359
O O16 0.222789 0.500000 0.588564
O O17 0.168046 0.702621 0.642278
O O18 0.509952 0.000000 0.914026
O O19 0.500000 0.754027 0.000000
O O20 0.683966 0.000000 0.780556
O O21 0.658296 0.500000 0.060869
#
# Coordination Sequence:
#
# PCOD8089082 Si02
#       8
#     8   8   8   8   8   8   8   8
#     4  10  19  33  51  69  95 133 174 207 246 303
#     4  12  23  34  48  69 100 134 169 204 242 294
#     4   9  18  32  52  76  99 128 165 209 257 302
#     4  10  19  33  53  74  98 131 171 214 257 304
#     4   9  18  33  51  74 103 130 163 206 255 307
#     4   9  16  29  51  74  95 128 174 216 253 298
#     4  10  20  33  51  72  99 136 170 206 251 300
#     4  12  23  33  47  71 102 134 167 206 252 299
#
# _framework density 17.969719999999999
#
# number of rings (size 3 to 8) (size 9 to 14) (size 15 to 20)
#    0.000    1.875    2.500    3.000    0.000    3.000 
#    0.000    1.250    0.000    0.750    0.000    5.250 
#    0.000    0.000    0.000    9.625    0.000   10.250 
#
# Total GULP energy -396627.001831 kJ/mol
# GULP energy per Si atom -12394.593807 kJ/mol
# Density = 1.792882 g / cm^3
# Si number density = 17.969720 Si / 1000 Ang^3
#
#
#
# Elastic Constant Matrix: (Units=GPa)
#
#
# Indices 1 2 3 4 5 6 
#
# 1 132.1483 23.2334 54.4567 0.0000 -14.4768 0.0000
# 2 23.2334 64.9987 15.8412 0.0000 -4.1273 0.0000
# 3 54.4567 15.8412 87.5831 0.0000 -10.3650 0.0000
# 4 0.0000 0.0000 0.0000 16.6922 0.0000 -0.0893
# 5 -14.4768 -4.1273 -10.3650 0.0000 31.2668 0.0000
# 6 0.0000 0.0000 0.0000 -0.0893 0.0000 16.9208
#
#
#
# Elastic Compliance Matrix: (Units=1/GPa)
#
#
# Indices 1 2 3 4 5 6 
#
# 1 0.010695 -0.002206 -0.005932 0.000000 0.002694 0.000000
# 2 -0.002206 0.016593 -0.001552 0.000000 0.000654 0.000000
# 3 -0.005932 -0.001552 0.015651 0.000000 0.002237 0.000000
# 4 0.000000 0.000000 0.000000 0.059910 0.000000 0.000316
# 5 0.002694 0.000654 0.002237 0.000000 0.034058 0.000000
# 6 0.000000 0.000000 0.000000 0.000316 0.000000 0.059100
#
#
# Mechanical properties :
#
#
# Convention : Reuss Voigt Hill
#
# Bulk Modulus (GPa) = 42.44579 52.42143 47.43361
# Shear Modulus (GPa) = 22.39733 25.72256 24.05994
#
# Velocity S-wave (km/s) = 3.53426 3.78754 3.66309
# Velocity P-wave (km/s) = 6.35033 6.95433 6.65918
#
# Compressibility (1/GPa) = 0.02355946
#
# Stress axis : x y z
#
# Youngs Moduli (GPa) = 93.50452 60.26533 63.89188
#
# Poissons Ratio (x) = 0.13295 0.37899
# Poissons Ratio (y) = 0.20627 0.09917
# Poissons Ratio (z) = 0.55465 0.09354
#
# Static dielectric constant tensor:
#      x y z
#    x 3.558240 0.000000 -0.115060 
#    y 0.000000 3.124920 0.000000 
#    z -0.115060 0.000000 3.378390 
# 
# 
# High freq. dielectric constant tensor:
#      x y z
#    x 1.693870 0.000000 -0.015170 
#    y 0.000000 1.677030 0.000000 
#    z -0.015170 0.000000 1.675010 
# 
# From -- ./inp_files/243788.got.cif
#   From: 2010.06.25/outbox.cif.g09.slc.cpg/sg12_122_cif.got.tgz:243788.got - 2010.06.28 00:19:55.
