data_PCOD8089465
_publ_section_title
;
Structure prediction by ZEFSAII (Michael W. Deem and Ramdas Pophale) SiO2 
 PCOD8089465
Probable space group: C 2/M
;
_chemical_formula_sum "Si O2"
_cell_formula_units_Z 56
_cell_length_a 20.003889
_cell_length_b 9.300631
_cell_length_c 15.868667
_cell_angle_alpha 90.000000
_cell_angle_beta 72.830448
_cell_angle_gamma 90.000000
_cell_volume 2820.776082
_symmetry_space_group_name_H-M "C 2/M"
_symmetry_group_IT_number 12
_symmetry_cell_setting 'monoclinic'
loop_
_space_group_symop_operation_xyz
x,y,z
-x,y,-z
-x,-y,-z
x,-y,z
1/2+x,1/2+y,z
1/2-x,1/2+y,-z
1/2-x,1/2-y,-z
1/2+x,1/2-y,z
loop_
_atom_site_type_symbol
_atom_site_label
_atom_site_fract_x
_atom_site_fract_y
_atom_site_fract_z
Si Si1 0.804872 0.666880 0.592632
Si Si2 0.516649 0.166475 0.727661
Si Si3 0.464062 0.164754 0.928496
Si Si4 0.238028 0.844767 0.131196
Si Si5 0.669832 0.165057 0.612583
Si Si6 0.335642 0.655311 0.011507
Si Si7 0.885949 0.171588 0.701313
O O1 0.802599 0.500000 0.620977
O O2 0.728373 0.736923 0.635982
O O3 0.827661 0.684773 0.488137
O O4 0.863110 0.753774 0.623011
O O5 0.513271 0.188745 0.829566
O O6 0.593721 0.216103 0.671459
O O7 0.460463 0.265165 0.701132
O O8 0.502765 0.000000 0.708534
O O9 0.394919 0.255929 0.942293
O O10 0.441679 0.000000 0.946975
O O11 0.500000 0.221503 0.000000
O O12 0.221722 0.868262 0.039122
O O13 0.172196 0.784885 0.207791
O O14 0.261281 0.000000 0.160630
O O15 0.303178 0.733778 0.106731
O O16 0.684246 0.000000 0.633006
O O17 0.363627 0.500000 0.031790
O O18 0.892782 0.000000 0.687988
#
# Coordination Sequence:
#
# PCOD8089465 Si02
#       7
#     8   8   8   8   8   8   8
#     4  10  21  38  61  88 117 150 193 240 287 344
#     4  10  21  38  60  83 113 154 195 237 288 345
#     4  10  21  36  54  78 110 148 188 229 279 340
#     4   9  19  34  52  75 105 142 179 222 275 329
#     4   9  20  40  62  85 116 155 195 236 286 345
#     4  10  19  33  53  77 104 138 183 229 274 321
#     4  11  22  37  58  86 120 152 191 240 292 345
#
# _framework density 19.852692000000001
#
# number of rings (size 3 to 8) (size 9 to 14) (size 15 to 20)
#    0.000    2.143    1.429    1.286    0.000    4.857 
#    0.000    5.714    0.000    0.000    0.000    0.000 
#    0.000    0.000    0.000    0.000    0.000    0.000 
#
# Total GULP energy -347135.620059 kJ/mol
# GULP energy per Si atom -12397.700716 kJ/mol
# Density = 1.980751 g / cm^3
# Si number density = 19.852692 Si / 1000 Ang^3
#
#
#
# Elastic Constant Matrix: (Units=GPa)
#
#
# Indices 1 2 3 4 5 6 
#
# 1 91.0218 54.2196 52.8514 0.0000 -8.0605 0.0000
# 2 54.2196 105.5259 43.7575 0.0000 -7.0272 0.0000
# 3 52.8514 43.7575 70.0192 0.0000 -18.2130 0.0000
# 4 0.0000 0.0000 0.0000 20.1167 0.0000 -1.3542
# 5 -8.0605 -7.0272 -18.2130 0.0000 40.3068 0.0000
# 6 0.0000 0.0000 0.0000 -1.3542 0.0000 31.0236
#
#
#
# Elastic Compliance Matrix: (Units=1/GPa)
#
#
# Indices 1 2 3 4 5 6 
#
# 1 0.022316 -0.005890 -0.013904 0.000000 -0.002847 0.000000
# 2 -0.005890 0.014434 -0.004789 0.000000 -0.000825 0.000000
# 3 -0.013904 -0.004789 0.030402 0.000000 0.010122 0.000000
# 4 0.000000 0.000000 0.000000 0.049856 0.000000 0.002176
# 5 -0.002847 -0.000825 0.010122 0.000000 0.028670 0.000000
# 6 0.000000 0.000000 0.000000 0.002176 0.000000 0.032329
#
#
# Mechanical properties :
#
#
# Convention : Reuss Voigt Hill
#
# Bulk Modulus (GPa) = 55.59850 63.13600 59.36725
# Shear Modulus (GPa) = 21.44366 26.00531 23.72448
#
# Velocity S-wave (km/s) = 3.29011 3.62320 3.46067
# Velocity P-wave (km/s) = 6.51916 7.02671 6.77769
#
# Compressibility (1/GPa) = 0.01798610
#
# Stress axis : x y z
#
# Youngs Moduli (GPa) = 44.81012 69.28318 32.89215
#
# Poissons Ratio (x) = 0.40810 0.45734
# Poissons Ratio (y) = 0.26395 0.15751
# Poissons Ratio (z) = 0.62305 0.33177
#
# Static dielectric constant tensor:
#      x y z
#    x 3.438620 0.000000 -0.064910 
#    y 0.000000 3.941280 0.000000 
#    z -0.064910 0.000000 3.542750 
# 
# 
# High freq. dielectric constant tensor:
#      x y z
#    x 1.759380 0.000000 -0.008090 
#    y 0.000000 1.780970 0.000000 
#    z -0.008090 0.000000 1.770970 
# 
# From -- ./inp_files/275249.got.cif
#   From: 2010.06.25/outbox.cif.g09.slc.cpg/sg12_138_cif.got.tgz:275249.got - 2010.06.28 00:19:55.
