data_PCOD8089863
_publ_section_title
;
Structure prediction by ZEFSAII (Michael W. Deem and Ramdas Pophale) SiO2 
 PCOD8089863
Probable space group: C 2/M
;
_chemical_formula_sum "Si O2"
_cell_formula_units_Z 52
_cell_length_a 29.494536
_cell_length_b 10.723762
_cell_length_c 14.218359
_cell_angle_alpha 90.000000
_cell_angle_beta 142.172233
_cell_angle_gamma 90.000000
_cell_volume 2758.062040
_symmetry_space_group_name_H-M "C 2/M"
_symmetry_group_IT_number 12
_symmetry_cell_setting 'monoclinic'
loop_
_space_group_symop_operation_xyz
x,y,z
-x,y,-z
-x,-y,-z
x,-y,z
1/2+x,1/2+y,z
1/2-x,1/2+y,-z
1/2-x,1/2-y,-z
1/2+x,1/2-y,z
loop_
_atom_site_type_symbol
_atom_site_label
_atom_site_fract_x
_atom_site_fract_y
_atom_site_fract_z
Si Si1 0.275434 0.363275 0.843359
Si Si2 0.591490 0.000000 0.848863
Si Si3 0.380758 0.860043 0.804727
Si Si4 0.922429 0.252669 0.062322
Si Si5 0.587070 0.228448 0.347804
Si Si6 0.179268 0.500000 0.806473
Si Si7 0.227540 0.859845 0.634328
Si Si8 0.076236 0.500000 0.462993
O O1 0.262178 0.500000 0.769688
O O2 0.230588 0.377115 0.868833
O O3 0.243074 0.243552 0.738165
O O4 0.363786 0.349573 0.002890
O O5 0.602783 0.117872 0.933360
O O6 0.654273 0.000000 0.872357
O O7 0.511762 0.000000 0.669497
O O8 0.410889 0.828601 0.752131
O O9 0.291324 0.848845 0.659823
O O10 0.406206 0.000000 0.870829
O O11 0.416813 0.767114 0.940111
O O12 0.005094 0.213473 0.228173
O O13 0.647814 0.336542 0.456836
O O14 0.603319 0.121659 0.450768
O O15 0.109138 0.500000 0.621083
O O16 0.227412 0.000000 0.677600
#
# Coordination Sequence:
#
# PCOD8089863 Si02
#       8
#     8   4   8   8   8   4   8   4
#     4   9  20  38  59  81 110 148 186 227 285 330
#     4  10  21  33  58  89 114 137 186 242 280 330
#     4  10  19  33  54  81 115 150 193 228 267 330
#     4  10  21  34  53  84 117 147 185 231 278 330
#     4  11  19  33  54  82 116 152 184 224 277 328
#     4  10  19  38  60  80 109 146 192 229 286 332
#     4  10  21  36  56  84 112 150 191 229 274 329
#     4  10  19  33  56  87 110 144 183 232 280 328
#
# _framework density 18.853819000000001
#
# number of rings (size 3 to 8) (size 9 to 14) (size 15 to 20)
#    0.462    1.538    3.077    1.154    1.077    1.846 
#    0.000    3.077    0.000    4.615    0.000    2.154 
#    0.000    0.000    0.000    0.000    0.000    0.000 
#
# Total GULP energy -322177.586119 kJ/mol
# GULP energy per Si atom -12391.445620 kJ/mol
# Density = 1.881091 g / cm^3
# Si number density = 18.853819 Si / 1000 Ang^3
#
#
#
# Elastic Constant Matrix: (Units=GPa)
#
#
# Indices 1 2 3 4 5 6 
#
# 1 84.4100 15.9371 14.0353 0.0000 6.0737 0.0000
# 2 15.9371 81.4025 21.5136 0.0000 11.7413 0.0000
# 3 14.0353 21.5136 70.1757 0.0000 17.7455 0.0000
# 4 0.0000 0.0000 0.0000 21.9185 0.0000 3.8915
# 5 6.0737 11.7413 17.7455 0.0000 28.5720 0.0000
# 6 0.0000 0.0000 0.0000 3.8915 0.0000 4.0784
#
#
#
# Elastic Compliance Matrix: (Units=1/GPa)
#
#
# Indices 1 2 3 4 5 6 
#
# 1 0.012548 -0.001882 -0.001725 0.000000 -0.000823 0.000000
# 2 -0.001882 0.013951 -0.003027 0.000000 -0.003453 0.000000
# 3 -0.001725 -0.003027 0.017932 0.000000 -0.009526 0.000000
# 4 0.000000 0.000000 0.000000 0.054929 0.000000 -0.052411
# 5 -0.000823 -0.003453 -0.009526 0.000000 0.042510 0.000000
# 6 0.000000 0.000000 0.000000 -0.052411 0.000000 0.295200
#
#
# Mechanical properties :
#
#
# Convention : Reuss Voigt Hill
#
# Bulk Modulus (GPa) = 32.08937 37.66224 34.87581
# Shear Modulus (GPa) = 10.85243 23.21392 17.03318
#
# Velocity S-wave (km/s) = 2.40179 3.51274 3.00898
# Velocity P-wave (km/s) = 4.97479 6.03918 5.53264
#
# Compressibility (1/GPa) = 0.03116297
#
# Stress axis : x y z
#
# Youngs Moduli (GPa) = 79.69218 71.67801 55.76626
#
# Poissons Ratio (x) = 0.13492 0.09617
# Poissons Ratio (y) = 0.15000 0.16883
# Poissons Ratio (z) = 0.13743 0.21700
#
# Static dielectric constant tensor:
#      x y z
#    x 3.403580 0.000000 0.389730 
#    y 0.000000 3.363760 0.000000 
#    z 0.389730 0.000000 3.460290 
# 
# 
# High freq. dielectric constant tensor:
#      x y z
#    x 1.723790 0.000000 0.028690 
#    y 0.000000 1.714900 0.000000 
#    z 0.028690 0.000000 1.729760 
# 
# From -- ./inp_files/250215.got.cif
#   From: 2010.06.25/outbox.cif.g09.slc.cpg/sg12_126_cif.got.tgz:250215.got - 2010.06.28 00:19:55.
