data_PCOD8089251
_publ_section_title
;
Structure prediction by ZEFSAII (Michael W. Deem and Ramdas Pophale) SiO2 
 PCOD8089251
Probable space group: C 2/M
;
_chemical_formula_sum "Si O2"
_cell_formula_units_Z 56
_cell_length_a 12.941489
_cell_length_b 13.429830
_cell_length_c 29.191664
_cell_angle_alpha 90.000000
_cell_angle_beta 141.356098
_cell_angle_gamma 90.000000
_cell_volume 3168.333762
_symmetry_space_group_name_H-M "C 2/M"
_symmetry_group_IT_number 12
_symmetry_cell_setting 'monoclinic'
loop_
_space_group_symop_operation_xyz
x,y,z
-x,y,-z
-x,-y,-z
x,-y,z
1/2+x,1/2+y,z
1/2-x,1/2+y,-z
1/2-x,1/2-y,-z
1/2+x,1/2-y,z
loop_
_atom_site_type_symbol
_atom_site_label
_atom_site_fract_x
_atom_site_fract_y
_atom_site_fract_z
Si Si1 0.014617 0.884468 0.684312
Si Si2 0.865633 0.113437 0.028664
Si Si3 0.919341 0.232103 0.203687
Si Si4 0.851786 0.384513 0.415898
Si Si5 0.827907 0.698692 0.959551
Si Si6 0.285056 0.229638 0.302428
Si Si7 0.722625 0.614745 0.190294
O O1 0.080812 0.851374 0.756867
O O2 0.103136 0.822914 0.674477
O O3 0.817923 0.864409 0.615234
O O4 0.056932 0.000000 0.691440
O O5 0.712342 0.134414 0.009384
O O6 0.031581 0.138779 0.114172
O O7 0.861249 0.000000 0.009615
O O8 0.848700 0.184184 0.978789
O O9 0.818042 0.183453 0.127248
O O10 0.831997 0.331827 0.190104
O O11 0.100963 0.265766 0.250806
O O12 0.864817 0.500000 0.406449
O O13 0.867823 0.320360 0.375347
O O14 0.000000 0.350957 0.500000
O O15 0.000000 0.656404 0.000000
O O16 0.273163 0.148494 0.258364
O O17 0.763588 0.500000 0.200144
#
# Coordination Sequence:
#
# PCOD8089251 Si02
#       7
#     8   8   8   8   8   8   8
#     4   9  20  35  54  79 106 138 173 208 251 305
#     4  10  22  35  51  73  97 130 171 216 265 314
#     4  10  20  34  51  75  99 134 172 213 260 302
#     4   9  18  34  56  83 110 137 171 207 247 300
#     4  11  21  36  53  69 102 132 169 221 261 312
#     4  10  19  34  55  77 106 138 170 210 258 301
#     4  10  19  33  52  75  98 128 174 215 257 309
#
# _framework density 17.674904999999999
#
# number of rings (size 3 to 8) (size 9 to 14) (size 15 to 20)
#    0.000    2.143    2.857    0.429    0.000    3.429 
#    0.000    1.429    0.000    0.429    0.000    0.000 
#    0.000    0.000    0.000    0.000    0.000    0.000 
#
# Total GULP energy -347265.479863 kJ/mol
# GULP energy per Si atom -12402.338567 kJ/mol
# Density = 1.763468 g / cm^3
# Si number density = 17.674905 Si / 1000 Ang^3
#
#
#
# Elastic Constant Matrix: (Units=GPa)
#
#
# Indices 1 2 3 4 5 6 
#
# 1 85.8694 25.9578 21.8370 0.0000 7.4982 0.0000
# 2 25.9578 76.8215 28.6073 0.0000 6.4293 0.0000
# 3 21.8370 28.6073 94.6301 0.0000 2.5289 0.0000
# 4 0.0000 0.0000 0.0000 21.6975 0.0000 2.7477
# 5 7.4982 6.4293 2.5289 0.0000 21.8573 0.0000
# 6 0.0000 0.0000 0.0000 2.7477 0.0000 23.1272
#
#
#
# Elastic Compliance Matrix: (Units=1/GPa)
#
#
# Indices 1 2 3 4 5 6 
#
# 1 0.013511 -0.003557 -0.001953 0.000000 -0.003363 0.000000
# 2 -0.003557 0.015929 -0.003914 0.000000 -0.003012 0.000000
# 3 -0.001953 -0.003914 0.012190 0.000000 0.000411 0.000000
# 4 0.000000 0.000000 0.000000 0.046792 0.000000 -0.005559
# 5 -0.003363 -0.003012 0.000411 0.000000 0.047744 0.000000
# 6 0.000000 0.000000 0.000000 -0.005559 0.000000 0.043900
#
#
# Mechanical properties :
#
#
# Convention : Reuss Voigt Hill
#
# Bulk Modulus (GPa) = 43.89247 45.56946 44.73096
# Shear Modulus (GPa) = 24.21228 25.39766 24.80497
#
# Velocity S-wave (km/s) = 3.70519 3.79480 3.75026
# Velocity P-wave (km/s) = 6.57204 6.71109 6.64193
#
# Compressibility (1/GPa) = 0.02278295
#
# Stress axis : x y z
#
# Youngs Moduli (GPa) = 74.01381 62.77996 82.03205
#
# Poissons Ratio (x) = 0.22329 0.16019
# Poissons Ratio (y) = 0.26325 0.32108
# Poissons Ratio (z) = 0.14453 0.24573
#
# Static dielectric constant tensor:
#      x y z
#    x 3.377200 0.000000 0.050010 
#    y 0.000000 3.132860 0.000000 
#    z 0.050010 0.000000 3.263100 
# 
# 
# High freq. dielectric constant tensor:
#      x y z
#    x 1.694030 0.000000 0.002610 
#    y 0.000000 1.673550 0.000000 
#    z 0.002610 0.000000 1.677910 
# 
# From -- ./inp_files/262833.got.cif
#   From: 2010.06.25/outbox.cif.g09.slc.cpg/sg12_132_cif.got.tgz:262833.got - 2010.06.28 00:19:55.
