data_PCOD8089671
_publ_section_title
;
Structure prediction by ZEFSAII (Michael W. Deem and Ramdas Pophale) SiO2 
 PCOD8089671
Probable space group: C 2/M
;
_chemical_formula_sum "Si O2"
_cell_formula_units_Z 64
_cell_length_a 23.663435
_cell_length_b 8.775918
_cell_length_c 24.197538
_cell_angle_alpha 90.000000
_cell_angle_beta 135.972739
_cell_angle_gamma 90.000000
_cell_volume 3492.421656
_symmetry_space_group_name_H-M "C 2/M"
_symmetry_group_IT_number 12
_symmetry_cell_setting 'monoclinic'
loop_
_space_group_symop_operation_xyz
x,y,z
-x,y,-z
-x,-y,-z
x,-y,z
1/2+x,1/2+y,z
1/2-x,1/2+y,-z
1/2-x,1/2-y,-z
1/2+x,1/2-y,z
loop_
_atom_site_type_symbol
_atom_site_label
_atom_site_fract_x
_atom_site_fract_y
_atom_site_fract_z
Si Si1 0.130708 0.320584 0.036781
Si Si2 0.021460 0.179973 0.645614
Si Si3 0.176630 0.817820 0.688607
Si Si4 0.919337 0.166553 0.479143
Si Si5 0.943281 0.823472 0.209273
Si Si6 0.726599 0.821080 0.925611
Si Si7 0.001805 0.825567 0.131948
Si Si8 0.349404 0.677304 0.836827
O O1 0.139415 0.500000 0.046320
O O2 0.217714 0.250066 0.082741
O O3 0.107031 0.255462 0.080057
O O4 0.063342 0.280098 0.944140
O O5 0.110235 0.236877 0.687398
O O6 0.008013 0.220578 0.700556
O O7 0.947326 0.251927 0.556026
O O8 0.018091 0.000000 0.632839
O O9 0.148702 0.754157 0.607964
O O10 0.262264 0.747163 0.763772
O O11 0.183978 0.000000 0.693297
O O12 0.000000 0.148543 0.500000
O O13 0.884581 0.000000 0.469882
O O14 0.866013 0.714964 0.152759
O O15 0.000493 0.792254 0.196668
O O16 0.915061 0.000000 0.191435
O O17 0.741162 0.000000 0.938561
O O18 0.750000 0.750000 0.000000
O O19 0.092484 0.790764 0.174698
O O20 0.977133 0.000000 0.102131
O O21 0.339730 0.500000 0.842401
#
# Coordination Sequence:
#
# PCOD8089671 Si02
#       8
#     8   8   8   8   8   8   8   8
#     4  12  24  38  57  78  99 130 172 220 267 313
#     4   8  14  26  49  80 105 127 163 208 256 311
#     4   9  16  29  51  78 105 131 164 210 261 311
#     4   7  11  22  44  75 106 130 156 201 257 308
#     4  10  19  33  54  77 103 137 177 217 256 307
#     4  12  23  36  54  78 107 138 169 207 256 308
#     4  10  22  38  53  70  99 139 178 218 265 308
#     4  11  23  37  52  72 101 137 175 219 265 312
#
# _framework density 18.325392999999998
#
# number of rings (size 3 to 8) (size 9 to 14) (size 15 to 20)
#    0.000    2.125    1.250    5.250    0.000    3.500 
#    0.000    0.000    0.000    4.875    0.000    0.000 
#    0.000    0.000    0.000    0.000    0.000    0.125 
#
# Total GULP energy -396596.022657 kJ/mol
# GULP energy per Si atom -12393.625708 kJ/mol
# Density = 1.828368 g / cm^3
# Si number density = 18.325393 Si / 1000 Ang^3
#
#
#
# Elastic Constant Matrix: (Units=GPa)
#
#
# Indices 1 2 3 4 5 6 
#
# 1 102.9783 33.8702 50.6003 0.0000 -21.1075 0.0000
# 2 33.8702 73.3906 27.1427 0.0000 -8.4280 -0.0001
# 3 50.6003 27.1427 116.1923 0.0000 -32.9891 0.0000
# 4 0.0000 0.0000 0.0000 17.2323 0.0000 1.7548
# 5 -21.1075 -8.4280 -32.9891 0.0000 26.9310 0.0000
# 6 0.0000 -0.0001 0.0000 1.7548 0.0000 18.3112
#
#
#
# Elastic Compliance Matrix: (Units=1/GPa)
#
#
# Indices 1 2 3 4 5 6 
#
# 1 0.014029 -0.004558 -0.003569 0.000000 0.005197 0.000000
# 2 -0.004558 0.016401 -0.002152 0.000000 -0.001075 0.000000
# 3 -0.003569 -0.002152 0.014839 0.000000 0.014706 0.000000
# 4 0.000000 0.000000 0.000000 0.058602 0.000000 -0.005616
# 5 0.005197 -0.001075 0.014706 0.000000 0.058882 0.000000
# 6 0.000000 0.000000 0.000000 -0.005616 0.000000 0.055149
#
#
# Mechanical properties :
#
#
# Convention : Reuss Voigt Hill
#
# Bulk Modulus (GPa) = 40.46692 57.30974 48.88833
# Shear Modulus (GPa) = 20.26772 24.55812 22.41292
#
# Velocity S-wave (km/s) = 3.32925 3.66473 3.50101
# Velocity P-wave (km/s) = 6.07527 7.01771 6.56343
#
# Compressibility (1/GPa) = 0.02471154
#
# Stress axis : x y z
#
# Youngs Moduli (GPa) = 71.28196 60.97025 67.39124
#
# Poissons Ratio (x) = 0.27787 0.24054
# Poissons Ratio (y) = 0.32487 0.14502
# Poissons Ratio (z) = 0.25442 0.13120
#
# Static dielectric constant tensor:
#      x y z
#    x 3.403980 0.000000 -0.263540 
#    y 0.000000 3.177750 0.000000 
#    z -0.263540 0.000000 3.834970 
# 
# 
# High freq. dielectric constant tensor:
#      x y z
#    x 1.692860 0.000000 -0.018910 
#    y 0.000000 1.684300 0.000000 
#    z -0.018910 0.000000 1.716100 
# 
# From -- ./inp_files/346266.got.cif
#   From: 2010.06.25/outbox.cif.g09.slc.cpg/sg12_174_cif.got.tgz:346266.got - 2010.06.28 00:19:55.
