data_PCOD8089446
_publ_section_title
;
Structure prediction by ZEFSAII (Michael W. Deem and Ramdas Pophale) SiO2 
 PCOD8089446
Probable space group: C 2/M
;
_chemical_formula_sum "Si O2"
_cell_formula_units_Z 56
_cell_length_a 21.442939
_cell_length_b 9.122693
_cell_length_c 19.977954
_cell_angle_alpha 90.000000
_cell_angle_beta 47.559621
_cell_angle_gamma 90.000000
_cell_volume 2884.051019
_symmetry_space_group_name_H-M "C 2/M"
_symmetry_group_IT_number 12
_symmetry_cell_setting 'monoclinic'
loop_
_space_group_symop_operation_xyz
x,y,z
-x,y,-z
-x,-y,-z
x,-y,z
1/2+x,1/2+y,z
1/2-x,1/2+y,-z
1/2-x,1/2-y,-z
1/2+x,1/2-y,z
loop_
_atom_site_type_symbol
_atom_site_label
_atom_site_fract_x
_atom_site_fract_y
_atom_site_fract_z
Si Si1 0.134900 0.325656 0.782844
Si Si2 0.213890 0.829734 0.960884
Si Si3 0.232760 0.672587 0.222205
Si Si4 0.906595 0.326138 0.575402
Si Si5 0.351850 0.841125 0.474459
Si Si6 0.475763 0.329664 0.941089
Si Si7 0.837426 0.159586 0.368366
O O1 0.139388 0.500000 0.782063
O O2 0.186654 0.258579 0.807321
O O3 0.038155 0.271073 0.852669
O O4 0.174025 0.265573 0.686153
O O5 0.273101 0.796194 0.853161
O O6 0.214960 0.000000 0.977445
O O7 0.250000 0.750000 0.000000
O O8 0.119033 0.780110 0.009664
O O9 0.248950 0.500000 0.224004
O O10 0.146642 0.728847 0.321164
O O11 0.910733 0.500000 0.577298
O O12 0.860601 0.271603 0.541678
O O13 0.000000 0.257961 0.500000
O O14 0.253407 0.867176 0.532807
O O15 0.392303 0.738106 0.387314
O O16 0.398679 0.000000 0.437183
O O17 0.489652 0.500000 0.913871
O O18 0.500000 0.298143 0.000000
O O19 0.876908 0.000000 0.320747
#
# Coordination Sequence:
#
# PCOD8089446 Si02
#       7
#     8   8   8   8   8   8   8
#     4  12  23  34  56  89 118 145 191 253 302 346
#     4  10  22  40  64  88 120 162 200 245 297 364
#     4  10  19  38  62  84 112 157 203 237 295 364
#     4   9  17  32  57  84 111 146 193 243 286 341
#     4   9  17  31  52  79 108 140 184 236 283 333
#     4  10  20  39  64  87 116 155 198 240 296 367
#     4  10  19  33  53  76 109 151 185 225 285 352
#
# _framework density 19.417133
#
# number of rings (size 3 to 8) (size 9 to 14) (size 15 to 20)
#    0.000    2.000    2.857    1.714    0.000    2.000 
#    2.571    0.000    0.000    1.714    0.000    0.000 
#    0.000    0.000    0.000    0.000    0.000    0.000 
#
# Total GULP energy -346959.916870 kJ/mol
# GULP energy per Si atom -12391.425603 kJ/mol
# Density = 1.937294 g / cm^3
# Si number density = 19.417133 Si / 1000 Ang^3
#
#
#
# Elastic Constant Matrix: (Units=GPa)
#
#
# Indices 1 2 3 4 5 6 
#
# 1 111.2083 40.5954 66.8598 0.0000 9.5505 0.0000
# 2 40.5954 88.1389 46.8323 -0.0002 9.6503 0.0001
# 3 66.8598 46.8323 98.2168 0.0000 15.2924 0.0000
# 4 0.0000 -0.0002 0.0000 27.1518 0.0000 7.1773
# 5 9.5505 9.6503 15.2924 0.0000 35.0309 0.0000
# 6 0.0000 0.0001 0.0000 7.1773 0.0000 23.9542
#
#
#
# Elastic Compliance Matrix: (Units=1/GPa)
#
#
# Indices 1 2 3 4 5 6 
#
# 1 0.015504 -0.002073 -0.009653 0.000000 0.000558 0.000000
# 2 -0.002073 0.015512 -0.005802 0.000000 -0.001175 0.000000
# 3 -0.009653 -0.005802 0.020236 0.000000 -0.004604 0.000000
# 4 0.000000 0.000000 0.000000 0.039998 0.000000 -0.011985
# 5 0.000558 -0.001175 -0.004604 0.000000 0.030728 0.000000
# 6 0.000000 0.000000 0.000000 -0.011985 0.000000 0.045337
#
#
# Mechanical properties :
#
#
# Convention : Reuss Voigt Hill
#
# Bulk Modulus (GPa) = 61.74320 67.34879 64.54599
# Shear Modulus (GPa) = 24.06497 26.77914 25.42205
#
# Velocity S-wave (km/s) = 3.52428 3.71772 3.62229
# Velocity P-wave (km/s) = 6.95903 7.29309 7.12802
#
# Compressibility (1/GPa) = 0.01619612
#
# Stress axis : x y z
#
# Youngs Moduli (GPa) = 64.49808 64.46459 49.41679
#
# Poissons Ratio (x) = 0.13365 0.47700
# Poissons Ratio (y) = 0.13372 0.28674
# Poissons Ratio (z) = 0.62258 0.37405
#
# Static dielectric constant tensor:
#      x y z
#    x 3.425770 0.000000 -0.018760 
#    y 0.000000 3.563740 0.000000 
#    z -0.018760 0.000000 3.666720 
# 
# 
# High freq. dielectric constant tensor:
#      x y z
#    x 1.734550 0.000000 0.010970 
#    y 0.000000 1.733790 0.000000 
#    z 0.010970 0.000000 1.760290 
# 
# From -- ./inp_files/280861.got.cif
#   From: 2010.06.25/outbox.cif.g09.slc.cpg/sg12_141_cif.got.tgz:280861.got - 2010.06.28 00:19:55.
