data_PCOD8089447
_publ_section_title
;
Structure prediction by ZEFSAII (Michael W. Deem and Ramdas Pophale) SiO2 
 PCOD8089447
Probable space group: C 2/M
;
_chemical_formula_sum "Si O2"
_cell_formula_units_Z 56
_cell_length_a 26.755619
_cell_length_b 9.097034
_cell_length_c 14.650564
_cell_angle_alpha 90.000000
_cell_angle_beta 126.707800
_cell_angle_gamma 90.000000
_cell_volume 2858.761661
_symmetry_space_group_name_H-M "C 2/M"
_symmetry_group_IT_number 12
_symmetry_cell_setting 'monoclinic'
loop_
_space_group_symop_operation_xyz
x,y,z
-x,y,-z
-x,-y,-z
x,-y,z
1/2+x,1/2+y,z
1/2-x,1/2+y,-z
1/2-x,1/2-y,-z
1/2+x,1/2-y,z
loop_
_atom_site_type_symbol
_atom_site_label
_atom_site_fract_x
_atom_site_fract_y
_atom_site_fract_z
Si Si1 0.365260 0.165206 0.792152
Si Si2 0.426111 0.828258 0.151697
Si Si3 0.808906 0.336181 0.921228
Si Si4 0.518248 0.662879 0.123557
Si Si5 0.193505 0.674030 0.714729
Si Si6 0.558343 0.827126 0.622564
Si Si7 0.254514 0.669097 0.598828
O O1 0.360516 0.171075 0.896411
O O2 0.430598 0.208813 0.819341
O O3 0.321592 0.294580 0.710242
O O4 0.348346 0.000000 0.739107
O O5 0.462516 0.719910 0.125039
O O6 0.448520 0.789455 0.278345
O O7 0.439298 0.000000 0.144265
O O8 0.351283 0.796507 0.056518
O O9 0.781450 0.500000 0.899495
O O10 0.748513 0.234284 0.840739
O O11 0.539395 0.500000 0.182192
O O12 0.500000 0.642664 0.000000
O O13 0.196269 0.500000 0.730477
O O14 0.125233 0.738478 0.663688
O O15 0.204854 0.720492 0.621550
O O16 0.500000 0.760731 0.500000
O O17 0.560160 0.000000 0.607507
O O18 0.246629 0.500000 0.569406
O O19 0.250000 0.750000 0.500000
#
# Coordination Sequence:
#
# PCOD8089447 Si02
#       7
#     8   8   8   8   8   8   8
#     4  10  19  33  53  76 110 149 184 226 278 334
#     4  10  20  35  57  83 111 147 191 235 278 337
#     4   9  18  32  52  81 111 139 178 227 280 334
#     4  11  22  34  52  81 117 150 181 224 282 339
#     4   9  19  35  56  80 109 146 185 230 282 334
#     4   9  19  37  59  82 109 144 189 236 278 328
#     4  10  20  34  53  80 113 146 189 235 281 336
#
# _framework density 19.588899999999999
#
# number of rings (size 3 to 8) (size 9 to 14) (size 15 to 20)
#    0.000    2.286    1.429    1.286    0.000    4.000 
#    0.000    3.571    0.000    1.714    0.000    0.000 
#    0.000    0.000    0.000    0.000    0.000    0.000 
#
# Total GULP energy -346900.543861 kJ/mol
# GULP energy per Si atom -12389.305138 kJ/mol
# Density = 1.954432 g / cm^3
# Si number density = 19.588900 Si / 1000 Ang^3
#
#
#
# Elastic Constant Matrix: (Units=GPa)
#
#
# Indices 1 2 3 4 5 6 
#
# 1 104.1520 35.6871 49.0760 0.0000 16.3410 0.0000
# 2 35.6871 46.7335 31.4159 0.0000 -0.2938 0.0000
# 3 49.0760 31.4159 120.1683 0.0000 1.3045 0.0000
# 4 0.0000 0.0000 0.0000 24.1466 0.0000 14.4714
# 5 16.3410 -0.2938 1.3045 0.0000 26.0661 0.0000
# 6 0.0000 0.0000 0.0000 14.4714 0.0000 1.8377
#
#
#
# Elastic Compliance Matrix: (Units=1/GPa)
#
#
# Indices 1 2 3 4 5 6 
#
# 1 0.016532 -0.009979 -0.004031 0.000000 -0.010275 0.000000
# 2 -0.009979 0.031994 -0.004363 0.000000 0.006835 0.000000
# 3 -0.004031 -0.004363 0.011088 0.000000 0.001923 0.000000
# 4 0.000000 0.000000 0.000000 -0.011135 0.000000 0.087681
# 5 -0.010275 0.006835 0.001923 0.000000 0.044786 0.000000
# 6 0.000000 0.000000 0.000000 0.087681 0.000000 -0.146301
#
#
# Mechanical properties :
#
#
# Convention : Reuss Voigt Hill
#
# Bulk Modulus (GPa) = 43.73059 55.93465 49.83262
# Shear Modulus (GPa) = -576.97908 20.73506 -278.12201
#
# Velocity S-wave (km/s) = -17.18090 3.25701 -11.92844
# Velocity P-wave (km/s) = 19.26668 6.53914 12.81493
#
# Compressibility (1/GPa) = 0.02286729
#
# Stress axis : x y z
#
# Youngs Moduli (GPa) = 60.48784 31.25550 90.18924
#
# Poissons Ratio (x) = 0.31190 0.36358
# Poissons Ratio (y) = 0.60362 0.39351
# Poissons Ratio (z) = 0.24384 0.13637
#
# Static dielectric constant tensor:
#      x y z
#    x 3.315090 0.000000 -0.074370 
#    y 0.000000 3.404960 0.000000 
#    z -0.074370 0.000000 3.311200 
# 
# 
# High freq. dielectric constant tensor:
#      x y z
#    x 1.758200 0.000000 0.001180 
#    y 0.000000 1.747870 0.000000 
#    z 0.001180 0.000000 1.757390 
# 
# From -- ./inp_files/238998.got.cif
#   From: 2010.06.25/outbox.cif.g09.slc.cpg/sg12_120_cif.got.tgz:238998.got - 2010.06.28 00:19:55.
