data_PCOD8089631
_publ_section_title
;
Structure prediction by ZEFSAII (Michael W. Deem and Ramdas Pophale) SiO2 
 PCOD8089631
Probable space group: C 2/M
;
_chemical_formula_sum "Si O2"
_cell_formula_units_Z 48
_cell_length_a 22.377115
_cell_length_b 12.374529
_cell_length_c 24.425598
_cell_angle_alpha 90.000000
_cell_angle_beta 23.810991
_cell_angle_gamma 90.000000
_cell_volume 2730.606421
_symmetry_space_group_name_H-M "C 2/M"
_symmetry_group_IT_number 12
_symmetry_cell_setting 'monoclinic'
loop_
_space_group_symop_operation_xyz
x,y,z
-x,y,-z
-x,-y,-z
x,-y,z
1/2+x,1/2+y,z
1/2-x,1/2+y,-z
1/2-x,1/2-y,-z
1/2+x,1/2-y,z
loop_
_atom_site_type_symbol
_atom_site_label
_atom_site_fract_x
_atom_site_fract_y
_atom_site_fract_z
Si Si1 0.554699 0.256623 0.715199
Si Si2 0.995579 0.699286 0.591350
Si Si3 0.848223 0.872716 0.472373
Si Si4 0.787380 0.375301 0.677085
Si Si5 0.983935 0.125353 0.885163
Si Si6 0.343633 0.878749 0.823656
O O1 0.683121 0.170621 0.620567
O O2 0.607246 0.345899 0.627285
O O3 0.503090 0.311954 0.813274
O O4 0.410202 0.196208 0.814499
O O5 0.864542 0.705064 0.656037
O O6 0.939318 0.626545 0.688393
O O7 0.039702 0.817113 0.577838
O O8 0.138986 0.642218 0.444411
O O9 0.854522 0.000000 0.477211
O O10 0.811332 0.500000 0.675161
O O11 0.614432 0.344664 0.818561
O O12 0.996441 0.000000 0.860225
O O13 0.827117 0.155431 0.044377
O O14 0.348774 0.000000 0.841861
#
# Coordination Sequence:
#
# PCOD8089631 Si02
#       6
#     8   8   8   8   8   8
#     4  10  19  34  51  74 105 138 165 205 258 302
#     4  10  19  34  52  75 101 134 169 210 255 297
#     4  10  20  33  53  78 102 131 173 216 252 298
#     4  10  19  33  54  76 104 135 168 211 256 303
#     4  10  20  33  51  77 106 134 167 205 252 306
#     4  10  20  32  51  78 105 135 167 205 251 304
#
# _framework density 17.578512
#
# number of rings (size 3 to 8) (size 9 to 14) (size 15 to 20)
#    0.000    2.000    1.667    3.500    0.000    0.667 
#    0.000    4.167    0.000    1.000    0.000    4.667 
#    0.000    0.000    0.000    0.000    0.000    0.000 
#
# Total GULP energy -297557.502617 kJ/mol
# GULP energy per Si atom -12398.229276 kJ/mol
# Density = 1.753850 g / cm^3
# Si number density = 17.578512 Si / 1000 Ang^3
#
#
#
# Elastic Constant Matrix: (Units=GPa)
#
#
# Indices 1 2 3 4 5 6 
#
# 1 79.0729 44.8026 30.4488 0.0017 -17.0492 0.0001
# 2 44.8026 82.2625 38.0793 0.0064 -14.6130 -0.0016
# 3 30.4488 38.0793 85.1897 0.0114 -28.4874 -0.0023
# 4 0.0017 0.0064 0.0114 21.7012 -0.0029 -3.5456
# 5 -17.0492 -14.6130 -28.4874 -0.0029 28.1665 -0.0003
# 6 0.0001 -0.0016 -0.0023 -3.5456 -0.0003 20.0286
#
#
#
# Elastic Compliance Matrix: (Units=1/GPa)
#
#
# Indices 1 2 3 4 5 6 
#
# 1 0.019470 -0.009129 -0.000788 0.000002 0.006253 0.000000
# 2 -0.009129 0.019652 -0.005984 -0.000002 -0.001382 0.000001
# 3 -0.000788 -0.005984 0.020395 -0.000006 0.017046 0.000001
# 4 0.000002 -0.000002 -0.000006 0.047453 -0.000001 0.008400
# 5 0.006253 -0.001382 0.017046 -0.000001 0.055811 0.000003
# 6 0.000000 0.000001 0.000001 0.008400 0.000003 0.051416
#
#
# Mechanical properties :
#
#
# Convention : Reuss Voigt Hill
#
# Bulk Modulus (GPa) = 36.07861 52.57627 44.32744
# Shear Modulus (GPa) = 19.58960 22.85889 21.22425
#
# Velocity S-wave (km/s) = 3.34189 3.61000 3.47853
# Velocity P-wave (km/s) = 5.95482 6.88117 6.43468
#
# Compressibility (1/GPa) = 0.02771725
#
# Stress axis : x y z
#
# Youngs Moduli (GPa) = 51.35994 50.88432 49.03160
#
# Poissons Ratio (x) = 0.46451 0.03863
# Poissons Ratio (y) = 0.46885 0.29339
# Poissons Ratio (z) = 0.04046 0.30448
#
# Static dielectric constant tensor:
#      x y z
#    x 3.296420 0.000000 -0.166890 
#    y 0.000000 3.065290 0.000000 
#    z -0.166890 0.000000 3.531090 
# 
# 
# High freq. dielectric constant tensor:
#      x y z
#    x 1.678340 0.000000 -0.010390 
#    y 0.000000 1.654920 0.000000 
#    z -0.010390 0.000000 1.690470 
# 
# From -- ./inp_files/94345.got.cif
#   From: 2010.06.25/outbox.cif.g09.slc.cpg/sg12_48_cif.got.tgz:94345.got - 2010.06.28 00:19:55.
