data_PCOD8089718
_publ_section_title
;
Structure prediction by ZEFSAII (Michael W. Deem and Ramdas Pophale) SiO2 
 PCOD8089718
Probable space group: C 2/M
;
_chemical_formula_sum "Si O2"
_cell_formula_units_Z 64
_cell_length_a 8.651111
_cell_length_b 19.272740
_cell_length_c 22.025096
_cell_angle_alpha 90.000000
_cell_angle_beta 113.191888
_cell_angle_gamma 90.000000
_cell_volume 3375.506665
_symmetry_space_group_name_H-M "C 2/M"
_symmetry_group_IT_number 12
_symmetry_cell_setting 'monoclinic'
loop_
_space_group_symop_operation_xyz
x,y,z
-x,y,-z
-x,-y,-z
x,-y,z
1/2+x,1/2+y,z
1/2-x,1/2+y,-z
1/2-x,1/2-y,-z
1/2+x,1/2-y,z
loop_
_atom_site_type_symbol
_atom_site_label
_atom_site_fract_x
_atom_site_fract_y
_atom_site_fract_z
Si Si1 0.900236 0.333970 0.802659
Si Si2 0.807458 0.420321 0.180591
Si Si3 0.828385 0.226770 0.134270
Si Si4 0.998824 0.171987 0.430142
Si Si5 0.358711 0.817471 0.428975
Si Si6 0.749014 0.079423 0.327257
Si Si7 0.949975 0.159436 0.925685
Si Si8 0.400525 0.078533 0.327632
O O1 0.762208 0.326162 0.833947
O O2 0.798149 0.363550 0.730293
O O3 0.047866 0.388874 0.840921
O O4 0.004803 0.261521 0.808553
O O5 0.846803 0.500000 0.189917
O O6 0.624856 0.404586 0.124735
O O7 0.822974 0.391401 0.252194
O O8 0.883908 0.185633 0.082890
O O9 0.691854 0.282033 0.091159
O O10 0.893377 0.242715 0.404118
O O11 0.921088 0.106721 0.382667
O O12 0.000000 0.150286 0.500000
O O13 0.185253 0.186788 0.437257
O O14 0.500000 0.837990 0.500000
O O15 0.342077 0.874239 0.373853
O O16 0.602836 0.079493 0.355101
O O17 0.773224 0.000000 0.306163
O O18 0.000000 0.133217 0.000000
O O19 0.336069 0.000000 0.329393
#
# Coordination Sequence:
#
# PCOD8089718 Si02
#       8
#     8   8   8   8   8   8   8   8
#     4   9  18  34  55  80 109 138 175 219 269 323
#     4   9  19  36  55  75 107 147 182 219 265 317
#     4   9  19  33  53  82 108 136 173 219 273 325
#     4  11  23  38  56  79 108 141 179 225 271 319
#     4  11  22  38  59  82 110 142 181 224 271 323
#     4  10  21  37  57  79 107 143 180 221 269 321
#     4  10  19  33  54  78 107 140 178 224 271 321
#     4   9  19  37  58  80 108 143 180 219 269 325
#
# _framework density 18.960115999999999
#
# number of rings (size 3 to 8) (size 9 to 14) (size 15 to 20)
#    0.000    2.250    0.000    4.500    0.000    7.250 
#    0.000    2.500    0.000    0.750    0.000    0.000 
#    0.000    0.000    0.000    0.000    0.000    0.000 
#
# Total GULP energy -396624.539846 kJ/mol
# GULP energy per Si atom -12394.516870 kJ/mol
# Density = 1.891696 g / cm^3
# Si number density = 18.960116 Si / 1000 Ang^3
#
#
#
# Elastic Constant Matrix: (Units=GPa)
#
#
# Indices 1 2 3 4 5 6 
#
# 1 121.9855 27.5569 45.9683 0.0000 -8.4982 0.0000
# 2 27.5569 61.7906 48.9545 0.0000 -9.5075 0.0000
# 3 45.9683 48.9545 104.4755 0.0000 -2.1963 0.0000
# 4 0.0000 0.0000 0.0000 22.2144 0.0000 -0.4700
# 5 -8.4982 -9.5075 -2.1963 0.0000 26.1191 0.0000
# 6 0.0000 0.0000 0.0000 -0.4700 0.0000 23.0544
#
#
#
# Elastic Compliance Matrix: (Units=1/GPa)
#
#
# Indices 1 2 3 4 5 6 
#
# 1 0.010077 -0.000996 -0.003913 0.000000 0.002587 0.000000
# 2 -0.000996 0.027803 -0.012406 0.000000 0.008753 0.000000
# 3 -0.003913 -0.012406 0.017015 0.000000 -0.004358 0.000000
# 4 0.000000 0.000000 0.000000 0.045035 0.000000 0.000918
# 5 0.002587 0.008753 -0.004358 0.000000 0.041948 0.000000
# 6 0.000000 0.000000 0.000000 0.000918 0.000000 0.043394
#
#
# Mechanical properties :
#
#
# Convention : Reuss Voigt Hill
#
# Bulk Modulus (GPa) = 49.34343 59.24567 54.29455
# Shear Modulus (GPa) = 22.05973 25.32902 23.69438
#
# Velocity S-wave (km/s) = 3.41468 3.65898 3.53894
# Velocity P-wave (km/s) = 6.45198 7.01186 6.73774
#
# Compressibility (1/GPa) = 0.02026612
#
# Stress axis : x y z
#
# Youngs Moduli (GPa) = 99.23128 35.96699 58.77331
#
# Poissons Ratio (x) = 0.03583 0.22997
# Poissons Ratio (y) = 0.09886 0.72911
# Poissons Ratio (z) = 0.38827 0.44619
#
# Static dielectric constant tensor:
#      x y z
#    x 3.526540 0.000000 0.095390 
#    y 0.000000 3.469910 0.000000 
#    z 0.095390 0.000000 3.401370 
# 
# 
# High freq. dielectric constant tensor:
#      x y z
#    x 1.739470 0.000000 0.006590 
#    y 0.000000 1.729650 0.000000 
#    z 0.006590 0.000000 1.724760 
# 
# From -- ./inp_files/301734.got.cif
#   From: 2010.06.25/outbox.cif.g09.slc.cpg/sg12_151_cif.got.tgz:301734.got - 2010.06.28 00:19:55.
