data_PCOD8089307
_publ_section_title
;
Structure prediction by ZEFSAII (Michael W. Deem and Ramdas Pophale) SiO2 
 PCOD8089307
Probable space group: C 2/M
;
_chemical_formula_sum "Si O2"
_cell_formula_units_Z 56
_cell_length_a 29.201392
_cell_length_b 8.800363
_cell_length_c 14.257956
_cell_angle_alpha 90.000000
_cell_angle_beta 59.592834
_cell_angle_gamma 90.000000
_cell_volume 3160.061429
_symmetry_space_group_name_H-M "C 2/M"
_symmetry_group_IT_number 12
_symmetry_cell_setting 'monoclinic'
loop_
_space_group_symop_operation_xyz
x,y,z
-x,y,-z
-x,-y,-z
x,-y,z
1/2+x,1/2+y,z
1/2-x,1/2+y,-z
1/2-x,1/2-y,-z
1/2+x,1/2-y,z
loop_
_atom_site_type_symbol
_atom_site_label
_atom_site_fract_x
_atom_site_fract_y
_atom_site_fract_z
Si Si1 0.770770 0.826425 0.242096
Si Si2 0.196119 0.823543 0.592358
Si Si3 0.992617 0.818345 0.614526
Si Si4 0.898876 0.829248 0.427662
Si Si5 0.666695 0.669651 0.322150
Si Si6 0.700316 0.321335 0.996465
Si Si7 0.116101 0.677814 0.206442
O O1 0.810640 0.801908 0.288418
O O2 0.721308 0.717032 0.314484
O O3 0.750707 0.000000 0.260549
O O4 0.797705 0.782355 0.116006
O O5 0.250000 0.750000 0.500000
O O6 0.143925 0.747182 0.596744
O O7 0.198987 0.000000 0.560473
O O8 0.042078 0.757290 0.627390
O O9 0.000000 0.759489 0.500000
O O10 0.940471 0.753360 0.716951
O O11 0.989713 0.000000 0.617756
O O12 0.879711 0.826758 0.554543
O O13 0.904852 0.000000 0.384013
O O14 0.671300 0.500000 0.274401
O O15 0.655132 0.789931 0.252765
O O16 0.700893 0.500000 0.014921
O O17 0.644378 0.250106 0.086554
O O18 0.750000 0.250000 0.000000
O O19 0.108948 0.500000 0.199005
#
# Coordination Sequence:
#
# PCOD8089307 Si02
#       7
#     8   8   8   8   8   8   8
#     4  10  21  34  51  78 111 140 176 222 265 310
#     4  10  19  33  52  79 110 142 175 215 260 314
#     4  10  19  35  56  78 105 141 180 218 263 319
#     4   9  18  32  52  78 108 142 178 211 257 317
#     4  11  19  31  53  79 108 144 179 213 256 319
#     4  11  22  36  54  78 106 143 180 221 270 318
#     4  12  24  36  51  78 111 143 178 221 269 320
#
# _framework density 17.721174999999999
#
# number of rings (size 3 to 8) (size 9 to 14) (size 15 to 20)
#    0.000    1.571    4.286    2.143    0.000    0.857 
#    0.000    0.714    0.000    0.857    0.000    6.000 
#    0.000    0.000    0.000    0.000    0.000    0.000 
#
# Total GULP energy -347080.158650 kJ/mol
# GULP energy per Si atom -12395.719952 kJ/mol
# Density = 1.768084 g / cm^3
# Si number density = 17.721175 Si / 1000 Ang^3
#
#
#
# Elastic Constant Matrix: (Units=GPa)
#
#
# Indices 1 2 3 4 5 6 
#
# 1 131.8071 32.6239 55.9914 0.0000 -5.6361 0.0000
# 2 32.6239 54.5155 30.9374 0.0000 -5.2109 0.0000
# 3 55.9914 30.9374 98.5360 0.0000 -5.7666 0.0000
# 4 0.0000 0.0000 0.0000 21.4250 0.0000 -4.5294
# 5 -5.6361 -5.2109 -5.7666 0.0000 32.7889 0.0000
# 6 0.0000 0.0000 0.0000 -4.5294 0.0000 21.8961
#
#
#
# Elastic Compliance Matrix: (Units=1/GPa)
#
#
# Indices 1 2 3 4 5 6 
#
# 1 0.010538 -0.003508 -0.004863 0.000000 0.000399 0.000000
# 2 -0.003508 0.023667 -0.005307 0.000000 0.002225 0.000000
# 3 -0.004863 -0.005307 0.014631 0.000000 0.000894 0.000000
# 4 0.000000 0.000000 0.000000 0.048809 0.000000 0.010096
# 5 0.000399 0.002225 0.000894 0.000000 0.031077 0.000000
# 6 0.000000 0.000000 0.000000 0.010096 0.000000 0.047759
#
#
# Mechanical properties :
#
#
# Convention : Reuss Voigt Hill
#
# Bulk Modulus (GPa) = 46.55782 58.21821 52.38801
# Shear Modulus (GPa) = 23.69690 26.24240 24.96965
#
# Velocity S-wave (km/s) = 3.66075 3.85236 3.75778
# Velocity P-wave (km/s) = 6.64813 7.26025 6.96092
#
# Compressibility (1/GPa) = 0.02147867
#
# Stress axis : x y z
#
# Youngs Moduli (GPa) = 94.89316 42.25225 68.34987
#
# Poissons Ratio (x) = 0.14824 0.33240
# Poissons Ratio (y) = 0.33292 0.36274
# Poissons Ratio (z) = 0.46149 0.22424
#
# Static dielectric constant tensor:
#      x y z
#    x 3.511090 0.000000 0.044330 
#    y 0.000000 3.177470 0.000000 
#    z 0.044330 0.000000 3.313440 
# 
# 
# High freq. dielectric constant tensor:
#      x y z
#    x 1.682460 0.000000 -0.000410 
#    y 0.000000 1.672030 0.000000 
#    z -0.000410 0.000000 1.673920 
# 
# From -- ./inp_files/243700.got.cif
#   From: 2010.06.25/outbox.cif.g09.slc.cpg/sg12_122_cif.got.tgz:243700.got - 2010.06.28 00:19:55.
