data_PCOD8089315
_publ_section_title
;
Structure prediction by ZEFSAII (Michael W. Deem and Ramdas Pophale) SiO2 
 PCOD8089315
Probable space group: C 2/M
;
_chemical_formula_sum "Si O2"
_cell_formula_units_Z 48
_cell_length_a 23.350260
_cell_length_b 10.964238
_cell_length_c 11.667655
_cell_angle_alpha 90.000000
_cell_angle_beta 128.785089
_cell_angle_gamma 90.000000
_cell_volume 2328.468869
_symmetry_space_group_name_H-M "C 2/M"
_symmetry_group_IT_number 12
_symmetry_cell_setting 'monoclinic'
loop_
_space_group_symop_operation_xyz
x,y,z
-x,y,-z
-x,-y,-z
x,-y,z
1/2+x,1/2+y,z
1/2-x,1/2+y,-z
1/2-x,1/2-y,-z
1/2+x,1/2-y,z
loop_
_atom_site_type_symbol
_atom_site_label
_atom_site_fract_x
_atom_site_fract_y
_atom_site_fract_z
Si Si1 0.757112 0.719557 0.194319
Si Si2 0.106201 0.134437 0.595914
Si Si3 0.544218 0.637291 0.157601
Si Si4 0.791057 0.856829 0.622973
Si Si5 0.346115 0.134985 0.095029
Si Si6 0.024429 0.209361 0.701754
O O1 0.809308 0.827660 0.306815
O O2 0.731591 0.642095 0.271521
O O3 0.803963 0.639003 0.163983
O O4 0.686941 0.773321 0.040270
O O5 0.080107 0.127459 0.695555
O O6 0.053119 0.229073 0.461851
O O7 0.098257 0.000000 0.530460
O O8 0.558536 0.500000 0.135144
O O9 0.624958 0.690709 0.283231
O O10 0.492043 0.640651 0.201956
O O11 0.500000 0.706546 0.000000
O O12 0.750000 0.750000 0.500000
O O13 0.780038 0.000000 0.565993
O O14 0.432695 0.164135 0.221396
O O15 0.339691 0.000000 0.036863
#
# Coordination Sequence:
#
# PCOD8089315 Si02
#       6
#     8   8   8   8   8   8
#     4  10  21  38  60  86 115 150 195 241 294 351
#     4  10  19  33  57  84 110 144 190 245 292 339
#     4  10  20  35  56  80 110 149 192 237 282 336
#     4  11  24  41  62  88 120 158 199 244 293 349
#     4  10  21  37  59  86 117 151 189 242 302 357
#     4  10  19  33  52  80 111 141 185 234 289 343
#
# _framework density 20.614405999999999
#
# number of rings (size 3 to 8) (size 9 to 14) (size 15 to 20)
#    0.000    1.833    0.000    5.000    0.000    2.667 
#    0.000   16.667    0.000    2.000    0.000    0.000 
#    0.000    0.000    0.000    0.000    0.000    0.000 
#
# Total GULP energy -297381.503126 kJ/mol
# GULP energy per Si atom -12390.895964 kJ/mol
# Density = 2.056749 g / cm^3
# Si number density = 20.614406 Si / 1000 Ang^3
#
#
#
# Elastic Constant Matrix: (Units=GPa)
#
#
# Indices 1 2 3 4 5 6 
#
# 1 90.8070 22.4418 41.1724 0.0000 -0.9619 0.0000
# 2 22.4418 86.8264 45.6230 0.0000 9.1407 0.0000
# 3 41.1724 45.6230 122.5820 0.0000 11.8524 0.0000
# 4 0.0000 0.0000 0.0000 23.9621 0.0000 -3.0437
# 5 -0.9619 9.1407 11.8524 0.0000 36.7467 0.0000
# 6 0.0000 0.0000 0.0000 -3.0437 0.0000 12.2010
#
#
#
# Elastic Compliance Matrix: (Units=1/GPa)
#
#
# Indices 1 2 3 4 5 6 
#
# 1 0.013259 -0.001489 -0.004096 0.000000 0.002039 0.000000
# 2 -0.001489 0.014614 -0.004731 0.000000 -0.002148 0.000000
# 3 -0.004096 -0.004731 0.011551 0.000000 -0.002656 0.000000
# 4 0.000000 0.000000 0.000000 0.043098 0.000000 0.010752
# 5 0.002039 -0.002148 -0.002656 0.000000 0.028658 0.000000
# 6 0.000000 0.000000 0.000000 0.010752 0.000000 0.084643
#
#
# Mechanical properties :
#
#
# Convention : Reuss Voigt Hill
#
# Bulk Modulus (GPa) = 53.21629 57.63218 55.42424
# Shear Modulus (GPa) = 22.44958 27.31385 24.88171
#
# Velocity S-wave (km/s) = 3.30362 3.64399 3.47797
# Velocity P-wave (km/s) = 6.35791 6.76186 6.56299
#
# Compressibility (1/GPa) = 0.01879124
#
# Stress axis : x y z
#
# Youngs Moduli (GPa) = 75.41864 68.42565 86.56964
#
# Poissons Ratio (x) = 0.10191 0.35462
# Poissons Ratio (y) = 0.11232 0.40959
# Poissons Ratio (z) = 0.30894 0.32374
#
# Static dielectric constant tensor:
#      x y z
#    x 3.778000 0.000000 0.076470 
#    y 0.000000 3.394310 0.000000 
#    z 0.076470 0.000000 3.949020 
# 
# 
# High freq. dielectric constant tensor:
#      x y z
#    x 1.811100 0.000000 0.001590 
#    y 0.000000 1.765080 0.000000 
#    z 0.001590 0.000000 1.819130 
# 
# From -- ./inp_files/165821.got.cif
#   From: 2010.06.25/outbox.cif.g09.slc.cpg/sg12_83_cif.got.tgz:165821.got - 2010.06.28 00:19:55.
