data_PCOD8089038
_publ_section_title
;
Structure prediction by ZEFSAII (Michael W. Deem and Ramdas Pophale) SiO2 
 PCOD8089038
Probable space group: C 2/M
;
_chemical_formula_sum "Si O2"
_cell_formula_units_Z 56
_cell_length_a 13.205629
_cell_length_b 10.466505
_cell_length_c 23.267530
_cell_angle_alpha 90.000000
_cell_angle_beta 104.614439
_cell_angle_gamma 90.000000
_cell_volume 3111.912616
_symmetry_space_group_name_H-M "C 2/M"
_symmetry_group_IT_number 12
_symmetry_cell_setting 'monoclinic'
loop_
_space_group_symop_operation_xyz
x,y,z
-x,y,-z
-x,-y,-z
x,-y,z
1/2+x,1/2+y,z
1/2-x,1/2+y,-z
1/2-x,1/2-y,-z
1/2+x,1/2-y,z
loop_
_atom_site_type_symbol
_atom_site_label
_atom_site_fract_x
_atom_site_fract_y
_atom_site_fract_z
Si Si1 0.339171 0.649067 0.002120
Si Si2 0.872319 0.850054 0.772871
Si Si3 0.302248 0.206886 0.593294
Si Si4 0.883600 0.640917 0.485725
Si Si5 0.487114 0.355135 0.673813
Si Si6 0.721927 0.643505 0.700329
Si Si7 0.042532 0.145993 0.095333
O O1 0.309151 0.500000 0.010815
O O2 0.433192 0.700483 0.055947
O O3 0.250000 0.750000 0.000000
O O4 0.368239 0.662565 0.939518
O O5 0.777863 0.753642 0.745356
O O6 0.920498 0.794423 0.839065
O O7 0.960757 0.836141 0.737152
O O8 0.834747 0.000000 0.771817
O O9 0.196410 0.284024 0.565625
O O10 0.336033 0.125604 0.543004
O O11 0.402367 0.293358 0.620241
O O12 0.275319 0.124625 0.645603
O O13 0.893821 0.500000 0.460479
O O14 0.000000 0.705087 0.500000
O O15 0.484165 0.500000 0.654523
O O16 0.603612 0.303341 0.678930
O O17 0.725695 0.500000 0.729315
O O18 0.020079 0.000000 0.104869
#
# Coordination Sequence:
#
# PCOD8089038 Si02
#       7
#     8   8   8   8   8   8   8
#     4   9  17  31  51  74 100 133 169 205 245 289
#     4   9  18  34  53  72  96 131 170 201 237 293
#     4  10  19  33  50  68  95 129 159 192 243 298
#     4  10  20  32  48  71  95 121 159 203 240 280
#     4   9  18  32  50  70  94 127 164 198 237 294
#     4  10  20  34  51  74 101 126 158 204 252 289
#     4   8  16  32  51  70  99 136 168 198 241 298
#
# _framework density 17.995363999999999
#
# number of rings (size 3 to 8) (size 9 to 14) (size 15 to 20)
#    0.000    2.714    0.000    2.571    0.000    1.714 
#    0.000    7.857    0.000    6.857    0.000    0.000 
#    0.000    0.000    0.000    0.000    0.000    0.000 
#
# Total GULP energy -346911.426692 kJ/mol
# GULP energy per Si atom -12389.693810 kJ/mol
# Density = 1.795441 g / cm^3
# Si number density = 17.995364 Si / 1000 Ang^3
#
#
#
# Elastic Constant Matrix: (Units=GPa)
#
#
# Indices 1 2 3 4 5 6 
#
# 1 111.7758 43.8602 27.2123 0.0000 19.2160 0.0000
# 2 43.8602 73.3461 29.6929 0.0000 12.0532 0.0000
# 3 27.2123 29.6929 91.0919 0.0000 10.5378 0.0000
# 4 0.0000 0.0000 0.0000 54.6460 0.0000 0.9238
# 5 19.2160 12.0532 10.5378 0.0000 18.6218 0.0000
# 6 0.0000 0.0000 0.0000 0.9238 0.0000 29.8251
#
#
#
# Elastic Compliance Matrix: (Units=1/GPa)
#
#
# Indices 1 2 3 4 5 6 
#
# 1 0.013070 -0.005948 -0.000910 0.000000 -0.009122 0.000000
# 2 -0.005948 0.019542 -0.004109 0.000000 -0.004186 0.000000
# 3 -0.000910 -0.004109 0.013026 0.000000 -0.003772 0.000000
# 4 0.000000 0.000000 0.000000 0.018309 0.000000 -0.000567
# 5 -0.009122 -0.004186 -0.003772 0.000000 0.067958 0.000000
# 6 0.000000 0.000000 0.000000 -0.000567 0.000000 0.033546
#
#
# Mechanical properties :
#
#
# Convention : Reuss Voigt Hill
#
# Bulk Modulus (GPa) = 42.18859 53.08272 47.63566
# Shear Modulus (GPa) = 25.60321 32.31512 28.95917
#
# Velocity S-wave (km/s) = 3.77605 4.24222 4.01591
# Velocity P-wave (km/s) = 6.51970 7.31829 6.93050
#
# Compressibility (1/GPa) = 0.02370309
#
# Stress axis : x y z
#
# Youngs Moduli (GPa) = 76.50827 51.17097 76.77174
#
# Poissons Ratio (x) = 0.30438 0.06989
# Poissons Ratio (y) = 0.45510 0.31545
# Poissons Ratio (z) = 0.06965 0.21026
#
# Static dielectric constant tensor:
#      x y z
#    x 3.386550 0.000000 0.124120 
#    y 0.000000 3.092790 0.000000 
#    z 0.124120 0.000000 3.845560 
# 
# 
# High freq. dielectric constant tensor:
#      x y z
#    x 1.700820 0.000000 0.001330 
#    y 0.000000 1.677750 0.000000 
#    z 0.001330 0.000000 1.696320 
# 
# From -- ./inp_files/304252.got.cif
#   From: 2010.06.25/outbox.cif.g09.slc.cpg/sg12_153_cif.got.tgz:304252.got - 2010.06.28 00:19:55.
