data_PCOD8089791
_publ_section_title
;
Structure prediction by ZEFSAII (Michael W. Deem and Ramdas Pophale) SiO2 
 PCOD8089791
Probable space group: C 2/M
;
_chemical_formula_sum "Si O2"
_cell_formula_units_Z 56
_cell_length_a 25.864191
_cell_length_b 11.104078
_cell_length_c 31.861772
_cell_angle_alpha 90.000000
_cell_angle_beta 162.149223
_cell_angle_gamma 90.000000
_cell_volume 2805.026995
_symmetry_space_group_name_H-M "C 2/M"
_symmetry_group_IT_number 12
_symmetry_cell_setting 'monoclinic'
loop_
_space_group_symop_operation_xyz
x,y,z
-x,y,-z
-x,-y,-z
x,-y,z
1/2+x,1/2+y,z
1/2-x,1/2+y,-z
1/2-x,1/2-y,-z
1/2+x,1/2-y,z
loop_
_atom_site_type_symbol
_atom_site_label
_atom_site_fract_x
_atom_site_fract_y
_atom_site_fract_z
Si Si1 0.418620 0.633625 0.036400
Si Si2 0.461157 0.861077 0.247650
Si Si3 0.403253 0.133785 0.968352
Si Si4 0.252775 0.305227 0.672021
Si Si5 0.087608 0.367152 0.625869
Si Si6 0.449785 0.722585 0.322677
Si Si7 0.717203 0.863910 0.378438
O O1 0.415764 0.500000 0.011675
O O2 0.566248 0.628398 0.185395
O O3 0.236154 0.654657 0.916486
O O4 0.459093 0.749357 0.038486
O O5 0.509825 0.793400 0.327968
O O6 0.572388 0.803632 0.295856
O O7 0.510889 0.000000 0.292765
O O8 0.202357 0.133664 0.805955
O O9 0.444818 0.000000 0.020252
O O10 0.500000 0.147578 0.000000
O O11 0.180075 0.281750 0.662982
O O12 0.280802 0.184322 0.667388
O O13 0.112689 0.381144 0.538287
O O14 0.169379 0.500000 0.685723
O O15 0.119480 0.318029 0.696813
O O16 0.602524 0.647341 0.459853
O O17 0.666659 0.000000 0.333409
#
# Coordination Sequence:
#
# PCOD8089791 Si02
#       7
#     8   8   8   8   8   8   8
#     4  10  20  35  56  79 106 141 182 227 270 318
#     4   9  19  35  55  80 107 136 176 227 275 317
#     4  10  21  35  52  78 112 146 178 218 271 327
#     4  10  20  33  51  76 106 142 178 214 264 320
#     4  10  19  33  54  80 109 136 171 225 276 317
#     4  10  19  34  57  81 104 138 179 219 269 327
#     4  10  21  36  53  75 107 144 181 223 267 318
#
# _framework density 19.964157
#
# number of rings (size 3 to 8) (size 9 to 14) (size 15 to 20)
#    0.000    2.143    0.000    3.857    0.000    2.000 
#    0.000    6.429    0.000   16.286    0.000    0.000 
#    0.000    0.000    0.000    0.000    0.000    0.000 
#
# Total GULP energy -346907.548468 kJ/mol
# GULP energy per Si atom -12389.555302 kJ/mol
# Density = 1.991872 g / cm^3
# Si number density = 19.964157 Si / 1000 Ang^3
#
#
#
# Elastic Constant Matrix: (Units=GPa)
#
#
# Indices 1 2 3 4 5 6 
#
# 1 126.1768 55.0156 19.5718 0.0056 11.5048 -0.0066
# 2 55.0156 109.3474 19.5792 -0.0125 0.6702 -0.0278
# 3 19.5718 19.5792 79.7902 0.0692 3.3787 -0.1331
# 4 0.0056 -0.0125 0.0692 13.8607 -0.0015 4.7951
# 5 11.5048 0.6702 3.3787 -0.0015 23.3603 0.0070
# 6 -0.0066 -0.0278 -0.1331 4.7951 0.0070 9.5518
#
#
#
# Elastic Compliance Matrix: (Units=1/GPa)
#
#
# Indices 1 2 3 4 5 6 
#
# 1 0.010837 -0.005213 -0.001167 0.000004 -0.005019 -0.000022
# 2 -0.005213 0.012073 -0.001789 0.000025 0.002480 -0.000008
# 3 -0.001167 -0.001789 0.013314 -0.000158 -0.001300 0.000260
# 4 0.000004 0.000025 -0.000158 0.087312 0.000039 -0.043834
# 5 -0.005019 0.002480 -0.001300 0.000039 0.045396 -0.000067
# 6 -0.000022 -0.000008 0.000260 -0.043834 -0.000067 0.126701
#
#
# Mechanical properties :
#
#
# Convention : Reuss Voigt Hill
#
# Bulk Modulus (GPa) = 50.28410 55.96086 53.12248
# Shear Modulus (GPa) = 15.69377 24.09772 19.89575
#
# Velocity S-wave (km/s) = 2.80678 3.47803 3.16028
# Velocity P-wave (km/s) = 5.97879 6.64985 6.32323
#
# Compressibility (1/GPa) = 0.01988700
#
# Stress axis : x y z
#
# Youngs Moduli (GPa) = 92.27845 82.83020 75.11110
#
# Poissons Ratio (x) = 0.43176 0.08762
# Poissons Ratio (y) = 0.48101 0.13437
# Poissons Ratio (z) = 0.10765 0.14818
#
# Static dielectric constant tensor:
#      x y z
#    x 3.598290 -0.000010 0.164680 
#    y -0.000010 3.606010 -0.000070 
#    z 0.164680 -0.000070 3.761620 
# 
# 
# High freq. dielectric constant tensor:
#      x y z
#    x 1.762380 0.000000 0.014660 
#    y 0.000000 1.768490 -0.000010 
#    z 0.014660 -0.000010 1.789090 
# 
# From -- ./inp_files/181947.got.cif
#   From: 2010.06.25/outbox.cif.g09.slc.cpg/sg12_91_cif.got.tgz:181947.got - 2010.06.28 00:19:55.
