data_PCOD8089291
_publ_section_title
;
Structure prediction by ZEFSAII (Michael W. Deem and Ramdas Pophale) SiO2 
 PCOD8089291
Probable space group: C 2/M
;
_chemical_formula_sum "Si O2"
_cell_formula_units_Z 48
_cell_length_a 23.514375
_cell_length_b 9.079243
_cell_length_c 13.612200
_cell_angle_alpha 90.000000
_cell_angle_beta 71.522113
_cell_angle_gamma 90.000000
_cell_volume 2756.284430
_symmetry_space_group_name_H-M "C 2/M"
_symmetry_group_IT_number 12
_symmetry_cell_setting 'monoclinic'
loop_
_space_group_symop_operation_xyz
x,y,z
-x,y,-z
-x,-y,-z
x,-y,z
1/2+x,1/2+y,z
1/2-x,1/2+y,-z
1/2-x,1/2-y,-z
1/2+x,1/2-y,z
loop_
_atom_site_type_symbol
_atom_site_label
_atom_site_fract_x
_atom_site_fract_y
_atom_site_fract_z
Si Si1 0.523135 0.828009 0.380451
Si Si2 0.555047 0.664250 0.081551
Si Si3 0.748140 0.176070 0.107333
Si Si4 0.868028 0.830906 0.774004
Si Si5 0.132358 0.831983 0.851871
Si Si6 0.549169 0.829529 0.767502
O O1 0.500000 0.784268 0.500000
O O2 0.582306 0.733628 0.326792
O O3 0.469997 0.787603 0.333035
O O4 0.539781 0.000000 0.363095
O O5 0.527081 0.500000 0.107163
O O6 0.610438 0.680701 0.125521
O O7 0.504535 0.783367 0.130864
O O8 0.579339 0.689964 0.959550
O O9 0.691647 0.233036 0.201028
O O10 0.805795 0.229623 0.137866
O O11 0.746528 0.000000 0.095273
O O12 0.750000 0.250000 0.000000
O O13 0.854776 0.000000 0.752083
O O14 0.111483 0.748438 0.764297
O O15 0.141652 0.000000 0.817513
O O16 0.560612 0.000000 0.773551
#
# Coordination Sequence:
#
# PCOD8089291 Si02
#       6
#     8   8   8   8   8   8
#     4   9  19  37  58  78 102 132 166 212 269 316
#     4   9  17  31  47  66  99 139 169 198 245 303
#     4  11  21  34  51  73 104 143 181 210 246 297
#     4  10  19  33  52  78 106 134 173 215 254 300
#     4  10  20  33  47  67 101 143 172 198 247 303
#     4  10  20  31  47  75 100 126 168 213 254 299
#
# _framework density 17.414749
#
# number of rings (size 3 to 8) (size 9 to 14) (size 15 to 20)
#    0.000    2.167    1.667    2.000    0.000    5.667 
#    0.000    0.000    0.000    1.000    0.000    0.000 
#    0.000    0.000    0.000    0.000    0.000    0.000 
#
# Total GULP energy -297591.636133 kJ/mol
# GULP energy per Si atom -12399.651506 kJ/mol
# Density = 1.737511 g / cm^3
# Si number density = 17.414749 Si / 1000 Ang^3
#
#
#
# Elastic Constant Matrix: (Units=GPa)
#
#
# Indices 1 2 3 4 5 6 
#
# 1 127.2124 57.2150 47.9023 0.0000 14.4120 0.0000
# 2 57.2150 76.2670 41.5054 0.0000 3.0097 0.0000
# 3 47.9023 41.5054 79.1574 0.0000 6.7766 0.0000
# 4 0.0000 0.0000 0.0000 21.6980 0.0000 -0.6474
# 5 14.4120 3.0097 6.7766 0.0000 14.7062 0.0000
# 6 0.0000 0.0000 0.0000 -0.6474 0.0000 32.7829
#
#
#
# Elastic Compliance Matrix: (Units=1/GPa)
#
#
# Indices 1 2 3 4 5 6 
#
# 1 0.014022 -0.008363 -0.003197 0.000000 -0.010557 0.000000
# 2 -0.008363 0.023342 -0.007778 0.000000 0.007002 0.000000
# 3 -0.003197 -0.007778 0.018990 0.000000 -0.004026 0.000000
# 4 0.000000 0.000000 0.000000 0.046114 0.000000 0.000911
# 5 -0.010557 0.007002 -0.004026 0.000000 0.078767 0.000000
# 6 0.000000 0.000000 0.000000 0.000911 0.000000 0.030522
#
#
# Mechanical properties :
#
#
# Convention : Reuss Voigt Hill
#
# Bulk Modulus (GPa) = 56.56209 63.98690 60.27450
# Shear Modulus (GPa) = 19.50650 22.90501 21.20576
#
# Velocity S-wave (km/s) = 3.35044 3.63059 3.49333
# Velocity P-wave (km/s) = 6.89327 7.37548 7.13845
#
# Compressibility (1/GPa) = 0.01767968
#
# Stress axis : x y z
#
# Youngs Moduli (GPa) = 71.31732 42.84118 52.65818
#
# Poissons Ratio (x) = 0.35827 0.16833
# Poissons Ratio (y) = 0.59642 0.40957
# Poissons Ratio (z) = 0.22798 0.33321
#
# Static dielectric constant tensor:
#      x y z
#    x 3.394520 0.000000 0.119720 
#    y 0.000000 3.288040 0.000000 
#    z 0.119720 0.000000 2.966820 
# 
# 
# High freq. dielectric constant tensor:
#      x y z
#    x 1.679280 0.000000 0.007860 
#    y 0.000000 1.678170 0.000000 
#    z 0.007860 0.000000 1.635890 
# 
# From -- ./inp_files/172075.got.cif
#   From: 2010.06.25/outbox.cif.g09.slc.cpg/sg12_87_cif.got.tgz:172075.got - 2010.06.28 00:19:55.
