data_PCOD8089243
_publ_section_title
;
Structure prediction by ZEFSAII (Michael W. Deem and Ramdas Pophale) SiO2 
 PCOD8089243
Probable space group: C 2/M
;
_chemical_formula_sum "Si O2"
_cell_formula_units_Z 64
_cell_length_a 5.451835
_cell_length_b 26.795727
_cell_length_c 21.305222
_cell_angle_alpha 90.000000
_cell_angle_beta 106.332506
_cell_angle_gamma 90.000000
_cell_volume 2986.794385
_symmetry_space_group_name_H-M "C 2/M"
_symmetry_group_IT_number 12
_symmetry_cell_setting 'monoclinic'
loop_
_space_group_symop_operation_xyz
x,y,z
-x,y,-z
-x,-y,-z
x,-y,z
1/2+x,1/2+y,z
1/2-x,1/2+y,-z
1/2-x,1/2-y,-z
1/2+x,1/2-y,z
loop_
_atom_site_type_symbol
_atom_site_label
_atom_site_fract_x
_atom_site_fract_y
_atom_site_fract_z
Si Si1 0.655981 0.440750 0.145877
Si Si2 0.507274 0.233098 0.216263
Si Si3 0.752627 0.444423 0.554047
Si Si4 0.156405 0.772517 0.363978
Si Si5 0.347953 0.122356 0.374346
Si Si6 0.422863 0.941098 0.927020
Si Si7 0.990008 0.376799 0.249706
Si Si8 0.096042 0.054766 0.685595
O O1 0.672597 0.500000 0.160529
O O2 0.367202 0.423902 0.109070
O O3 0.861877 0.424080 0.107506
O O4 0.736909 0.408286 0.212681
O O5 0.211720 0.247027 0.179479
O O6 0.570084 0.262039 0.286277
O O7 0.530273 0.173712 0.214661
O O8 0.500000 0.426054 0.500000
O O9 0.831483 0.500000 0.534894
O O10 0.718607 0.447311 0.625760
O O11 0.967827 0.401425 0.558420
O O12 0.439789 0.749125 0.395356
O O13 0.175854 0.831145 0.384385
O O14 0.493469 0.141397 0.322528
O O15 0.185813 0.075403 0.340024
O O16 0.426569 0.000000 0.931791
O O17 0.500000 0.918022 0.000000
O O18 0.233703 0.412244 0.255136
O O19 0.081427 0.000000 0.714992
#
# Coordination Sequence:
#
# PCOD8089243 Si02
#       8
#     8   8   8   8   8   8   8   8
#     4  10  21  33  50  80 114 150 184 227 273 320
#     4  10  19  33  52  75 104 145 182 224 267 329
#     4   9  20  38  55  77 106 137 186 238 274 324
#     4  10  19  34  55  80 104 141 181 225 271 331
#     4  11  21  33  57  78 106 147 182 224 284 343
#     4   9  18  35  55  74 104 151 199 232 263 307
#     4  11  22  33  51  78 117 145 176 221 286 341
#     4  10  21  34  52  78 108 146 182 217 274 343
#
# _framework density 21.427652999999999
#
# number of rings (size 3 to 8) (size 9 to 14) (size 15 to 20)
#    0.000    2.000    2.500    2.625    3.500    3.500 
#    0.000    1.875    0.000    0.750    0.000    0.000 
#    0.000   10.000    0.000    0.000    0.000    0.000 
#
# Total GULP energy -396532.555461 kJ/mol
# GULP energy per Si atom -12391.642358 kJ/mol
# Density = 2.137888 g / cm^3
# Si number density = 21.427653 Si / 1000 Ang^3
#
#
#
# Elastic Constant Matrix: (Units=GPa)
#
#
# Indices 1 2 3 4 5 6 
#
# 1 141.9175 23.7284 20.1591 0.0000 21.1235 0.0000
# 2 23.7284 97.4977 13.8716 0.0000 14.3545 0.0000
# 3 20.1591 13.8716 50.6553 0.0000 21.0954 0.0000
# 4 0.0000 0.0000 0.0000 9.5212 0.0000 2.0700
# 5 21.1235 14.3545 21.0954 0.0000 29.3855 0.0000
# 6 0.0000 0.0000 0.0000 2.0700 0.0000 20.7102
#
#
#
# Elastic Compliance Matrix: (Units=1/GPa)
#
#
# Indices 1 2 3 4 5 6 
#
# 1 0.008053 -0.001153 -0.001017 0.000000 -0.004495 0.000000
# 2 -0.001153 0.011261 -0.000969 0.000000 -0.003976 0.000000
# 3 -0.001017 -0.000969 0.028400 0.000000 -0.019184 0.000000
# 4 0.000000 0.000000 0.000000 0.107362 0.000000 -0.010731
# 5 -0.004495 -0.003976 -0.019184 0.000000 0.052976 0.000000
# 6 0.000000 0.000000 0.000000 -0.010731 0.000000 0.049358
#
#
# Mechanical properties :
#
#
# Convention : Reuss Voigt Hill
#
# Bulk Modulus (GPa) = 24.13362 45.06539 34.59951
# Shear Modulus (GPa) = 18.01807 27.41081 22.71444
#
# Velocity S-wave (km/s) = 2.90294 3.58051 3.25938
# Velocity P-wave (km/s) = 4.74588 6.17822 5.50880
#
# Compressibility (1/GPa) = 0.04143597
#
# Stress axis : x y z
#
# Youngs Moduli (GPa) = 124.18179 88.80532 35.21068
#
# Poissons Ratio (x) = 0.10242 0.03580
# Poissons Ratio (y) = 0.14322 0.03411
# Poissons Ratio (z) = 0.12627 0.08603
#
# Static dielectric constant tensor:
#      x y z
#    x 4.362990 0.000000 0.174480 
#    y 0.000000 3.813320 0.000000 
#    z 0.174480 0.000000 3.542030 
# 
# 
# High freq. dielectric constant tensor:
#      x y z
#    x 1.859940 0.000000 0.015510 
#    y 0.000000 1.828310 0.000000 
#    z 0.015510 0.000000 1.781800 
# 
# From -- ./inp_files/298304.got.cif
#   From: 2010.06.25/outbox.cif.g09.slc.cpg/sg12_150_cif.got.tgz:298304.got - 2010.06.28 00:19:55.
