data_PCOD8089706
_publ_section_title
;
Structure prediction by ZEFSAII (Michael W. Deem and Ramdas Pophale) SiO2 
 PCOD8089706
Probable space group: C 2/M
;
_chemical_formula_sum "Si O2"
_cell_formula_units_Z 56
_cell_length_a 19.132683
_cell_length_b 8.938389
_cell_length_c 30.104091
_cell_angle_alpha 90.000000
_cell_angle_beta 143.028425
_cell_angle_gamma 90.000000
_cell_volume 3096.261271
_symmetry_space_group_name_H-M "C 2/M"
_symmetry_group_IT_number 12
_symmetry_cell_setting 'monoclinic'
loop_
_space_group_symop_operation_xyz
x,y,z
-x,y,-z
-x,-y,-z
x,-y,z
1/2+x,1/2+y,z
1/2-x,1/2+y,-z
1/2-x,1/2-y,-z
1/2+x,1/2-y,z
loop_
_atom_site_type_symbol
_atom_site_label
_atom_site_fract_x
_atom_site_fract_y
_atom_site_fract_z
Si Si1 0.768310 0.173190 0.780613
Si Si2 0.458581 0.173345 0.930641
Si Si3 0.564954 0.326140 0.216305
Si Si4 0.322322 0.671368 0.499843
Si Si5 0.628844 0.176380 0.340114
Si Si6 0.022743 0.175661 0.660087
Si Si7 0.626194 0.825970 0.935245
O O1 0.846696 0.228444 0.861415
O O2 0.834973 0.203523 0.768708
O O3 0.652435 0.268914 0.720163
O O4 0.738332 0.000000 0.772329
O O5 0.563239 0.204712 0.949945
O O6 0.421604 0.000000 0.911262
O O7 0.500000 0.225039 0.000000
O O8 0.536649 0.500000 0.207178
O O9 0.608854 0.260902 0.284516
O O10 0.446773 0.244442 0.142068
O O11 0.297457 0.500000 0.495397
O O12 0.250000 0.750000 0.500000
O O13 0.264465 0.713241 0.422829
O O14 0.458073 0.706841 0.579242
O O15 0.539654 0.236062 0.331840
O O16 0.608126 0.000000 0.323098
O O17 0.022185 0.000000 0.671340
O O18 0.641621 0.000000 0.933323
O O19 0.750000 0.750000 0.000000
#
# Coordination Sequence:
#
# PCOD8089706 Si02
#       7
#     8   8   8   8   8   8   8
#     4  10  21  36  53  75 105 139 174 213 256 303
#     4   9  19  36  56  76  99 131 170 210 254 304
#     4  10  21  37  54  74 104 140 176 214 260 309
#     4   8  16  30  49  74 102 133 168 210 258 305
#     4  10  19  33  54  79 105 133 172 218 261 307
#     4  10  19  33  54  78 105 137 173 212 257 309
#     4  10  20  35  55  77 103 135 170 211 259 308
#
# _framework density 18.086328999999999
#
# number of rings (size 3 to 8) (size 9 to 14) (size 15 to 20)
#    0.000    2.429    0.000    2.143    0.000    4.857 
#    0.000    5.000    0.000    4.286    0.000    0.000 
#    0.000    0.000    0.000    0.000    0.000    0.000 
#
# Total GULP energy -347038.965327 kJ/mol
# GULP energy per Si atom -12394.248762 kJ/mol
# Density = 1.804516 g / cm^3
# Si number density = 18.086329 Si / 1000 Ang^3
#
#
#
# Elastic Constant Matrix: (Units=GPa)
#
#
# Indices 1 2 3 4 5 6 
#
# 1 52.0078 37.0038 65.8517 0.0000 -1.4316 0.0000
# 2 37.0038 76.4477 61.8000 0.0000 -2.2063 -0.0002
# 3 65.8517 61.8000 170.4376 0.0000 -7.3302 0.0000
# 4 0.0000 0.0000 0.0000 31.4903 0.0000 0.6786
# 5 -1.4316 -2.2063 -7.3302 0.0000 30.3531 0.0000
# 6 0.0000 -0.0002 0.0000 0.6786 0.0000 29.1799
#
#
#
# Elastic Compliance Matrix: (Units=1/GPa)
#
#
# Indices 1 2 3 4 5 6 
#
# 1 0.042880 -0.010400 -0.012876 0.000000 -0.001843 0.000000
# 2 -0.010400 0.021030 -0.003600 0.000000 0.000169 0.000000
# 3 -0.012876 -0.003600 0.012237 0.000000 0.002086 0.000000
# 4 0.000000 0.000000 0.000000 0.031772 0.000000 -0.000739
# 5 -0.001843 0.000169 0.002086 0.000000 0.033375 0.000000
# 6 0.000000 0.000000 0.000000 -0.000739 0.000000 0.034287
#
#
# Mechanical properties :
#
#
# Convention : Reuss Voigt Hill
#
# Bulk Modulus (GPa) = 44.65179 69.80044 57.22612
# Shear Modulus (GPa) = 21.11514 27.15385 24.13450
#
# Velocity S-wave (km/s) = 3.42052 3.87892 3.65691
# Velocity P-wave (km/s) = 6.35151 7.66408 7.03846
#
# Compressibility (1/GPa) = 0.02239552
#
# Stress axis : x y z
#
# Youngs Moduli (GPa) = 23.32096 47.55142 81.71958
#
# Poissons Ratio (x) = 0.49454 1.05219
# Poissons Ratio (y) = 0.24254 0.29417
# Poissons Ratio (z) = 0.30027 0.17117
#
# Static dielectric constant tensor:
#      x y z
#    x 3.074120 0.000000 0.024280 
#    y 0.000000 3.507720 0.000000 
#    z 0.024280 0.000000 3.934310 
# 
# 
# High freq. dielectric constant tensor:
#      x y z
#    x 1.671790 0.000000 0.001420 
#    y 0.000000 1.715420 0.000000 
#    z 0.001420 0.000000 1.722030 
# 
# From -- ./inp_files/320264.got.cif
#   From: 2010.06.25/outbox.cif.g09.slc.cpg/sg12_161_cif.got.tgz:320264.got - 2010.06.28 00:19:55.
