data_PCOD8089404
_publ_section_title
;
Structure prediction by ZEFSAII (Michael W. Deem and Ramdas Pophale) SiO2 
 PCOD8089404
Probable space group: C 2/M
;
_chemical_formula_sum "Si O2"
_cell_formula_units_Z 56
_cell_length_a 23.420712
_cell_length_b 14.037805
_cell_length_c 9.441189
_cell_angle_alpha 90.000000
_cell_angle_beta 68.912010
_cell_angle_gamma 90.000000
_cell_volume 2896.150467
_symmetry_space_group_name_H-M "C 2/M"
_symmetry_group_IT_number 12
_symmetry_cell_setting 'monoclinic'
loop_
_space_group_symop_operation_xyz
x,y,z
-x,y,-z
-x,-y,-z
x,-y,z
1/2+x,1/2+y,z
1/2-x,1/2+y,-z
1/2-x,1/2-y,-z
1/2+x,1/2-y,z
loop_
_atom_site_type_symbol
_atom_site_label
_atom_site_fract_x
_atom_site_fract_y
_atom_site_fract_z
Si Si1 0.226095 0.645286 0.035871
Si Si2 0.476705 0.393156 0.861454
Si Si3 0.101352 0.390237 0.636759
Si Si4 0.351632 0.601177 0.834066
Si Si5 0.137015 0.706587 0.333424
Si Si6 0.385727 0.891524 0.055801
Si Si7 0.474802 0.196687 0.758025
O O1 0.287731 0.583829 0.974943
O O2 0.181768 0.617921 0.947166
O O3 0.250000 0.750000 0.000000
O O4 0.186990 0.636669 0.215594
O O5 0.495668 0.500000 0.789995
O O6 0.403097 0.378523 0.908339
O O7 0.503507 0.304658 0.745434
O O8 0.500000 0.381514 0.000000
O O9 0.117751 0.500000 0.588002
O O10 0.137446 0.318863 0.498726
O O11 0.121242 0.359528 0.775753
O O12 0.028523 0.378236 0.688524
O O13 0.366518 0.500000 0.744452
O O14 0.347995 0.682900 0.716847
O O15 0.068949 0.684634 0.338012
O O16 0.409168 0.000000 0.024223
O O17 0.435677 0.825128 0.934829
#
# Coordination Sequence:
#
# PCOD8089404 Si02
#       7
#     8   8   8   8   8   8   8
#     4   9  18  34  55  77 100 133 175 211 249 303
#     4   9  17  30  51  79 105 128 163 215 264 302
#     4  11  22  34  50  75 108 141 171 213 266 309
#     4   9  17  32  54  75  99 135 174 210 253 309
#     4   9  20  34  49  77 107 133 172 217 258 302
#     4  10  20  33  52  78 106 138 175 213 255 306
#     4  10  19  33  53  75 104 141 178 212 252 311
#
# _framework density 19.336010999999999
#
# number of rings (size 3 to 8) (size 9 to 14) (size 15 to 20)
#    0.000    2.429    0.000    3.429    0.000    5.143 
#    0.000    3.571    0.000    4.286    0.000    6.000 
#    0.000    0.000    0.000    0.000    0.000    0.000 
#
# Total GULP energy -346869.978527 kJ/mol
# GULP energy per Si atom -12388.213519 kJ/mol
# Density = 1.929200 g / cm^3
# Si number density = 19.336011 Si / 1000 Ang^3
#
#
#
# Elastic Constant Matrix: (Units=GPa)
#
#
# Indices 1 2 3 4 5 6 
#
# 1 58.5703 12.1450 31.3595 0.0000 -7.1377 0.0000
# 2 12.1450 89.3207 32.6122 0.0000 7.3310 0.0000
# 3 31.3595 32.6122 96.8626 0.0000 11.7049 0.0000
# 4 0.0000 0.0000 0.0000 21.7547 0.0000 4.0603
# 5 -7.1377 7.3310 11.7049 0.0000 18.5325 0.0000
# 6 0.0000 0.0000 0.0000 4.0603 0.0000 24.5861
#
#
#
# Elastic Compliance Matrix: (Units=1/GPa)
#
#
# Indices 1 2 3 4 5 6 
#
# 1 0.024236 -0.001170 -0.009350 0.000000 0.015703 0.000000
# 2 -0.001170 0.012932 -0.003575 0.000000 -0.003308 0.000000
# 3 -0.009350 -0.003575 0.016043 0.000000 -0.012320 0.000000
# 4 0.000000 0.000000 0.000000 0.047429 0.000000 -0.007833
# 5 0.015703 -0.003308 -0.012320 0.000000 0.069097 0.000000
# 6 0.000000 0.000000 0.000000 -0.007833 0.000000 0.041967
#
#
# Mechanical properties :
#
#
# Convention : Reuss Voigt Hill
#
# Bulk Modulus (GPa) = 39.96816 44.10965 42.03890
# Shear Modulus (GPa) = 20.14227 24.21714 22.17970
#
# Velocity S-wave (km/s) = 3.23104 3.54282 3.39051
# Velocity P-wave (km/s) = 5.88512 6.29262 6.09228
#
# Compressibility (1/GPa) = 0.02501992
#
# Stress axis : x y z
#
# Youngs Moduli (GPa) = 41.26121 77.32987 62.33101
#
# Poissons Ratio (x) = 0.09051 0.58279
# Poissons Ratio (y) = 0.04829 0.22285
# Poissons Ratio (z) = 0.38579 0.27647
#
# Static dielectric constant tensor:
#      x y z
#    x 3.739390 0.000000 -0.180470 
#    y 0.000000 3.944210 0.000000 
#    z -0.180470 0.000000 3.365760 
# 
# 
# High freq. dielectric constant tensor:
#      x y z
#    x 1.748660 0.000000 -0.001070 
#    y 0.000000 1.770220 0.000000 
#    z -0.001070 0.000000 1.715090 
# 
# From -- ./inp_files/104450.got.cif
#   From: 2010.06.25/outbox.cif.g09.slc.cpg/sg12_53_cif.got.tgz:104450.got - 2010.06.28 00:19:55.
