data_PCOD8089593
_publ_section_title
;
Structure prediction by ZEFSAII (Michael W. Deem and Ramdas Pophale) SiO2 
 PCOD8089593
Probable space group: C 2/M
;
_chemical_formula_sum "Si O2"
_cell_formula_units_Z 40
_cell_length_a 13.520295
_cell_length_b 14.079741
_cell_length_c 8.501373
_cell_angle_alpha 90.000000
_cell_angle_beta 72.310345
_cell_angle_gamma 90.000000
_cell_volume 1541.819478
_symmetry_space_group_name_H-M "C 2/M"
_symmetry_group_IT_number 12
_symmetry_cell_setting 'monoclinic'
loop_
_space_group_symop_operation_xyz
x,y,z
-x,y,-z
-x,-y,-z
x,-y,z
1/2+x,1/2+y,z
1/2-x,1/2+y,-z
1/2-x,1/2-y,-z
1/2+x,1/2-y,z
loop_
_atom_site_type_symbol
_atom_site_label
_atom_site_fract_x
_atom_site_fract_y
_atom_site_fract_z
Si Si1 0.096069 0.233055 0.564819
Si Si2 0.223241 0.207960 0.214619
Si Si3 0.044954 0.393797 0.810841
Si Si4 0.973475 0.108181 0.832553
Si Si5 0.681183 0.894943 0.090330
O O1 0.199429 0.209715 0.412572
O O2 0.000000 0.262139 0.500000
O O3 0.117883 0.317887 0.681925
O O4 0.070866 0.138971 0.677278
O O5 0.122404 0.174649 0.166519
O O6 0.249681 0.316350 0.148127
O O7 0.314923 0.136252 0.104026
O O8 0.094190 0.500000 0.789698
O O9 0.932299 0.397886 0.776190
O O10 0.000000 0.360116 0.000000
O O11 0.946281 0.000000 0.806366
O O12 0.000000 0.124112 0.000000
O O13 0.733097 0.000000 0.078873
#
# Coordination Sequence:
#
# PCOD8089593 Si02
#       5
#     8   8   8   8   8
#     4  10  19  33  53  83 108 137 181 225 268 313
#     4  10  21  35  54  84 108 141 182 227 271 319
#     4  10  20  35  58  82 109 145 183 222 267 323
#     4  10  20  34  55  79 108 146 182 221 268 322
#     4  10  20  35  56  79 111 147 180 220 273 326
#
# _framework density 25.943376000000001
#
# number of rings (size 3 to 8) (size 9 to 14) (size 15 to 20)
#    0.000    2.000    4.000    1.200    0.000    5.600 
#    0.000    1.000    0.000    0.000    0.000    0.000 
#    0.000    0.000    0.000    0.000    0.000    0.000 
#
# Total GULP energy -247825.227254 kJ/mol
# GULP energy per Si atom -12391.261363 kJ/mol
# Density = 2.588433 g / cm^3
# Si number density = 25.943376 Si / 1000 Ang^3
#
#
#
# Elastic Constant Matrix: (Units=GPa)
#
#
# Indices 1 2 3 4 5 6 
#
# 1 43.3711 38.1443 39.3435 0.0000 -21.2192 0.0000
# 2 38.1443 177.8713 70.1730 0.0000 -15.4756 0.0000
# 3 39.3435 70.1730 186.8403 0.0000 -28.0166 0.0000
# 4 0.0000 0.0000 0.0000 22.1729 0.0000 5.7016
# 5 -21.2192 -15.4756 -28.0166 0.0000 47.9054 0.0000
# 6 0.0000 0.0000 0.0000 5.7016 0.0000 24.1867
#
#
#
# Elastic Compliance Matrix: (Units=1/GPa)
#
#
# Indices 1 2 3 4 5 6 
#
# 1 0.037570 -0.005384 -0.004006 0.000000 0.012559 0.000000
# 2 -0.005384 0.007396 -0.001801 0.000000 -0.001049 0.000000
# 3 -0.004006 -0.001801 0.007146 0.000000 0.001823 0.000000
# 4 0.000000 0.000000 0.000000 0.048010 0.000000 -0.011318
# 5 0.012559 -0.001049 0.001823 0.000000 0.027165 0.000000
# 6 0.000000 0.000000 0.000000 -0.011318 0.000000 0.044013
#
#
# Mechanical properties :
#
#
# Convention : Reuss Voigt Hill
#
# Bulk Modulus (GPa) = 33.63646 78.15604 55.89625
# Shear Modulus (GPa) = 24.55892 36.21446 30.38669
#
# Velocity S-wave (km/s) = 3.08008 3.74023 3.42609
# Velocity P-wave (km/s) = 5.06386 6.98881 6.10271
#
# Compressibility (1/GPa) = 0.02972964
#
# Stress axis : x y z
#
# Youngs Moduli (GPa) = 26.61670 135.20829 139.94659
#
# Poissons Ratio (x) = 0.72793 0.56063
# Poissons Ratio (y) = 0.14330 0.25210
# Poissons Ratio (z) = 0.10663 0.24356
#
# Static dielectric constant tensor:
#      x y z
#    x 5.236390 0.000000 -0.408690 
#    y 0.000000 4.834350 0.000000 
#    z -0.408690 0.000000 5.091950 
# 
# 
# High freq. dielectric constant tensor:
#      x y z
#    x 2.054250 0.000000 -0.007280 
#    y 0.000000 2.033270 0.000000 
#    z -0.007280 0.000000 2.045170 
# 
# From -- ./inp_files/84709.got.cif
#   From: 2010.06.25/outbox.cif.g09.slc.cpg/sg12_43_cif.got.tgz:84709.got - 2010.06.28 00:19:55.
