data_PCOD8089458
_publ_section_title
;
Structure prediction by ZEFSAII (Michael W. Deem and Ramdas Pophale) SiO2 
 PCOD8089458
Probable space group: C 2/M
;
_chemical_formula_sum "Si O2"
_cell_formula_units_Z 56
_cell_length_a 28.167838
_cell_length_b 13.262558
_cell_length_c 26.411962
_cell_angle_alpha 90.000000
_cell_angle_beta 20.145246
_cell_angle_gamma 90.000000
_cell_volume 3398.177875
_symmetry_space_group_name_H-M "C 2/M"
_symmetry_group_IT_number 12
_symmetry_cell_setting 'monoclinic'
loop_
_space_group_symop_operation_xyz
x,y,z
-x,y,-z
-x,-y,-z
x,-y,z
1/2+x,1/2+y,z
1/2-x,1/2+y,-z
1/2-x,1/2-y,-z
1/2+x,1/2-y,z
loop_
_atom_site_type_symbol
_atom_site_label
_atom_site_fract_x
_atom_site_fract_y
_atom_site_fract_z
Si Si1 0.503462 0.620280 0.856133
Si Si2 0.375668 0.383451 0.161488
Si Si3 0.616941 0.114031 0.143641
Si Si4 0.860259 0.614464 0.669598
Si Si5 0.119236 0.115683 0.187338
Si Si6 0.907514 0.780900 0.332834
Si Si7 0.802843 0.300122 0.833066
O O1 0.479191 0.500000 0.881315
O O2 0.592788 0.660106 0.814468
O O3 0.587629 0.651754 0.722409
O O4 0.357940 0.675646 0.005460
O O5 0.342044 0.500000 0.202737
O O6 0.246161 0.332636 0.262896
O O7 0.500000 0.363233 0.000000
O O8 0.502161 0.181813 0.230944
O O9 0.620596 0.136696 0.199732
O O10 0.570522 0.000000 0.180778
O O11 0.770071 0.133755 0.968475
O O12 0.813859 0.500000 0.729598
O O13 0.870808 0.674942 0.711239
O O14 0.000000 0.615956 0.500000
O O15 0.169327 0.181351 0.185067
O O16 0.970156 0.152343 0.316112
O O17 0.110784 0.000000 0.213015
O O18 0.750000 0.750000 0.500000
#
# Coordination Sequence:
#
# PCOD8089458 Si02
#       7
#     8   8   8   8   8   8   8
#     4  11  19  31  53  77 105 140 176 209 253 311
#     4   9  17  28  45  71 100 133 169 202 247 307
#     4  10  19  33  53  77 103 134 178 218 251 307
#     4  10  20  32  48  76 110 135 164 214 267 309
#     4  10  20  36  56  78 104 135 178 222 255 305
#     4  11  22  34  49  76 110 140 172 213 264 312
#     4  11  18  32  56  79  98 136 179 212 252 309
#
# _framework density 16.479420000000001
#
# number of rings (size 3 to 8) (size 9 to 14) (size 15 to 20)
#    0.000    1.714    4.286    2.571    0.000    3.429 
#    0.000    1.429    0.000    0.429    0.000    3.000 
#    0.000    0.000    0.000    0.000    0.000    0.000 
#
# Total GULP energy -347116.687427 kJ/mol
# GULP energy per Si atom -12397.024551 kJ/mol
# Density = 1.644191 g / cm^3
# Si number density = 16.479420 Si / 1000 Ang^3
#
#
#
# Elastic Constant Matrix: (Units=GPa)
#
#
# Indices 1 2 3 4 5 6 
#
# 1 124.7262 46.3160 38.8550 0.0003 1.4719 0.0004
# 2 46.3160 98.7355 30.0419 -0.0143 -3.5292 0.0093
# 3 38.8550 30.0419 79.3057 -0.0101 -9.8818 0.0080
# 4 0.0003 -0.0143 -0.0101 23.1708 0.0031 5.3545
# 5 1.4719 -3.5292 -9.8818 0.0031 27.8038 -0.0016
# 6 0.0004 0.0093 0.0080 5.3545 -0.0016 26.3661
#
#
#
# Elastic Compliance Matrix: (Units=1/GPa)
#
#
# Indices 1 2 3 4 5 6 
#
# 1 0.010776 -0.003892 -0.004121 -0.000005 -0.002529 0.000003
# 2 -0.003892 0.012853 -0.002860 0.000008 0.000821 -0.000005
# 3 -0.004121 -0.002860 0.016421 0.000006 0.005691 -0.000005
# 4 -0.000005 0.000008 0.000006 0.045283 -0.000002 -0.009196
# 5 -0.002529 0.000821 0.005691 -0.000002 0.038227 0.000001
# 6 0.000003 -0.000005 -0.000005 -0.009196 0.000001 0.039795
#
#
# Mechanical properties :
#
#
# Convention : Reuss Voigt Hill
#
# Bulk Modulus (GPa) = 54.62762 59.24371 56.93566
# Shear Modulus (GPa) = 26.15041 27.97177 27.06109
#
# Velocity S-wave (km/s) = 3.98785 4.12439 4.05670
# Velocity P-wave (km/s) = 7.37732 7.66218 7.52110
#
# Compressibility (1/GPa) = 0.01830576
#
# Stress axis : x y z
#
# Youngs Moduli (GPa) = 92.79704 77.80191 60.89836
#
# Poissons Ratio (x) = 0.30278 0.25094
# Poissons Ratio (y) = 0.36114 0.17416
# Poissons Ratio (z) = 0.38238 0.22251
#
# Static dielectric constant tensor:
#      x y z
#    x 3.344510 -0.000010 -0.071320 
#    y -0.000010 3.078150 0.000020 
#    z -0.071320 0.000020 2.947850 
# 
# 
# High freq. dielectric constant tensor:
#      x y z
#    x 1.640930 0.000000 -0.008400 
#    y 0.000000 1.608780 0.000000 
#    z -0.008400 0.000000 1.623540 
# 
# From -- ./inp_files/96506.got.cif
#   From: 2010.06.25/outbox.cif.g09.slc.cpg/sg12_49_cif.got.tgz:96506.got - 2010.06.28 00:19:55.
