data_PCOD8089702
_publ_section_title
;
Structure prediction by ZEFSAII (Michael W. Deem and Ramdas Pophale) SiO2 
 PCOD8089702
Probable space group: C 2/M
;
_chemical_formula_sum "Si O2"
_cell_formula_units_Z 56
_cell_length_a 13.898498
_cell_length_b 14.092227
_cell_length_c 29.984223
_cell_angle_alpha 90.000000
_cell_angle_beta 146.314847
_cell_angle_gamma 90.000000
_cell_volume 3257.187320
_symmetry_space_group_name_H-M "C 2/M"
_symmetry_group_IT_number 12
_symmetry_cell_setting 'monoclinic'
loop_
_space_group_symop_operation_xyz
x,y,z
-x,y,-z
-x,-y,-z
x,-y,z
1/2+x,1/2+y,z
1/2-x,1/2+y,-z
1/2-x,1/2-y,-z
1/2+x,1/2-y,z
loop_
_atom_site_type_symbol
_atom_site_label
_atom_site_fract_x
_atom_site_fract_y
_atom_site_fract_z
Si Si1 0.043220 0.389391 0.870304
Si Si2 0.335297 0.223809 0.729505
Si Si3 0.332991 0.272676 0.821661
Si Si4 0.168941 0.108329 0.538539
Si Si5 0.442697 0.610749 0.025372
Si Si6 0.939384 0.244265 0.675109
Si Si7 0.006829 0.109084 0.383501
O O1 0.002199 0.500000 0.858944
O O2 0.992444 0.351063 0.800975
O O3 0.923747 0.332114 0.860047
O O4 0.242694 0.366102 0.957263
O O5 0.329856 0.301395 0.767618
O O6 0.354888 0.279266 0.690604
O O7 0.160554 0.162602 0.662787
O O8 0.442168 0.347976 0.890850
O O9 0.137128 0.268879 0.763104
O O10 0.341470 0.165201 0.617302
O O11 0.000000 0.147641 0.500000
O O12 0.148499 0.116400 0.477275
O O13 0.199798 0.000000 0.565316
O O14 0.479921 0.500000 0.039304
O O15 0.500000 0.655050 0.000000
O O16 0.920424 0.156219 0.633919
O O17 0.961197 0.000000 0.355178
#
# Coordination Sequence:
#
# PCOD8089702 Si02
#       7
#     8   8   8   8   8   8   8
#     4   9  18  33  55  77 104 139 181 223 265 319
#     4   9  19  31  53  79 107 138 181 218 274 317
#     4   9  21  33  51  80 112 140 177 222 277 323
#     4  10  20  34  56  84 109 142 185 232 275 318
#     4  10  19  33  54  78 104 142 182 223 275 320
#     4  11  20  34  55  84 110 143 184 227 277 326
#     4  10  20  36  56  80 110 143 182 228 275 325
#
# _framework density 17.192747000000001
#
# number of rings (size 3 to 8) (size 9 to 14) (size 15 to 20)
#    0.857    1.429    1.429    2.143    0.000    1.143 
#    0.000    0.714    0.000    1.714    0.000    0.000 
#    0.000    0.000    0.000    0.000    0.000    0.000 
#
# Total GULP energy -346939.901186 kJ/mol
# GULP energy per Si atom -12390.710757 kJ/mol
# Density = 1.715362 g / cm^3
# Si number density = 17.192747 Si / 1000 Ang^3
#
#
#
# Elastic Constant Matrix: (Units=GPa)
#
#
# Indices 1 2 3 4 5 6 
#
# 1 104.3052 47.0141 37.9749 0.0000 -7.7985 0.0000
# 2 47.0141 52.9967 39.8652 0.0000 4.5719 0.0000
# 3 37.9749 39.8652 85.6805 0.0000 -0.2297 0.0000
# 4 0.0000 0.0000 0.0000 25.8901 0.0000 -4.2594
# 5 -7.7985 4.5719 -0.2297 0.0000 26.8703 0.0000
# 6 0.0000 0.0000 0.0000 -4.2594 0.0000 21.4087
#
#
#
# Elastic Compliance Matrix: (Units=1/GPa)
#
#
# Indices 1 2 3 4 5 6 
#
# 1 0.017460 -0.015930 -0.000306 0.000000 0.007775 0.000000
# 2 -0.015930 0.044265 -0.013568 0.000000 -0.012271 0.000000
# 3 -0.000306 -0.013568 0.018126 0.000000 0.002375 0.000000
# 4 0.000000 0.000000 0.000000 0.039932 0.000000 0.007945
# 5 0.007775 -0.012271 0.002375 0.000000 0.041581 0.000000
# 6 0.000000 0.000000 0.000000 0.007945 0.000000 0.048291
#
#
# Mechanical properties :
#
#
# Convention : Reuss Voigt Hill
#
# Bulk Modulus (GPa) = 49.39778 54.74344 52.07061
# Shear Modulus (GPa) = 18.11524 22.70902 20.41213
#
# Velocity S-wave (km/s) = 3.24953 3.63829 3.44939
# Velocity P-wave (km/s) = 6.54778 7.03986 6.79827
#
# Compressibility (1/GPa) = 0.02024382
#
# Stress axis : x y z
#
# Youngs Moduli (GPa) = 57.27371 22.59100 55.16835
#
# Poissons Ratio (x) = 0.35986 0.01688
# Poissons Ratio (y) = 0.91235 0.74854
# Poissons Ratio (z) = 0.01753 0.30652
#
# Static dielectric constant tensor:
#      x y z
#    x 3.194110 0.000000 -0.063290 
#    y 0.000000 2.951970 0.000000 
#    z -0.063290 0.000000 3.311170 
# 
# 
# High freq. dielectric constant tensor:
#      x y z
#    x 1.653890 0.000000 0.000200 
#    y 0.000000 1.636860 0.000000 
#    z 0.000200 0.000000 1.680000 
# 
# From -- ./inp_files/358224.got.cif
#   From: 2010.06.25/outbox.cif.g09.slc.cpg/sg12_180_cif.got.tgz:358224.got - 2010.06.28 00:19:55.
