data_PCOD8089752
_publ_section_title
;
Structure prediction by ZEFSAII (Michael W. Deem and Ramdas Pophale) SiO2 
 PCOD8089752
Probable space group: C 2/M
;
_chemical_formula_sum "Si O2"
_cell_formula_units_Z 64
_cell_length_a 25.479099
_cell_length_b 9.251649
_cell_length_c 31.544800
_cell_angle_alpha 90.000000
_cell_angle_beta 27.368747
_cell_angle_gamma 90.000000
_cell_volume 3418.377993
_symmetry_space_group_name_H-M "C 2/M"
_symmetry_group_IT_number 12
_symmetry_cell_setting 'monoclinic'
loop_
_space_group_symop_operation_xyz
x,y,z
-x,y,-z
-x,-y,-z
x,-y,z
1/2+x,1/2+y,z
1/2-x,1/2+y,-z
1/2-x,1/2-y,-z
1/2+x,1/2-y,z
loop_
_atom_site_type_symbol
_atom_site_label
_atom_site_fract_x
_atom_site_fract_y
_atom_site_fract_z
Si Si1 0.878301 0.336156 0.601862
Si Si2 0.704479 0.663162 0.651319
Si Si3 0.528103 0.166627 0.066910
Si Si4 0.923598 0.663945 0.782660
Si Si5 0.988452 0.665269 0.827031
Si Si6 0.690484 0.832629 0.580205
Si Si7 0.738232 0.170937 0.863629
Si Si8 0.221103 0.328889 0.778236
O O1 0.892001 0.500000 0.609137
O O2 0.803921 0.332323 0.613457
O O3 0.823361 0.241655 0.678490
O O4 0.000000 0.271672 0.500000
O O5 0.681169 0.500000 0.652124
O O6 0.592205 0.724493 0.753966
O O7 0.742041 0.764188 0.585695
O O8 0.572119 0.186101 0.083942
O O9 0.402013 0.233311 0.149158
O O10 0.516967 0.000000 0.062456
O O11 0.623855 0.236358 0.967703
O O12 0.887341 0.500000 0.798832
O O13 0.906577 0.697952 0.845406
O O14 0.848705 0.768252 0.807877
O O15 0.054805 0.691331 0.676368
O O16 0.034628 0.500000 0.789128
O O17 0.750000 0.750000 0.500000
O O18 0.723419 0.000000 0.554595
O O19 0.738346 0.216481 0.814632
O O20 0.741905 0.000000 0.866540
O O21 0.228616 0.500000 0.766292
#
# Coordination Sequence:
#
# PCOD8089752 Si02
#       8
#     8   8   8   8   8   8   8   8
#     4  10  22  38  55  79 111 145 179 222 281 338
#     4  10  19  33  54  79 107 139 179 225 273 324
#     4   9  17  33  58  82 108 143 185 232 279 324
#     4   9  20  36  52  76 111 146 179 221 276 330
#     4   9  17  33  57  79 103 142 185 224 272 325
#     4  10  21  37  58  81 107 142 185 227 274 330
#     4  10  21  35  54  83 114 147 186 227 274 330
#     4  10  20  36  58  81 108 144 188 232 273 325
#
# _framework density 18.722328999999998
#
# number of rings (size 3 to 8) (size 9 to 14) (size 15 to 20)
#    0.000    2.375    1.250    1.875    0.000    6.750 
#    0.000    5.000    0.000    1.500    0.000    0.000 
#    0.000    0.000    0.000    0.000    0.000    0.000 
#
# Total GULP energy -396708.857673 kJ/mol
# GULP energy per Si atom -12397.151802 kJ/mol
# Density = 1.867972 g / cm^3
# Si number density = 18.722329 Si / 1000 Ang^3
#
#
#
# Elastic Constant Matrix: (Units=GPa)
#
#
# Indices 1 2 3 4 5 6 
#
# 1 120.2200 45.6538 59.7002 -0.0060 15.2966 -0.0131
# 2 45.6538 73.0281 46.5893 -0.0175 9.9285 0.0067
# 3 59.7002 46.5893 117.6086 -0.0039 24.1094 0.0002
# 4 -0.0060 -0.0175 -0.0039 23.5971 0.0091 -0.7785
# 5 15.2966 9.9285 24.1094 0.0091 29.2505 -0.0114
# 6 -0.0131 0.0067 0.0002 -0.7785 -0.0114 28.3552
#
#
#
# Elastic Compliance Matrix: (Units=1/GPa)
#
#
# Indices 1 2 3 4 5 6 
#
# 1 0.012392 -0.004986 -0.004011 0.000000 -0.001482 0.000006
# 2 -0.004986 0.020333 -0.005587 0.000013 0.000311 -0.000007
# 3 -0.004011 -0.005587 0.014360 0.000000 -0.007842 -0.000004
# 4 0.000000 0.000013 0.000000 0.042417 -0.000017 0.001165
# 5 -0.001482 0.000311 -0.007842 -0.000017 0.041320 0.000016
# 6 0.000006 -0.000007 -0.000004 0.001165 0.000016 0.035299
#
#
# Mechanical properties :
#
#
# Convention : Reuss Voigt Hill
#
# Bulk Modulus (GPa) = 55.82017 68.30480 62.06248
# Shear Modulus (GPa) = 24.84320 26.83479 25.83899
#
# Velocity S-wave (km/s) = 3.64666 3.79001 3.71902
# Velocity P-wave (km/s) = 6.90002 7.46421 7.18765
#
# Compressibility (1/GPa) = 0.01791467
#
# Stress axis : x y z
#
# Youngs Moduli (GPa) = 80.69524 49.18168 69.63833
#
# Poissons Ratio (x) = 0.24524 0.27935
# Poissons Ratio (y) = 0.40239 0.38908
# Poissons Ratio (z) = 0.32371 0.27479
#
# Static dielectric constant tensor:
#      x y z
#    x 3.505820 0.000000 0.137720 
#    y 0.000000 3.390330 0.000010 
#    z 0.137720 0.000010 3.490340 
# 
# 
# High freq. dielectric constant tensor:
#      x y z
#    x 1.734480 0.000000 0.012090 
#    y 0.000000 1.712170 0.000000 
#    z 0.012090 0.000000 1.722160 
# 
# From -- ./inp_files/382396.got.cif
#   From: 2010.06.25/outbox.cif.g09.slc.cpg/sg12_192_cif.got.tgz:382396.got - 2010.06.28 00:19:55.
