data_PCOD8089539
_publ_section_title
;
Structure prediction by ZEFSAII (Michael W. Deem and Ramdas Pophale) SiO2 
 PCOD8089539
Probable space group: C 2/M
;
_chemical_formula_sum "Si O2"
_cell_formula_units_Z 64
_cell_length_a 30.707666
_cell_length_b 8.956836
_cell_length_c 25.132842
_cell_angle_alpha 90.000000
_cell_angle_beta 27.721312
_cell_angle_gamma 90.000000
_cell_volume 3215.555345
_symmetry_space_group_name_H-M "C 2/M"
_symmetry_group_IT_number 12
_symmetry_cell_setting 'monoclinic'
loop_
_space_group_symop_operation_xyz
x,y,z
-x,y,-z
-x,-y,-z
x,-y,z
1/2+x,1/2+y,z
1/2-x,1/2+y,-z
1/2-x,1/2-y,-z
1/2+x,1/2-y,z
loop_
_atom_site_type_symbol
_atom_site_label
_atom_site_fract_x
_atom_site_fract_y
_atom_site_fract_z
Si Si1 0.758849 0.822781 0.336330
Si Si2 0.684984 0.329883 0.611448
Si Si3 0.103232 0.823463 0.901476
Si Si4 0.988330 0.170387 0.269868
Si Si5 0.762704 0.823509 0.151385
Si Si6 0.550055 0.176150 0.580081
Si Si7 0.930024 0.823180 0.622725
Si Si8 0.307176 0.324609 0.984751
O O1 0.801975 0.758411 0.344439
O O2 0.821202 0.755045 0.221535
O O3 0.650618 0.773521 0.447865
O O4 0.765168 0.000000 0.328480
O O5 0.718438 0.500000 0.577238
O O6 0.750000 0.250000 0.500000
O O7 0.578369 0.313418 0.708847
O O8 0.142931 0.783003 0.917249
O O9 0.097073 0.000000 0.901007
O O10 0.000000 0.755384 0.000000
O O11 0.955523 0.278692 0.352289
O O12 0.086714 0.221560 0.140150
O O13 0.989732 0.000000 0.289694
O O14 0.672932 0.744744 0.275268
O O15 0.744981 0.000000 0.172683
O O16 0.776238 0.765611 0.076374
O O17 0.468928 0.260708 0.636202
O O18 0.534078 0.000000 0.592350
O O19 0.000000 0.772147 0.500000
O O20 0.921935 0.000000 0.634744
O O21 0.291365 0.500000 0.999116
O O22 0.250000 0.250000 0.000000
#
# Coordination Sequence:
#
# PCOD8089539 Si02
#       8
#     8   8   8   8   8   8   8   8
#     4   9  18  31  50  79 113 146 182 228 282 331
#     4  10  19  33  53  79 114 150 186 229 277 335
#     4   9  18  32  55  85 114 145 185 234 283 334
#     4  10  21  35  54  80 114 151 188 228 282 342
#     4  10  21  38  60  87 116 148 192 239 284 334
#     4  11  21  35  57  84 114 145 184 235 282 336
#     4  11  24  40  59  83 112 147 185 227 283 343
#     4  10  22  38  56  82 113 150 190 235 284 335
#
# _framework density 19.90325
#
# number of rings (size 3 to 8) (size 9 to 14) (size 15 to 20)
#    0.000    2.000    1.250    2.250    1.750    5.000 
#    0.000    0.000    0.000    0.375    0.000    0.000 
#    0.000    0.000    0.000    0.000    0.000    0.000 
#
# Total GULP energy -396784.771859 kJ/mol
# GULP energy per Si atom -12399.524121 kJ/mol
# Density = 1.985795 g / cm^3
# Si number density = 19.903250 Si / 1000 Ang^3
#
#
#
# Elastic Constant Matrix: (Units=GPa)
#
#
# Indices 1 2 3 4 5 6 
#
# 1 128.2516 24.8351 52.1975 -0.0003 -5.2581 -0.0003
# 2 24.8351 36.5202 30.1548 -0.0249 -2.9894 0.0072
# 3 52.1975 30.1548 140.4725 -0.0190 -7.1010 0.0080
# 4 -0.0003 -0.0249 -0.0190 24.2840 0.0191 2.8418
# 5 -5.2581 -2.9894 -7.1010 0.0191 40.8144 -0.0051
# 6 -0.0003 0.0072 0.0080 2.8418 -0.0051 21.0610
#
#
#
# Elastic Compliance Matrix: (Units=1/GPa)
#
#
# Indices 1 2 3 4 5 6 
#
# 1 0.009749 -0.004399 -0.002654 -0.000007 0.000472 0.000004
# 2 -0.004399 0.035325 -0.005898 0.000032 0.000994 -0.000014
# 3 -0.002654 -0.005898 0.009415 0.000001 0.000864 -0.000001
# 4 -0.000007 0.000032 0.000001 0.041840 -0.000019 -0.005646
# 5 0.000472 0.000994 0.000864 -0.000019 0.024785 0.000008
# 6 0.000004 -0.000014 -0.000001 -0.005646 0.000008 0.048243
#
#
# Mechanical properties :
#
#
# Convention : Reuss Voigt Hill
#
# Bulk Modulus (GPa) = 34.98266 57.73547 46.35906
# Shear Modulus (GPa) = 24.41537 30.43567 27.42552
#
# Velocity S-wave (km/s) = 3.50623 3.91472 3.71609
# Velocity P-wave (km/s) = 5.83147 7.03593 6.46183
#
# Compressibility (1/GPa) = 0.02858559
#
# Stress axis : x y z
#
# Youngs Moduli (GPa) = 102.57822 28.30826 106.21417
#
# Poissons Ratio (x) = 0.12453 0.28192
# Poissons Ratio (y) = 0.45126 0.62648
# Poissons Ratio (z) = 0.27227 0.16697
#
# Static dielectric constant tensor:
#      x y z
#    x 4.346910 -0.000030 -0.185720 
#    y -0.000030 3.287880 0.000100 
#    z -0.185720 0.000100 3.910620 
# 
# 
# High freq. dielectric constant tensor:
#      x y z
#    x 1.793510 0.000000 -0.004370 
#    y 0.000000 1.737590 0.000000 
#    z -0.004370 0.000000 1.784640 
# 
# From -- ./inp_files/353376.got.cif
#   From: 2010.06.25/outbox.cif.g09.slc.cpg/sg12_177_cif.got.tgz:353376.got - 2010.06.28 00:19:55.
