data_PCOD8089331
_publ_section_title
;
Structure prediction by ZEFSAII (Michael W. Deem and Ramdas Pophale) SiO2 
 PCOD8089331
Probable space group: C 2/M
;
_chemical_formula_sum "Si O2"
_cell_formula_units_Z 64
_cell_length_a 15.414787
_cell_length_b 28.744889
_cell_length_c 12.365302
_cell_angle_alpha 90.000000
_cell_angle_beta 40.932071
_cell_angle_gamma 90.000000
_cell_volume 3589.655591
_symmetry_space_group_name_H-M "C 2/M"
_symmetry_group_IT_number 12
_symmetry_cell_setting 'monoclinic'
loop_
_space_group_symop_operation_xyz
x,y,z
-x,y,-z
-x,-y,-z
x,-y,z
1/2+x,1/2+y,z
1/2-x,1/2+y,-z
1/2-x,1/2-y,-z
1/2+x,1/2-y,z
loop_
_atom_site_type_symbol
_atom_site_label
_atom_site_fract_x
_atom_site_fract_y
_atom_site_fract_z
Si Si1 0.323805 0.807083 0.766617
Si Si2 0.871314 0.950367 0.550276
Si Si3 0.122791 0.298541 0.516717
Si Si4 0.731244 0.301284 0.421463
Si Si5 0.004952 0.134813 0.624653
Si Si6 0.144336 0.718145 0.907693
Si Si7 0.362894 0.053730 0.068534
Si Si8 0.714853 0.138478 0.991737
O O1 0.467914 0.786382 0.661961
O O2 0.333085 0.826032 0.633866
O O3 0.219565 0.764861 0.875554
O O4 0.288625 0.851285 0.875836
O O5 0.908534 0.911481 0.425389
O O6 0.752661 0.932949 0.738932
O O7 0.000000 0.959051 0.500000
O O8 0.832044 0.000000 0.532207
O O9 0.163620 0.323236 0.591081
O O10 0.218351 0.254023 0.431416
O O11 0.586735 0.320750 0.585586
O O12 0.780420 0.312769 0.254144
O O13 0.000000 0.134681 0.500000
O O14 0.866524 0.136441 0.813728
O O15 0.136804 0.682405 0.014404
O O16 0.000000 0.732805 0.000000
O O17 0.353706 0.089208 0.974887
O O18 0.349515 0.000000 0.040891
O O19 0.500000 0.061903 0.000000
#
# Coordination Sequence:
#
# PCOD8089331 Si02
#       8
#     8   8   8   8   8   8   8   8
#     4  10  22  35  50  70 102 139 177 216 252 312
#     4   9  16  30  49  71 103 136 163 196 254 323
#     4   9  20  37  51  68  96 137 177 216 263 298
#     4  10  19  33  53  71  96 134 173 216 259 311
#     4  11  19  31  50  77 103 136 170 209 259 318
#     4  11  21  32  50  75 106 135 173 216 265 315
#     4  10  20  33  51  78 111 141 172 221 275 324
#     4  12  21  32  51  78 106 138 174 211 266 322
#
# _framework density 17.829008999999999
#
# number of rings (size 3 to 8) (size 9 to 14) (size 15 to 20)
#    0.000    1.750    3.750    2.250    1.750    4.000 
#    0.000    0.000    0.000    0.000    0.000    2.625 
#    0.000    2.500    0.000    0.000    0.000    0.000 
#
# Total GULP energy -396420.575645 kJ/mol
# GULP energy per Si atom -12388.142989 kJ/mol
# Density = 1.778843 g / cm^3
# Si number density = 17.829009 Si / 1000 Ang^3
#
#
#
# Elastic Constant Matrix: (Units=GPa)
#
#
# Indices 1 2 3 4 5 6 
#
# 1 80.3599 36.4101 43.7685 0.0000 -0.1101 0.0000
# 2 36.4101 81.3240 32.5901 0.0000 5.4397 0.0000
# 3 43.7685 32.5901 88.6355 0.0000 -4.2535 0.0000
# 4 0.0000 0.0000 0.0000 22.8462 0.0000 -3.0888
# 5 -0.1101 5.4397 -4.2535 0.0000 30.9082 0.0000
# 6 0.0000 0.0000 0.0000 -3.0888 0.0000 16.9147
#
#
#
# Elastic Compliance Matrix: (Units=1/GPa)
#
#
# Indices 1 2 3 4 5 6 
#
# 1 0.018942 -0.005554 -0.007309 0.000000 0.000039 0.000000
# 2 -0.005554 0.016390 -0.003446 0.000000 -0.003379 0.000000
# 3 -0.007309 -0.003446 0.016294 0.000000 0.002823 0.000000
# 4 0.000000 0.000000 0.000000 0.044879 0.000000 0.008195
# 5 0.000039 -0.003379 0.002823 0.000000 0.033337 0.000000
# 6 0.000000 0.000000 0.000000 0.008195 0.000000 0.060617
#
#
# Mechanical properties :
#
#
# Convention : Reuss Voigt Hill
#
# Bulk Modulus (GPa) = 52.61205 52.87297 52.74251
# Shear Modulus (GPa) = 21.79478 23.30388 22.54933
#
# Velocity S-wave (km/s) = 3.50012 3.61927 3.56020
# Velocity P-wave (km/s) = 6.77553 6.86917 6.82251
#
# Compressibility (1/GPa) = 0.01900705
#
# Stress axis : x y z
#
# Youngs Moduli (GPa) = 52.79391 61.01286 61.37193
#
# Poissons Ratio (x) = 0.33886 0.44860
# Poissons Ratio (y) = 0.29321 0.21149
# Poissons Ratio (z) = 0.38589 0.21025
#
# Static dielectric constant tensor:
#      x y z
#    x 3.396690 0.000000 0.095580 
#    y 0.000000 3.658650 0.000000 
#    z 0.095580 0.000000 3.387010 
# 
# 
# High freq. dielectric constant tensor:
#      x y z
#    x 1.675440 0.000000 -0.023630 
#    y 0.000000 1.665790 0.000000 
#    z -0.023630 0.000000 1.691100 
# 
# From -- ./inp_files/150250.got.cif
#   From: 2010.06.25/outbox.cif.g09.slc.cpg/sg12_76_cif.got.tgz:150250.got - 2010.06.28 00:19:55.
