data_PCOD8089940
_publ_section_title
;
Structure prediction by ZEFSAII (Michael W. Deem and Ramdas Pophale) SiO2 
 PCOD8089940
Probable space group: C 2/M
;
_chemical_formula_sum "Si O2"
_cell_formula_units_Z 64
_cell_length_a 17.750410
_cell_length_b 9.382820
_cell_length_c 20.347991
_cell_angle_alpha 90.000000
_cell_angle_beta 89.938221
_cell_angle_gamma 90.000000
_cell_volume 3388.933588
_symmetry_space_group_name_H-M "C 2/M"
_symmetry_group_IT_number 12
_symmetry_cell_setting 'monoclinic'
loop_
_space_group_symop_operation_xyz
x,y,z
-x,y,-z
-x,-y,-z
x,-y,z
1/2+x,1/2+y,z
1/2-x,1/2+y,-z
1/2-x,1/2-y,-z
1/2+x,1/2-y,z
loop_
_atom_site_type_symbol
_atom_site_label
_atom_site_fract_x
_atom_site_fract_y
_atom_site_fract_z
Si Si1 0.676260 0.835752 0.118009
Si Si2 0.910807 0.336251 0.749955
Si Si3 0.328995 0.830618 0.136470
Si Si4 0.336906 0.167843 0.392486
Si Si5 0.167811 0.164866 0.360359
Si Si6 0.414144 0.665653 0.506771
Si Si7 0.920372 0.669153 0.262113
Si Si8 0.915877 0.668981 0.006772
O O1 0.615070 0.819378 0.175343
O O2 0.747975 0.740608 0.133303
O O3 0.701546 0.000000 0.110164
O O4 0.636965 0.776112 0.052213
O O5 0.909966 0.500000 0.727356
O O6 0.854183 0.252129 0.703586
O O7 0.994827 0.271468 0.743921
O O8 0.369998 0.773718 0.202005
O O9 0.379674 0.780632 0.075138
O O10 0.317887 0.000000 0.137042
O O11 0.250870 0.211476 0.381590
O O12 0.363171 0.244901 0.457932
O O13 0.385391 0.223072 0.330562
O O14 0.346559 0.000000 0.402702
O O15 0.110527 0.199461 0.419130
O O16 0.166296 0.000000 0.340678
O O17 0.500000 0.715063 0.500000
O O18 0.403619 0.500000 0.489593
O O19 0.921110 0.500000 0.258330
O O20 0.921262 0.500000 0.002937
O O21 0.000000 0.734040 0.000000
#
# Coordination Sequence:
#
# PCOD8089940 Si02
#       8
#     8   8   8   8   8   8   8   8
#     4  10  20  33  50  76 107 132 164 214 258 296
#     4  10  20  34  53  75 100 133 170 209 253 299
#     4  10  19  33  55  77 101 138 175 207 251 305
#     4  10  20  34  53  75 100 131 167 210 252 294
#     4  10  21  36  53  76 105 133 165 208 254 300
#     4  10  21  36  53  75 104 135 166 204 251 302
#     4   9  18  33  52  75 100 128 170 215 249 292
#     4   9  17  31  53  78 102 134 176 215 251 295
#
# _framework density 18.884996000000001
#
# number of rings (size 3 to 8) (size 9 to 14) (size 15 to 20)
#    0.000    2.250    0.000    3.000    0.000    5.750 
#    0.000    1.250    0.000    3.000    0.000    0.000 
#    0.000    0.000    0.000    0.000    0.000    0.000 
#
# Total GULP energy -396912.111073 kJ/mol
# GULP energy per Si atom -12403.503471 kJ/mol
# Density = 1.884201 g / cm^3
# Si number density = 18.884996 Si / 1000 Ang^3
#
#
#
# Elastic Constant Matrix: (Units=GPa)
#
#
# Indices 1 2 3 4 5 6 
#
# 1 97.1892 23.4177 5.0273 0.0000 1.7516 0.0000
# 2 23.4177 30.9563 19.5972 0.0000 7.9653 0.0000
# 3 5.0273 19.5972 60.8466 0.0000 13.4763 0.0000
# 4 0.0000 0.0000 0.0000 22.9306 0.0000 3.5126
# 5 1.7516 7.9653 13.4763 0.0000 39.3797 0.0000
# 6 0.0000 0.0000 0.0000 3.5126 0.0000 25.6513
#
#
#
# Elastic Compliance Matrix: (Units=1/GPa)
#
#
# Indices 1 2 3 4 5 6 
#
# 1 0.012935 -0.011578 0.002455 0.000000 0.000926 0.000000
# 2 -0.011578 0.051543 -0.014552 0.000000 -0.004931 0.000000
# 3 0.002455 -0.014552 0.021955 0.000000 -0.004679 0.000000
# 4 0.000000 0.000000 0.000000 0.044544 0.000000 -0.006100
# 5 0.000926 -0.004931 -0.004679 0.000000 0.027951 0.000000
# 6 0.000000 0.000000 0.000000 -0.006100 0.000000 0.039820
#
#
# Mechanical properties :
#
#
# Convention : Reuss Voigt Hill
#
# Bulk Modulus (GPa) = 25.58614 31.67514 28.63064
# Shear Modulus (GPa) = 19.29569 26.98898 23.14233
#
# Velocity S-wave (km/s) = 3.19995 3.78448 3.50442
# Velocity P-wave (km/s) = 5.21830 5.99211 5.61854
#
# Compressibility (1/GPa) = 0.03908366
#
# Stress axis : x y z
#
# Youngs Moduli (GPa) = 77.30881 19.40139 45.54747
#
# Poissons Ratio (x) = 0.22462 -0.11182
# Poissons Ratio (y) = 0.89505 0.66281
# Poissons Ratio (z) = -0.18979 0.28233
#
# Static dielectric constant tensor:
#      x y z
#    x 3.639870 0.000000 -0.083900 
#    y 0.000000 3.119720 0.000000 
#    z -0.083900 0.000000 3.594170 
# 
# 
# High freq. dielectric constant tensor:
#      x y z
#    x 1.751110 0.000000 -0.003130 
#    y 0.000000 1.695550 0.000000 
#    z -0.003130 0.000000 1.749310 
# 
# From -- ./inp_files/314085.got.cif
#   From: 2010.06.25/outbox.cif.g09.slc.cpg/sg12_158_cif.got.tgz:314085.got - 2010.06.28 00:19:55.
