data_PCOD8089303
_publ_section_title
;
Structure prediction by ZEFSAII (Michael W. Deem and Ramdas Pophale) SiO2 
 PCOD8089303
Probable space group: C 2/M
;
_chemical_formula_sum "Si O2"
_cell_formula_units_Z 56
_cell_length_a 15.570081
_cell_length_b 18.344498
_cell_length_c 13.817881
_cell_angle_alpha 90.000000
_cell_angle_beta 128.903178
_cell_angle_gamma 90.000000
_cell_volume 3071.383306
_symmetry_space_group_name_H-M "C 2/M"
_symmetry_group_IT_number 12
_symmetry_cell_setting 'monoclinic'
loop_
_space_group_symop_operation_xyz
x,y,z
-x,y,-z
-x,-y,-z
x,-y,z
1/2+x,1/2+y,z
1/2-x,1/2+y,-z
1/2-x,1/2-y,-z
1/2+x,1/2-y,z
loop_
_atom_site_type_symbol
_atom_site_label
_atom_site_fract_x
_atom_site_fract_y
_atom_site_fract_z
Si Si1 0.282157 0.791322 0.880508
Si Si2 0.577248 0.421967 0.964988
Si Si3 0.787928 0.362467 0.216053
Si Si4 0.616614 0.081331 0.530601
Si Si5 0.924114 0.782716 0.136333
Si Si6 0.399516 0.082613 0.855984
Si Si7 0.022644 0.649763 0.287622
O O1 0.244311 0.721915 0.790595
O O2 0.180790 0.811108 0.878007
O O3 0.308087 0.859449 0.828800
O O4 0.387493 0.769612 0.021173
O O5 0.583001 0.500000 0.913207
O O6 0.522197 0.358082 0.861804
O O7 0.500000 0.432395 0.000000
O O8 0.699596 0.401828 0.086171
O O9 0.791198 0.395474 0.326272
O O10 0.901708 0.374654 0.238360
O O11 0.500000 0.084288 0.500000
O O12 0.612950 0.135530 0.435718
O O13 0.643205 0.000000 0.512246
O O14 0.015338 0.736712 0.260159
O O15 0.441832 0.103329 0.779726
O O16 0.350320 0.000000 0.818241
O O17 0.500000 0.085317 0.000000
#
# Coordination Sequence:
#
# PCOD8089303 Si02
#       7
#     8   8   8   8   8   8   8
#     4   9  18  33  47  71  99 135 175 204 248 310
#     4  10  21  32  49  76 100 130 171 216 263 300
#     4   9  19  34  56  76 103 138 173 213 260 309
#     4   9  17  31  52  79 108 136 168 214 264 309
#     4   9  18  32  50  68  96 137 171 209 250 299
#     4  11  22  31  47  76 109 139 169 213 264 312
#     4  10  19  33  52  79 106 136 172 203 260 317
#
# _framework density 18.232825999999999
#
# number of rings (size 3 to 8) (size 9 to 14) (size 15 to 20)
#    0.000    2.429    1.429    1.714    4.000    2.286 
#    0.000    0.714    0.000    0.000    0.000    0.000 
#    0.000    5.714    0.000    0.000    0.000    0.000 
#
# Total GULP energy -346994.939156 kJ/mol
# GULP energy per Si atom -12392.676398 kJ/mol
# Density = 1.819133 g / cm^3
# Si number density = 18.232826 Si / 1000 Ang^3
#
#
#
# Elastic Constant Matrix: (Units=GPa)
#
#
# Indices 1 2 3 4 5 6 
#
# 1 58.1255 46.7888 17.2659 0.0000 -15.1720 0.0000
# 2 46.7888 162.6485 37.9897 0.0000 -20.5235 0.0000
# 3 17.2659 37.9897 62.0401 0.0000 -24.8630 0.0000
# 4 0.0000 0.0000 0.0000 27.9231 0.0000 -5.3522
# 5 -15.1720 -20.5235 -24.8630 0.0000 21.0594 0.0000
# 6 0.0000 0.0000 0.0000 -5.3522 0.0000 25.3944
#
#
#
# Elastic Compliance Matrix: (Units=1/GPa)
#
#
# Indices 1 2 3 4 5 6 
#
# 1 0.025271 -0.005960 0.003009 0.000000 0.015950 0.000000
# 2 -0.005960 0.008712 -0.003785 0.000000 -0.000272 0.000000
# 3 0.003009 -0.003785 0.032247 0.000000 0.036549 0.000000
# 4 0.000000 0.000000 0.000000 0.037320 0.000000 0.007866
# 5 0.015950 -0.000272 0.036549 0.000000 0.101862 0.000000
# 6 0.000000 0.000000 0.000000 0.007866 0.000000 0.041037
#
#
# Mechanical properties :
#
#
# Convention : Reuss Voigt Hill
#
# Bulk Modulus (GPa) = 18.95476 54.10030 36.52753
# Shear Modulus (GPa) = 18.01749 26.92668 22.47209
#
# Velocity S-wave (km/s) = 3.14696 3.84712 3.51452
# Velocity P-wave (km/s) = 4.86035 7.03350 6.04537
#
# Compressibility (1/GPa) = 0.05275719
#
# Stress axis : x y z
#
# Youngs Moduli (GPa) = 39.57072 114.77767 31.01088
#
# Poissons Ratio (x) = 0.68405 -0.09330
# Poissons Ratio (y) = 0.23583 0.11739
# Poissons Ratio (z) = -0.11905 0.43448
#
# Static dielectric constant tensor:
#      x y z
#    x 3.262170 0.000000 -0.185390 
#    y 0.000000 3.738580 0.000000 
#    z -0.185390 0.000000 3.324820 
# 
# 
# High freq. dielectric constant tensor:
#      x y z
#    x 1.691820 0.000000 -0.014310 
#    y 0.000000 1.716900 0.000000 
#    z -0.014310 0.000000 1.670500 
# 
# From -- ./inp_files/216448.got.cif
#   From: 2010.06.25/outbox.cif.g09.slc.cpg/sg12_109_cif.got.tgz:216448.got - 2010.06.28 00:19:55.
