data_PCOD8089178
_publ_section_title
;
Structure prediction by ZEFSAII (Michael W. Deem and Ramdas Pophale) SiO2 
 PCOD8089178
Probable space group: C 2/M
;
_chemical_formula_sum "Si O2"
_cell_formula_units_Z 56
_cell_length_a 23.223115
_cell_length_b 8.883264
_cell_length_c 14.817623
_cell_angle_alpha 90.000000
_cell_angle_beta 90.410826
_cell_angle_gamma 90.000000
_cell_volume 3056.753503
_symmetry_space_group_name_H-M "C 2/M"
_symmetry_group_IT_number 12
_symmetry_cell_setting 'monoclinic'
loop_
_space_group_symop_operation_xyz
x,y,z
-x,y,-z
-x,-y,-z
x,-y,z
1/2+x,1/2+y,z
1/2-x,1/2+y,-z
1/2-x,1/2-y,-z
1/2+x,1/2-y,z
loop_
_atom_site_type_symbol
_atom_site_label
_atom_site_fract_x
_atom_site_fract_y
_atom_site_fract_z
Si Si1 0.707548 0.821674 0.305931
Si Si2 0.062811 0.820339 0.750020
Si Si3 0.514725 0.826526 0.104068
Si Si4 0.169898 0.320786 0.669159
Si Si5 0.963198 0.833755 0.626686
Si Si6 0.869263 0.676456 0.526122
Si Si7 0.614182 0.669344 0.197485
O O1 0.768480 0.741546 0.303458
O O2 0.675702 0.771597 0.397775
O O3 0.672113 0.762903 0.218804
O O4 0.714854 0.000000 0.299977
O O5 0.125142 0.745939 0.740678
O O6 0.034492 0.759182 0.840915
O O7 0.024903 0.771281 0.661517
O O8 0.066828 0.000000 0.756778
O O9 0.577612 0.753469 0.120033
O O10 0.516576 0.000000 0.135015
O O11 0.500000 0.809102 0.000000
O O12 0.170085 0.500000 0.674063
O O13 0.153291 0.260458 0.569279
O O14 0.933874 0.735255 0.547950
O O15 0.923340 0.836094 0.713439
O O16 0.970082 0.000000 0.586144
O O17 0.874132 0.500000 0.523108
O O18 0.629668 0.500000 0.165703
#
# Coordination Sequence:
#
# PCOD8089178 Si02
#       7
#     8   8   8   8   8   8   8
#     4  10  19  33  52  73 100 137 180 220 256 297
#     4  10  21  36  52  74 103 136 172 208 255 310
#     4  10  20  35  58  86 110 131 159 200 250 304
#     4  11  22  34  48  70 102 139 177 218 261 303
#     4   8  16  30  48  69  96 130 168 212 255 298
#     4   9  19  32  48  71  98 133 177 221 260 297
#     4   9  17  31  52  78 105 134 168 206 250 298
#
# _framework density 18.320088999999999
#
# number of rings (size 3 to 8) (size 9 to 14) (size 15 to 20)
#    0.000    2.429    0.000    3.429    0.000    7.429 
#    0.000    2.857    0.000    0.857    0.000    0.000 
#    0.000    0.000    0.000    0.000    0.000    0.000 
#
# Total GULP energy -347177.942815 kJ/mol
# GULP energy per Si atom -12399.212243 kJ/mol
# Density = 1.827839 g / cm^3
# Si number density = 18.320089 Si / 1000 Ang^3
#
#
#
# Elastic Constant Matrix: (Units=GPa)
#
#
# Indices 1 2 3 4 5 6 
#
# 1 94.4814 51.1961 48.6356 0.0000 7.1762 0.0000
# 2 51.1961 92.6816 39.0765 0.0000 6.3796 0.0000
# 3 48.6356 39.0765 67.8957 0.0000 15.3665 0.0000
# 4 0.0000 0.0000 0.0000 20.5428 0.0000 8.5934
# 5 7.1762 6.3796 15.3665 0.0000 21.3053 0.0000
# 6 0.0000 0.0000 0.0000 8.5934 0.0000 33.3551
#
#
#
# Elastic Compliance Matrix: (Units=1/GPa)
#
#
# Indices 1 2 3 4 5 6 
#
# 1 0.019433 -0.006308 -0.011038 0.000000 0.003304 0.000000
# 2 -0.006308 0.016364 -0.005104 0.000000 0.000906 0.000000
# 3 -0.011038 -0.005104 0.029143 0.000000 -0.015773 0.000000
# 4 0.000000 0.000000 0.000000 0.054559 0.000000 -0.014056
# 5 0.003304 0.000906 -0.015773 0.000000 0.056929 0.000000
# 6 0.000000 0.000000 0.000000 -0.014056 0.000000 0.033602
#
#
# Mechanical properties :
#
#
# Convention : Reuss Voigt Hill
#
# Bulk Modulus (GPa) = 49.90266 59.20835 54.55551
# Shear Modulus (GPa) = 19.11245 22.78402 20.94823
#
# Velocity S-wave (km/s) = 3.23344 3.53039 3.38517
# Velocity P-wave (km/s) = 6.42173 7.00051 6.71736
#
# Compressibility (1/GPa) = 0.02003901
#
# Stress axis : x y z
#
# Youngs Moduli (GPa) = 51.45828 61.10975 34.31400
#
# Poissons Ratio (x) = 0.38550 0.37875
# Poissons Ratio (y) = 0.32462 0.17515
# Poissons Ratio (z) = 0.56798 0.31192
#
# Static dielectric constant tensor:
#      x y z
#    x 3.493500 0.000000 0.228580 
#    y 0.000000 3.493720 0.000000 
#    z 0.228580 0.000000 3.163750 
# 
# 
# High freq. dielectric constant tensor:
#      x y z
#    x 1.710520 0.000000 0.016240 
#    y 0.000000 1.720260 0.000000 
#    z 0.016240 0.000000 1.679180 
# 
# From -- ./inp_files/230910.got.cif
#   From: 2010.06.25/outbox.cif.g09.slc.cpg/sg12_116_cif.got.tgz:230910.got - 2010.06.28 00:19:55.
