data_PCOD8089864
_publ_section_title
;
Structure prediction by ZEFSAII (Michael W. Deem and Ramdas Pophale) SiO2 
 PCOD8089864
Probable space group: C 2/M
;
_chemical_formula_sum "Si O2"
_cell_formula_units_Z 56
_cell_length_a 31.047818
_cell_length_b 9.406229
_cell_length_c 11.699254
_cell_angle_alpha 90.000000
_cell_angle_beta 56.628475
_cell_angle_gamma 90.000000
_cell_volume 2853.345637
_symmetry_space_group_name_H-M "C 2/M"
_symmetry_group_IT_number 12
_symmetry_cell_setting 'monoclinic'
loop_
_space_group_symop_operation_xyz
x,y,z
-x,y,-z
-x,-y,-z
x,-y,z
1/2+x,1/2+y,z
1/2-x,1/2+y,-z
1/2-x,1/2-y,-z
1/2+x,1/2-y,z
loop_
_atom_site_type_symbol
_atom_site_label
_atom_site_fract_x
_atom_site_fract_y
_atom_site_fract_z
Si Si1 0.601840 0.835973 0.076444
Si Si2 0.385043 0.665243 0.158079
Si Si3 0.086486 0.832787 0.628394
Si Si4 0.671207 0.160920 0.374355
Si Si5 0.229347 0.161675 0.634352
Si Si6 0.802838 0.334307 0.914741
Si Si7 0.502228 0.835667 0.364993
O O1 0.657587 0.787807 0.043557
O O2 0.559568 0.807952 0.235749
O O3 0.602854 0.000000 0.040146
O O4 0.586815 0.748679 0.985030
O O5 0.388061 0.500000 0.123677
O O6 0.412784 0.698798 0.237348
O O7 0.326119 0.720454 0.247034
O O8 0.137704 0.769675 0.496435
O O9 0.036131 0.760872 0.651143
O O10 0.085570 0.000000 0.604873
O O11 0.731394 0.175694 0.318032
O O12 0.667341 0.198560 0.246821
O O13 0.651589 0.000000 0.426831
O O14 0.250000 0.250000 0.500000
O O15 0.223070 0.000000 0.601210
O O16 0.789048 0.500000 0.942818
O O17 0.750000 0.250000 0.000000
O O18 0.500000 0.788801 0.500000
O O19 0.485661 0.000000 0.375919
#
# Coordination Sequence:
#
# PCOD8089864 Si02
#       7
#     8   8   8   8   8   8   8
#     4  10  22  39  61  87 114 152 198 240 283 342
#     4  10  22  39  57  83 122 159 190 235 295 347
#     4  11  23  38  59  88 118 149 192 243 293 346
#     4  10  20  35  58  84 115 157 198 239 290 345
#     4  10  19  33  54  81 115 156 195 232 280 338
#     4  10  21  38  59  86 118 152 193 237 288 346
#     4  10  22  43  67  87 113 150 192 241 293 346
#
# _framework density 19.626083000000001
#
# number of rings (size 3 to 8) (size 9 to 14) (size 15 to 20)
#    0.000    1.857    1.429    2.143    0.000    7.714 
#    0.000    4.286    0.000    0.000    0.000    0.000 
#    0.000    0.000    0.000    0.000    0.000    0.000 
#
# Total GULP energy -347286.075793 kJ/mol
# GULP energy per Si atom -12403.074135 kJ/mol
# Density = 1.958141 g / cm^3
# Si number density = 19.626083 Si / 1000 Ang^3
#
#
#
# Elastic Constant Matrix: (Units=GPa)
#
#
# Indices 1 2 3 4 5 6 
#
# 1 118.9671 58.5883 53.6519 0.0000 7.2526 0.0000
# 2 58.5883 83.9125 60.7070 0.0000 8.6702 0.0000
# 3 53.6519 60.7070 118.7488 0.0000 14.1750 0.0000
# 4 0.0000 0.0000 0.0000 32.3100 0.0000 0.3502
# 5 7.2526 8.6702 14.1750 0.0000 32.2096 0.0000
# 6 0.0000 0.0000 0.0000 0.3502 0.0000 35.1526
#
#
#
# Elastic Compliance Matrix: (Units=1/GPa)
#
#
# Indices 1 2 3 4 5 6 
#
# 1 0.013095 -0.007717 -0.001971 0.000000 -0.000004 0.000000
# 2 -0.007717 0.023483 -0.008413 0.000000 -0.000881 0.000000
# 3 -0.001971 -0.008413 0.014026 0.000000 -0.003464 0.000000
# 4 0.000000 0.000000 0.000000 0.030954 0.000000 -0.000308
# 5 -0.000004 -0.000881 -0.003464 0.000000 0.032809 0.000000
# 6 0.000000 0.000000 0.000000 -0.000308 0.000000 0.028450
#
#
# Mechanical properties :
#
#
# Convention : Reuss Voigt Hill
#
# Bulk Modulus (GPa) = 69.43466 74.16919 71.80193
# Shear Modulus (GPa) = 27.20054 29.84652 28.52353
#
# Velocity S-wave (km/s) = 3.72686 3.90392 3.81642
# Velocity P-wave (km/s) = 7.34676 7.62850 7.48895
#
# Compressibility (1/GPa) = 0.01440203
#
# Stress axis : x y z
#
# Youngs Moduli (GPa) = 76.36425 42.58465 71.29493
#
# Poissons Ratio (x) = 0.32861 0.14053
# Poissons Ratio (y) = 0.58928 0.59982
# Poissons Ratio (z) = 0.15052 0.35827
#
# Static dielectric constant tensor:
#      x y z
#    x 3.839340 0.000000 -0.009470 
#    y 0.000000 3.560320 0.000000 
#    z -0.009470 0.000000 3.569100 
# 
# 
# High freq. dielectric constant tensor:
#      x y z
#    x 1.773860 0.000000 0.005400 
#    y 0.000000 1.757670 0.000000 
#    z 0.005400 0.000000 1.766700 
# 
# From -- ./inp_files/180840.got.cif
#   From: 2010.06.25/outbox.cif.g09.slc.cpg/sg12_91_cif.got.tgz:180840.got - 2010.06.28 00:19:55.
