data_PCOD8089411
_publ_section_title
;
Structure prediction by ZEFSAII (Michael W. Deem and Ramdas Pophale) SiO2 
 PCOD8089411
Probable space group: C 2/M
;
_chemical_formula_sum "Si O2"
_cell_formula_units_Z 64
_cell_length_a 20.250783
_cell_length_b 9.515237
_cell_length_c 24.255252
_cell_angle_alpha 90.000000
_cell_angle_beta 128.436829
_cell_angle_gamma 90.000000
_cell_volume 3660.935162
_symmetry_space_group_name_H-M "C 2/M"
_symmetry_group_IT_number 12
_symmetry_cell_setting 'monoclinic'
loop_
_space_group_symop_operation_xyz
x,y,z
-x,y,-z
-x,-y,-z
x,-y,z
1/2+x,1/2+y,z
1/2-x,1/2+y,-z
1/2-x,1/2-y,-z
1/2+x,1/2-y,z
loop_
_atom_site_type_symbol
_atom_site_label
_atom_site_fract_x
_atom_site_fract_y
_atom_site_fract_z
Si Si1 0.711818 0.834004 0.208473
Si Si2 0.005311 0.335335 0.662308
Si Si3 0.406658 0.167259 0.945088
Si Si4 0.362846 0.663439 0.211958
Si Si5 0.238485 0.163284 0.648182
Si Si6 0.075659 0.661861 0.580258
Si Si7 0.740210 0.163514 0.050256
Si Si8 0.186804 0.663141 0.429682
O O1 0.631692 0.774659 0.132736
O O2 0.798290 0.781943 0.225342
O O3 0.709300 0.785283 0.270745
O O4 0.709409 0.000000 0.201027
O O5 0.011206 0.500000 0.678311
O O6 0.908269 0.287659 0.608236
O O7 0.051633 0.252750 0.735961
O O8 0.048583 0.293615 0.627345
O O9 0.345117 0.213393 0.962974
O O10 0.411853 0.000000 0.946732
O O11 0.500000 0.233159 0.000000
O O12 0.384766 0.500000 0.230758
O O13 0.321697 0.691705 0.130921
O O14 0.152285 0.246712 0.598077
O O15 0.295844 0.193611 0.625370
O O16 0.215142 0.000000 0.641862
O O17 0.103152 0.500000 0.592577
O O18 0.000000 0.692668 0.500000
O O19 0.733916 0.000000 0.031961
O O20 0.750000 0.250000 0.000000
O O21 0.199422 0.500000 0.450902
O O22 0.250000 0.750000 0.500000
#
# Coordination Sequence:
#
# PCOD8089411 Si02
#       8
#     8   8   8   8   8   8   8   8
#     4   8  14  27  48  72  99 126 158 207 250 281
#     4  10  20  34  51  75 104 131 167 209 252 302
#     4   8  14  27  48  75 102 129 165 203 243 291
#     4   9  17  32  53  74 101 136 170 205 250 300
#     4  10  19  33  53  75  98 127 167 209 248 292
#     4  10  20  33  51  74 101 131 162 202 250 300
#     4   9  18  32  51  77 105 135 169 205 249 300
#     4  10  22  38  53  73 102 135 169 208 257 308
#
# _framework density 17.481871000000002
#
# number of rings (size 3 to 8) (size 9 to 14) (size 15 to 20)
#    0.000    2.750    1.250    2.250    0.000    2.750 
#    2.250    0.000    0.000    0.375    0.000    0.000 
#    0.000    0.000    0.000    0.000    0.000    0.000 
#
# Total GULP energy -396707.617616 kJ/mol
# GULP energy per Si atom -12397.113050 kJ/mol
# Density = 1.744208 g / cm^3
# Si number density = 17.481871 Si / 1000 Ang^3
#
#
#
# Elastic Constant Matrix: (Units=GPa)
#
#
# Indices 1 2 3 4 5 6 
#
# 1 53.0596 25.3912 51.8538 0.0000 13.1155 0.0000
# 2 25.3912 39.1345 46.1530 0.0000 5.1617 0.0000
# 3 51.8538 46.1530 129.9181 0.0000 3.0036 0.0000
# 4 0.0000 0.0000 0.0000 28.8415 0.0000 -1.9753
# 5 13.1155 5.1617 3.0036 0.0000 30.7126 0.0000
# 6 0.0000 0.0000 0.0000 -1.9753 0.0000 21.5664
#
#
#
# Elastic Compliance Matrix: (Units=1/GPa)
#
#
# Indices 1 2 3 4 5 6 
#
# 1 0.037842 -0.009171 -0.011534 0.000000 -0.013491 0.000000
# 2 -0.009171 0.047285 -0.013074 0.000000 -0.002752 0.000000
# 3 -0.011534 -0.013074 0.016818 0.000000 0.005478 0.000000
# 4 0.000000 0.000000 0.000000 0.034891 0.000000 0.003196
# 5 -0.013491 -0.002752 0.005478 0.000000 0.038248 0.000000
# 6 0.000000 0.000000 0.000000 0.003196 0.000000 0.046661
#
#
# Mechanical properties :
#
#
# Convention : Reuss Voigt Hill
#
# Bulk Modulus (GPa) = 29.07995 52.10089 40.59042
# Shear Modulus (GPa) = 16.62432 22.80503 19.71468
#
# Velocity S-wave (km/s) = 3.08709 3.61570 3.36180
# Velocity P-wave (km/s) = 5.42008 6.87739 6.19176
#
# Compressibility (1/GPa) = 0.03438796
#
# Stress axis : x y z
#
# Youngs Moduli (GPa) = 26.42587 21.14856 59.45859
#
# Poissons Ratio (x) = 0.19395 0.68579
# Poissons Ratio (y) = 0.24234 0.77735
# Poissons Ratio (z) = 0.30479 0.27649
#
# Static dielectric constant tensor:
#      x y z
#    x 3.320210 0.000000 -0.015870 
#    y 0.000000 2.943510 0.000000 
#    z -0.015870 0.000000 3.595020 
# 
# 
# High freq. dielectric constant tensor:
#      x y z
#    x 1.667120 0.000000 -0.000940 
#    y 0.000000 1.644540 0.000000 
#    z -0.000940 0.000000 1.689050 
# 
# From -- ./inp_files/346270.got.cif
#   From: 2010.06.25/outbox.cif.g09.slc.cpg/sg12_174_cif.got.tgz:346270.got - 2010.06.28 00:19:55.
