data_PCOD8089977
_publ_section_title
;
Structure prediction by ZEFSAII (Michael W. Deem and Ramdas Pophale) SiO2 
 PCOD8089977
Probable space group: C 2/M
;
_chemical_formula_sum "Si O2"
_cell_formula_units_Z 56
_cell_length_a 30.433169
_cell_length_b 9.402531
_cell_length_c 18.313015
_cell_angle_alpha 90.000000
_cell_angle_beta 144.378864
_cell_angle_gamma 90.000000
_cell_volume 3052.040052
_symmetry_space_group_name_H-M "C 2/M"
_symmetry_group_IT_number 12
_symmetry_cell_setting 'monoclinic'
loop_
_space_group_symop_operation_xyz
x,y,z
-x,y,-z
-x,-y,-z
x,-y,z
1/2+x,1/2+y,z
1/2-x,1/2+y,-z
1/2-x,1/2-y,-z
1/2+x,1/2-y,z
loop_
_atom_site_type_symbol
_atom_site_label
_atom_site_fract_x
_atom_site_fract_y
_atom_site_fract_z
Si Si1 0.365725 0.835343 0.166103
Si Si2 0.000920 0.164905 0.415413
Si Si3 0.671722 0.334457 0.394880
Si Si4 0.719717 0.664191 0.063494
Si Si5 0.351375 0.662257 0.472946
Si Si6 0.779200 0.163788 0.770712
Si Si7 0.420865 0.664566 0.867436
O O1 0.440520 0.764878 0.296746
O O2 0.301257 0.812316 0.138834
O O3 0.380518 0.000000 0.169736
O O4 0.343015 0.758816 0.060588
O O5 0.000000 0.196183 0.500000
O O6 0.080112 0.210011 0.486414
O O7 0.982289 0.000000 0.374184
O O8 0.690481 0.500000 0.403977
O O9 0.750000 0.250000 0.500000
O O10 0.629333 0.316653 0.415365
O O11 0.615007 0.272273 0.256058
O O12 0.694161 0.500000 0.024846
O O13 0.724908 0.720978 0.152631
O O14 0.330698 0.500000 0.428119
O O15 0.278147 0.753661 0.357698
O O16 0.863382 0.188659 0.855988
O O17 0.755460 0.000000 0.735326
O O18 0.436862 0.500000 0.873497
O O19 0.500000 0.737397 0.000000
#
# Coordination Sequence:
#
# PCOD8089977 Si02
#       7
#     8   8   8   8   8   8   8
#     4  10  20  34  52  76 105 139 178 223 272 318
#     4  10  21  36  53  76 109 145 180 221 271 322
#     4  10  19  34  56  80 107 140 179 225 273 324
#     4   9  19  34  53  76 103 138 179 220 267 325
#     4  10  21  34  53  80 107 142 182 222 272 327
#     4  10  19  33  55  79 102 136 180 222 266 320
#     4   9  18  32  52  79 107 136 174 221 270 320
#
# _framework density 18.348382999999998
#
# number of rings (size 3 to 8) (size 9 to 14) (size 15 to 20)
#    0.000    2.286    1.429    1.286    0.000    3.143 
#    0.000    4.286    0.000    1.714    0.000    0.000 
#    0.000    0.000    0.000    0.000    0.000    0.000 
#
# Total GULP energy -347210.084613 kJ/mol
# GULP energy per Si atom -12400.360165 kJ/mol
# Density = 1.830662 g / cm^3
# Si number density = 18.348383 Si / 1000 Ang^3
#
#
#
# Elastic Constant Matrix: (Units=GPa)
#
#
# Indices 1 2 3 4 5 6 
#
# 1 93.8598 21.6780 47.9036 0.0000 -13.4427 0.0000
# 2 21.6780 52.8324 47.6303 0.0000 3.2059 0.0000
# 3 47.9036 47.6303 143.7529 0.0000 -3.0551 0.0000
# 4 0.0000 0.0000 0.0000 58.9442 0.0000 5.6194
# 5 -13.4427 3.2059 -3.0551 0.0000 30.2807 0.0000
# 6 0.0000 0.0000 0.0000 5.6194 0.0000 19.2783
#
#
#
# Elastic Compliance Matrix: (Units=1/GPa)
#
#
# Indices 1 2 3 4 5 6 
#
# 1 0.014039 -0.002903 -0.003585 0.000000 0.006178 0.000000
# 2 -0.002903 0.028026 -0.008427 0.000000 -0.005106 0.000000
# 3 -0.003585 -0.008427 0.010952 0.000000 0.000406 0.000000
# 4 0.000000 0.000000 0.000000 0.017450 0.000000 -0.005086
# 5 0.006178 -0.005106 0.000406 0.000000 0.036349 0.000000
# 6 0.000000 0.000000 0.000000 -0.005086 0.000000 0.053355
#
#
# Mechanical properties :
#
#
# Convention : Reuss Voigt Hill
#
# Bulk Modulus (GPa) = 43.12882 58.31875 50.72378
# Shear Modulus (GPa) = 25.28694 33.24952 29.26823
#
# Velocity S-wave (km/s) = 3.71638 4.26152 3.99825
# Velocity P-wave (km/s) = 6.47857 7.48780 7.00140
#
# Compressibility (1/GPa) = 0.02318635
#
# Stress axis : x y z
#
# Youngs Moduli (GPa) = 71.22835 35.68090 91.30857
#
# Poissons Ratio (x) = 0.10359 0.32735
# Poissons Ratio (y) = 0.20680 0.76946
# Poissons Ratio (z) = 0.25536 0.30069
#
# Static dielectric constant tensor:
#      x y z
#    x 3.570890 0.000000 -0.174870 
#    y 0.000000 3.246190 0.000000 
#    z -0.174870 0.000000 3.481710 
# 
# 
# High freq. dielectric constant tensor:
#      x y z
#    x 1.720450 0.000000 -0.009920 
#    y 0.000000 1.691570 0.000000 
#    z -0.009920 0.000000 1.713810 
# 
# From -- ./inp_files/292577.got.cif
#   From: 2010.06.25/outbox.cif.g09.slc.cpg/sg12_147_cif.got.tgz:292577.got - 2010.06.28 00:19:55.
