data_PCOD8089068
_publ_section_title
;
Structure prediction by ZEFSAII (Michael W. Deem and Ramdas Pophale) SiO2 
 PCOD8089068
Probable space group: C 2/M
;
_chemical_formula_sum "Si O2"
_cell_formula_units_Z 64
_cell_length_a 29.060145
_cell_length_b 14.100194
_cell_length_c 20.925425
_cell_angle_alpha 90.000000
_cell_angle_beta 23.510245
_cell_angle_gamma 90.000000
_cell_volume 3420.388099
_symmetry_space_group_name_H-M "C 2/M"
_symmetry_group_IT_number 12
_symmetry_cell_setting 'monoclinic'
loop_
_space_group_symop_operation_xyz
x,y,z
-x,y,-z
-x,-y,-z
x,-y,z
1/2+x,1/2+y,z
1/2-x,1/2+y,-z
1/2-x,1/2-y,-z
1/2+x,1/2-y,z
loop_
_atom_site_type_symbol
_atom_site_label
_atom_site_fract_x
_atom_site_fract_y
_atom_site_fract_z
Si Si1 0.949045 0.892045 0.629313
Si Si2 0.286169 0.606665 0.039625
Si Si3 0.912311 0.767905 0.458259
Si Si4 0.525953 0.890232 0.393230
Si Si5 0.502217 0.892557 0.101821
Si Si6 0.961760 0.260390 0.825830
Si Si7 0.309956 0.108392 0.242154
Si Si8 0.774460 0.396534 0.022501
O O1 0.809943 0.883340 0.808767
O O2 0.000000 0.843855 0.500000
O O3 0.996065 0.841578 0.631704
O O4 0.991146 0.000000 0.578176
O O5 0.297804 0.500000 0.052101
O O6 0.157351 0.646752 0.216853
O O7 0.388782 0.667963 0.941266
O O8 0.304047 0.610693 0.940678
O O9 0.934534 0.667527 0.465871
O O10 0.786104 0.810053 0.632782
O O11 0.930762 0.761818 0.357884
O O12 0.500000 0.874908 0.500000
O O13 0.515492 0.000000 0.385771
O O14 0.493759 0.817643 0.169850
O O15 0.390885 0.877356 0.200136
O O16 0.503864 0.000000 0.126929
O O17 0.618076 0.874563 0.914044
O O18 0.875066 0.321149 0.892816
O O19 0.260321 0.000000 0.305447
O O20 0.833248 0.500000 0.950931
#
# Coordination Sequence:
#
# PCOD8089068 Si02
#       8
#     8   8   8   8   8   8   8   8
#     4  10  21  33  48  79 118 150 183 227 280 335
#     4  10  20  35  51  73 114 156 186 217 261 319
#     4  12  22  33  55  83 113 145 185 229 279 328
#     4  10  22  37  51  73 109 153 195 228 258 301
#     4   9  21  42  64  86 109 137 179 231 289 351
#     4  12  22  32  55  85 111 145 191 223 274 330
#     4   9  21  42  64  85 111 139 173 230 298 350
#     4  10  19  33  50  74 113 152 183 222 273 328
#
# _framework density 18.711326
#
# number of rings (size 3 to 8) (size 9 to 14) (size 15 to 20)
#    0.000    1.750    2.500    3.000    3.500    1.500 
#    0.000    0.000    0.000    0.750    0.000    1.750 
#    0.000    0.000    0.000    0.000    0.000    0.000 
#
# Total GULP energy -396659.427511 kJ/mol
# GULP energy per Si atom -12395.607110 kJ/mol
# Density = 1.866874 g / cm^3
# Si number density = 18.711326 Si / 1000 Ang^3
#
#
#
# Elastic Constant Matrix: (Units=GPa)
#
#
# Indices 1 2 3 4 5 6 
#
# 1 70.5987 32.5239 26.7116 0.0000 11.7339 0.0000
# 2 32.5239 93.9094 38.9486 0.0000 -3.0957 0.0000
# 3 26.7116 38.9486 96.7522 -0.0001 11.5741 0.0000
# 4 0.0000 0.0000 -0.0001 31.8961 0.0000 8.8217
# 5 11.7339 -3.0957 11.5741 0.0000 26.9402 0.0000
# 6 0.0000 0.0000 0.0000 8.8217 0.0000 68.1455
#
#
#
# Elastic Compliance Matrix: (Units=1/GPa)
#
#
# Indices 1 2 3 4 5 6 
#
# 1 0.019030 -0.006110 -0.001812 0.000000 -0.008212 0.000000
# 2 -0.006110 0.015141 -0.005202 0.000000 0.006636 0.000000
# 3 -0.001812 -0.005202 0.013606 0.000000 -0.005654 0.000000
# 4 0.000000 0.000000 0.000000 0.032516 0.000000 -0.004209
# 5 -0.008212 0.006636 -0.005654 0.000000 0.043888 0.000000
# 6 0.000000 0.000000 0.000000 -0.004209 0.000000 0.015219
#
#
# Mechanical properties :
#
#
# Convention : Reuss Voigt Hill
#
# Bulk Modulus (GPa) = 46.44795 50.84761 48.64778
# Shear Modulus (GPa) = 28.93109 36.26811 32.59960
#
# Velocity S-wave (km/s) = 3.93642 4.40739 4.17854
# Velocity P-wave (km/s) = 6.74817 7.28930 7.02395
#
# Compressibility (1/GPa) = 0.02152948
#
# Stress axis : x y z
#
# Youngs Moduli (GPa) = 52.54939 66.04611 73.49445
#
# Poissons Ratio (x) = 0.40353 0.13316
# Poissons Ratio (y) = 0.32107 0.38233
# Poissons Ratio (z) = 0.09521 0.34358
#
# Static dielectric constant tensor:
#      x y z
#    x 3.144740 0.000000 0.190900 
#    y 0.000000 3.605400 0.000000 
#    z 0.190900 0.000000 3.447480 
# 
# 
# High freq. dielectric constant tensor:
#      x y z
#    x 1.696720 0.000000 0.021840 
#    y 0.000000 1.734800 0.000000 
#    z 0.021840 0.000000 1.726430 
# 
# From -- ./inp_files/330375.got.cif
#   From: 2010.06.25/outbox.cif.g09.slc.cpg/sg12_166_cif.got.tgz:330375.got - 2010.06.28 00:19:55.
