data_PCOD8089602
_publ_section_title
;
Structure prediction by ZEFSAII (Michael W. Deem and Ramdas Pophale) SiO2 
 PCOD8089602
Probable space group: C 2/M
;
_chemical_formula_sum "Si O2"
_cell_formula_units_Z 56
_cell_length_a 9.034830
_cell_length_b 19.448743
_cell_length_c 19.933363
_cell_angle_alpha 90.000000
_cell_angle_beta 121.298718
_cell_angle_gamma 90.000000
_cell_volume 2992.878929
_symmetry_space_group_name_H-M "C 2/M"
_symmetry_group_IT_number 12
_symmetry_cell_setting 'monoclinic'
loop_
_space_group_symop_operation_xyz
x,y,z
-x,y,-z
-x,-y,-z
x,-y,z
1/2+x,1/2+y,z
1/2-x,1/2+y,-z
1/2-x,1/2-y,-z
1/2+x,1/2-y,z
loop_
_atom_site_type_symbol
_atom_site_label
_atom_site_fract_x
_atom_site_fract_y
_atom_site_fract_z
Si Si1 0.199281 0.919824 0.048114
Si Si2 0.807419 0.314934 0.970429
Si Si3 0.921413 0.338577 0.197401
Si Si4 0.978309 0.186419 0.363927
Si Si5 0.248149 0.298004 0.188834
Si Si6 0.849586 0.670886 0.626394
Si Si7 0.339735 0.422707 0.512366
O O1 0.302873 0.899493 0.140020
O O2 0.214373 0.000000 0.041681
O O3 0.291764 0.885255 0.006901
O O4 0.000000 0.895162 0.000000
O O5 0.716513 0.328147 0.876989
O O6 0.750000 0.250000 0.000000
O O7 0.000000 0.295057 0.000000
O O8 0.783159 0.283070 0.190887
O O9 0.053128 0.309672 0.171059
O O10 0.031219 0.363364 0.287598
O O11 0.890664 0.168618 0.271790
O O12 0.834972 0.192880 0.387585
O O13 0.071895 0.259833 0.385693
O O14 0.109749 0.124103 0.411504
O O15 0.823607 0.613254 0.563074
O O16 0.500000 0.427860 0.500000
O O17 0.287661 0.500000 0.523500
#
# Coordination Sequence:
#
# PCOD8089602 Si02
#       7
#     8   8   8   8   8   8   8
#     4  11  25  40  53  75 109 146 182 223 273 324
#     4  12  21  35  59  82 106 139 183 226 270 317
#     4  10  20  35  54  81 108 136 175 226 271 316
#     4   9  18  32  52  80 109 134 173 218 264 309
#     4  10  19  33  53  85 104 134 178 221 270 315
#     4   9  18  32  55  80 106 136 174 217 265 309
#     4   9  17  31  52  78 107 140 177 213 258 314
#
# _framework density 18.711082000000001
#
# number of rings (size 3 to 8) (size 9 to 14) (size 15 to 20)
#    0.000    2.000    2.857    0.857    2.000    0.857 
#    0.000    2.857    0.000    1.714    0.000    0.000 
#    0.000    0.000    0.000    0.000    0.000    0.000 
#
# Total GULP energy -347042.342367 kJ/mol
# GULP energy per Si atom -12394.369370 kJ/mol
# Density = 1.866849 g / cm^3
# Si number density = 18.711082 Si / 1000 Ang^3
#
#
#
# Elastic Constant Matrix: (Units=GPa)
#
#
# Indices 1 2 3 4 5 6 
#
# 1 68.4057 38.3817 36.9673 0.0000 9.2331 0.0000
# 2 38.3817 111.3187 67.8329 0.0000 8.8842 0.0000
# 3 36.9673 67.8329 136.8752 0.0000 8.3161 0.0000
# 4 0.0000 0.0000 0.0000 28.5906 0.0000 -0.6001
# 5 9.2331 8.8842 8.3161 0.0000 23.7331 0.0000
# 6 0.0000 0.0000 0.0000 -0.6001 0.0000 20.0907
#
#
#
# Elastic Compliance Matrix: (Units=1/GPa)
#
#
# Indices 1 2 3 4 5 6 
#
# 1 0.019306 -0.004687 -0.002597 0.000000 -0.004846 0.000000
# 2 -0.004687 0.014172 -0.005666 0.000000 -0.001496 0.000000
# 3 -0.002597 -0.005666 0.010856 0.000000 -0.000673 0.000000
# 4 0.000000 0.000000 0.000000 0.034999 0.000000 0.001045
# 5 -0.004846 -0.001496 -0.000673 0.000000 0.044816 0.000000
# 6 0.000000 0.000000 0.000000 0.001045 0.000000 0.049805
#
#
# Mechanical properties :
#
#
# Convention : Reuss Voigt Hill
#
# Bulk Modulus (GPa) = 54.25063 66.99592 60.62327
# Shear Modulus (GPa) = 24.27188 26.04406 25.15797
#
# Velocity S-wave (km/s) = 3.60556 3.73487 3.67079
# Velocity P-wave (km/s) = 6.81104 7.38121 7.10185
#
# Compressibility (1/GPa) = 0.01843297
#
# Stress axis : x y z
#
# Youngs Moduli (GPa) = 51.79688 70.56360 92.11281
#
# Poissons Ratio (x) = 0.33077 0.23919
# Poissons Ratio (y) = 0.24280 0.52194
# Poissons Ratio (z) = 0.13450 0.39984
#
# Static dielectric constant tensor:
#      x y z
#    x 3.312180 0.000000 0.166530 
#    y 0.000000 3.293990 0.000000 
#    z 0.166530 0.000000 3.782960 
# 
# 
# High freq. dielectric constant tensor:
#      x y z
#    x 1.712070 0.000000 0.008150 
#    y 0.000000 1.701600 0.000000 
#    z 0.008150 0.000000 1.749200 
# 
# From -- ./inp_files/300906.got.cif
#   From: 2010.06.25/outbox.cif.g09.slc.cpg/sg12_151_cif.got.tgz:300906.got - 2010.06.28 00:19:55.
