data_PCOD8089891
_publ_section_title
;
Structure prediction by ZEFSAII (Michael W. Deem and Ramdas Pophale) SiO2 
 PCOD8089891
Probable space group: C 2/M
;
_chemical_formula_sum "Si O2"
_cell_formula_units_Z 40
_cell_length_a 13.629554
_cell_length_b 10.882162
_cell_length_c 15.617342
_cell_angle_alpha 90.000000
_cell_angle_beta 117.060755
_cell_angle_gamma 90.000000
_cell_volume 2062.765621
_symmetry_space_group_name_H-M "C 2/M"
_symmetry_group_IT_number 12
_symmetry_cell_setting 'monoclinic'
loop_
_space_group_symop_operation_xyz
x,y,z
-x,y,-z
-x,-y,-z
x,-y,z
1/2+x,1/2+y,z
1/2-x,1/2+y,-z
1/2-x,1/2-y,-z
1/2+x,1/2-y,z
loop_
_atom_site_type_symbol
_atom_site_label
_atom_site_fract_x
_atom_site_fract_y
_atom_site_fract_z
Si Si1 0.245685 0.634059 0.152465
Si Si2 0.075692 0.638723 0.953676
Si Si3 0.020590 0.216539 0.761752
Si Si4 0.055734 0.359414 0.606330
Si Si5 0.799398 0.138053 0.748024
O O1 0.202980 0.500000 0.170943
O O2 0.377513 0.624366 0.210755
O O3 0.194985 0.750647 0.182417
O O4 0.202446 0.648043 0.037305
O O5 0.040282 0.500000 0.920976
O O6 0.057439 0.706420 0.858191
O O7 0.000000 0.693789 0.000000
O O8 0.905991 0.145528 0.729381
O O9 0.007482 0.298390 0.672348
O O10 0.019320 0.500000 0.598051
O O11 0.187713 0.344761 0.649385
O O12 0.000000 0.298754 0.500000
O O13 0.798201 0.000000 0.789990
#
# Coordination Sequence:
#
# PCOD8089891 Si02
#       5
#     8   8   8   8   8
#     4  10  21  37  56  81 117 153 189 226 269 331
#     4  10  19  33  54  82 116 152 190 225 266 331
#     4  11  20  34  58  83 112 147 186 232 285 321
#     4   9  20  38  58  82 112 147 188 230 278 340
#     4  10  21  37  58  85 116 145 184 233 281 332
#
# _framework density 19.391441
#
# number of rings (size 3 to 8) (size 9 to 14) (size 15 to 20)
#    0.000    2.000    2.000    1.800    0.000    2.400 
#    0.000    3.000    0.000   15.000    0.000    0.000 
#    0.000    0.000    0.000    0.000    0.000    0.000 
#
# Total GULP energy -247768.914541 kJ/mol
# GULP energy per Si atom -12388.445727 kJ/mol
# Density = 1.934731 g / cm^3
# Si number density = 19.391441 Si / 1000 Ang^3
#
#
#
# Elastic Constant Matrix: (Units=GPa)
#
#
# Indices 1 2 3 4 5 6 
#
# 1 93.6216 34.6530 24.4107 0.0000 7.3488 0.0000
# 2 34.6530 116.3745 53.9614 0.0000 -2.7117 0.0000
# 3 24.4107 53.9614 129.1471 0.0000 -3.5344 0.0000
# 4 0.0000 0.0000 0.0000 22.7481 0.0000 -1.1158
# 5 7.3488 -2.7117 -3.5344 0.0000 26.2359 0.0000
# 6 0.0000 0.0000 0.0000 -1.1158 0.0000 44.4013
#
#
#
# Elastic Compliance Matrix: (Units=1/GPa)
#
#
# Indices 1 2 3 4 5 6 
#
# 1 0.012504 -0.003311 -0.001089 0.000000 -0.003992 0.000000
# 2 -0.003311 0.011541 -0.004154 0.000000 0.001561 0.000000
# 3 -0.001089 -0.004154 0.009717 0.000000 0.001185 0.000000
# 4 0.000000 0.000000 0.000000 0.044014 0.000000 0.001106
# 5 -0.003992 0.001561 0.001185 0.000000 0.039555 0.000000
# 6 0.000000 0.000000 0.000000 0.001106 0.000000 0.022550
#
#
# Mechanical properties :
#
#
# Convention : Reuss Voigt Hill
#
# Bulk Modulus (GPa) = 60.04523 62.79925 61.42224
# Shear Modulus (GPa) = 30.76152 33.75159 32.25655
#
# Velocity S-wave (km/s) = 3.98722 4.17650 4.08296
# Velocity P-wave (km/s) = 7.22698 7.46411 7.34650
#
# Compressibility (1/GPa) = 0.01665411
#
# Stress axis : x y z
#
# Youngs Moduli (GPa) = 79.97268 86.64483 102.91319
#
# Poissons Ratio (x) = 0.28692 0.11209
# Poissons Ratio (y) = 0.26482 0.42747
# Poissons Ratio (z) = 0.08710 0.35990
#
# Static dielectric constant tensor:
#      x y z
#    x 3.787880 0.000000 0.253400 
#    y 0.000000 3.563990 0.000000 
#    z 0.253400 0.000000 3.516460 
# 
# 
# High freq. dielectric constant tensor:
#      x y z
#    x 1.756080 0.000000 0.023970 
#    y 0.000000 1.754240 0.000000 
#    z 0.023970 0.000000 1.740270 
# 
# From -- ./inp_files/165880.got.cif
#   From: 2010.06.25/outbox.cif.g09.slc.cpg/sg12_83_cif.got.tgz:165880.got - 2010.06.28 00:19:55.
