data_PCOD8089302
_publ_section_title
;
Structure prediction by ZEFSAII (Michael W. Deem and Ramdas Pophale) SiO2 
 PCOD8089302
Probable space group: C 2/M
;
_chemical_formula_sum "Si O2"
_cell_formula_units_Z 56
_cell_length_a 15.079127
_cell_length_b 20.398821
_cell_length_c 17.983984
_cell_angle_alpha 90.000000
_cell_angle_beta 147.395938
_cell_angle_gamma 90.000000
_cell_volume 2980.707441
_symmetry_space_group_name_H-M "C 2/M"
_symmetry_group_IT_number 12
_symmetry_cell_setting 'monoclinic'
loop_
_space_group_symop_operation_xyz
x,y,z
-x,y,-z
-x,-y,-z
x,-y,z
1/2+x,1/2+y,z
1/2-x,1/2+y,-z
1/2-x,1/2-y,-z
1/2+x,1/2-y,z
loop_
_atom_site_type_symbol
_atom_site_label
_atom_site_fract_x
_atom_site_fract_y
_atom_site_fract_z
Si Si1 0.595816 0.573288 0.357317
Si Si2 0.412860 0.074000 0.669758
Si Si3 0.342195 0.257487 0.837213
Si Si4 0.429865 0.883484 0.849080
Si Si5 0.997794 0.707602 0.665004
Si Si6 0.235595 0.428543 0.133922
Si Si7 0.684491 0.297302 0.347333
O O1 0.590060 0.500000 0.317607
O O2 0.721582 0.574349 0.514247
O O3 0.421892 0.596488 0.267901
O O4 0.648662 0.626158 0.334401
O O5 0.413340 0.095786 0.754091
O O6 0.509553 0.129338 0.690926
O O7 0.487314 0.000000 0.710620
O O8 0.342828 0.183538 0.809491
O O9 0.178230 0.269386 0.769124
O O10 0.336216 0.296874 0.755903
O O11 0.500000 0.275976 0.000000
O O12 0.337147 0.936701 0.834453
O O13 0.624140 0.878816 0.006795
O O14 0.868589 0.720086 0.506416
O O15 0.941426 0.748364 0.698675
O O16 0.228818 0.500000 0.090825
#
# Coordination Sequence:
#
# PCOD8089302 Si02
#       7
#     8   8   8   8   8   8   8
#     4   9  20  37  59  85 112 149 193 241 293 349
#     4  10  20  38  61  86 115 149 196 243 291 350
#     4  12  24  38  57  87 120 154 201 245 292 351
#     4  11  20  34  50  84 114 155 188 232 293 346
#     4  10  22  40  61  87 117 157 199 243 300 346
#     4  10  19  33  52  78 117 154 186 227 289 356
#     4  10  21  40  61  85 116 156 196 248 296 348
#
# _framework density 18.787486000000001
#
# number of rings (size 3 to 8) (size 9 to 14) (size 15 to 20)
#    0.000    1.714    2.857    3.000    0.000    2.286 
#    2.571    2.857    0.000    4.286    0.000    0.000 
#    0.000    0.000    0.000    0.000    0.000    0.000 
#
# Total GULP energy -346958.827159 kJ/mol
# GULP energy per Si atom -12391.386684 kJ/mol
# Density = 1.874472 g / cm^3
# Si number density = 18.787486 Si / 1000 Ang^3
#
#
#
# Elastic Constant Matrix: (Units=GPa)
#
#
# Indices 1 2 3 4 5 6 
#
# 1 89.4693 43.0924 60.6531 -0.0001 0.8670 0.0010
# 2 43.0924 122.8986 51.1666 -0.0052 7.0996 -0.0005
# 3 60.6531 51.1666 94.2645 -0.0067 8.2547 -0.0005
# 4 -0.0001 -0.0052 -0.0067 -4.4777 -0.0054 -2.1783
# 5 0.8670 7.0996 8.2547 -0.0054 40.4317 -0.0009
# 6 0.0010 -0.0005 -0.0005 -2.1783 -0.0009 25.7705
#
#
#
# Elastic Compliance Matrix: (Units=1/GPa)
#
#
# Indices 1 2 3 4 5 6 
#
# 1 0.020495 -0.002258 -0.012175 0.000017 0.002443 0.000000
# 2 -0.002258 0.010780 -0.004314 -0.000005 -0.000964 0.000000
# 3 -0.012175 -0.004314 0.021072 -0.000022 -0.003283 -0.000001
# 4 0.000017 -0.000005 -0.000022 -0.214508 -0.000024 -0.018132
# 5 0.002443 -0.000964 -0.003283 -0.000024 0.025520 -0.000001
# 6 0.000000 0.000000 -0.000001 -0.018132 -0.000001 0.037271
#
#
# Mechanical properties :
#
#
# Convention : Reuss Voigt Hill
#
# Bulk Modulus (GPa) = 67.33282 68.49517 67.91400
# Shear Modulus (GPa) = -87.83729 22.45958 -32.68885
#
# Velocity S-wave (km/s) = -6.84504 3.46129 -4.17577
# Velocity P-wave (km/s) = 5.15323 7.24645 3.60245
#
# Compressibility (1/GPa) = 0.01485160
#
# Stress axis : x y z
#
# Youngs Moduli (GPa) = 48.79253 92.76082 47.45724
#
# Poissons Ratio (x) = 0.20949 0.57780
# Poissons Ratio (y) = 0.11019 0.20473
# Poissons Ratio (z) = 0.59406 0.40017
#
# Static dielectric constant tensor:
#      x y z
#    x 3.276610 0.000000 -0.042780 
#    y 0.000000 3.842480 -0.000010 
#    z -0.042780 -0.000010 3.624430 
# 
# 
# High freq. dielectric constant tensor:
#      x y z
#    x 1.703440 0.000000 -0.000410 
#    y 0.000000 1.741400 0.000000 
#    z -0.000410 0.000000 1.734610 
# 
# From -- ./inp_files/64046.got.cif
#   From: 2010.06.25/outbox.cif.g09.slc.cpg/sg12_33_cif.got.tgz:64046.got - 2010.06.28 00:19:55.
