data_PCOD8089888
_publ_section_title
;
Structure prediction by ZEFSAII (Michael W. Deem and Ramdas Pophale) SiO2 
 PCOD8089888
Probable space group: C 2/M
;
_chemical_formula_sum "Si O2"
_cell_formula_units_Z 64
_cell_length_a 12.364402
_cell_length_b 20.428697
_cell_length_c 22.476408
_cell_angle_alpha 90.000000
_cell_angle_beta 144.780801
_cell_angle_gamma 90.000000
_cell_volume 3274.124833
_symmetry_space_group_name_H-M "C 2/M"
_symmetry_group_IT_number 12
_symmetry_cell_setting 'monoclinic'
loop_
_space_group_symop_operation_xyz
x,y,z
-x,y,-z
-x,-y,-z
x,-y,z
1/2+x,1/2+y,z
1/2-x,1/2+y,-z
1/2-x,1/2-y,-z
1/2+x,1/2-y,z
loop_
_atom_site_type_symbol
_atom_site_label
_atom_site_fract_x
_atom_site_fract_y
_atom_site_fract_z
Si Si1 0.122392 0.075078 0.112802
Si Si2 0.427522 0.332430 0.101999
Si Si3 0.716242 0.576497 0.606526
Si Si4 0.988199 0.702722 0.064138
Si Si5 0.965852 0.651323 0.310327
Si Si6 0.137223 0.783443 0.395685
Si Si7 0.207883 0.838396 0.711683
Si Si8 0.746701 0.197840 0.675797
O O1 0.310132 0.119522 0.197036
O O2 0.988841 0.095916 0.107236
O O3 0.183482 0.000000 0.147385
O O4 0.000000 0.087913 0.000000
O O5 0.504594 0.278535 0.089605
O O6 0.534847 0.319265 0.212239
O O7 0.206773 0.329496 0.004994
O O8 0.500000 0.594599 0.500000
O O9 0.756157 0.500000 0.621284
O O10 0.766102 0.601792 0.695133
O O11 0.841297 0.610700 0.611098
O O12 0.148575 0.661211 0.168891
O O13 0.000000 0.694957 0.000000
O O14 0.893390 0.652089 0.347188
O O15 0.002224 0.726557 0.307016
O O16 0.250000 0.750000 0.500000
O O17 0.276546 0.810598 0.406375
O O18 0.005583 0.843125 0.358960
O O19 0.210793 0.773143 0.673709
#
# Coordination Sequence:
#
# PCOD8089888 Si02
#       8
#     8   8   8   8   8   8   8   8
#     4  10  21  35  55  84 116 155 202 249 293 350
#     4   9  19  32  53  81 115 152 187 241 293 363
#     4  11  23  40  61  84 118 159 207 256 298 355
#     4  10  19  33  54  82 115 153 189 237 304 366
#     4  10  21  37  59  85 122 155 192 250 304 362
#     4  11  21  35  60  87 123 155 191 252 311 370
#     4  10  21  33  55  86 115 152 195 244 298 361
#     4   9  19  35  55  87 118 151 188 241 304 356
#
# _framework density 19.547208000000001
#
# number of rings (size 3 to 8) (size 9 to 14) (size 15 to 20)
#    0.000    2.000    1.250    3.000    1.750    2.500 
#    0.000    0.000    0.000    8.250    0.000    9.625 
#    0.000    0.000    0.000    0.000    0.000    0.000 
#
# Total GULP energy -396614.160253 kJ/mol
# GULP energy per Si atom -12394.192508 kJ/mol
# Density = 1.950272 g / cm^3
# Si number density = 19.547208 Si / 1000 Ang^3
#
#
#
# Elastic Constant Matrix: (Units=GPa)
#
#
# Indices 1 2 3 4 5 6 
#
# 1 121.8345 24.7049 50.0462 0.0005 -5.5608 0.0006
# 2 24.7049 52.4092 23.5723 0.0002 1.7776 0.0012
# 3 50.0462 23.5723 92.1273 0.0000 -5.6879 0.0017
# 4 0.0005 0.0002 0.0000 25.5030 -0.0002 0.1923
# 5 -5.5608 1.7776 -5.6879 -0.0002 35.6214 0.0002
# 6 0.0006 0.0012 0.0017 0.1923 0.0002 25.5379
#
#
#
# Elastic Compliance Matrix: (Units=1/GPa)
#
#
# Indices 1 2 3 4 5 6 
#
# 1 0.010955 -0.002883 -0.005150 0.000000 0.001032 0.000000
# 2 -0.002883 0.022459 -0.004320 0.000000 -0.002261 -0.000001
# 3 -0.005150 -0.004320 0.014868 0.000000 0.001786 -0.000001
# 4 0.000000 0.000000 0.000000 0.039213 0.000000 -0.000295
# 5 0.001032 -0.002261 0.001786 0.000000 0.028632 0.000000
# 6 0.000000 -0.000001 -0.000001 -0.000295 0.000000 0.039160
#
#
# Mechanical properties :
#
#
# Convention : Reuss Voigt Hill
#
# Bulk Modulus (GPa) = 42.41499 51.44641 46.93070
# Shear Modulus (GPa) = 26.61687 28.53563 27.57625
#
# Velocity S-wave (km/s) = 3.69409 3.82492 3.76007
# Velocity P-wave (km/s) = 6.31988 6.77369 6.55072
#
# Compressibility (1/GPa) = 0.02357657
#
# Stress axis : x y z
#
# Youngs Moduli (GPa) = 91.28389 44.52509 67.26021
#
# Poissons Ratio (x) = 0.12835 0.34637
# Poissons Ratio (y) = 0.26315 0.29057
# Poissons Ratio (z) = 0.47008 0.19235
#
# Static dielectric constant tensor:
#      x y z
#    x 3.087040 0.000010 -0.093340 
#    y 0.000010 3.325760 0.000000 
#    z -0.093340 0.000000 3.560760 
# 
# 
# High freq. dielectric constant tensor:
#      x y z
#    x 1.767170 0.000000 0.013240 
#    y 0.000000 1.717660 0.000000 
#    z 0.013240 0.000000 1.769790 
# 
# From -- ./inp_files/306812.got.cif
#   From: 2010.06.25/outbox.cif.g09.slc.cpg/sg12_154_cif.got.tgz:306812.got - 2010.06.28 00:19:55.
