data_PCOD8089163
_publ_section_title
;
Structure prediction by ZEFSAII (Michael W. Deem and Ramdas Pophale) SiO2 
 PCOD8089163
Probable space group: C 2/M
;
_chemical_formula_sum "Si O2"
_cell_formula_units_Z 64
_cell_length_a 29.931024
_cell_length_b 14.627014
_cell_length_c 8.538868
_cell_angle_alpha 90.000000
_cell_angle_beta 74.629981
_cell_angle_gamma 90.000000
_cell_volume 3604.625050
_symmetry_space_group_name_H-M "C 2/M"
_symmetry_group_IT_number 12
_symmetry_cell_setting 'monoclinic'
loop_
_space_group_symop_operation_xyz
x,y,z
-x,y,-z
-x,-y,-z
x,-y,z
1/2+x,1/2+y,z
1/2-x,1/2+y,-z
1/2-x,1/2-y,-z
1/2+x,1/2-y,z
loop_
_atom_site_type_symbol
_atom_site_label
_atom_site_fract_x
_atom_site_fract_y
_atom_site_fract_z
Si Si1 0.368538 0.729892 0.141845
Si Si2 0.450924 0.765469 0.476599
Si Si3 0.134166 0.246809 0.218762
Si Si4 0.331026 0.402911 0.604713
Si Si5 0.724894 0.327911 0.616611
Si Si6 0.610683 0.107639 0.662859
Si Si7 0.078787 0.896574 0.681462
Si Si8 0.684328 0.897424 0.331833
O O1 0.315608 0.710934 0.236576
O O2 0.383050 0.831421 0.186905
O O3 0.401804 0.650283 0.178808
O O4 0.374852 0.724146 0.951643
O O5 0.500000 0.794665 0.500000
O O6 0.415314 0.747340 0.650659
O O7 0.433095 0.851499 0.390679
O O8 0.458047 0.673672 0.363112
O O9 0.170142 0.174706 0.262805
O O10 0.161814 0.341436 0.210295
O O11 0.321604 0.500000 0.697020
O O12 0.294048 0.394178 0.500225
O O13 0.381190 0.402644 0.481972
O O14 0.750000 0.250000 0.500000
O O15 0.761319 0.379122 0.694359
O O16 0.657057 0.124073 0.518294
O O17 0.602813 0.000000 0.709495
O O18 0.059016 0.000000 0.733345
O O19 0.676869 0.000000 0.284952
#
# Coordination Sequence:
#
# PCOD8089163 Si02
#       8
#     8   8   8   8   8   8   8   8
#     4  10  20  32  52  73 103 135 160 204 251 293
#     4   9  18  34  56  78  97 127 168 206 245 295
#     4  10  20  34  50  74 104 130 160 207 258 296
#     4   9  17  31  50  70  96 131 168 202 240 291
#     4  11  17  32  52  71  94 129 172 205 234 288
#     4   9  18  34  53  73  98 134 171 201 242 297
#     4   8  16  32  52  73  98 132 166 194 239 300
#     4  10  19  33  52  71  97 134 174 209 242 289
#
# _framework density 17.754966
#
# number of rings (size 3 to 8) (size 9 to 14) (size 15 to 20)
#    0.000    2.500    2.500    1.875    0.000    2.500 
#    0.000    2.500    0.000    1.500    0.000    0.000 
#    0.000    0.000    0.000    0.000    0.000    0.000 
#
# Total GULP energy -396583.174173 kJ/mol
# GULP energy per Si atom -12393.224193 kJ/mol
# Density = 1.771455 g / cm^3
# Si number density = 17.754966 Si / 1000 Ang^3
#
#
#
# Elastic Constant Matrix: (Units=GPa)
#
#
# Indices 1 2 3 4 5 6 
#
# 1 100.9727 34.2835 26.3013 0.0000 14.0371 0.0000
# 2 34.2835 128.2236 38.2747 0.0000 11.9818 0.0000
# 3 26.3013 38.2747 85.9318 0.0000 18.1002 0.0000
# 4 0.0000 0.0000 0.0000 9.8819 0.0000 1.1321
# 5 14.0371 11.9818 18.1002 0.0000 16.3308 0.0000
# 6 0.0000 0.0000 0.0000 1.1321 0.0000 15.9184
#
#
#
# Elastic Compliance Matrix: (Units=1/GPa)
#
#
# Indices 1 2 3 4 5 6 
#
# 1 0.011969 -0.002167 -0.001130 0.000000 -0.007446 0.000000
# 2 -0.002167 0.009488 -0.003247 0.000000 -0.001500 0.000000
# 3 -0.001130 -0.003247 0.016598 0.000000 -0.015043 0.000000
# 4 0.000000 0.000000 0.000000 0.102026 0.000000 -0.007256
# 5 -0.007446 -0.001500 -0.015043 0.000000 0.085407 0.000000
# 6 0.000000 0.000000 0.000000 -0.007256 0.000000 0.063336
#
#
# Mechanical properties :
#
#
# Convention : Reuss Voigt Hill
#
# Bulk Modulus (GPa) = 40.05312 56.98300 48.51806
# Shear Modulus (GPa) = 16.11696 22.84415 19.48056
#
# Velocity S-wave (km/s) = 3.01615 3.59086 3.31598
# Velocity P-wave (km/s) = 5.89384 7.02539 6.48435
#
# Compressibility (1/GPa) = 0.02496685
#
# Stress axis : x y z
#
# Youngs Moduli (GPa) = 83.55035 105.40102 60.24997
#
# Poissons Ratio (x) = 0.22842 0.06807
# Poissons Ratio (y) = 0.18107 0.19561
# Poissons Ratio (z) = 0.09439 0.34220
#
# Static dielectric constant tensor:
#      x y z
#    x 3.208000 0.000000 0.039890 
#    y 0.000000 3.702850 0.000000 
#    z 0.039890 0.000000 2.889920 
# 
# 
# High freq. dielectric constant tensor:
#      x y z
#    x 1.675810 0.000000 0.017710 
#    y 0.000000 1.700550 0.000000 
#    z 0.017710 0.000000 1.652020 
# 
# From -- ./inp_files/111170.got.cif
#   From: 2010.06.25/outbox.cif.g09.slc.cpg/sg12_56_cif.got.tgz:111170.got - 2010.06.28 00:19:55.
