data_PCOD8089837
_publ_section_title
;
Structure prediction by ZEFSAII (Michael W. Deem and Ramdas Pophale) SiO2 
 PCOD8089837
Probable space group: C 2/M
;
_chemical_formula_sum "Si O2"
_cell_formula_units_Z 56
_cell_length_a 19.041094
_cell_length_b 8.806075
_cell_length_c 19.793807
_cell_angle_alpha 90.000000
_cell_angle_beta 63.848529
_cell_angle_gamma 90.000000
_cell_volume 2979.215607
_symmetry_space_group_name_H-M "C 2/M"
_symmetry_group_IT_number 12
_symmetry_cell_setting 'monoclinic'
loop_
_space_group_symop_operation_xyz
x,y,z
-x,y,-z
-x,-y,-z
x,-y,z
1/2+x,1/2+y,z
1/2-x,1/2+y,-z
1/2-x,1/2-y,-z
1/2+x,1/2-y,z
loop_
_atom_site_type_symbol
_atom_site_label
_atom_site_fract_x
_atom_site_fract_y
_atom_site_fract_z
Si Si1 0.954026 0.328502 0.803593
Si Si2 0.585059 0.331979 0.308214
Si Si3 0.675177 0.679515 0.569005
Si Si4 0.744973 0.172973 0.799653
Si Si5 0.367599 0.176687 0.267966
Si Si6 0.467354 0.174571 0.442801
Si Si7 0.711245 0.172094 0.079674
O O1 0.950025 0.500000 0.774049
O O2 0.935362 0.192692 0.760865
O O3 0.883648 0.313313 0.887987
O O4 0.041918 0.298430 0.791975
O O5 0.555666 0.500000 0.342646
O O6 0.677445 0.317726 0.279338
O O7 0.542233 0.195458 0.363911
O O8 0.686435 0.500000 0.568978
O O9 0.750000 0.750000 0.500000
O O10 0.658441 0.741222 0.651619
O O11 0.602334 0.718427 0.551898
O O12 0.678858 0.240469 0.777566
O O13 0.754354 0.265122 0.864540
O O14 0.725740 0.000000 0.828183
O O15 0.348459 0.000000 0.287743
O O16 0.500000 0.230320 0.500000
O O17 0.439525 0.000000 0.454393
O O18 0.738186 0.000000 0.066565
O O19 0.750000 0.250000 0.000000
#
# Coordination Sequence:
#
# PCOD8089837 Si02
#       7
#     8   8   8   8   8   8   8
#     4   9  18  34  58  82 109 147 190 230 281 342
#     4  10  19  33  54  81 109 143 186 234 285 338
#     4  12  26  42  60  84 116 156 199 246 300 352
#     4   9  20  36  57  86 116 148 188 232 283 343
#     4  10  20  38  61  85 116 153 192 240 291 348
#     4  11  24  40  57  80 111 149 194 244 295 347
#     4  10  20  36  59  87 116 152 190 235 286 342
#
# _framework density 18.796894999999999
#
# number of rings (size 3 to 8) (size 9 to 14) (size 15 to 20)
#    0.000    1.857    1.429    2.571    2.000    2.857 
#    0.000    0.714    0.000    4.286    0.000    0.000 
#    0.000    0.000    0.000    0.000    0.000    0.000 
#
# Total GULP energy -346950.614355 kJ/mol
# GULP energy per Si atom -12391.093370 kJ/mol
# Density = 1.875411 g / cm^3
# Si number density = 18.796895 Si / 1000 Ang^3
#
#
#
# Elastic Constant Matrix: (Units=GPa)
#
#
# Indices 1 2 3 4 5 6 
#
# 1 147.6601 52.9455 71.6185 -0.0001 0.9792 -0.0002
# 2 52.9455 91.0871 50.8018 -0.0001 -1.4948 -0.0005
# 3 71.6185 50.8018 118.2012 0.0000 -9.5800 -0.0001
# 4 -0.0001 -0.0001 0.0000 32.0331 0.0000 -2.8722
# 5 0.9792 -1.4948 -9.5800 0.0000 23.7614 0.0000
# 6 -0.0002 -0.0005 -0.0001 -2.8722 0.0000 29.5391
#
#
#
# Elastic Compliance Matrix: (Units=1/GPa)
#
#
# Indices 1 2 3 4 5 6 
#
# 1 0.010457 -0.003244 -0.005162 0.000000 -0.002716 0.000000
# 2 -0.003244 0.015509 -0.004766 0.000000 -0.000812 0.000000
# 3 -0.005162 -0.004766 0.014089 0.000000 0.005593 0.000000
# 4 0.000000 0.000000 0.000000 0.031492 0.000000 0.003062
# 5 -0.002716 -0.000812 0.005593 0.000000 0.044401 0.000000
# 6 0.000000 0.000000 0.000000 0.003062 0.000000 0.034151
#
#
# Mechanical properties :
#
#
# Convention : Reuss Voigt Hill
#
# Bulk Modulus (GPa) = 72.92929 78.63111 75.78020
# Shear Modulus (GPa) = 27.62218 29.17224 28.39721
#
# Velocity S-wave (km/s) = 3.83757 3.94378 3.89104
# Velocity P-wave (km/s) = 7.64976 7.91585 7.78394
#
# Compressibility (1/GPa) = 0.01371191
#
# Stress axis : x y z
#
# Youngs Moduli (GPa) = 95.62844 64.47954 70.97520
#
# Poissons Ratio (x) = 0.20917 0.36637
# Poissons Ratio (y) = 0.31021 0.33826
# Poissons Ratio (z) = 0.49363 0.30730
#
# Static dielectric constant tensor:
#      x y z
#    x 3.686400 0.000000 -0.142030 
#    y 0.000000 3.520290 0.000000 
#    z -0.142030 0.000000 3.308890 
# 
# 
# High freq. dielectric constant tensor:
#      x y z
#    x 1.736120 0.000000 -0.011180 
#    y 0.000000 1.735240 0.000000 
#    z -0.011180 0.000000 1.714990 
# 
# From -- ./inp_files/275311.got.cif
#   From: 2010.06.25/outbox.cif.g09.slc.cpg/sg12_138_cif.got.tgz:275311.got - 2010.06.28 00:19:55.
