data_PCOD8089299
_publ_section_title
;
Structure prediction by ZEFSAII (Michael W. Deem and Ramdas Pophale) SiO2 
 PCOD8089299
Probable space group: C 2/M
;
_chemical_formula_sum "Si O2"
_cell_formula_units_Z 56
_cell_length_a 24.043974
_cell_length_b 9.070741
_cell_length_c 14.100657
_cell_angle_alpha 90.000000
_cell_angle_beta 72.629111
_cell_angle_gamma 90.000000
_cell_volume 2935.048080
_symmetry_space_group_name_H-M "C 2/M"
_symmetry_group_IT_number 12
_symmetry_cell_setting 'monoclinic'
loop_
_space_group_symop_operation_xyz
x,y,z
-x,y,-z
-x,-y,-z
x,-y,z
1/2+x,1/2+y,z
1/2-x,1/2+y,-z
1/2-x,1/2-y,-z
1/2+x,1/2-y,z
loop_
_atom_site_type_symbol
_atom_site_label
_atom_site_fract_x
_atom_site_fract_y
_atom_site_fract_z
Si Si1 0.121634 0.165341 0.216553
Si Si2 0.099652 0.167025 0.665953
Si Si3 0.329440 0.331529 0.195666
Si Si4 0.811705 0.824345 0.991921
Si Si5 0.484678 0.328359 0.612696
Si Si6 0.282016 0.334646 0.686654
Si Si7 0.309050 0.827134 0.500599
O O1 0.136835 0.234243 0.105499
O O2 0.072870 0.245247 0.307953
O O3 0.185522 0.165281 0.230308
O O4 0.097870 0.000000 0.213873
O O5 0.110063 0.185043 0.774852
O O6 0.138912 0.287205 0.595007
O O7 0.034152 0.199664 0.666440
O O8 0.116927 0.000000 0.626645
O O9 0.307591 0.500000 0.208686
O O10 0.281696 0.234373 0.273292
O O11 0.335580 0.279472 0.083864
O O12 0.803809 0.000000 0.985069
O O13 0.750000 0.750000 0.000000
O O14 0.500000 0.258899 0.500000
O O15 0.472478 0.500000 0.600207
O O16 0.274455 0.500000 0.650221
O O17 0.323222 0.238736 0.596735
O O18 0.250000 0.750000 0.500000
O O19 0.300548 0.000000 0.509769
#
# Coordination Sequence:
#
# PCOD8089299 Si02
#       7
#     8   8   8   8   8   8   8
#     4   9  18  32  53  81 108 140 187 232 271 321
#     4  10  20  35  54  77 106 143 184 226 275 325
#     4  10  20  32  49  76 111 141 172 224 280 328
#     4  10  19  33  52  78 111 144 181 228 280 329
#     4   9  17  32  55  79 105 141 187 235 272 318
#     4  11  20  32  53  79 107 142 181 222 270 325
#     4  12  23  34  50  76 109 142 177 221 274 330
#
# _framework density 19.079757000000001
#
# number of rings (size 3 to 8) (size 9 to 14) (size 15 to 20)
#    0.000    1.857    2.857    2.571    0.000    2.286 
#    0.000    0.714    0.000    9.857    0.000    0.000 
#    0.000    3.429    0.000    0.000    0.000    0.000 
#
# Total GULP energy -346909.062695 kJ/mol
# GULP energy per Si atom -12389.609382 kJ/mol
# Density = 1.903633 g / cm^3
# Si number density = 19.079757 Si / 1000 Ang^3
#
#
#
# Elastic Constant Matrix: (Units=GPa)
#
#
# Indices 1 2 3 4 5 6 
#
# 1 99.5318 16.5614 55.3234 0.0000 10.3641 0.0000
# 2 16.5614 71.1373 24.2267 0.0000 4.2426 0.0000
# 3 55.3234 24.2267 150.9884 0.0000 7.0382 0.0000
# 4 0.0000 0.0000 0.0000 19.0760 0.0000 0.3835
# 5 10.3641 4.2426 7.0382 0.0000 33.2700 0.0000
# 6 0.0000 0.0000 0.0000 0.3835 0.0000 17.2629
#
#
#
# Elastic Compliance Matrix: (Units=1/GPa)
#
#
# Indices 1 2 3 4 5 6 
#
# 1 0.013038 -0.001353 -0.004422 0.000000 -0.002953 0.000000
# 2 -0.001353 0.015076 -0.001872 0.000000 -0.001105 0.000000
# 3 -0.004422 -0.001872 0.008553 0.000000 -0.000193 0.000000
# 4 0.000000 0.000000 0.000000 0.052445 0.000000 -0.001165
# 5 -0.002953 -0.001105 -0.000193 0.000000 0.031159 0.000000
# 6 0.000000 0.000000 0.000000 -0.001165 0.000000 0.057954
#
#
# Mechanical properties :
#
#
# Convention : Reuss Voigt Hill
#
# Bulk Modulus (GPa) = 46.79030 57.09783 51.94406
# Shear Modulus (GPa) = 24.91996 28.95817 26.93907
#
# Velocity S-wave (km/s) = 3.61791 3.90005 3.76163
# Velocity P-wave (km/s) = 6.48299 7.09023 6.79340
#
# Compressibility (1/GPa) = 0.02137195
#
# Stress axis : x y z
#
# Youngs Moduli (GPa) = 76.69981 66.33209 116.92156
#
# Poissons Ratio (x) = 0.08975 0.51707
# Poissons Ratio (y) = 0.10378 0.21884
# Poissons Ratio (z) = 0.33920 0.12415
#
# Static dielectric constant tensor:
#      x y z
#    x 3.502240 0.000000 0.217190 
#    y 0.000000 3.308420 0.000000 
#    z 0.217190 0.000000 4.038080 
# 
# 
# High freq. dielectric constant tensor:
#      x y z
#    x 1.731920 0.000000 0.019710 
#    y 0.000000 1.705080 0.000000 
#    z 0.019710 0.000000 1.748840 
# 
# From -- ./inp_files/238345.got.cif
#   From: 2010.06.25/outbox.cif.g09.slc.cpg/sg12_120_cif.got.tgz:238345.got - 2010.06.28 00:19:55.
