data_PCOD8089884
_publ_section_title
;
Structure prediction by ZEFSAII (Michael W. Deem and Ramdas Pophale) SiO2 
 PCOD8089884
Probable space group: C 2/M
;
_chemical_formula_sum "Si O2"
_cell_formula_units_Z 48
_cell_length_a 21.937109
_cell_length_b 9.116099
_cell_length_c 22.938944
_cell_angle_alpha 90.000000
_cell_angle_beta 147.985699
_cell_angle_gamma 90.000000
_cell_volume 2431.895912
_symmetry_space_group_name_H-M "C 2/M"
_symmetry_group_IT_number 12
_symmetry_cell_setting 'monoclinic'
loop_
_space_group_symop_operation_xyz
x,y,z
-x,y,-z
-x,-y,-z
x,-y,z
1/2+x,1/2+y,z
1/2-x,1/2+y,-z
1/2-x,1/2-y,-z
1/2+x,1/2-y,z
loop_
_atom_site_type_symbol
_atom_site_label
_atom_site_fract_x
_atom_site_fract_y
_atom_site_fract_z
Si Si1 0.932944 0.838486 0.003579
Si Si2 0.566675 0.327072 0.221290
Si Si3 0.649328 0.668559 0.885442
Si Si4 0.202843 0.169741 0.799170
Si Si5 0.284067 0.824633 0.465748
Si Si6 0.990393 0.673131 0.424526
O O1 0.021573 0.767506 0.122371
O O2 0.887571 0.000000 0.988575
O O3 0.831596 0.727288 0.908185
O O4 0.000000 0.865462 0.000000
O O5 0.576954 0.500000 0.225542
O O6 0.473686 0.274470 0.193079
O O7 0.690386 0.268141 0.342178
O O8 0.668813 0.500000 0.916369
O O9 0.644243 0.698629 0.813325
O O10 0.750000 0.750000 0.000000
O O11 0.129159 0.256038 0.692081
O O12 0.206248 0.000000 0.784511
O O13 0.250000 0.750000 0.500000
O O14 0.405011 0.775343 0.533751
O O15 0.280083 0.000000 0.471844
O O16 0.978765 0.500000 0.410784
O O17 0.000000 0.721497 0.500000
#
# Coordination Sequence:
#
# PCOD8089884 Si02
#       6
#     8   8   8   8   8   8
#     4  10  21  36  60  87 113 153 199 240 286 346
#     4   9  18  34  57  84 113 146 187 238 288 336
#     4  10  19  33  54  82 114 149 187 231 284 345
#     4  11  23  38  59  87 122 155 188 241 303 360
#     4  10  21  39  62  88 120 156 199 249 300 354
#     4  10  23  41  64  90 117 156 208 256 294 353
#
# _framework density 19.737684999999999
#
# number of rings (size 3 to 8) (size 9 to 14) (size 15 to 20)
#    0.000    2.000    1.667    1.500    2.333    3.333 
#    0.000    1.667    0.000    0.000    0.000    0.000 
#    0.000    0.000    0.000    0.000    0.000    0.000 
#
# Total GULP energy -297413.707249 kJ/mol
# GULP energy per Si atom -12392.237802 kJ/mol
# Density = 1.969276 g / cm^3
# Si number density = 19.737685 Si / 1000 Ang^3
#
#
#
# Elastic Constant Matrix: (Units=GPa)
#
#
# Indices 1 2 3 4 5 6 
#
# 1 100.3112 22.3753 36.4481 0.0000 -11.4188 0.0000
# 2 22.3753 26.1682 24.3465 0.0000 -8.6049 0.0000
# 3 36.4481 24.3465 151.0162 0.0000 -10.3012 0.0000
# 4 0.0000 0.0000 0.0000 28.9138 0.0000 -0.1270
# 5 -11.4188 -8.6049 -10.3012 0.0000 30.2661 0.0000
# 6 0.0000 0.0000 0.0000 -0.1270 0.0000 25.4643
#
#
#
# Elastic Compliance Matrix: (Units=1/GPa)
#
#
# Indices 1 2 3 4 5 6 
#
# 1 0.012698 -0.008872 -0.001515 0.000000 0.001753 0.000000
# 2 -0.008872 0.054714 -0.005986 0.000000 0.010171 0.000000
# 3 -0.001515 -0.005986 0.007983 0.000000 0.000444 0.000000
# 4 0.000000 0.000000 0.000000 0.034586 0.000000 0.000173
# 5 0.001753 0.010171 0.000444 0.000000 0.036744 0.000000
# 6 0.000000 0.000000 0.000000 0.000173 0.000000 0.039272
#
#
# Mechanical properties :
#
#
# Convention : Reuss Voigt Hill
#
# Bulk Modulus (GPa) = 23.44680 49.31507 36.38093
# Shear Modulus (GPa) = 21.46313 29.88388 25.67350
#
# Velocity S-wave (km/s) = 3.30118 3.89530 3.61048
# Velocity P-wave (km/s) = 5.14154 6.72835 5.98774
#
# Compressibility (1/GPa) = 0.04264974
#
# Stress axis : x y z
#
# Youngs Moduli (GPa) = 78.75377 18.27691 125.27089
#
# Poissons Ratio (x) = 0.16215 0.18976
# Poissons Ratio (y) = 0.69867 0.74985
# Poissons Ratio (z) = 0.11930 0.10940
#
# Static dielectric constant tensor:
#      x y z
#    x 3.748380 0.000000 -0.099990 
#    y 0.000000 2.935940 0.000000 
#    z -0.099990 0.000000 3.818940 
# 
# 
# High freq. dielectric constant tensor:
#      x y z
#    x 1.778030 0.000000 -0.005570 
#    y 0.000000 1.741030 0.000000 
#    z -0.005570 0.000000 1.784220 
# 
# From -- ./inp_files/348899.got.cif
#   From: 2010.06.25/outbox.cif.g09.slc.cpg/sg12_175_cif.got.tgz:348899.got - 2010.06.28 00:19:55.
