data_PCOD8089975
_publ_section_title
;
Structure prediction by ZEFSAII (Michael W. Deem and Ramdas Pophale) SiO2 
 PCOD8089975
Probable space group: C 2/M
;
_chemical_formula_sum "Si O2"
_cell_formula_units_Z 48
_cell_length_a 8.612370
_cell_length_b 15.414806
_cell_length_c 19.410130
_cell_angle_alpha 90.000000
_cell_angle_beta 77.182349
_cell_angle_gamma 90.000000
_cell_volume 2512.637898
_symmetry_space_group_name_H-M "C 2/M"
_symmetry_group_IT_number 12
_symmetry_cell_setting 'monoclinic'
loop_
_space_group_symop_operation_xyz
x,y,z
-x,y,-z
-x,-y,-z
x,-y,z
1/2+x,1/2+y,z
1/2-x,1/2+y,-z
1/2-x,1/2-y,-z
1/2+x,1/2-y,z
loop_
_atom_site_type_symbol
_atom_site_label
_atom_site_fract_x
_atom_site_fract_y
_atom_site_fract_z
Si Si1 0.228677 0.158312 0.173864
Si Si2 0.275970 0.000000 0.079131
Si Si3 0.520791 0.658363 0.327003
Si Si4 0.528008 0.500000 0.577587
Si Si5 0.105596 0.500000 0.422413
Si Si6 0.847792 0.341637 0.672997
Si Si7 0.144901 0.500000 0.079131
Si Si8 0.902539 0.658312 0.826136
O O1 0.196451 0.085527 0.119503
O O2 0.176528 0.250001 0.146949
O O3 0.410955 0.162972 0.178092
O O4 0.125634 0.134382 0.250616
O O5 0.461547 0.000000 0.076907
O O6 0.246258 0.000000 1.000000
O O7 0.551088 0.585329 0.381438
O O8 0.339184 0.663399 0.321635
O O9 0.572870 0.750000 0.354262
O O10 0.500000 0.500000 0.500000
O O11 0.713447 0.500000 0.573105
O O12 0.067474 0.414671 0.381440
O O13 0.000000 0.500000 0.500000
O O14 0.876250 0.365620 0.749383
O O15 0.184048 0.585527 0.119503
#
# Coordination Sequence:
#
# PCOD8089975 Si02
#       8
#     8   4   8   4   4   8   4   8
#     4  10  19  33  55  79 102 134 174 215 258 303
#     4   9  19  34  51  74 106 141 174 209 255 311
#     4  10  20  36  56  79 105 135 172 214 258 303
#     4  10  23  38  54  77 107 140 171 209 257 307
#     4  10  23  38  54  77 107 140 171 209 257 307
#     4  10  20  36  56  79 105 135 172 214 258 303
#     4   9  19  34  51  74 106 141 174 209 255 311
#     4  10  19  33  55  79 102 134 174 215 258 303
#
# _framework density 19.103429999999999
#
# number of rings (size 3 to 8) (size 9 to 14) (size 15 to 20)
#    0.000    2.167    0.000    5.000    0.000    4.000 
#    0.000    5.833    0.000    7.000    0.000    0.000 
#    0.000    0.000    0.000    0.000    0.000    0.000 
#
# Total GULP energy -297641.920297 kJ/mol
# GULP energy per Si atom -12401.746679 kJ/mol
# Density = 1.905995 g / cm^3
# Si number density = 19.103430 Si / 1000 Ang^3
#
#
#
# Elastic Constant Matrix: (Units=GPa)
#
#
# Indices 1 2 3 4 5 6 
#
# 1 67.6529 45.4806 35.6198 0.0000 -2.1366 0.0000
# 2 45.4806 197.7418 128.6892 0.0000 -10.0542 0.0000
# 3 35.6198 128.6892 155.6762 0.0000 -8.5000 0.0000
# 4 0.0000 0.0000 0.0000 21.7420 0.0000 0.5989
# 5 -2.1366 -10.0542 -8.5000 0.0000 25.6260 0.0000
# 6 0.0000 0.0000 0.0000 0.5989 0.0000 26.7013
#
#
#
# Elastic Compliance Matrix: (Units=1/GPa)
#
#
# Indices 1 2 3 4 5 6 
#
# 1 0.017642 -0.003104 -0.001483 0.000000 -0.000239 0.000000
# 2 -0.003104 0.011536 -0.008751 0.000000 0.001364 0.000000
# 3 -0.001483 -0.008751 0.014057 0.000000 0.001106 0.000000
# 4 0.000000 0.000000 0.000000 0.046022 0.000000 -0.001032
# 5 -0.000239 0.001364 0.001106 0.000000 0.039905 0.000000
# 6 0.000000 0.000000 0.000000 -0.001032 0.000000 0.037475
#
#
# Mechanical properties :
#
#
# Convention : Reuss Voigt Hill
#
# Bulk Modulus (GPa) = 60.39707 93.40556 76.90131
# Shear Modulus (GPa) = 25.14667 28.89928 27.02298
#
# Velocity S-wave (km/s) = 3.63208 3.89367 3.76515
# Velocity P-wave (km/s) = 7.01953 8.31955 7.69704
#
# Compressibility (1/GPa) = 0.01655710
#
# Stress axis : x y z
#
# Youngs Moduli (GPa) = 56.68374 86.68782 71.13673
#
# Poissons Ratio (x) = 0.26911 0.10552
# Poissons Ratio (y) = 0.17597 0.62252
# Poissons Ratio (z) = 0.08408 0.75861
#
# Static dielectric constant tensor:
#      x y z
#    x 3.382370 0.000000 -0.001740 
#    y 0.000000 3.887520 0.000000 
#    z -0.001740 0.000000 3.396650 
# 
# 
# High freq. dielectric constant tensor:
#      x y z
#    x 1.736580 0.000000 -0.000230 
#    y 0.000000 1.760770 0.000000 
#    z -0.000230 0.000000 1.738450 
# 
# From -- ./inp_files/255852.got.cif
#   From: 2010.06.25/outbox.cif.g09.slc.cpg/sg12_128_cif.got.tgz:255852.got - 2010.06.28 00:19:55.
