data_PCOD8089503
_publ_section_title
;
Structure prediction by ZEFSAII (Michael W. Deem and Ramdas Pophale) SiO2 
 PCOD8089503
Probable space group: C 2/M
;
_chemical_formula_sum "Si O2"
_cell_formula_units_Z 56
_cell_length_a 26.630812
_cell_length_b 14.510274
_cell_length_c 12.484940
_cell_angle_alpha 90.000000
_cell_angle_beta 141.004628
_cell_angle_gamma 90.000000
_cell_volume 3035.812621
_symmetry_space_group_name_H-M "C 2/M"
_symmetry_group_IT_number 12
_symmetry_cell_setting 'monoclinic'
loop_
_space_group_symop_operation_xyz
x,y,z
-x,y,-z
-x,-y,-z
x,-y,z
1/2+x,1/2+y,z
1/2-x,1/2+y,-z
1/2-x,1/2-y,-z
1/2+x,1/2-y,z
loop_
_atom_site_type_symbol
_atom_site_label
_atom_site_fract_x
_atom_site_fract_y
_atom_site_fract_z
Si Si1 0.388738 0.608245 0.515276
Si Si2 0.591863 0.601636 0.684961
Si Si3 0.080617 0.893910 0.074901
Si Si4 0.555187 0.707462 0.822693
Si Si5 0.534797 0.891056 0.885177
Si Si6 0.218763 0.149062 0.469491
Si Si7 0.109446 0.400141 0.222719
O O1 0.408044 0.500000 0.564291
O O2 0.360925 0.627602 0.346166
O O3 0.466604 0.666041 0.673780
O O4 0.316334 0.639900 0.469905
O O5 0.500000 0.599252 0.500000
O O6 0.617998 0.500000 0.769272
O O7 0.605930 0.675738 0.802534
O O8 0.154776 0.883006 0.277477
O O9 0.072020 0.000000 0.026012
O O10 0.097589 0.832320 0.999017
O O11 0.000000 0.860149 0.000000
O O12 0.554677 0.819952 0.821458
O O13 0.445760 0.857310 0.775173
O O14 0.542135 0.000000 0.862081
O O15 0.595496 0.858889 0.081025
O O16 0.250000 0.250000 0.500000
O O17 0.298677 0.089156 0.592866
O O18 0.069989 0.500000 0.146274
#
# Coordination Sequence:
#
# PCOD8089503 Si02
#       7
#     8   8   8   8   8   8   8
#     4  10  19  33  53  78 108 139 179 226 265 314
#     4   8  16  30  50  75 101 136 180 222 263 311
#     4  11  22  33  50  80 118 148 170 213 281 339
#     4  11  18  30  53  77 108 141 179 218 272 328
#     4   9  19  33  51  74 102 141 185 228 267 312
#     4  12  22  32  49  80 112 144 176 211 266 328
#     4   9  18  33  48  66  99 139 180 218 254 306
#
# _framework density 18.446462
#
# number of rings (size 3 to 8) (size 9 to 14) (size 15 to 20)
#    0.000    2.000    1.429    6.000    2.000    0.000 
#    0.000    0.000    0.000    7.286    0.000    2.000 
#    0.000    0.000    0.000    0.000    0.000    0.429 
#
# Total GULP energy -346880.467745 kJ/mol
# GULP energy per Si atom -12388.588134 kJ/mol
# Density = 1.840448 g / cm^3
# Si number density = 18.446462 Si / 1000 Ang^3
#
#
#
# Elastic Constant Matrix: (Units=GPa)
#
#
# Indices 1 2 3 4 5 6 
#
# 1 89.2420 44.8551 51.3960 0.0000 -23.3069 0.0000
# 2 44.8551 119.4703 26.2875 0.0000 -23.7097 0.0000
# 3 51.3960 26.2875 91.1933 0.0000 3.3141 0.0000
# 4 0.0000 0.0000 0.0000 20.2956 0.0000 -1.7472
# 5 -23.3069 -23.7097 3.3141 0.0000 32.5311 0.0000
# 6 0.0000 0.0000 0.0000 -1.7472 0.0000 25.0145
#
#
#
# Elastic Compliance Matrix: (Units=1/GPa)
#
#
# Indices 1 2 3 4 5 6 
#
# 1 0.025349 -0.002962 -0.014066 0.000000 0.017435 0.000000
# 2 -0.002962 0.011085 -0.001749 0.000000 0.006135 0.000000
# 3 -0.014066 -0.001749 0.019884 0.000000 -0.013378 0.000000
# 4 0.000000 0.000000 0.000000 0.049570 0.000000 0.003462
# 5 0.017435 0.006135 -0.013378 0.000000 0.049065 0.000000
# 6 0.000000 0.000000 0.000000 0.003462 0.000000 0.040219
#
#
# Mechanical properties :
#
#
# Convention : Reuss Voigt Hill
#
# Bulk Modulus (GPa) = 53.29654 60.55364 56.92509
# Shear Modulus (GPa) = 20.92231 27.39270 24.15750
#
# Velocity S-wave (km/s) = 3.37147 3.85773 3.62277
# Velocity P-wave (km/s) = 6.64161 7.26228 6.95887
#
# Compressibility (1/GPa) = 0.01876294
#
# Stress axis : x y z
#
# Youngs Moduli (GPa) = 39.44983 90.21448 50.29262
#
# Poissons Ratio (x) = 0.26721 0.70742
# Poissons Ratio (y) = 0.11685 0.08796
# Poissons Ratio (z) = 0.55491 0.15777
#
# Static dielectric constant tensor:
#      x y z
#    x 3.278230 0.000000 -0.471080 
#    y 0.000000 3.626690 0.000000 
#    z -0.471080 0.000000 2.993200 
# 
# 
# High freq. dielectric constant tensor:
#      x y z
#    x 1.692670 0.000000 -0.006560 
#    y 0.000000 1.723210 0.000000 
#    z -0.006560 0.000000 1.693510 
# 
# From -- ./inp_files/183570.got.cif
#   From: 2010.06.25/outbox.cif.g09.slc.cpg/sg12_92_cif.got.tgz:183570.got - 2010.06.28 00:19:55.
