data_PCOD8089714
_publ_section_title
;
Structure prediction by ZEFSAII (Michael W. Deem and Ramdas Pophale) SiO2 
 PCOD8089714
Probable space group: C 2/M
;
_chemical_formula_sum "Si O2"
_cell_formula_units_Z 48
_cell_length_a 23.527221
_cell_length_b 13.380730
_cell_length_c 12.996958
_cell_angle_alpha 90.000000
_cell_angle_beta 141.820527
_cell_angle_gamma 90.000000
_cell_volume 2529.121752
_symmetry_space_group_name_H-M "C 2/M"
_symmetry_group_IT_number 12
_symmetry_cell_setting 'monoclinic'
loop_
_space_group_symop_operation_xyz
x,y,z
-x,y,-z
-x,-y,-z
x,-y,z
1/2+x,1/2+y,z
1/2-x,1/2+y,-z
1/2-x,1/2-y,-z
1/2+x,1/2-y,z
loop_
_atom_site_type_symbol
_atom_site_label
_atom_site_fract_x
_atom_site_fract_y
_atom_site_fract_z
Si Si1 0.162108 0.387595 0.983777
Si Si2 0.899940 0.381975 0.326937
Si Si3 0.605457 0.386042 0.162137
Si Si4 0.481568 0.112043 0.859426
Si Si5 0.239215 0.733699 0.739298
Si Si6 0.344689 0.726382 0.583979
O O1 0.203396 0.500000 0.030680
O O2 0.237323 0.314118 0.139700
O O3 0.129767 0.343439 0.828161
O O4 0.077240 0.390790 0.938696
O O5 0.907584 0.500000 0.336156
O O6 0.822348 0.352470 0.298258
O O7 0.000000 0.336687 0.500000
O O8 0.624629 0.500000 0.157896
O O9 0.669993 0.315363 0.183318
O O10 0.620748 0.372135 0.306934
O O11 0.500000 0.355119 0.000000
O O12 0.412214 0.180392 0.697372
O O13 0.439214 0.000000 0.805387
O O14 0.500000 0.154645 0.000000
O O15 0.174301 0.790480 0.563716
O O16 0.250000 0.750000 0.500000
#
# Coordination Sequence:
#
# PCOD8089714 Si02
#       6
#     8   8   8   8   8   8
#     4  10  21  36  55  79 108 140 177 225 271 317
#     4  10  21  37  57  82 109 139 180 226 269 316
#     4  10  21  36  53  76 108 143 179 220 265 317
#     4  10  19  33  54  78 106 140 178 223 274 324
#     4  11  21  35  57  80 107 144 179 219 271 324
#     4  10  20  31  48  75 104 135 172 215 262 315
#
# _framework density 18.978921
#
# number of rings (size 3 to 8) (size 9 to 14) (size 15 to 20)
#    0.000    1.833    0.000    5.500    0.000    5.333 
#    0.000    0.000    0.000    0.500    0.000    0.000 
#    0.000    0.000    0.000    0.000    0.000    0.000 
#
# Total GULP energy -297474.417123 kJ/mol
# GULP energy per Si atom -12394.767380 kJ/mol
# Density = 1.893572 g / cm^3
# Si number density = 18.978921 Si / 1000 Ang^3
#
#
#
# Elastic Constant Matrix: (Units=GPa)
#
#
# Indices 1 2 3 4 5 6 
#
# 1 83.8438 11.2349 41.8710 0.0000 -12.3048 0.0000
# 2 11.2349 53.3597 36.6521 0.0000 -0.5307 0.0000
# 3 41.8710 36.6521 145.0325 0.0000 -20.5744 0.0000
# 4 0.0000 0.0000 0.0000 8.3669 0.0000 -8.1151
# 5 -12.3048 -0.5307 -20.5744 0.0000 38.1522 0.0000
# 6 0.0000 0.0000 0.0000 -8.1151 0.0000 21.6954
#
#
#
# Elastic Compliance Matrix: (Units=1/GPa)
#
#
# Indices 1 2 3 4 5 6 
#
# 1 0.014173 -0.000488 -0.003596 0.000000 0.002625 0.000000
# 2 -0.000488 0.023017 -0.006121 0.000000 -0.003138 0.000000
# 3 -0.003596 -0.006121 0.010074 0.000000 0.004188 0.000000
# 4 0.000000 0.000000 0.000000 0.187565 0.000000 0.070158
# 5 0.002625 -0.003138 0.004188 0.000000 0.029272 0.000000
# 6 0.000000 0.000000 0.000000 0.070158 0.000000 0.072335
#
#
# Mechanical properties :
#
#
# Convention : Reuss Voigt Hill
#
# Bulk Modulus (GPa) = 37.23824 51.30578 44.27201
# Shear Modulus (GPa) = 13.66872 26.47478 20.07175
#
# Velocity S-wave (km/s) = 2.68658 3.73896 3.25558
# Velocity P-wave (km/s) = 5.41175 6.76251 6.12448
#
# Compressibility (1/GPa) = 0.02685412
#
# Stress axis : x y z
#
# Youngs Moduli (GPa) = 70.55428 43.44671 99.26367
#
# Poissons Ratio (x) = 0.02120 0.35697
# Poissons Ratio (y) = 0.03443 0.60759
# Poissons Ratio (z) = 0.25373 0.26594
#
# Static dielectric constant tensor:
#      x y z
#    x 3.063480 0.000000 0.390310 
#    y 0.000000 3.490070 0.000000 
#    z 0.390310 0.000000 2.855670 
# 
# 
# High freq. dielectric constant tensor:
#      x y z
#    x 1.731480 0.000000 -0.007640 
#    y 0.000000 1.724180 0.000000 
#    z -0.007640 0.000000 1.751800 
# 
# From -- ./inp_files/142688.got.cif
#   From: 2010.06.25/outbox.cif.g09.slc.cpg/sg12_72_cif.got.tgz:142688.got - 2010.06.28 00:19:55.
