data_PCOD8089268
_publ_section_title
;
Structure prediction by ZEFSAII (Michael W. Deem and Ramdas Pophale) SiO2 
 PCOD8089268
Probable space group: C 2/M
;
_chemical_formula_sum "Si O2"
_cell_formula_units_Z 60
_cell_length_a 5.103324
_cell_length_b 32.231910
_cell_length_c 22.850577
_cell_angle_alpha 90.000000
_cell_angle_beta 57.302467
_cell_angle_gamma 90.000000
_cell_volume 3163.064467
_symmetry_space_group_name_H-M "C 2/M"
_symmetry_group_IT_number 12
_symmetry_cell_setting 'monoclinic'
loop_
_space_group_symop_operation_xyz
x,y,z
-x,y,-z
-x,-y,-z
x,-y,z
1/2+x,1/2+y,z
1/2-x,1/2+y,-z
1/2-x,1/2-y,-z
1/2+x,1/2-y,z
loop_
_atom_site_type_symbol
_atom_site_label
_atom_site_fract_x
_atom_site_fract_y
_atom_site_fract_z
Si Si1 0.150040 0.548035 0.044282
Si Si2 0.233618 0.361866 0.229609
Si Si3 0.476960 0.548263 0.331080
Si Si4 0.385872 0.905121 0.372719
Si Si5 0.000000 0.851099 0.500000
Si Si6 0.469740 0.275929 0.577842
Si Si7 0.829230 0.406958 0.188595
Si Si8 0.040249 0.274577 0.741329
O O1 0.150995 0.500000 0.061930
O O2 0.948561 0.571800 0.115981
O O3 0.500000 0.565556 0.000000
O O4 0.000000 0.556005 0.000000
O O5 0.599977 0.369288 0.197191
O O6 0.157506 0.315208 0.219106
O O7 0.057855 0.371864 0.311063
O O8 0.122322 0.390986 0.190158
O O9 0.520488 0.500000 0.338647
O O10 0.605018 0.574079 0.370736
O O11 0.648566 0.559476 0.249794
O O12 0.114428 0.558776 0.367221
O O13 0.274144 0.880689 0.443844
O O14 0.101751 0.820785 0.541383
O O15 0.748107 0.243574 0.554556
O O16 0.254384 0.283395 0.659695
O O17 0.781929 0.238505 0.762859
#
# Coordination Sequence:
#
# PCOD8089268 Si02
#       8
#     8   8   8   8   4   8   8   8
#     4  10  20  34  53  84 122 150 174 207 254 312
#     4  10  19  36  50  80 107 139 183 223 256 316
#     4  10  21  40  57  75 100 131 185 223 263 314
#     4  10  23  35  55  77  97 137 170 231 278 313
#     4  12  22  40  53  74 108 132 182 218 277 336
#     4  10  22  35  53  76 101 138 173 209 262 338
#     4  10  20  33  59  79 109 145 180 210 259 303
#     4  10  19  33  52  76 107 139 170 217 275 316
#
# _framework density 18.968948000000001
#
# number of rings (size 3 to 8) (size 9 to 14) (size 15 to 20)
#    0.000    1.867    1.333    2.800    0.000    2.667 
#    0.000    6.000    0.000    0.000    0.000    0.000 
#    0.000   37.333    0.000    0.000    0.000    0.000 
#
# Total GULP energy -371996.401511 kJ/mol
# GULP energy per Si atom -12399.880050 kJ/mol
# Density = 1.892577 g / cm^3
# Si number density = 18.968948 Si / 1000 Ang^3
#
#
#
# Elastic Constant Matrix: (Units=GPa)
#
#
# Indices 1 2 3 4 5 6 
#
# 1 86.8006 10.8986 22.0122 0.0000 -11.4407 0.0000
# 2 10.8986 83.8288 38.6889 0.0000 -8.5049 0.0000
# 3 22.0122 38.6889 76.8868 0.0000 -6.8175 0.0000
# 4 0.0000 0.0000 0.0000 23.1974 0.0000 0.4909
# 5 -11.4407 -8.5049 -6.8175 0.0000 14.0380 0.0000
# 6 0.0000 0.0000 0.0000 0.4909 0.0000 23.0333
#
#
#
# Elastic Compliance Matrix: (Units=1/GPa)
#
#
# Indices 1 2 3 4 5 6 
#
# 1 0.013593 0.000819 -0.003425 0.000000 0.009911 0.000000
# 2 0.000819 0.016064 -0.007728 0.000000 0.006646 0.000000
# 3 -0.003425 -0.007728 0.017987 0.000000 0.001262 0.000000
# 4 0.000000 0.000000 0.000000 0.043128 0.000000 -0.000919
# 5 0.009911 0.006646 0.001262 0.000000 0.083952 0.000000
# 6 0.000000 0.000000 0.000000 -0.000919 0.000000 0.043435
#
#
# Mechanical properties :
#
#
# Convention : Reuss Voigt Hill
#
# Bulk Modulus (GPa) = 37.07078 43.41286 40.24182
# Shear Modulus (GPa) = 20.17604 23.78150 21.97877
#
# Velocity S-wave (km/s) = 3.26488 3.54461 3.40762
# Velocity P-wave (km/s) = 5.81360 6.29987 6.06161
#
# Compressibility (1/GPa) = 0.02697542
#
# Stress axis : x y z
#
# Youngs Moduli (GPa) = 73.56927 62.25216 55.59462
#
# Poissons Ratio (x) = -0.05098 0.19040
# Poissons Ratio (y) = -0.06025 0.42965
# Poissons Ratio (z) = 0.25196 0.48110
#
# Static dielectric constant tensor:
#      x y z
#    x 3.613330 0.000000 -0.065060 
#    y 0.000000 3.333660 0.000000 
#    z -0.065060 0.000000 3.206150 
# 
# 
# High freq. dielectric constant tensor:
#      x y z
#    x 1.750890 0.000000 -0.002590 
#    y 0.000000 1.729890 0.000000 
#    z -0.002590 0.000000 1.709090 
# 
# From -- ./inp_files/331662.got.cif
#   From: 2010.06.25/outbox.cif.g09.slc.cpg/sg12_166_cif.got.tgz:331662.got - 2010.06.28 00:19:55.
