data_PCOD8089106
_publ_section_title
;
Structure prediction by ZEFSAII (Michael W. Deem and Ramdas Pophale) SiO2 
 PCOD8089106
Probable space group: C 2/M
;
_chemical_formula_sum "Si O2"
_cell_formula_units_Z 52
_cell_length_a 12.803504
_cell_length_b 10.929678
_cell_length_c 22.772309
_cell_angle_alpha 90.000000
_cell_angle_beta 57.982096
_cell_angle_gamma 90.000000
_cell_volume 2701.960091
_symmetry_space_group_name_H-M "C 2/M"
_symmetry_group_IT_number 12
_symmetry_cell_setting 'monoclinic'
loop_
_space_group_symop_operation_xyz
x,y,z
-x,y,-z
-x,-y,-z
x,-y,z
1/2+x,1/2+y,z
1/2-x,1/2+y,-z
1/2-x,1/2-y,-z
1/2+x,1/2-y,z
loop_
_atom_site_type_symbol
_atom_site_label
_atom_site_fract_x
_atom_site_fract_y
_atom_site_fract_z
Si Si1 0.000000 0.710584 0.000000
Si Si2 0.733876 0.635914 0.909738
Si Si3 0.541542 0.362581 0.305633
Si Si4 0.772222 0.207404 0.217116
Si Si5 0.100434 0.138955 0.420402
Si Si6 0.504867 0.863078 0.127578
Si Si7 0.725047 0.361228 0.654962
O O1 0.122474 0.790668 0.971574
O O2 0.009295 0.630063 0.938745
O O3 0.726871 0.500000 0.938129
O O4 0.717842 0.626238 0.844064
O O5 0.864480 0.694926 0.890702
O O6 0.566819 0.500000 0.278619
O O7 0.652150 0.289425 0.243476
O O8 0.533909 0.348452 0.377938
O O9 0.412687 0.318263 0.317939
O O10 0.895050 0.287141 0.189213
O O11 0.755423 0.128267 0.280839
O O12 0.195640 0.251978 0.398085
O O13 0.000000 0.158441 0.500000
O O14 0.159035 0.000000 0.408411
O O15 0.494845 0.000000 0.155750
O O16 0.753266 0.500000 0.621642
#
# Coordination Sequence:
#
# PCOD8089106 Si02
#       7
#     4   8   8   8   8   8   8
#     4  10  20  34  50  68  96 128 160 202 254 304
#     4  10  20  33  49  70  96 127 163 204 251 302
#     4   9  18  33  52  74 103 136 168 206 256 307
#     4  10  19  33  51  73 100 131 165 205 252 302
#     4   9  19  36  55  76 105 140 175 210 251 301
#     4  10  20  33  51  73  96 125 165 208 247 296
#     4  10  20  34  53  78 106 135 170 212 254 300
#
# _framework density 19.245289
#
# number of rings (size 3 to 8) (size 9 to 14) (size 15 to 20)
#    0.000    2.308    0.000    2.769    0.000    1.538 
#    0.000    3.846    0.000   14.769    0.000    0.000 
#    0.000    0.000    0.000    0.000    0.000    0.000 
#
# Total GULP energy -322260.935482 kJ/mol
# GULP energy per Si atom -12394.651365 kJ/mol
# Density = 1.920149 g / cm^3
# Si number density = 19.245289 Si / 1000 Ang^3
#
#
#
# Elastic Constant Matrix: (Units=GPa)
#
#
# Indices 1 2 3 4 5 6 
#
# 1 111.1497 44.1908 8.6936 0.0000 -23.6228 0.0000
# 2 44.1908 99.3216 24.5741 0.0000 -24.0493 0.0000
# 3 8.6936 24.5741 59.6860 0.0000 -11.4701 0.0000
# 4 0.0000 0.0000 0.0000 59.2291 0.0000 26.9763
# 5 -23.6228 -24.0493 -11.4701 0.0000 25.5363 0.0000
# 6 0.0000 0.0000 0.0000 26.9763 0.0000 36.3672
#
#
#
# Elastic Compliance Matrix: (Units=1/GPa)
#
#
# Indices 1 2 3 4 5 6 
#
# 1 0.012142 -0.003720 0.001366 0.000000 0.008342 0.000000
# 2 -0.003720 0.014802 -0.003869 0.000000 0.008761 0.000000
# 3 0.001366 -0.003869 0.019362 0.000000 0.006317 0.000000
# 4 0.000000 0.000000 0.000000 0.025498 0.000000 -0.018914
# 5 0.008342 0.008761 0.006317 0.000000 0.057965 0.000000
# 6 0.000000 0.000000 0.000000 -0.018914 0.000000 0.041527
#
#
# Mechanical properties :
#
#
# Convention : Reuss Voigt Hill
#
# Bulk Modulus (GPa) = 29.53278 47.23047 38.38162
# Shear Modulus (GPa) = 25.63707 37.07311 31.35509
#
# Velocity S-wave (km/s) = 3.65378 4.39378 4.04076
# Velocity P-wave (km/s) = 5.76012 7.09472 6.46196
#
# Compressibility (1/GPa) = 0.03386068
#
# Stress axis : x y z
#
# Youngs Moduli (GPa) = 82.35754 67.55755 51.64684
#
# Poissons Ratio (x) = 0.25135 -0.07057
# Poissons Ratio (y) = 0.30641 0.19982
# Poissons Ratio (z) = -0.11253 0.26137
#
# Static dielectric constant tensor:
#      x y z
#    x 3.612870 0.000000 -0.052920 
#    y 0.000000 3.438270 0.000000 
#    z -0.052920 0.000000 3.346690 
# 
# 
# High freq. dielectric constant tensor:
#      x y z
#    x 1.755040 0.000000 0.001250 
#    y 0.000000 1.745090 0.000000 
#    z 0.001250 0.000000 1.739080 
# 
# From -- ./inp_files/304339.got.cif
#   From: 2010.06.25/outbox.cif.g09.slc.cpg/sg12_153_cif.got.tgz:304339.got - 2010.06.28 00:19:55.
