data_PCOD8089650
_publ_section_title
;
Structure prediction by ZEFSAII (Michael W. Deem and Ramdas Pophale) SiO2 
 PCOD8089650
Probable space group: C 2/M
;
_chemical_formula_sum "Si O2"
_cell_formula_units_Z 56
_cell_length_a 14.603424
_cell_length_b 9.079467
_cell_length_c 23.454774
_cell_angle_alpha 90.000000
_cell_angle_beta 111.408906
_cell_angle_gamma 90.000000
_cell_volume 2895.313249
_symmetry_space_group_name_H-M "C 2/M"
_symmetry_group_IT_number 12
_symmetry_cell_setting 'monoclinic'
loop_
_space_group_symop_operation_xyz
x,y,z
-x,y,-z
-x,-y,-z
x,-y,z
1/2+x,1/2+y,z
1/2-x,1/2+y,-z
1/2-x,1/2-y,-z
1/2+x,1/2-y,z
loop_
_atom_site_type_symbol
_atom_site_label
_atom_site_fract_x
_atom_site_fract_y
_atom_site_fract_z
Si Si1 0.845387 0.163828 0.955155
Si Si2 0.109741 0.675916 0.730366
Si Si3 0.314774 0.329022 0.824217
Si Si4 0.118653 0.336269 0.931302
Si Si5 0.011002 0.171356 0.807002
Si Si6 0.151943 0.325488 0.500697
Si Si7 0.054571 0.325617 0.593535
O O1 0.847256 0.239902 0.892627
O O2 0.734670 0.152553 0.951667
O O3 0.892283 0.000000 0.964291
O O4 0.908346 0.261412 0.014037
O O5 0.103553 0.500000 0.731509
O O6 0.214013 0.738320 0.776792
O O7 0.093483 0.735326 0.662649
O O8 0.025877 0.745146 0.750922
O O9 0.295725 0.500000 0.832467
O O10 0.397361 0.302608 0.795961
O O11 0.071924 0.500000 0.918277
O O12 0.079088 0.237475 0.871326
O O13 0.036587 0.000000 0.806565
O O14 0.167115 0.500000 0.500835
O O15 0.250000 0.250000 0.500000
O O16 0.128536 0.273016 0.560240
O O17 0.057958 0.273426 0.441857
O O18 0.054344 0.500000 0.592795
#
# Coordination Sequence:
#
# PCOD8089650 Si02
#       7
#     8   8   8   8   8   8   8
#     4   9  17  33  54  74  97 132 175 219 265 322
#     4  10  19  38  59  75 102 145 185 219 256 312
#     4   9  19  35  54  74 100 137 178 213 264 327
#     4  10  19  33  54  77 101 134 175 218 267 326
#     4  11  22  35  53  79 107 136 173 223 271 318
#     4   9  17  33  55  85 114 144 180 218 259 306
#     4   8  17  33  56  79 108 147 184 213 256 316
#
# _framework density 19.341602000000002
#
# number of rings (size 3 to 8) (size 9 to 14) (size 15 to 20)
#    0.000    2.571    1.429    1.714    0.000    2.286 
#    0.000   10.000    0.000    0.000    0.000    0.000 
#    0.000    0.000    0.000    0.000    0.000    0.000 
#
# Total GULP energy -347109.847313 kJ/mol
# GULP energy per Si atom -12396.780261 kJ/mol
# Density = 1.929758 g / cm^3
# Si number density = 19.341602 Si / 1000 Ang^3
#
#
#
# Elastic Constant Matrix: (Units=GPa)
#
#
# Indices 1 2 3 4 5 6 
#
# 1 95.6319 31.9688 57.2897 0.0000 -18.5047 0.0000
# 2 31.9688 53.8802 36.9548 0.0000 -6.9146 0.0000
# 3 57.2897 36.9548 165.3752 0.0000 -25.3772 0.0000
# 4 0.0000 0.0000 0.0000 20.8174 0.0000 -5.7580
# 5 -18.5047 -6.9146 -25.3772 0.0000 22.1568 0.0000
# 6 0.0000 0.0000 0.0000 -5.7580 0.0000 25.7086
#
#
#
# Elastic Compliance Matrix: (Units=1/GPa)
#
#
# Indices 1 2 3 4 5 6 
#
# 1 0.015848 -0.006440 -0.002825 0.000000 0.007991 0.000000
# 2 -0.006440 0.024577 -0.003530 0.000000 -0.001752 0.000000
# 3 -0.002825 -0.003530 0.008836 0.000000 0.006660 0.000000
# 4 0.000000 0.000000 0.000000 0.051209 0.000000 0.011469
# 5 0.007991 -0.001752 0.006660 0.000000 0.058887 0.000000
# 6 0.000000 0.000000 0.000000 0.011469 0.000000 0.041466
#
#
# Mechanical properties :
#
#
# Convention : Reuss Voigt Hill
#
# Bulk Modulus (GPa) = 42.24460 63.03487 52.63974
# Shear Modulus (GPa) = 21.33976 26.31483 23.82730
#
# Velocity S-wave (km/s) = 3.32521 3.69254 3.51368
# Velocity P-wave (km/s) = 6.05239 7.13028 6.61333
#
# Compressibility (1/GPa) = 0.02367167
#
# Stress axis : x y z
#
# Youngs Moduli (GPa) = 63.09901 40.68834 113.17174
#
# Poissons Ratio (x) = 0.26204 0.31969
# Poissons Ratio (y) = 0.40638 0.39947
# Poissons Ratio (z) = 0.17824 0.14362
#
# Static dielectric constant tensor:
#      x y z
#    x 3.472070 0.000000 -0.105240 
#    y 0.000000 3.362840 0.000000 
#    z -0.105240 0.000000 3.861200 
# 
# 
# High freq. dielectric constant tensor:
#      x y z
#    x 1.752750 0.000000 -0.007470 
#    y 0.000000 1.719890 0.000000 
#    z -0.007470 0.000000 1.756030 
# 
# From -- ./inp_files/338182.got.cif
#   From: 2010.06.25/outbox.cif.g09.slc.cpg/sg12_170_cif.got.tgz:338182.got - 2010.06.28 00:19:55.
