data_PCOD8089288
_publ_section_title
;
Structure prediction by ZEFSAII (Michael W. Deem and Ramdas Pophale) SiO2 
 PCOD8089288
Probable space group: C 2/M
;
_chemical_formula_sum "Si O2"
_cell_formula_units_Z 56
_cell_length_a 20.490143
_cell_length_b 8.829145
_cell_length_c 19.697872
_cell_angle_alpha 90.000000
_cell_angle_beta 57.936371
_cell_angle_gamma 90.000000
_cell_volume 3019.963447
_symmetry_space_group_name_H-M "C 2/M"
_symmetry_group_IT_number 12
_symmetry_cell_setting 'monoclinic'
loop_
_space_group_symop_operation_xyz
x,y,z
-x,y,-z
-x,-y,-z
x,-y,z
1/2+x,1/2+y,z
1/2-x,1/2+y,-z
1/2-x,1/2-y,-z
1/2+x,1/2-y,z
loop_
_atom_site_type_symbol
_atom_site_label
_atom_site_fract_x
_atom_site_fract_y
_atom_site_fract_z
Si Si1 0.851743 0.676865 0.167239
Si Si2 0.041654 0.680080 0.410066
Si Si3 0.506644 0.679283 0.834309
Si Si4 0.959905 0.679602 0.319020
Si Si5 0.294898 0.674801 0.414193
Si Si6 0.917852 0.167332 0.009937
Si Si7 0.216099 0.325461 0.314868
O O1 0.864355 0.500000 0.170565
O O2 0.862960 0.718190 0.081287
O O3 0.766335 0.724575 0.236087
O O4 0.912142 0.764762 0.180792
O O5 0.040088 0.500000 0.414310
O O6 0.129303 0.737201 0.358350
O O7 0.000000 0.747265 0.500000
O O8 0.996817 0.739344 0.368507
O O9 0.513845 0.500000 0.821711
O O10 0.489819 0.756732 0.771385
O O11 0.434928 0.722685 0.923387
O O12 0.959275 0.500000 0.316533
O O13 0.874117 0.739582 0.358639
O O14 0.311310 0.500000 0.421526
O O15 0.250000 0.750000 0.500000
O O16 0.242681 0.694150 0.377147
O O17 0.879807 0.000000 0.030993
O O18 0.000000 0.158044 0.000000
O O19 0.221794 0.500000 0.288603
#
# Coordination Sequence:
#
# PCOD8089288 Si02
#       7
#     8   8   8   8   8   8   8
#     4  11  20  30  50  81 113 141 177 226 273 315
#     4   9  19  37  58  79 104 142 187 225 267 327
#     4  10  19  33  52  77 110 147 182 216 267 329
#     4  11  21  34  56  83 110 138 179 231 275 320
#     4  11  22  35  55  79 106 140 178 224 276 326
#     4   8  16  30  49  73 106 145 180 215 262 326
#     4  10  20  36  57  77 106 147 184 218 266 331
#
# _framework density 18.543272000000002
#
# number of rings (size 3 to 8) (size 9 to 14) (size 15 to 20)
#    0.000    2.000    1.429    4.286    0.000    6.000 
#    0.000    1.429    0.000    3.857    0.000    0.000 
#    0.000    0.000    0.000    0.000    0.000    0.000 
#
# Total GULP energy -347201.139008 kJ/mol
# GULP energy per Si atom -12400.040679 kJ/mol
# Density = 1.850107 g / cm^3
# Si number density = 18.543272 Si / 1000 Ang^3
#
#
#
# Elastic Constant Matrix: (Units=GPa)
#
#
# Indices 1 2 3 4 5 6 
#
# 1 67.0283 23.4963 32.1832 0.0000 7.5465 -0.0004
# 2 23.4963 80.7097 46.3649 0.0000 6.3091 0.0000
# 3 32.1832 46.3649 141.0198 0.0000 15.9154 0.0001
# 4 0.0000 0.0000 0.0000 32.0136 0.0000 4.7494
# 5 7.5465 6.3091 15.9154 0.0000 28.5065 0.0000
# 6 -0.0004 0.0000 0.0001 4.7494 0.0000 16.1027
#
#
#
# Elastic Compliance Matrix: (Units=1/GPa)
#
#
# Indices 1 2 3 4 5 6 
#
# 1 0.017661 -0.003444 -0.002622 0.000000 -0.002449 0.000000
# 2 -0.003444 0.015957 -0.004445 0.000000 -0.000138 0.000000
# 3 -0.002622 -0.004445 0.009564 0.000000 -0.003662 0.000000
# 4 0.000000 0.000000 0.000000 0.032666 0.000000 -0.009635
# 5 -0.002449 -0.000138 -0.003662 0.000000 0.037803 0.000000
# 6 0.000000 0.000000 0.000000 -0.009635 0.000000 0.064943
#
#
# Mechanical properties :
#
#
# Convention : Reuss Voigt Hill
#
# Bulk Modulus (GPa) = 45.12417 54.76074 49.94246
# Shear Modulus (GPa) = 24.15431 27.77212 25.96322
#
# Velocity S-wave (km/s) = 3.61306 3.87420 3.74591
# Velocity P-wave (km/s) = 6.46475 7.04330 6.76021
#
# Compressibility (1/GPa) = 0.02216107
#
# Stress axis : x y z
#
# Youngs Moduli (GPa) = 56.62223 62.66900 104.55658
#
# Poissons Ratio (x) = 0.21582 0.27413
# Poissons Ratio (y) = 0.19500 0.46473
# Poissons Ratio (z) = 0.14845 0.27855
#
# Static dielectric constant tensor:
#      x y z
#    x 3.204470 0.000000 0.144440 
#    y 0.000000 3.192230 0.000000 
#    z 0.144440 0.000000 3.907610 
# 
# 
# High freq. dielectric constant tensor:
#      x y z
#    x 1.682290 0.000000 0.008810 
#    y 0.000000 1.710060 0.000000 
#    z 0.008810 0.000000 1.741540 
# 
# From -- ./inp_files/319702.got.cif
#   From: 2010.06.25/outbox.cif.g09.slc.cpg/sg12_160_cif.got.tgz:319702.got - 2010.06.28 00:19:55.
