data_PCOD8089220
_publ_section_title
;
Structure prediction by ZEFSAII (Michael W. Deem and Ramdas Pophale) SiO2 
 PCOD8089220
Probable space group: C 2/M
;
_chemical_formula_sum "Si O2"
_cell_formula_units_Z 48
_cell_length_a 12.584436
_cell_length_b 12.919159
_cell_length_c 16.299068
_cell_angle_alpha 90.000000
_cell_angle_beta 109.541088
_cell_angle_gamma 90.000000
_cell_volume 2497.278108
_symmetry_space_group_name_H-M "C 2/M"
_symmetry_group_IT_number 12
_symmetry_cell_setting 'monoclinic'
loop_
_space_group_symop_operation_xyz
x,y,z
-x,y,-z
-x,-y,-z
x,-y,z
1/2+x,1/2+y,z
1/2-x,1/2+y,-z
1/2-x,1/2-y,-z
1/2+x,1/2-y,z
loop_
_atom_site_type_symbol
_atom_site_label
_atom_site_fract_x
_atom_site_fract_y
_atom_site_fract_z
Si Si1 0.265096 0.882480 0.776391
Si Si2 0.990546 0.118536 0.247155
Si Si3 0.628797 0.121762 0.508972
Si Si4 0.427258 0.313009 0.057872
Si Si5 0.679477 0.249067 0.363270
Si Si6 0.684139 0.116131 0.027558
O O1 0.313948 0.806519 0.721922
O O2 0.318133 0.850943 0.877551
O O3 0.131177 0.870280 0.744164
O O4 0.297744 0.000000 0.762885
O O5 0.075691 0.171871 0.332448
O O6 0.996091 0.171088 0.159113
O O7 0.026147 0.000000 0.245729
O O8 0.500000 0.143269 0.500000
O O9 0.655415 0.162252 0.424928
O O10 0.707081 0.185706 0.591645
O O11 0.657219 0.000000 0.520694
O O12 0.311892 0.378263 0.027652
O O13 0.500000 0.352835 0.000000
O O14 0.399068 0.190827 0.043428
O O15 0.639643 0.000000 0.003179
#
# Coordination Sequence:
#
# PCOD8089220 Si02
#       6
#     8   8   8   8   8   8
#     4   9  18  34  54  76 104 136 173 216 255 294
#     4  10  21  35  52  77 106 135 172 218 258 296
#     4  10  22  38  55  79 109 134 161 206 260 310
#     4  10  19  33  52  74 104 140 176 214 259 302
#     4  11  20  35  59  79 100 136 174 205 250 314
#     4   9  19  34  51  74 105 139 176 218 257 296
#
# _framework density 19.220927
#
# number of rings (size 3 to 8) (size 9 to 14) (size 15 to 20)
#    0.000    2.167    0.000    4.500    0.000    1.667 
#    0.000    1.667    0.000   14.000    0.000    0.000 
#    0.000    0.000    0.000    0.000    0.000    0.000 
#
# Total GULP energy -297659.054751 kJ/mol
# GULP energy per Si atom -12402.460615 kJ/mol
# Density = 1.917718 g / cm^3
# Si number density = 19.220927 Si / 1000 Ang^3
#
#
#
# Elastic Constant Matrix: (Units=GPa)
#
#
# Indices 1 2 3 4 5 6 
#
# 1 52.7980 24.9718 8.4357 0.0000 -8.5825 0.0000
# 2 24.9718 112.5970 33.4739 0.0000 -3.8947 0.0000
# 3 8.4357 33.4739 42.7360 0.0000 -4.7676 0.0000
# 4 0.0000 0.0000 0.0000 24.2292 0.0000 -5.0200
# 5 -8.5825 -3.8947 -4.7676 0.0000 28.9201 0.0000
# 6 0.0000 0.0000 0.0000 -5.0200 0.0000 20.4623
#
#
#
# Elastic Compliance Matrix: (Units=1/GPa)
#
#
# Indices 1 2 3 4 5 6 
#
# 1 0.022129 -0.004694 -0.000030 0.000000 0.005930 0.000000
# 2 -0.004694 0.012573 -0.009054 0.000000 -0.001192 0.000000
# 3 -0.000030 -0.009054 0.030929 0.000000 0.003871 0.000000
# 4 0.000000 0.000000 0.000000 0.043483 0.000000 0.010668
# 5 0.005930 -0.001192 0.003871 0.000000 0.036815 0.000000
# 6 0.000000 0.000000 0.000000 0.010668 0.000000 0.051488
#
#
# Mechanical properties :
#
#
# Convention : Reuss Voigt Hill
#
# Bulk Modulus (GPa) = 26.26424 37.98822 32.12623
# Shear Modulus (GPa) = 21.03808 24.13896 22.58852
#
# Velocity S-wave (km/s) = 3.31197 3.54767 3.43184
# Velocity P-wave (km/s) = 5.32162 6.04882 5.69683
#
# Compressibility (1/GPa) = 0.03807459
#
# Stress axis : x y z
#
# Youngs Moduli (GPa) = 45.18993 79.53713 32.33179
#
# Poissons Ratio (x) = 0.37332 0.00097
# Poissons Ratio (y) = 0.21211 0.29275
# Poissons Ratio (z) = 0.00136 0.72016
#
# Static dielectric constant tensor:
#      x y z
#    x 3.452060 0.000000 0.008620 
#    y 0.000000 3.516490 0.000000 
#    z 0.008620 0.000000 3.390510 
# 
# 
# High freq. dielectric constant tensor:
#      x y z
#    x 1.750380 0.000000 0.001770 
#    y 0.000000 1.755810 0.000000 
#    z 0.001770 0.000000 1.741370 
# 
# From -- ./inp_files/204284.got.cif
#   From: 2010.06.25/outbox.cif.g09.slc.cpg/sg12_103_cif.got.tgz:204284.got - 2010.06.28 00:19:55.
