data_PCOD8089265
_publ_section_title
;
Structure prediction by ZEFSAII (Michael W. Deem and Ramdas Pophale) SiO2 
 PCOD8089265
Probable space group: C 2/M
;
_chemical_formula_sum "Si O2"
_cell_formula_units_Z 48
_cell_length_a 18.816972
_cell_length_b 9.642880
_cell_length_c 14.772571
_cell_angle_alpha 90.000000
_cell_angle_beta 98.826576
_cell_angle_gamma 90.000000
_cell_volume 2648.736014
_symmetry_space_group_name_H-M "C 2/M"
_symmetry_group_IT_number 12
_symmetry_cell_setting 'monoclinic'
loop_
_space_group_symop_operation_xyz
x,y,z
-x,y,-z
-x,-y,-z
x,-y,z
1/2+x,1/2+y,z
1/2-x,1/2+y,-z
1/2-x,1/2-y,-z
1/2+x,1/2-y,z
loop_
_atom_site_type_symbol
_atom_site_label
_atom_site_fract_x
_atom_site_fract_y
_atom_site_fract_z
Si Si1 0.464601 0.336235 0.584975
Si Si2 0.198613 0.160863 0.427746
Si Si3 0.438899 0.341923 0.048439
Si Si4 0.417186 0.335140 0.247374
Si Si5 0.718971 0.840701 0.738612
Si Si6 0.787844 0.155024 0.937236
O O1 0.500000 0.273775 0.500000
O O2 0.461964 0.500000 0.576270
O O3 0.383112 0.281082 0.581160
O O4 0.512120 0.294262 0.681520
O O5 0.250000 0.250000 0.500000
O O6 0.226638 0.182554 0.332437
O O7 0.202181 0.000000 0.458028
O O8 0.462177 0.500000 0.072000
O O9 0.426306 0.277046 0.146082
O O10 0.500000 0.265915 0.000000
O O11 0.371983 0.331430 0.968806
O O12 0.402115 0.500000 0.246355
O O13 0.349912 0.259055 0.281116
O O14 0.767480 0.797419 0.833203
O O15 0.692234 0.000000 0.737955
O O16 0.760743 0.000000 0.950280
O O17 0.750000 0.250000 0.000000
#
# Coordination Sequence:
#
# PCOD8089265 Si02
#       6
#     8   8   8   8   8   8
#     4   9  18  32  52  77 102 128 165 216 261 299
#     4  10  21  37  56  80 107 136 172 214 264 315
#     4   9  18  30  49  77 104 132 173 218 255 297
#     4  10  19  33  55  78 101 136 179 218 256 305
#     4  10  21  34  52  77 109 141 169 212 266 314
#     4  10  19  33  52  76 106 140 175 213 258 306
#
# _framework density 18.121849999999998
#
# number of rings (size 3 to 8) (size 9 to 14) (size 15 to 20)
#    0.000    2.333    1.667    1.000    2.333    2.000 
#    0.000    0.833    0.000    5.000    0.000    0.000 
#    0.000    0.000    0.000    0.000    0.000    0.000 
#
# Total GULP energy -297503.750182 kJ/mol
# GULP energy per Si atom -12395.989591 kJ/mol
# Density = 1.808060 g / cm^3
# Si number density = 18.121850 Si / 1000 Ang^3
#
#
#
# Elastic Constant Matrix: (Units=GPa)
#
#
# Indices 1 2 3 4 5 6 
#
# 1 151.6342 44.1622 73.2700 0.0000 -1.0751 0.0000
# 2 44.1622 40.5379 38.3217 0.0000 0.5104 0.0000
# 3 73.2700 38.3217 124.7781 0.0000 7.9529 0.0000
# 4 0.0000 0.0000 0.0000 21.8716 0.0000 -0.6519
# 5 -1.0751 0.5104 7.9529 0.0000 38.3731 0.0000
# 6 0.0000 0.0000 0.0000 -0.6519 0.0000 23.1814
#
#
#
# Elastic Compliance Matrix: (Units=1/GPa)
#
#
# Indices 1 2 3 4 5 6 
#
# 1 0.010891 -0.008117 -0.003982 0.000000 0.001238 0.000000
# 2 -0.008117 0.040929 -0.007858 0.000000 0.000857 0.000000
# 3 -0.003982 -0.007858 0.012937 0.000000 -0.002688 0.000000
# 4 0.000000 0.000000 0.000000 0.045760 0.000000 0.001287
# 5 0.001238 0.000857 -0.002688 0.000000 0.026640 0.000000
# 6 0.000000 0.000000 0.000000 0.001287 0.000000 0.043174
#
#
# Mechanical properties :
#
#
# Convention : Reuss Voigt Hill
#
# Bulk Modulus (GPa) = 40.25180 69.82868 55.04024
# Shear Modulus (GPa) = 21.87929 27.43163 24.65546
#
# Velocity S-wave (km/s) = 3.47845 3.89489 3.69255
# Velocity P-wave (km/s) = 6.19619 7.67095 6.97267
#
# Compressibility (1/GPa) = 0.02484361
#
# Stress axis : x y z
#
# Youngs Moduli (GPa) = 91.81475 24.43266 77.29767
#
# Poissons Ratio (x) = 0.19832 0.30777
# Poissons Ratio (y) = 0.74525 0.60743
# Poissons Ratio (z) = 0.36557 0.19200
#
# Static dielectric constant tensor:
#      x y z
#    x 3.323770 0.000000 0.064880 
#    y 0.000000 3.038550 0.000000 
#    z 0.064880 0.000000 3.505710 
# 
# 
# High freq. dielectric constant tensor:
#      x y z
#    x 1.711590 0.000000 0.001490 
#    y 0.000000 1.658150 0.000000 
#    z 0.001490 0.000000 1.719820 
# 
# From -- ./inp_files/221619.got.cif
#   From: 2010.06.25/outbox.cif.g09.slc.cpg/sg12_111_cif.got.tgz:221619.got - 2010.06.28 00:19:55.
