data_PCOD8089368
_publ_section_title
;
Structure prediction by ZEFSAII (Michael W. Deem and Ramdas Pophale) SiO2 
 PCOD8089368
Probable space group: C 2/M
;
_chemical_formula_sum "Si O2"
_cell_formula_units_Z 56
_cell_length_a 8.693789
_cell_length_b 19.921253
_cell_length_c 28.393557
_cell_angle_alpha 90.000000
_cell_angle_beta 140.928401
_cell_angle_gamma 90.000000
_cell_volume 3099.464665
_symmetry_space_group_name_H-M "C 2/M"
_symmetry_group_IT_number 12
_symmetry_cell_setting 'monoclinic'
loop_
_space_group_symop_operation_xyz
x,y,z
-x,y,-z
-x,-y,-z
x,-y,z
1/2+x,1/2+y,z
1/2-x,1/2+y,-z
1/2-x,1/2-y,-z
1/2+x,1/2-y,z
loop_
_atom_site_type_symbol
_atom_site_label
_atom_site_fract_x
_atom_site_fract_y
_atom_site_fract_z
Si Si1 0.907951 0.425691 0.835332
Si Si2 0.399758 0.079938 0.024887
Si Si3 0.734955 0.825593 0.587798
Si Si4 0.328035 0.774010 0.325815
Si Si5 0.639619 0.420858 0.681227
Si Si6 0.140497 0.075383 0.119795
Si Si7 0.959835 0.337151 0.261597
O O1 0.798240 0.500000 0.816203
O O2 0.737005 0.390493 0.755142
O O3 0.184083 0.429623 0.882917
O O4 0.935380 0.389255 0.892848
O O5 0.118060 0.101110 0.961062
O O6 0.425930 0.000000 0.034010
O O7 0.500000 0.109291 0.000000
O O8 0.500000 0.818908 0.500000
O O9 0.659015 0.818168 0.623962
O O10 0.931423 0.771356 0.617959
O O11 0.859650 0.898504 0.609178
O O12 0.076729 0.730474 0.266132
O O13 0.341518 0.823465 0.284412
O O14 0.664744 0.500000 0.684668
O O15 0.815554 0.390627 0.682372
O O16 0.239816 0.130756 0.179793
O O17 0.118744 0.000000 0.137769
#
# Coordination Sequence:
#
# PCOD8089368 Si02
#       7
#     8   8   8   8   8   8   8
#     4   8  14  26  42  61  89 124 158 185 220 278
#     4   9  16  24  37  64  98 124 151 191 232 271
#     4  10  19  33  53  74  97 124 158 200 240 281
#     4   9  19  33  51  74  94 122 165 206 236 269
#     4   9  18  32  50  73 101 130 155 188 241 297
#     4   9  16  27  46  70  95 124 154 188 237 289
#     4   9  17  32  51  72  96 124 161 202 237 276
#
# _framework density 18.067637000000001
#
# number of rings (size 3 to 8) (size 9 to 14) (size 15 to 20)
#    0.000    3.000    0.000    2.143    0.000    3.143 
#    0.000    2.857    0.000    0.857    0.000   47.000 
#    0.000    0.000    0.000    0.000    0.000    0.000 
#
# Total GULP energy -346869.664589 kJ/mol
# GULP energy per Si atom -12388.202307 kJ/mol
# Density = 1.802651 g / cm^3
# Si number density = 18.067637 Si / 1000 Ang^3
#
#
#
# Elastic Constant Matrix: (Units=GPa)
#
#
# Indices 1 2 3 4 5 6 
#
# 1 72.1278 24.2220 9.9163 0.0013 -16.4220 0.0011
# 2 24.2220 54.9409 20.9053 0.0013 -13.2171 0.0007
# 3 9.9163 20.9053 55.3118 0.0030 -3.2765 0.0020
# 4 0.0013 0.0013 0.0030 17.6067 0.0013 -0.5972
# 5 -16.4220 -13.2171 -3.2765 0.0013 25.2805 0.0012
# 6 0.0011 0.0007 0.0020 -0.5972 0.0012 16.2856
#
#
#
# Elastic Compliance Matrix: (Units=1/GPa)
#
#
# Indices 1 2 3 4 5 6 
#
# 1 0.017756 -0.005549 -0.000579 -0.000001 0.008558 -0.000002
# 2 -0.005549 0.025936 -0.008282 -0.000001 0.008882 0.000000
# 3 -0.000579 -0.008282 0.021197 -0.000003 -0.001959 -0.000002
# 4 -0.000001 -0.000001 -0.000003 0.056867 -0.000005 0.002085
# 5 0.008558 0.008882 -0.001959 -0.000005 0.049505 -0.000004
# 6 -0.000002 0.000000 -0.000002 0.002085 -0.000004 0.061480
#
#
# Mechanical properties :
#
#
# Convention : Reuss Voigt Hill
#
# Bulk Modulus (GPa) = 27.72428 32.49641 30.11034
# Shear Modulus (GPa) = 18.27596 20.32368 19.29982
#
# Velocity S-wave (km/s) = 3.18391 3.35754 3.27188
# Velocity P-wave (km/s) = 5.37535 5.74942 5.56553
#
# Compressibility (1/GPa) = 0.03606947
#
# Stress axis : x y z
#
# Youngs Moduli (GPa) = 56.31968 38.55698 47.17614
#
# Poissons Ratio (x) = 0.21395 0.02732
# Poissons Ratio (y) = 0.31252 0.39069
# Poissons Ratio (z) = 0.03261 0.31931
#
# Static dielectric constant tensor:
#      x y z
#    x 3.468490 0.000000 -0.029120 
#    y 0.000000 3.084710 0.000000 
#    z -0.029120 0.000000 3.300600 
# 
# 
# High freq. dielectric constant tensor:
#      x y z
#    x 1.701870 0.000000 0.003600 
#    y 0.000000 1.661980 0.000000 
#    z 0.003600 0.000000 1.692200 
# 
# From -- ./inp_files/257660.got.cif
#   From: 2010.06.25/outbox.cif.g09.slc.cpg/sg12_129_cif.got.tgz:257660.got - 2010.06.28 00:19:55.
