data_PCOD8089923
_publ_section_title
;
Structure prediction by ZEFSAII (Michael W. Deem and Ramdas Pophale) SiO2 
 PCOD8089923
Probable space group: C 2/M
;
_chemical_formula_sum "Si O2"
_cell_formula_units_Z 64
_cell_length_a 25.594965
_cell_length_b 14.373225
_cell_length_c 17.311784
_cell_angle_alpha 90.000000
_cell_angle_beta 150.229738
_cell_angle_gamma 90.000000
_cell_volume 3162.207745
_symmetry_space_group_name_H-M "C 2/M"
_symmetry_group_IT_number 12
_symmetry_cell_setting 'monoclinic'
loop_
_space_group_symop_operation_xyz
x,y,z
-x,y,-z
-x,-y,-z
x,-y,z
1/2+x,1/2+y,z
1/2-x,1/2+y,-z
1/2-x,1/2-y,-z
1/2+x,1/2-y,z
loop_
_atom_site_type_symbol
_atom_site_label
_atom_site_fract_x
_atom_site_fract_y
_atom_site_fract_z
Si Si1 0.649883 0.394949 0.955086
Si Si2 0.686698 0.795647 0.587947
Si Si3 0.946551 0.215878 0.716317
Si Si4 0.795746 0.099323 0.146418
Si Si5 0.436864 0.896699 0.150846
Si Si6 0.482685 0.104695 0.378734
Si Si7 0.176975 0.722155 0.741200
Si Si8 0.902116 0.889570 0.817142
O O1 0.635107 0.500000 0.970490
O O2 0.537145 0.347115 0.794302
O O3 0.712304 0.399834 0.955926
O O4 0.716011 0.330777 0.097855
O O5 0.649677 0.730346 0.468669
O O6 0.600393 0.870105 0.504218
O O7 0.697179 0.737454 0.680824
O O8 0.793581 0.851891 0.711829
O O9 0.911432 0.164003 0.748222
O O10 0.988282 0.319299 0.791737
O O11 0.859117 0.188202 0.255935
O O12 0.846079 0.000000 0.237285
O O13 0.679253 0.108060 0.034209
O O14 0.417144 0.876818 0.216429
O O15 0.486964 0.000000 0.202256
O O16 0.424386 0.155974 0.376190
O O17 0.479508 0.000000 0.402067
O O18 0.895373 0.000000 0.793829
O O19 0.000000 0.866549 0.000000
#
# Coordination Sequence:
#
# PCOD8089923 Si02
#       8
#     8   8   8   8   8   8   8   8
#     4  11  21  34  60  94 127 165 209 256 303 352
#     4  11  25  39  59  88 125 164 200 245 308 368
#     4  11  22  41  62  87 122 161 199 247 305 370
#     4  10  19  33  54  84 121 163 209 250 288 340
#     4   9  17  32  56  86 118 155 199 244 290 343
#     4  10  20  34  55  88 127 162 200 245 302 364
#     4  12  21  35  58  90 128 168 204 251 296 358
#     4  11  25  46  70  94 118 149 199 259 317 371
#
# _framework density 20.239024000000001
#
# number of rings (size 3 to 8) (size 9 to 14) (size 15 to 20)
#    0.000    1.375    2.500    4.500    0.000    4.000 
#    0.000    1.250    0.000    4.125    0.000    0.000 
#    0.000    0.000    0.000    0.000    0.000    0.000 
#
# Total GULP energy -396437.896990 kJ/mol
# GULP energy per Si atom -12388.684281 kJ/mol
# Density = 2.019296 g / cm^3
# Si number density = 20.239024 Si / 1000 Ang^3
#
#
#
# Elastic Constant Matrix: (Units=GPa)
#
#
# Indices 1 2 3 4 5 6 
#
# 1 106.0173 48.9422 53.0775 0.0000 -4.0200 0.0000
# 2 48.9422 125.7109 52.1786 0.0000 -6.2148 0.0000
# 3 53.0775 52.1786 100.7853 0.0000 4.1393 0.0000
# 4 0.0000 0.0000 0.0000 16.4297 0.0000 10.1876
# 5 -4.0200 -6.2148 4.1393 0.0000 32.0844 0.0000
# 6 0.0000 0.0000 0.0000 10.1876 0.0000 25.3567
#
#
#
# Elastic Compliance Matrix: (Units=1/GPa)
#
#
# Indices 1 2 3 4 5 6 
#
# 1 0.013740 -0.002824 -0.005853 0.000000 0.001929 0.000000
# 2 -0.002824 0.010942 -0.004273 0.000000 0.002317 0.000000
# 3 -0.005853 -0.004273 0.015362 0.000000 -0.003543 0.000000
# 4 0.000000 0.000000 0.000000 0.081060 0.000000 -0.032568
# 5 0.001929 0.002317 -0.003543 0.000000 0.032315 0.000000
# 6 0.000000 0.000000 0.000000 -0.032568 0.000000 0.052522
#
#
# Mechanical properties :
#
#
# Convention : Reuss Voigt Hill
#
# Bulk Modulus (GPa) = 70.70149 71.21223 70.95686
# Shear Modulus (GPa) = 21.13662 26.66184 23.89923
#
# Velocity S-wave (km/s) = 3.23515 3.63347 3.44008
# Velocity P-wave (km/s) = 6.99743 7.27082 7.13543
#
# Compressibility (1/GPa) = 0.01414397
#
# Stress axis : x y z
#
# Youngs Moduli (GPa) = 72.78175 91.38729 65.09564
#
# Poissons Ratio (x) = 0.25812 0.38099
# Poissons Ratio (y) = 0.20557 0.27814
# Poissons Ratio (z) = 0.42598 0.39048
#
# Static dielectric constant tensor:
#      x y z
#    x 3.592310 0.000000 -0.154900 
#    y 0.000000 3.851690 0.000000 
#    z -0.154900 0.000000 3.887320 
# 
# 
# High freq. dielectric constant tensor:
#      x y z
#    x 1.772090 0.000000 0.000480 
#    y 0.000000 1.792710 0.000000 
#    z 0.000480 0.000000 1.792820 
# 
# From -- ./inp_files/290124.got.cif
#   From: 2010.06.25/outbox.cif.g09.slc.cpg/sg12_146_cif.got.tgz:290124.got - 2010.06.28 00:19:55.
