data_PCOD8089584
_publ_section_title
;
Structure prediction by ZEFSAII (Michael W. Deem and Ramdas Pophale) SiO2 
 PCOD8089584
Probable space group: C 2/M
;
_chemical_formula_sum "Si O2"
_cell_formula_units_Z 48
_cell_length_a 29.212210
_cell_length_b 19.253067
_cell_length_c 12.591139
_cell_angle_alpha 90.000000
_cell_angle_beta 20.372644
_cell_angle_gamma 90.000000
_cell_volume 2465.266894
_symmetry_space_group_name_H-M "C 2/M"
_symmetry_group_IT_number 12
_symmetry_cell_setting 'monoclinic'
loop_
_space_group_symop_operation_xyz
x,y,z
-x,y,-z
-x,-y,-z
x,-y,z
1/2+x,1/2+y,z
1/2-x,1/2+y,-z
1/2-x,1/2-y,-z
1/2+x,1/2-y,z
loop_
_atom_site_type_symbol
_atom_site_label
_atom_site_fract_x
_atom_site_fract_y
_atom_site_fract_z
Si Si1 0.250917 0.076599 0.202508
Si Si2 0.299820 0.422376 0.927522
Si Si3 0.257428 0.215664 0.286610
Si Si4 0.360339 0.274423 0.842220
Si Si5 0.486004 0.188101 0.148900
Si Si6 0.955771 0.576415 0.390528
O O1 0.185355 0.085737 0.230716
O O2 0.204455 0.136813 0.383484
O O3 0.216346 0.000000 0.324449
O O4 0.406739 0.085838 0.849242
O O5 0.351038 0.500000 0.850910
O O6 0.377842 0.358669 0.811563
O O7 0.149568 0.411885 0.288308
O O8 0.127705 0.254383 0.606971
O O9 0.322082 0.245839 0.039591
O O10 0.372675 0.219176 0.123658
O O11 0.500000 0.243300 0.500000
O O12 0.250000 0.250000 0.000000
O O13 0.436810 0.128633 0.334582
O O14 0.500000 0.157604 0.000000
O O15 0.942108 0.500000 0.369604
#
# Coordination Sequence:
#
# PCOD8089584 Si02
#       6
#     8   8   8   8   8   8
#     4   9  18  31  54  83 113 151 185 218 272 344
#     4  10  19  33  53  81 119 154 186 218 271 343
#     4  11  22  38  59  82 117 146 187 239 285 335
#     4  12  24  36  57  87 121 153 189 225 278 344
#     4  11  23  39  60  83 108 148 196 245 291 329
#     4   9  18  33  54  83 115 146 184 234 281 331
#
# _framework density 19.470507999999999
#
# number of rings (size 3 to 8) (size 9 to 14) (size 15 to 20)
#    0.000    1.667    3.333    2.000    2.333    2.667 
#    0.000    0.000    0.000    1.500    0.000    0.000 
#    0.000    0.000    0.000    0.000    0.000    0.000 
#
# Total GULP energy -297466.408567 kJ/mol
# GULP energy per Si atom -12394.433690 kJ/mol
# Density = 1.942619 g / cm^3
# Si number density = 19.470508 Si / 1000 Ang^3
#
#
#
# Elastic Constant Matrix: (Units=GPa)
#
#
# Indices 1 2 3 4 5 6 
#
# 1 83.9446 18.0177 8.3651 -0.0001 -6.1748 0.0000
# 2 18.0177 105.1006 18.9863 -0.0001 -8.0557 0.0000
# 3 8.3651 18.9863 46.7792 -0.0012 -7.8212 -0.0002
# 4 -0.0001 -0.0001 -0.0012 23.6799 0.0001 -4.4333
# 5 -6.1748 -8.0557 -7.8212 0.0001 22.1418 0.0000
# 6 0.0000 0.0000 -0.0002 -4.4333 0.0000 12.6295
#
#
#
# Elastic Compliance Matrix: (Units=1/GPa)
#
#
# Indices 1 2 3 4 5 6 
#
# 1 0.012585 -0.001766 -0.001121 0.000000 0.002471 0.000000
# 2 -0.001766 0.010637 -0.003653 0.000000 0.002087 0.000000
# 3 -0.001121 -0.003653 0.024216 0.000001 0.006912 0.000001
# 4 0.000000 0.000000 0.000001 0.045200 0.000000 0.015867
# 5 0.002471 0.002087 0.006912 0.000000 0.049054 0.000000
# 6 0.000000 0.000000 0.000001 0.015867 0.000000 0.084749
#
#
# Mechanical properties :
#
#
# Convention : Reuss Voigt Hill
#
# Bulk Modulus (GPa) = 29.10347 36.28474 32.69411
# Shear Modulus (GPa) = 19.92250 24.38726 22.15488
#
# Velocity S-wave (km/s) = 3.20224 3.54294 3.37689
# Velocity P-wave (km/s) = 5.35279 5.95086 5.65973
#
# Compressibility (1/GPa) = 0.03436016
#
# Stress axis : x y z
#
# Youngs Moduli (GPa) = 79.45936 94.00958 41.29564
#
# Poissons Ratio (x) = 0.16598 0.04628
# Poissons Ratio (y) = 0.14029 0.15084
# Poissons Ratio (z) = 0.08905 0.34338
#
# Static dielectric constant tensor:
#      x y z
#    x 3.361440 0.000000 -0.107340 
#    y 0.000000 4.158590 0.000000 
#    z -0.107340 0.000000 3.393010 
# 
# 
# High freq. dielectric constant tensor:
#      x y z
#    x 1.734780 0.000000 -0.011480 
#    y 0.000000 1.777170 0.000000 
#    z -0.011480 0.000000 1.742890 
# 
# From -- ./inp_files/131077.got.cif
#   From: 2010.06.25/outbox.cif.g09.slc.cpg/sg12_66_cif.got.tgz:131077.got - 2010.06.28 00:19:55.
