data_PCOD8089200
_publ_section_title
;
Structure prediction by ZEFSAII (Michael W. Deem and Ramdas Pophale) SiO2 
 PCOD8089200
Probable space group: C 2/M
;
_chemical_formula_sum "Si O2"
_cell_formula_units_Z 48
_cell_length_a 14.211742
_cell_length_b 8.792352
_cell_length_c 22.415316
_cell_angle_alpha 90.000000
_cell_angle_beta 70.604693
_cell_angle_gamma 90.000000
_cell_volume 2641.946369
_symmetry_space_group_name_H-M "C 2/M"
_symmetry_group_IT_number 12
_symmetry_cell_setting 'monoclinic'
loop_
_space_group_symop_operation_xyz
x,y,z
-x,y,-z
-x,-y,-z
x,-y,z
1/2+x,1/2+y,z
1/2-x,1/2+y,-z
1/2-x,1/2-y,-z
1/2+x,1/2-y,z
loop_
_atom_site_type_symbol
_atom_site_label
_atom_site_fract_x
_atom_site_fract_y
_atom_site_fract_z
Si Si1 0.643404 0.320831 0.733992
Si Si2 0.805017 0.675259 0.399969
Si Si3 0.560768 0.321059 0.169145
Si Si4 0.041801 0.820228 0.928122
Si Si5 0.102402 0.823931 0.508837
Si Si6 0.270471 0.819236 0.169470
O O1 0.653515 0.500000 0.741466
O O2 0.676438 0.277313 0.661261
O O3 0.529538 0.266425 0.769111
O O4 0.714654 0.239693 0.766628
O O5 0.824114 0.500000 0.380389
O O6 0.881396 0.724482 0.435572
O O7 0.691575 0.704766 0.443717
O O8 0.570421 0.500000 0.170935
O O9 0.537347 0.271513 0.106083
O O10 0.664926 0.250442 0.169049
O O11 0.146735 0.740176 0.893774
O O12 0.060232 0.000000 0.923718
O O13 0.000000 0.762774 0.000000
O O14 0.000000 0.769997 0.500000
O O15 0.097203 0.000000 0.529010
O O16 0.271983 0.000000 0.169572
#
# Coordination Sequence:
#
# PCOD8089200 Si02
#       6
#     8   8   8   8   8   8
#     4  10  20  36  54  72 100 136 169 200 248 308
#     4  10  20  34  53  78 104 129 166 213 252 289
#     4   8  17  33  51  71  98 133 166 201 248 299
#     4   9  18  34  53  73 101 136 169 200 244 304
#     4   9  19  36  55  74 101 138 172 202 247 304
#     4  10  19  33  52  74 100 128 166 212 251 288
#
# _framework density 18.168424000000002
#
# number of rings (size 3 to 8) (size 9 to 14) (size 15 to 20)
#    0.000    2.667    0.000    2.500    0.000    3.333 
#    0.000   15.000    0.000    0.000    0.000    0.000 
#    0.000    0.000    0.000    0.000    0.000    0.000 
#
# Total GULP energy -297606.861764 kJ/mol
# GULP energy per Si atom -12400.285907 kJ/mol
# Density = 1.812707 g / cm^3
# Si number density = 18.168424 Si / 1000 Ang^3
#
#
#
# Elastic Constant Matrix: (Units=GPa)
#
#
# Indices 1 2 3 4 5 6 
#
# 1 171.0132 34.1068 61.6479 0.0000 6.9408 0.0000
# 2 34.1068 47.7704 28.2045 0.0000 -0.5433 0.0000
# 3 61.6479 28.2045 123.5958 0.0000 3.7324 0.0000
# 4 0.0000 0.0000 0.0000 31.6756 0.0000 -0.9305
# 5 6.9408 -0.5433 3.7324 0.0000 11.4534 0.0000
# 6 0.0000 0.0000 0.0000 -0.9305 0.0000 24.2683
#
#
#
# Elastic Compliance Matrix: (Units=1/GPa)
#
#
# Indices 1 2 3 4 5 6 
#
# 1 0.007836 -0.003934 -0.002890 0.000000 -0.003993 0.000000
# 2 -0.003934 0.026269 -0.004183 0.000000 0.004993 0.000000
# 3 -0.002890 -0.004183 0.010544 0.000000 -0.001883 0.000000
# 4 0.000000 0.000000 0.000000 0.031606 0.000000 0.001212
# 5 -0.003993 0.004993 -0.001883 0.000000 0.090581 0.000000
# 6 0.000000 0.000000 0.000000 0.001212 0.000000 0.041252
#
#
# Mechanical properties :
#
#
# Convention : Reuss Voigt Hill
#
# Bulk Modulus (GPa) = 44.18059 65.58866 54.88463
# Shear Modulus (GPa) = 21.03965 28.04080 24.54022
#
# Velocity S-wave (km/s) = 3.40668 3.93285 3.67918
# Velocity P-wave (km/s) = 6.31221 7.53670 6.95147
#
# Compressibility (1/GPa) = 0.02263437
#
# Stress axis : x y z
#
# Youngs Moduli (GPa) = 127.61613 38.06818 94.84089
#
# Poissons Ratio (x) = 0.14975 0.27411
# Poissons Ratio (y) = 0.50200 0.39674
# Poissons Ratio (z) = 0.36884 0.15925
#
# Static dielectric constant tensor:
#      x y z
#    x 3.615120 0.000000 0.006850 
#    y 0.000000 3.213560 0.000000 
#    z 0.006850 0.000000 3.344050 
# 
# 
# High freq. dielectric constant tensor:
#      x y z
#    x 1.708510 0.000000 0.002040 
#    y 0.000000 1.694250 0.000000 
#    z 0.002040 0.000000 1.705910 
# 
# From -- ./inp_files/308271.got.cif
#   From: 2010.06.25/outbox.cif.g09.slc.cpg/sg12_155_cif.got.tgz:308271.got - 2010.06.28 00:19:55.
