data_PCOD8089641
_publ_section_title
;
Structure prediction by ZEFSAII (Michael W. Deem and Ramdas Pophale) SiO2 
 PCOD8089641
Probable space group: C 2/M
;
_chemical_formula_sum "Si O2"
_cell_formula_units_Z 56
_cell_length_a 24.966124
_cell_length_b 16.589862
_cell_length_c 12.537753
_cell_angle_alpha 90.000000
_cell_angle_beta 37.208775
_cell_angle_gamma 90.000000
_cell_volume 3140.282562
_symmetry_space_group_name_H-M "C 2/M"
_symmetry_group_IT_number 12
_symmetry_cell_setting 'monoclinic'
loop_
_space_group_symop_operation_xyz
x,y,z
-x,y,-z
-x,-y,-z
x,-y,z
1/2+x,1/2+y,z
1/2-x,1/2+y,-z
1/2-x,1/2-y,-z
1/2+x,1/2-y,z
loop_
_atom_site_type_symbol
_atom_site_label
_atom_site_fract_x
_atom_site_fract_y
_atom_site_fract_z
Si Si1 0.362068 0.716976 0.528830
Si Si2 0.169417 0.284462 0.194128
Si Si3 0.206679 0.092096 0.918053
Si Si4 0.264967 0.654336 0.353654
Si Si5 0.095520 0.285309 0.898997
Si Si6 0.265270 0.907815 0.370549
Si Si7 0.065739 0.224591 0.177369
O O1 0.351000 0.727930 0.672731
O O2 0.324744 0.795455 0.526794
O O3 0.309171 0.637433 0.579722
O O4 0.463139 0.702809 0.336255
O O5 0.199822 0.373538 0.184017
O O6 0.084619 0.282923 0.249586
O O7 0.250000 0.250000 0.000000
O O8 0.209343 0.097438 0.785718
O O9 0.195858 0.000000 0.971384
O O10 0.122716 0.142283 0.095791
O O11 0.343523 0.717634 0.253209
O O12 0.252977 0.598324 0.474581
O O13 0.137746 0.372422 0.809510
O O14 0.094692 0.272876 0.026850
O O15 0.000000 0.279294 0.000000
O O16 0.263871 0.000000 0.337409
#
# Coordination Sequence:
#
# PCOD8089641 Si02
#       7
#     8   8   8   8   8   8   8
#     4  10  19  34  54  74  99 131 171 208 244 295
#     4   9  18  34  54  74  97 131 170 202 239 294
#     4   9  18  32  52  77 103 130 163 208 255 292
#     4   9  18  33  53  73  97 135 174 207 245 291
#     4  10  19  34  53  73  99 133 174 207 241 294
#     4  11  21  32  49  75 106 134 163 206 257 300
#     4  10  19  33  54  76  99 131 169 206 244 296
#
# _framework density 17.832791
#
# number of rings (size 3 to 8) (size 9 to 14) (size 15 to 20)
#    0.000    2.286    0.000    6.857    0.000    0.857 
#    0.000    6.429    0.000   17.571    0.000    0.000 
#    0.000    0.000    0.000    0.000    0.000    0.000 
#
# Total GULP energy -347175.571985 kJ/mol
# GULP energy per Si atom -12399.127571 kJ/mol
# Density = 1.779220 g / cm^3
# Si number density = 17.832791 Si / 1000 Ang^3
#
#
#
# Elastic Constant Matrix: (Units=GPa)
#
#
# Indices 1 2 3 4 5 6 
#
# 1 99.3151 32.7115 32.2562 0.0000 -10.1261 0.0000
# 2 32.7115 97.3343 38.0837 0.0000 -8.3539 0.0000
# 3 32.2562 38.0837 70.4443 0.0000 3.3121 0.0000
# 4 0.0000 0.0000 0.0000 14.2256 0.0000 3.7150
# 5 -10.1261 -8.3539 3.3121 0.0000 31.9946 0.0000
# 6 0.0000 0.0000 0.0000 3.7150 0.0000 14.7981
#
#
#
# Elastic Compliance Matrix: (Units=1/GPa)
#
#
# Indices 1 2 3 4 5 6 
#
# 1 0.012744 -0.002005 -0.004941 0.000000 0.004021 0.000000
# 2 -0.002005 0.013918 -0.006781 0.000000 0.003702 0.000000
# 3 -0.004941 -0.006781 0.020380 0.000000 -0.005444 0.000000
# 4 0.000000 0.000000 0.000000 0.075227 0.000000 -0.018885
# 5 0.004021 0.003702 -0.005444 0.000000 0.034058 0.000000
# 6 0.000000 0.000000 0.000000 -0.018885 0.000000 0.072317
#
#
# Mechanical properties :
#
#
# Convention : Reuss Voigt Hill
#
# Bulk Modulus (GPa) = 51.04674 52.57740 51.81207
# Shear Modulus (GPa) = 19.03844 23.13982 21.08913
#
# Velocity S-wave (km/s) = 3.27097 3.60613 3.44263
# Velocity P-wave (km/s) = 6.55386 6.84737 6.70222
#
# Compressibility (1/GPa) = 0.01958989
#
# Stress axis : x y z
#
# Youngs Moduli (GPa) = 78.46869 71.84773 49.06843
#
# Poissons Ratio (x) = 0.14403 0.24243
# Poissons Ratio (y) = 0.15730 0.33272
# Poissons Ratio (z) = 0.38769 0.48718
#
# Static dielectric constant tensor:
#      x y z
#    x 3.769930 0.000000 0.125860 
#    y 0.000000 3.040210 0.000000 
#    z 0.125860 0.000000 3.431630 
# 
# 
# High freq. dielectric constant tensor:
#      x y z
#    x 1.701160 0.000000 0.008190 
#    y 0.000000 1.658890 0.000000 
#    z 0.008190 0.000000 1.696290 
# 
# From -- ./inp_files/145680.got.cif
#   From: 2010.06.25/outbox.cif.g09.slc.cpg/sg12_73_cif.got.tgz:145680.got - 2010.06.28 00:19:55.
