data_PCOD8089208
_publ_section_title
;
Structure prediction by ZEFSAII (Michael W. Deem and Ramdas Pophale) SiO2 
 PCOD8089208
Probable space group: C 2/M
;
_chemical_formula_sum "Si O2"
_cell_formula_units_Z 56
_cell_length_a 10.176147
_cell_length_b 24.396768
_cell_length_c 16.584894
_cell_angle_alpha 90.000000
_cell_angle_beta 130.888154
_cell_angle_gamma 90.000000
_cell_volume 3112.746421
_symmetry_space_group_name_H-M "C 2/M"
_symmetry_group_IT_number 12
_symmetry_cell_setting 'monoclinic'
loop_
_space_group_symop_operation_xyz
x,y,z
-x,y,-z
-x,-y,-z
x,-y,z
1/2+x,1/2+y,z
1/2-x,1/2+y,-z
1/2-x,1/2-y,-z
1/2+x,1/2-y,z
loop_
_atom_site_type_symbol
_atom_site_label
_atom_site_fract_x
_atom_site_fract_y
_atom_site_fract_z
Si Si1 0.553431 0.342510 0.174580
Si Si2 0.164561 0.169573 0.514990
Si Si3 0.729767 0.209973 0.869480
Si Si4 0.760830 0.439495 0.327106
Si Si5 0.411228 0.736216 0.671184
Si Si6 0.343736 0.819182 0.990791
Si Si7 0.843318 0.561664 0.543801
O O1 0.631344 0.330577 0.117042
O O2 0.621116 0.400337 0.231631
O O3 0.624187 0.293036 0.258146
O O4 0.344557 0.347458 0.096214
O O5 0.269493 0.217501 0.600442
O O6 0.105424 0.188914 0.402679
O O7 0.265045 0.111999 0.561505
O O8 0.000000 0.156288 0.500000
O O9 0.600081 0.234830 0.749791
O O10 0.839364 0.256938 0.957742
O O11 0.619628 0.179667 0.897465
O O12 0.705315 0.500000 0.277692
O O13 0.759746 0.434869 0.422437
O O14 0.952785 0.426172 0.373195
O O15 0.500000 0.847768 0.000000
O O16 0.806558 0.500000 0.564387
#
# Coordination Sequence:
#
# PCOD8089208 Si02
#       7
#     8   8   8   8   8   8   8
#     4  11  19  33  56  78 100 138 179 217 261 312
#     4  11  21  32  46  75 112 145 175 209 263 321
#     4  10  19  33  52  74 101 139 179 209 250 312
#     4   9  18  34  56  77  97 130 179 226 263 302
#     4  10  21  32  46  75 111 145 171 214 261 311
#     4  10  20  33  50  76 108 135 167 212 260 321
#     4   9  18  34  53  73 100 136 179 222 258 303
#
# _framework density 17.990542999999999
#
# number of rings (size 3 to 8) (size 9 to 14) (size 15 to 20)
#    0.000    2.000    1.429    5.571    0.000    2.571 
#    0.000    0.000    0.000    2.143    0.000    0.000 
#    0.000    0.000    0.000    0.000    0.000    0.000 
#
# Total GULP energy -346978.090055 kJ/mol
# GULP energy per Si atom -12392.074645 kJ/mol
# Density = 1.794960 g / cm^3
# Si number density = 17.990543 Si / 1000 Ang^3
#
#
#
# Elastic Constant Matrix: (Units=GPa)
#
#
# Indices 1 2 3 4 5 6 
#
# 1 125.8426 56.5114 31.8309 0.0000 16.6547 0.0000
# 2 56.5114 109.2680 30.3498 0.0000 22.1787 0.0000
# 3 31.8309 30.3498 69.8312 0.0000 12.8967 0.0000
# 4 0.0000 0.0000 0.0000 16.5334 0.0000 8.4223
# 5 16.6547 22.1787 12.8967 0.0000 20.5538 0.0000
# 6 0.0000 0.0000 0.0000 8.4223 0.0000 24.6066
#
#
#
# Elastic Compliance Matrix: (Units=1/GPa)
#
#
# Indices 1 2 3 4 5 6 
#
# 1 0.010915 -0.004429 -0.002601 0.000000 -0.002434 0.000000
# 2 -0.004429 0.014148 -0.002232 0.000000 -0.010278 0.000000
# 3 -0.002601 -0.002232 0.017692 0.000000 -0.006585 0.000000
# 4 0.000000 0.000000 0.000000 0.073257 0.000000 -0.025074
# 5 -0.002434 -0.010278 -0.006585 0.000000 0.065846 0.000000
# 6 0.000000 0.000000 0.000000 -0.025074 0.000000 0.049222
#
#
# Mechanical properties :
#
#
# Convention : Reuss Voigt Hill
#
# Bulk Modulus (GPa) = 41.26869 60.25843 50.76356
# Shear Modulus (GPa) = 19.40373 24.75542 22.07957
#
# Velocity S-wave (km/s) = 3.28769 3.71350 3.50707
# Velocity P-wave (km/s) = 6.11562 7.20791 6.68412
#
# Compressibility (1/GPa) = 0.02423145
#
# Stress axis : x y z
#
# Youngs Moduli (GPa) = 91.61505 70.67954 56.52201
#
# Poissons Ratio (x) = 0.31302 0.14703
# Poissons Ratio (y) = 0.40573 0.12617
# Poissons Ratio (z) = 0.23831 0.15778
#
# Static dielectric constant tensor:
#      x y z
#    x 3.368360 0.000000 -0.050790 
#    y 0.000000 3.168210 0.000000 
#    z -0.050790 0.000000 3.389500 
# 
# 
# High freq. dielectric constant tensor:
#      x y z
#    x 1.696090 0.000000 0.003690 
#    y 0.000000 1.669820 0.000000 
#    z 0.003690 0.000000 1.693570 
# 
# From -- ./inp_files/198972.got.cif
#   From: 2010.06.25/outbox.cif.g09.slc.cpg/sg12_100_cif.got.tgz:198972.got - 2010.06.28 00:19:55.
