data_PCOD8089079
_publ_section_title
;
Structure prediction by ZEFSAII (Michael W. Deem and Ramdas Pophale) SiO2 
 PCOD8089079
Probable space group: C 2/M
;
_chemical_formula_sum "Si O2"
_cell_formula_units_Z 56
_cell_length_a 30.208382
_cell_length_b 8.447680
_cell_length_c 16.975279
_cell_angle_alpha 90.000000
_cell_angle_beta 46.515678
_cell_angle_gamma 90.000000
_cell_volume 3143.089792
_symmetry_space_group_name_H-M "C 2/M"
_symmetry_group_IT_number 12
_symmetry_cell_setting 'monoclinic'
loop_
_space_group_symop_operation_xyz
x,y,z
-x,y,-z
-x,-y,-z
x,-y,z
1/2+x,1/2+y,z
1/2-x,1/2+y,-z
1/2-x,1/2-y,-z
1/2+x,1/2-y,z
loop_
_atom_site_type_symbol
_atom_site_label
_atom_site_fract_x
_atom_site_fract_y
_atom_site_fract_z
Si Si1 0.331276 0.314242 0.745142
Si Si2 0.196336 0.688646 0.901812
Si Si3 0.495470 0.684546 0.286262
Si Si4 0.127419 0.684418 0.141744
Si Si5 0.530494 0.812664 0.842010
Si Si6 0.591002 0.187585 0.922933
Si Si7 0.554545 0.687544 0.486955
O O1 0.326652 0.500000 0.738494
O O2 0.264463 0.239773 0.809702
O O3 0.352003 0.283072 0.808367
O O4 0.381089 0.242061 0.623384
O O5 0.197064 0.500000 0.898893
O O6 0.154348 0.754103 0.881306
O O7 0.168107 0.745072 0.019108
O O8 0.511751 0.500000 0.271969
O O9 0.557015 0.785533 0.208246
O O10 0.456251 0.723564 0.256275
O O11 0.455264 0.737738 0.410633
O O12 0.137548 0.500000 0.145837
O O13 0.581946 0.760035 0.842939
O O14 0.531648 0.000000 0.826460
O O15 0.465162 0.753548 0.954669
O O16 0.589865 0.000000 0.927869
O O17 0.500000 0.757677 0.500000
O O18 0.555641 0.500000 0.475714
#
# Coordination Sequence:
#
# PCOD8089079 Si02
#       7
#     8   8   8   8   8   8   8
#     4  10  19  33  51  68  91 126 164 196 227 270
#     4   9  17  29  49  73  95 122 157 191 227 281
#     4  11  20  31  49  70  96 126 158 196 233 272
#     4  11  20  31  47  71 101 125 151 190 237 286
#     4   9  16  29  50  71  95 123 151 190 237 279
#     4   8  14  27  48  72  96 122 150 186 233 282
#     4   9  17  31  48  66  90 123 162 197 227 265
#
# _framework density 17.816863000000001
#
# number of rings (size 3 to 8) (size 9 to 14) (size 15 to 20)
#    0.000    2.429    2.857    2.143    0.000    0.000 
#    0.000    4.286    0.000    0.857    0.000    0.000 
#    0.000    0.000    0.000    0.000    0.000    0.143 
#
# Total GULP energy -347076.606350 kJ/mol
# GULP energy per Si atom -12395.593084 kJ/mol
# Density = 1.777631 g / cm^3
# Si number density = 17.816863 Si / 1000 Ang^3
#
#
#
# Elastic Constant Matrix: (Units=GPa)
#
#
# Indices 1 2 3 4 5 6 
#
# 1 128.9973 3.7861 84.5693 -0.0008 15.3645 0.0005
# 2 3.7861 11.5135 11.5908 0.0141 0.8288 -0.0034
# 3 84.5693 11.5908 149.0148 0.0026 0.4175 -0.0013
# 4 -0.0008 0.0141 0.0026 15.3543 0.0003 6.1926
# 5 15.3645 0.8288 0.4175 0.0003 29.6721 -0.0002
# 6 0.0005 -0.0034 -0.0013 6.1926 -0.0002 20.5711
#
#
#
# Elastic Compliance Matrix: (Units=1/GPa)
#
#
# Indices 1 2 3 4 5 6 
#
# 1 0.013827 0.004175 -0.008152 -0.000002 -0.007162 0.000000
# 2 0.004175 0.095685 -0.009799 -0.000104 -0.004697 0.000046
# 3 -0.008152 -0.009799 0.012087 0.000008 0.004325 -0.000003
# 4 -0.000002 -0.000104 0.000008 0.074128 0.000003 -0.022315
# 5 -0.007162 -0.004697 0.004325 0.000003 0.037480 -0.000001
# 6 0.000000 0.000046 -0.000003 -0.022315 -0.000001 0.055329
#
#
# Mechanical properties :
#
#
# Convention : Reuss Voigt Hill
#
# Bulk Modulus (GPa) = 10.63290 54.37977 32.50634
# Shear Modulus (GPa) = 14.39108 25.75813 20.07461
#
# Velocity S-wave (km/s) = 2.84513 3.80638 3.36031
# Velocity P-wave (km/s) = 4.09559 7.06441 5.77407
#
# Compressibility (1/GPa) = 0.09404774
#
# Stress axis : x y z
#
# Youngs Moduli (GPa) = 72.32385 10.45096 82.73299
#
# Poissons Ratio (x) = -0.04363 0.67441
# Poissons Ratio (y) = -0.30196 0.81070
# Poissons Ratio (z) = 0.58956 0.10241
#
# Static dielectric constant tensor:
#      x y z
#    x 3.650110 0.000000 -0.082700 
#    y 0.000000 2.852520 0.000000 
#    z -0.082700 0.000000 3.482340 
# 
# 
# High freq. dielectric constant tensor:
#      x y z
#    x 1.693410 0.000000 0.008070 
#    y 0.000000 1.650200 0.000000 
#    z 0.008070 0.000000 1.673570 
# 
# From -- ./inp_files/295103.got.cif
#   From: 2010.06.25/outbox.cif.g09.slc.cpg/sg12_148_cif.got.tgz:295103.got - 2010.06.28 00:19:55.
