data_PCOD8089211
_publ_section_title
;
Structure prediction by ZEFSAII (Michael W. Deem and Ramdas Pophale) SiO2 
 PCOD8089211
Probable space group: C 2/M
;
_chemical_formula_sum "Si O2"
_cell_formula_units_Z 56
_cell_length_a 17.936105
_cell_length_b 8.795938
_cell_length_c 19.307440
_cell_angle_alpha 90.000000
_cell_angle_beta 64.725272
_cell_angle_gamma 90.000000
_cell_volume 2754.441641
_symmetry_space_group_name_H-M "C 2/M"
_symmetry_group_IT_number 12
_symmetry_cell_setting 'monoclinic'
loop_
_space_group_symop_operation_xyz
x,y,z
-x,y,-z
-x,-y,-z
x,-y,z
1/2+x,1/2+y,z
1/2-x,1/2+y,-z
1/2-x,1/2-y,-z
1/2+x,1/2-y,z
loop_
_atom_site_type_symbol
_atom_site_label
_atom_site_fract_x
_atom_site_fract_y
_atom_site_fract_z
Si Si1 0.385107 0.818006 0.256814
Si Si2 0.240517 0.821443 0.799753
Si Si3 0.097626 0.671212 0.468065
Si Si4 0.134939 0.672055 0.948144
Si Si5 0.080268 0.821929 0.614757
Si Si6 0.389196 0.322326 0.677329
Si Si7 0.488263 0.829867 0.897068
O O1 0.308935 0.762969 0.241211
O O2 0.375251 0.750234 0.336769
O O3 0.472633 0.756666 0.188365
O O4 0.384402 0.000000 0.258982
O O5 0.209132 0.774802 0.889217
O O6 0.335239 0.768800 0.755145
O O7 0.231530 0.000000 0.794163
O O8 0.132876 0.500000 0.452076
O O9 0.122784 0.749704 0.530215
O O10 0.135862 0.766563 0.389673
O O11 0.000000 0.671385 0.500000
O O12 0.167008 0.500000 0.948320
O O13 0.063198 0.668326 0.920632
O O14 0.093656 0.745708 0.035084
O O15 0.983646 0.782840 0.655904
O O16 0.096391 0.000000 0.606664
O O17 0.370731 0.500000 0.690142
O O18 0.460128 0.000000 0.891373
#
# Coordination Sequence:
#
# PCOD8089211 Si02
#       7
#     8   8   8   8   8   8   8
#     4  10  19  33  52  74 102 134 166 201 247 297
#     4  11  21  32  48  74 105 132 164 206 249 292
#     4   9  17  31  52  76  99 126 163 203 241 287
#     4   8  13  26  46  67  93 126 164 201 242 291
#     4  10  20  34  53  77 102 129 164 204 245 291
#     4  10  20  35  54  74  99 132 167 203 245 292
#     4   7  12  24  45  69  92 124 164 201 238 288
#
# _framework density 20.3308
#
# number of rings (size 3 to 8) (size 9 to 14) (size 15 to 20)
#    0.000    2.714    0.000    4.714    0.000    3.429 
#    0.000    7.143    0.000    0.857    0.000    0.000 
#    0.000    0.000    0.000    0.000    0.000    0.000 
#
# Total GULP energy -346944.622584 kJ/mol
# GULP energy per Si atom -12390.879378 kJ/mol
# Density = 2.028453 g / cm^3
# Si number density = 20.330800 Si / 1000 Ang^3
#
#
#
# Elastic Constant Matrix: (Units=GPa)
#
#
# Indices 1 2 3 4 5 6 
#
# 1 13.2199 4.7387 -13.4711 0.0000 -1.1357 0.0000
# 2 4.7387 65.6553 -0.4286 0.0000 -2.2452 0.0002
# 3 -13.4711 -0.4286 29.9895 0.0000 -13.0053 0.0000
# 4 0.0000 0.0000 0.0000 28.3670 0.0000 0.2231
# 5 -1.1357 -2.2452 -13.0053 0.0000 23.9502 0.0000
# 6 0.0000 0.0002 0.0000 0.2231 0.0000 20.0738
#
#
#
# Elastic Compliance Matrix: (Units=1/GPa)
#
#
# Indices 1 2 3 4 5 6 
#
# 1 0.232062 -0.012859 0.141666 0.000000 0.086725 -0.000001
# 2 -0.012859 0.016020 -0.006750 0.000000 -0.002773 0.000000
# 3 0.141666 -0.006750 0.130178 0.000000 0.076773 -0.000001
# 4 0.000000 0.000000 0.000000 0.035255 0.000000 -0.000392
# 5 0.086725 -0.002773 0.076773 0.000000 0.087294 -0.000001
# 6 -0.000001 0.000000 -0.000001 -0.000392 -0.000001 0.049821
#
#
# Mechanical properties :
#
#
# Convention : Reuss Voigt Hill
#
# Bulk Modulus (GPa) = 1.60674 10.06030 5.83352
# Shear Modulus (GPa) = 9.72814 22.34659 16.03737
#
# Velocity S-wave (km/s) = 2.18982 3.31894 2.81164
# Velocity P-wave (km/s) = 2.68063 4.43240 3.66278
#
# Compressibility (1/GPa) = 0.62237633
#
# Stress axis : x y z
#
# Youngs Moduli (GPa) = 4.30919 62.42101 7.68181
#
# Poissons Ratio (x) = 0.80265 -1.08825
# Poissons Ratio (y) = 0.05541 0.05185
# Poissons Ratio (z) = -0.61047 0.42132
#
# Static dielectric constant tensor:
#      x y z
#    x 3.141960 0.000000 -0.084260 
#    y 0.000000 3.541340 0.000000 
#    z -0.084260 0.000000 4.346780 
# 
# 
# High freq. dielectric constant tensor:
#      x y z
#    x 1.741310 0.000000 -0.009220 
#    y 0.000000 1.780600 0.000000 
#    z -0.009220 0.000000 1.814950 
# 
# From -- ./inp_files/313704.got.cif
#   From: 2010.06.25/outbox.cif.g09.slc.cpg/sg12_157_cif.got.tgz:313704.got - 2010.06.28 00:19:55.
