data_PCOD8089364
_publ_section_title
;
Structure prediction by ZEFSAII (Michael W. Deem and Ramdas Pophale) SiO2 
 PCOD8089364
Probable space group: C 2/M
;
_chemical_formula_sum "Si O2"
_cell_formula_units_Z 56
_cell_length_a 16.069351
_cell_length_b 8.690476
_cell_length_c 25.500287
_cell_angle_alpha 90.000000
_cell_angle_beta 129.660163
_cell_angle_gamma 90.000000
_cell_volume 2741.507352
_symmetry_space_group_name_H-M "C 2/M"
_symmetry_group_IT_number 12
_symmetry_cell_setting 'monoclinic'
loop_
_space_group_symop_operation_xyz
x,y,z
-x,y,-z
-x,-y,-z
x,-y,z
1/2+x,1/2+y,z
1/2-x,1/2+y,-z
1/2-x,1/2-y,-z
1/2+x,1/2-y,z
loop_
_atom_site_type_symbol
_atom_site_label
_atom_site_fract_x
_atom_site_fract_y
_atom_site_fract_z
Si Si1 0.563240 0.318944 0.659015
Si Si2 0.319321 0.317780 0.574453
Si Si3 0.653065 0.320503 0.067325
Si Si4 0.948692 0.681239 0.791107
Si Si5 0.975400 0.681076 0.067600
Si Si6 0.237489 0.180980 0.649007
Si Si7 0.629361 0.820833 0.788235
O O1 0.558252 0.500000 0.659526
O O2 0.441777 0.251268 0.616548
O O3 0.620928 0.271000 0.626983
O O4 0.640396 0.263730 0.737227
O O5 0.320451 0.500000 0.570981
O O6 0.250000 0.250000 0.500000
O O7 0.262731 0.270422 0.605940
O O8 0.625347 0.500000 0.063784
O O9 0.576909 0.213788 0.071517
O O10 0.774502 0.282854 0.132948
O O11 0.630742 0.269354 0.997939
O O12 0.962574 0.500000 0.801634
O O13 0.825689 0.726576 0.728765
O O14 0.991964 0.752518 0.862850
O O15 0.021190 0.742365 0.772311
O O16 0.951149 0.500000 0.060498
O O17 0.242297 0.000000 0.638168
O O18 0.623172 0.000000 0.773253
#
# Coordination Sequence:
#
# PCOD8089364 Si02
#       7
#     8   8   8   8   8   8   8
#     4  10  22  39  62  92 121 153 197 246 289 340
#     4  11  24  42  63  92 126 156 193 238 287 344
#     4  10  20  33  49  74 109 144 185 240 297 347
#     4   9  18  33  55  81 108 144 191 236 285 345
#     4  10  19  33  53  74 102 145 196 241 286 347
#     4  10  20  39  65  88 118 158 196 239 293 345
#     4  10  20  35  56  81 112 151 192 238 294 353
#
# _framework density 20.426718000000001
#
# number of rings (size 3 to 8) (size 9 to 14) (size 15 to 20)
#    0.000    2.000    1.429    3.000    0.000    4.571 
#    0.000    5.714    0.000    0.000    0.000    0.000 
#    0.000    0.000    0.000    0.000    0.000    0.000 
#
# Total GULP energy -347075.437702 kJ/mol
# GULP energy per Si atom -12395.551347 kJ/mol
# Density = 2.038023 g / cm^3
# Si number density = 20.426718 Si / 1000 Ang^3
#
#
#
# Elastic Constant Matrix: (Units=GPa)
#
#
# Indices 1 2 3 4 5 6 
#
# 1 122.3395 29.5183 59.1921 0.0000 -4.9371 0.0000
# 2 29.5183 36.1475 34.0619 0.0000 -0.6949 0.0000
# 3 59.1921 34.0619 140.3971 0.0000 -9.8110 0.0000
# 4 0.0000 0.0000 0.0000 33.8111 0.0000 -1.9173
# 5 -4.9371 -0.6949 -9.8110 0.0000 30.5570 0.0000
# 6 0.0000 0.0000 0.0000 -1.9173 0.0000 23.4243
#
#
#
# Elastic Compliance Matrix: (Units=1/GPa)
#
#
# Indices 1 2 3 4 5 6 
#
# 1 0.011230 -0.006144 -0.003199 0.000000 0.000648 0.000000
# 2 -0.006144 0.039347 -0.007122 0.000000 -0.002385 0.000000
# 3 -0.003199 -0.007122 0.010385 0.000000 0.002655 0.000000
# 4 0.000000 0.000000 0.000000 0.029714 0.000000 0.002432
# 5 0.000648 -0.002385 0.002655 0.000000 0.033629 0.000000
# 6 0.000000 0.000000 0.000000 0.002432 0.000000 0.042890
#
#
# Mechanical properties :
#
#
# Convention : Reuss Voigt Hill
#
# Bulk Modulus (GPa) = 35.67369 60.49209 48.08289
# Shear Modulus (GPa) = 23.86984 29.29926 26.58455
#
# Velocity S-wave (km/s) = 3.42213 3.79140 3.61149
# Velocity P-wave (km/s) = 5.75472 6.98891 6.40162
#
# Compressibility (1/GPa) = 0.02803186
#
# Stress axis : x y z
#
# Youngs Moduli (GPa) = 89.04510 25.41476 96.29402
#
# Poissons Ratio (x) = 0.15615 0.30803
# Poissons Ratio (y) = 0.54709 0.68584
# Poissons Ratio (z) = 0.28484 0.18101
#
# Static dielectric constant tensor:
#      x y z
#    x 5.827620 0.000000 -2.238520 
#    y 0.000000 3.452650 0.000000 
#    z -2.238520 0.000000 6.828290 
# 
# 
# High freq. dielectric constant tensor:
#      x y z
#    x 1.798510 0.000000 0.000190 
#    y 0.000000 1.775240 0.000000 
#    z 0.000190 0.000000 1.808250 
# 
# From -- ./inp_files/342574.got.cif
#   From: 2010.06.25/outbox.cif.g09.slc.cpg/sg12_172_cif.got.tgz:342574.got - 2010.06.28 00:19:55.
