data_PCOD8089103
_publ_section_title
;
Structure prediction by ZEFSAII (Michael W. Deem and Ramdas Pophale) SiO2 
 PCOD8089103
Probable space group: C 2/M
;
_chemical_formula_sum "Si O2"
_cell_formula_units_Z 56
_cell_length_a 29.633307
_cell_length_b 8.825856
_cell_length_c 18.862324
_cell_angle_alpha 90.000000
_cell_angle_beta 141.435875
_cell_angle_gamma 90.000000
_cell_volume 3075.332544
_symmetry_space_group_name_H-M "C 2/M"
_symmetry_group_IT_number 12
_symmetry_cell_setting 'monoclinic'
loop_
_space_group_symop_operation_xyz
x,y,z
-x,y,-z
-x,-y,-z
x,-y,z
1/2+x,1/2+y,z
1/2-x,1/2+y,-z
1/2-x,1/2-y,-z
1/2+x,1/2-y,z
loop_
_atom_site_type_symbol
_atom_site_label
_atom_site_fract_x
_atom_site_fract_y
_atom_site_fract_z
Si Si1 0.811568 0.674947 0.529921
Si Si2 0.125491 0.823202 0.778270
Si Si3 0.467262 0.322103 0.575233
Si Si4 0.613228 0.320066 0.924265
Si Si5 0.529388 0.822993 0.267664
Si Si6 0.252600 0.180621 0.835703
Si Si7 0.175462 0.320378 0.615621
O O1 0.793227 0.500000 0.504075
O O2 0.750000 0.750000 0.500000
O O3 0.889649 0.702869 0.664090
O O4 0.811511 0.736120 0.448959
O O5 0.126411 0.759737 0.859989
O O6 0.190772 0.752717 0.812761
O O7 0.048247 0.792874 0.643558
O O8 0.139006 0.000000 0.801228
O O9 0.451244 0.500000 0.560642
O O10 0.468398 0.247315 0.652646
O O11 0.402563 0.242713 0.451991
O O12 0.618079 0.500000 0.936512
O O13 0.533636 0.264151 0.852985
O O14 0.670396 0.241882 0.045574
O O15 0.510615 0.000000 0.248610
O O16 0.238176 0.247064 0.740107
O O17 0.252813 0.000000 0.833241
O O18 0.175963 0.500000 0.623251
#
# Coordination Sequence:
#
# PCOD8089103 Si02
#       7
#     8   8   8   8   8   8   8
#     4   9  19  34  56  81 104 125 153 195 244 297
#     4   8  17  31  48  71  98 129 173 217 252 285
#     4   9  16  30  50  71  96 130 168 209 250 293
#     4  10  19  33  51  72  99 135 174 213 248 287
#     4   9  17  31  50  76 104 130 160 200 244 292
#     4  11  21  33  49  70  98 137 175 212 251 291
#     4  10  21  36  49  71 104 134 163 201 249 304
#
# _framework density 18.209413999999999
#
# number of rings (size 3 to 8) (size 9 to 14) (size 15 to 20)
#    0.000    2.571    0.000    4.286    0.000    4.000 
#    0.000   10.714    0.000    0.857    0.000    6.000 
#    0.000    0.000    0.000    0.000    0.000    0.000 
#
# Total GULP energy -346980.274021 kJ/mol
# GULP energy per Si atom -12392.152644 kJ/mol
# Density = 1.816797 g / cm^3
# Si number density = 18.209414 Si / 1000 Ang^3
#
#
#
# Elastic Constant Matrix: (Units=GPa)
#
#
# Indices 1 2 3 4 5 6 
#
# 1 79.4159 36.3428 57.2592 0.0000 19.1598 0.0000
# 2 36.3428 81.5516 47.6782 0.0000 9.4991 0.0000
# 3 57.2592 47.6782 133.8488 0.0000 15.9913 0.0000
# 4 0.0000 0.0000 0.0000 35.6951 0.0000 4.8992
# 5 19.1598 9.4991 15.9913 0.0000 21.7879 0.0000
# 6 0.0000 0.0000 0.0000 4.8992 0.0000 20.8698
#
#
#
# Elastic Compliance Matrix: (Units=1/GPa)
#
#
# Indices 1 2 3 4 5 6 
#
# 1 0.022526 -0.004795 -0.006370 0.000000 -0.013043 0.000000
# 2 -0.004795 0.016685 -0.003866 0.000000 -0.000220 0.000000
# 3 -0.006370 -0.003866 0.011731 0.000000 -0.001323 0.000000
# 4 0.000000 0.000000 0.000000 0.028948 0.000000 -0.006795
# 5 -0.013043 -0.000220 -0.001323 0.000000 0.058434 0.000000
# 6 0.000000 0.000000 0.000000 -0.006795 0.000000 0.049511
#
#
# Mechanical properties :
#
#
# Convention : Reuss Voigt Hill
#
# Bulk Modulus (GPa) = 47.89202 64.15297 56.02249
# Shear Modulus (GPa) = 22.23645 25.90631 24.07138
#
# Velocity S-wave (km/s) = 3.49829 3.77595 3.63977
# Velocity P-wave (km/s) = 6.53262 7.37004 6.96393
#
# Compressibility (1/GPa) = 0.02088031
#
# Stress axis : x y z
#
# Youngs Moduli (GPa) = 44.39353 59.93508 85.24279
#
# Poissons Ratio (x) = 0.28739 0.54300
# Poissons Ratio (y) = 0.21287 0.32952
# Poissons Ratio (z) = 0.28279 0.23169
#
# Static dielectric constant tensor:
#      x y z
#    x 3.482130 0.000000 0.396590 
#    y 0.000000 3.350410 0.000000 
#    z 0.396590 0.000000 3.628450 
# 
# 
# High freq. dielectric constant tensor:
#      x y z
#    x 1.670580 0.000000 0.025240 
#    y 0.000000 1.705790 0.000000 
#    z 0.025240 0.000000 1.709640 
# 
# From -- ./inp_files/281678.got.cif
#   From: 2010.06.25/outbox.cif.g09.slc.cpg/sg12_141_cif.got.tgz:281678.got - 2010.06.28 00:19:55.
