data_PCOD8089543
_publ_section_title
;
Structure prediction by ZEFSAII (Michael W. Deem and Ramdas Pophale) SiO2 
 PCOD8089543
Probable space group: C 2/M
;
_chemical_formula_sum "Si O2"
_cell_formula_units_Z 64
_cell_length_a 24.822730
_cell_length_b 9.092811
_cell_length_c 14.615198
_cell_angle_alpha 90.000000
_cell_angle_beta 91.775350
_cell_angle_gamma 90.000000
_cell_volume 3297.189373
_symmetry_space_group_name_H-M "C 2/M"
_symmetry_group_IT_number 12
_symmetry_cell_setting 'monoclinic'
loop_
_space_group_symop_operation_xyz
x,y,z
-x,y,-z
-x,-y,-z
x,-y,z
1/2+x,1/2+y,z
1/2-x,1/2+y,-z
1/2-x,1/2-y,-z
1/2+x,1/2-y,z
loop_
_atom_site_type_symbol
_atom_site_label
_atom_site_fract_x
_atom_site_fract_y
_atom_site_fract_z
Si Si1 0.666510 0.830442 0.994742
Si Si2 0.559852 0.328025 0.477940
Si Si3 0.806679 0.675211 0.205699
Si Si4 0.092052 0.673444 0.294978
Si Si5 0.606866 0.334710 0.668524
Si Si6 0.050938 0.337691 0.939621
Si Si7 0.800773 0.675058 0.807538
Si Si8 0.993142 0.834932 0.219721
O O1 0.684294 0.763080 0.897603
O O2 0.602800 0.804320 0.004178
O O3 0.681930 0.000000 0.993813
O O4 0.693419 0.762200 0.087455
O O5 0.500000 0.267951 0.500000
O O6 0.555572 0.500000 0.453484
O O7 0.585387 0.246026 0.393149
O O8 0.603517 0.298080 0.560681
O O9 0.803451 0.500000 0.208375
O O10 0.855198 0.722576 0.274999
O O11 0.751304 0.746665 0.239137
O O12 0.088109 0.500000 0.304853
O O13 0.148283 0.720867 0.251539
O O14 0.043921 0.727131 0.226914
O O15 0.628713 0.500000 0.687181
O O16 0.543793 0.325187 0.692571
O O17 0.057437 0.500000 0.894207
O O18 0.046486 0.213493 0.863371
O O19 0.000000 0.332496 0.000000
O O20 0.793692 0.500000 0.806862
O O21 0.014072 0.000000 0.204010
#
# Coordination Sequence:
#
# PCOD8089543 Si02
#       8
#     8   8   8   8   8   8   8   8
#     4   9  18  34  56  83 114 151 195 239 283 340
#     4  10  20  39  63  88 119 153 190 235 293 355
#     4  11  22  37  60  88 116 149 199 252 286 329
#     4  11  23  38  60  89 119 154 195 241 293 351
#     4  10  21  38  60  85 116 154 188 229 293 353
#     4  10  19  33  53  79 117 159 194 235 293 351
#     4  10  22  41  60  81 116 158 197 236 291 353
#     4  11  21  35  56  83 118 155 193 236 286 348
#
# _framework density 19.410471999999999
#
# number of rings (size 3 to 8) (size 9 to 14) (size 15 to 20)
#    0.000    1.750    2.500    2.250    0.000    4.500 
#    0.000    1.875    0.000    0.000    0.000    0.000 
#    0.000    0.000    0.000    0.000    0.000    0.000 
#
# Total GULP energy -396711.313196 kJ/mol
# GULP energy per Si atom -12397.228537 kJ/mol
# Density = 1.936629 g / cm^3
# Si number density = 19.410472 Si / 1000 Ang^3
#
#
#
# Elastic Constant Matrix: (Units=GPa)
#
#
# Indices 1 2 3 4 5 6 
#
# 1 107.4019 37.8542 30.6073 0.0000 3.5992 0.0000
# 2 37.8542 65.0589 38.3773 0.0000 -0.2388 0.0000
# 3 30.6073 38.3773 86.5163 0.0000 3.4172 0.0000
# 4 0.0000 0.0000 0.0000 4.8107 0.0000 -6.8168
# 5 3.5992 -0.2388 3.4172 0.0000 18.4640 0.0000
# 6 0.0000 0.0000 0.0000 -6.8168 0.0000 25.8028
#
#
#
# Elastic Compliance Matrix: (Units=1/GPa)
#
#
# Indices 1 2 3 4 5 6 
#
# 1 0.011945 -0.006115 -0.001429 0.000000 -0.002143 0.000000
# 2 -0.006115 0.024022 -0.008615 0.000000 0.003097 0.000000
# 3 -0.001429 -0.008615 0.015996 0.000000 -0.002793 0.000000
# 4 0.000000 0.000000 0.000000 0.332257 0.000000 0.087779
# 5 -0.002143 0.003097 -0.002793 0.000000 0.055134 0.000000
# 6 0.000000 0.000000 0.000000 0.087779 0.000000 0.061946
#
#
# Mechanical properties :
#
#
# Convention : Reuss Voigt Hill
#
# Bulk Modulus (GPa) = 50.90231 52.51720 51.70975
# Shear Modulus (GPa) = 9.25643 19.95804 14.60723
#
# Velocity S-wave (km/s) = 2.18612 3.21005 2.74623
# Velocity P-wave (km/s) = 5.71430 6.39172 6.06248
#
# Compressibility (1/GPa) = 0.01964547
#
# Stress axis : x y z
#
# Youngs Moduli (GPa) = 83.71597 41.62872 62.51748
#
# Poissons Ratio (x) = 0.25458 0.08931
# Poissons Ratio (y) = 0.51196 0.53856
# Poissons Ratio (z) = 0.11959 0.35861
#
# Static dielectric constant tensor:
#      x y z
#    x 3.551400 0.000000 -0.002860 
#    y 0.000000 3.414580 0.000000 
#    z -0.002860 0.000000 3.731610 
# 
# 
# High freq. dielectric constant tensor:
#      x y z
#    x 1.756640 0.000000 0.004840 
#    y 0.000000 1.740770 0.000000 
#    z 0.004840 0.000000 1.753710 
# 
# From -- ./inp_files/238562.got.cif
#   From: 2010.06.25/outbox.cif.g09.slc.cpg/sg12_120_cif.got.tgz:238562.got - 2010.06.28 00:19:55.
