data_PCOD8089184
_publ_section_title
;
Structure prediction by ZEFSAII (Michael W. Deem and Ramdas Pophale) SiO2 
 PCOD8089184
Probable space group: C 2/M
;
_chemical_formula_sum "Si O2"
_cell_formula_units_Z 56
_cell_length_a 17.092832
_cell_length_b 17.032658
_cell_length_c 14.566029
_cell_angle_alpha 90.000000
_cell_angle_beta 131.375770
_cell_angle_gamma 90.000000
_cell_volume 3182.182217
_symmetry_space_group_name_H-M "C 2/M"
_symmetry_group_IT_number 12
_symmetry_cell_setting 'monoclinic'
loop_
_space_group_symop_operation_xyz
x,y,z
-x,y,-z
-x,-y,-z
x,-y,z
1/2+x,1/2+y,z
1/2-x,1/2+y,-z
1/2-x,1/2-y,-z
1/2+x,1/2-y,z
loop_
_atom_site_type_symbol
_atom_site_label
_atom_site_fract_x
_atom_site_fract_y
_atom_site_fract_z
Si Si1 0.622730 0.224420 0.577025
Si Si2 0.253914 0.154022 0.772974
Si Si3 0.298092 0.090822 0.467333
Si Si4 0.407428 0.847482 0.725724
Si Si5 0.394342 0.688561 0.620348
Si Si6 0.579586 0.088324 0.978769
Si Si7 0.457172 0.412218 0.370081
O O1 0.500000 0.227285 0.500000
O O2 0.690391 0.263439 0.712266
O O3 0.658724 0.134611 0.590418
O O4 0.654087 0.270144 0.507548
O O5 0.321333 0.134136 0.735734
O O6 0.167464 0.086750 0.720361
O O7 0.327260 0.148415 0.920033
O O8 0.378966 0.103844 0.613080
O O9 0.185132 0.123786 0.405344
O O10 0.288206 0.000000 0.435240
O O11 0.415455 0.754095 0.713830
O O12 0.521750 0.876364 0.845231
O O13 0.501625 0.643813 0.679100
O O14 0.621289 0.000000 0.989843
O O15 0.500000 0.083489 0.000000
O O16 0.500000 0.378067 0.500000
O O17 0.499018 0.500000 0.386397
#
# Coordination Sequence:
#
# PCOD8089184 Si02
#       7
#     8   8   8   8   8   8   8
#     4  11  19  34  52  73 103 132 170 207 248 304
#     4  11  17  33  51  72 101 136 162 207 253 292
#     4  11  21  32  52  76 102 134 163 206 257 294
#     4  10  19  33  52  73 103 134 167 204 250 301
#     4  11  18  33  51  75 103 132 163 205 252 309
#     4   9  19  31  48  76 104 132 170 208 246 297
#     4  11  20  29  48  78 106 133 163 205 260 302
#
# _framework density 17.597987
#
# number of rings (size 3 to 8) (size 9 to 14) (size 15 to 20)
#    0.000    1.429    5.714    2.143    0.000    3.143 
#    0.000    0.714    0.000    0.000    0.000    3.000 
#    0.000    0.000    0.000    0.000    0.000    0.000 
#
# Total GULP energy -347106.192324 kJ/mol
# GULP energy per Si atom -12396.649726 kJ/mol
# Density = 1.755793 g / cm^3
# Si number density = 17.597987 Si / 1000 Ang^3
#
#
#
# Elastic Constant Matrix: (Units=GPa)
#
#
# Indices 1 2 3 4 5 6 
#
# 1 57.8752 39.4628 31.3896 0.0000 16.9016 0.0000
# 2 39.4628 135.3929 48.5430 0.0000 7.3672 0.0000
# 3 31.3896 48.5430 110.2887 0.0000 17.8228 0.0000
# 4 0.0000 0.0000 0.0000 20.8290 0.0000 3.3332
# 5 16.9016 7.3672 17.8228 0.0000 19.2414 0.0000
# 6 0.0000 0.0000 0.0000 3.3332 0.0000 21.9138
#
#
#
# Elastic Compliance Matrix: (Units=1/GPa)
#
#
# Indices 1 2 3 4 5 6 
#
# 1 0.029016 -0.006615 -0.001925 0.000000 -0.021171 0.000000
# 2 -0.006615 0.010279 -0.003463 0.000000 0.005082 0.000000
# 3 -0.001925 -0.003463 0.012527 0.000000 -0.008586 0.000000
# 4 0.000000 0.000000 0.000000 0.049208 0.000000 -0.007485
# 5 -0.021171 0.005082 -0.008586 0.000000 0.076575 0.000000
# 6 0.000000 0.000000 0.000000 -0.007485 0.000000 0.046772
#
#
# Mechanical properties :
#
#
# Convention : Reuss Voigt Hill
#
# Bulk Modulus (GPa) = 35.95140 60.26085 48.10612
# Shear Modulus (GPa) = 19.40578 24.67427 22.04003
#
# Velocity S-wave (km/s) = 3.32434 3.74853 3.54279
# Velocity P-wave (km/s) = 5.93368 7.28373 6.64309
#
# Compressibility (1/GPa) = 0.02781533
#
# Stress axis : x y z
#
# Youngs Moduli (GPa) = 34.46359 97.28617 79.82879
#
# Poissons Ratio (x) = 0.64354 0.15371
# Poissons Ratio (y) = 0.22797 0.27644
# Poissons Ratio (z) = 0.06636 0.33689
#
# Static dielectric constant tensor:
#      x y z
#    x 3.160900 0.000000 0.134690 
#    y 0.000000 3.333270 0.000000 
#    z 0.134690 0.000000 3.270550 
# 
# 
# High freq. dielectric constant tensor:
#      x y z
#    x 1.665820 0.000000 0.023770 
#    y 0.000000 1.679990 0.000000 
#    z 0.023770 0.000000 1.651960 
# 
# From -- ./inp_files/157975.got.cif
#   From: 2010.06.25/outbox.cif.g09.slc.cpg/sg12_79_cif.got.tgz:157975.got - 2010.06.28 00:19:55.
