data_PCOD8089286
_publ_section_title
;
Structure prediction by ZEFSAII (Michael W. Deem and Ramdas Pophale) SiO2 
 PCOD8089286
Probable space group: C 2/M
;
_chemical_formula_sum "Si O2"
_cell_formula_units_Z 64
_cell_length_a 32.141534
_cell_length_b 9.068455
_cell_length_c 24.574890
_cell_angle_alpha 90.000000
_cell_angle_beta 26.935924
_cell_angle_gamma 90.000000
_cell_volume 3244.768480
_symmetry_space_group_name_H-M "C 2/M"
_symmetry_group_IT_number 12
_symmetry_cell_setting 'monoclinic'
loop_
_space_group_symop_operation_xyz
x,y,z
-x,y,-z
-x,-y,-z
x,-y,z
1/2+x,1/2+y,z
1/2-x,1/2+y,-z
1/2-x,1/2-y,-z
1/2+x,1/2-y,z
loop_
_atom_site_type_symbol
_atom_site_label
_atom_site_fract_x
_atom_site_fract_y
_atom_site_fract_z
Si Si1 0.885202 0.326088 0.490532
Si Si2 0.772802 0.826741 0.825193
Si Si3 0.318584 0.171552 0.959668
Si Si4 0.974394 0.327025 0.274743
Si Si5 0.534182 0.329906 0.827948
Si Si6 0.877407 0.674644 0.080214
Si Si7 0.975540 0.171068 0.590772
Si Si8 0.178497 0.169051 0.749985
O O1 0.894484 0.500000 0.486257
O O2 0.954287 0.254081 0.452369
O O3 0.782205 0.271100 0.623092
O O4 0.908640 0.280862 0.401142
O O5 0.704697 0.776306 0.952304
O O6 0.722563 0.781015 0.827783
O O7 0.873736 0.757106 0.715832
O O8 0.788198 0.000000 0.806997
O O9 0.302043 0.000000 0.971474
O O10 0.250000 0.250000 0.000000
O O11 0.422969 0.216063 0.825887
O O12 0.968371 0.500000 0.267768
O O13 0.946611 0.237120 0.253727
O O14 0.504458 0.500000 0.857025
O O15 0.629623 0.314415 0.748931
O O16 0.455863 0.243431 0.951460
O O17 0.892845 0.500000 0.062911
O O18 0.879326 0.736533 0.138996
O O19 0.000000 0.195585 0.500000
O O20 0.979064 0.000000 0.603052
O O21 0.177927 0.000000 0.770363
#
# Coordination Sequence:
#
# PCOD8089286 Si02
#       8
#     8   8   8   8   8   8   8   8
#     4  10  22  40  60  83 117 158 197 242 293 344
#     4   9  18  33  53  78 112 147 179 228 288 337
#     4  10  19  33  52  77 109 143 183 231 279 333
#     4  10  21  39  60  83 116 154 196 245 290 341
#     4  11  23  39  60  86 118 154 192 241 300 353
#     4  11  21  38  63  89 117 151 194 241 292 352
#     4  10  20  35  56  83 116 153 194 239 288 345
#     4  10  23  41  58  83 119 155 192 241 300 352
#
# _framework density 19.724057999999999
#
# number of rings (size 3 to 8) (size 9 to 14) (size 15 to 20)
#    0.000    1.875    1.250    2.625    0.000    5.750 
#    0.000    1.250    0.000    0.000    0.000    0.000 
#    0.000    0.000    0.000    0.000    0.000    0.000 
#
# Total GULP energy -396814.824564 kJ/mol
# GULP energy per Si atom -12400.463268 kJ/mol
# Density = 1.967917 g / cm^3
# Si number density = 19.724058 Si / 1000 Ang^3
#
#
#
# Elastic Constant Matrix: (Units=GPa)
#
#
# Indices 1 2 3 4 5 6 
#
# 1 114.8105 46.5622 31.2355 -0.0030 0.5803 0.0109
# 2 46.5622 64.4224 34.0310 -0.0019 3.2042 0.0098
# 3 31.2355 34.0310 98.0456 -0.0008 -0.1546 0.0151
# 4 -0.0030 -0.0019 -0.0008 20.1761 -0.0012 -2.4098
# 5 0.5803 3.2042 -0.1546 -0.0012 30.1214 0.0045
# 6 0.0109 0.0098 0.0151 -2.4098 0.0045 36.2913
#
#
#
# Elastic Compliance Matrix: (Units=1/GPa)
#
#
# Indices 1 2 3 4 5 6 
#
# 1 0.012419 -0.008473 -0.001015 0.000001 0.000657 -0.000001
# 2 -0.008473 0.024916 -0.005953 0.000001 -0.002518 -0.000001
# 3 -0.001015 -0.005953 0.012590 -0.000001 0.000717 -0.000003
# 4 0.000001 0.000001 -0.000001 0.049960 0.000001 0.003317
# 5 0.000657 -0.002518 0.000717 0.000001 0.033458 -0.000004
# 6 -0.000001 -0.000001 -0.000003 0.003317 -0.000004 0.027775
#
#
# Mechanical properties :
#
#
# Convention : Reuss Voigt Hill
#
# Bulk Modulus (GPa) = 52.50844 55.65953 54.08398
# Shear Modulus (GPa) = 25.20845 28.34775 26.77810
#
# Velocity S-wave (km/s) = 3.57887 3.79518 3.68861
# Velocity P-wave (km/s) = 6.61491 6.89093 6.75433
#
# Compressibility (1/GPa) = 0.01904456
#
# Stress axis : x y z
#
# Youngs Moduli (GPa) = 80.52283 40.13467 79.42856
#
# Poissons Ratio (x) = 0.34004 0.08059
# Poissons Ratio (y) = 0.68224 0.47284
# Poissons Ratio (z) = 0.08170 0.23892
#
# Static dielectric constant tensor:
#      x y z
#    x 3.655040 -0.000010 -0.031880 
#    y -0.000010 3.468230 0.000060 
#    z -0.031880 0.000060 3.852640 
# 
# 
# High freq. dielectric constant tensor:
#      x y z
#    x 1.780650 0.000000 -0.002530 
#    y 0.000000 1.750630 0.000000 
#    z -0.002530 0.000000 1.778030 
# 
# From -- ./inp_files/353287.got.cif
#   From: 2010.06.25/outbox.cif.g09.slc.cpg/sg12_177_cif.got.tgz:353287.got - 2010.06.28 00:19:55.
