data_PCOD8089370
_publ_section_title
;
Structure prediction by ZEFSAII (Michael W. Deem and Ramdas Pophale) SiO2 
 PCOD8089370
Probable space group: C 2/M
;
_chemical_formula_sum "Si O2"
_cell_formula_units_Z 64
_cell_length_a 14.273305
_cell_length_b 9.594304
_cell_length_c 29.850593
_cell_angle_alpha 90.000000
_cell_angle_beta 121.217057
_cell_angle_gamma 90.000000
_cell_volume 3495.938287
_symmetry_space_group_name_H-M "C 2/M"
_symmetry_group_IT_number 12
_symmetry_cell_setting 'monoclinic'
loop_
_space_group_symop_operation_xyz
x,y,z
-x,y,-z
-x,-y,-z
x,-y,z
1/2+x,1/2+y,z
1/2-x,1/2+y,-z
1/2-x,1/2-y,-z
1/2+x,1/2-y,z
loop_
_atom_site_type_symbol
_atom_site_label
_atom_site_fract_x
_atom_site_fract_y
_atom_site_fract_z
Si Si1 0.037765 0.842553 0.908105
Si Si2 0.210752 0.842245 0.880641
Si Si3 0.768577 0.661204 0.288077
Si Si4 0.884869 0.342890 0.995431
Si Si5 0.790473 0.661803 0.644160
Si Si6 0.485225 0.161692 0.626795
Si Si7 0.544475 0.661396 0.559025
Si Si8 0.794897 0.836042 0.826757
O O1 0.089746 0.837205 0.871515
O O2 0.111459 0.751335 0.959569
O O3 0.914728 0.786635 0.872503
O O4 0.037863 0.000000 0.926787
O O5 0.208961 0.745283 0.836526
O O6 0.243484 0.000000 0.875097
O O7 0.295338 0.783871 0.938767
O O8 0.743148 0.500000 0.291570
O O9 0.703552 0.750754 0.308663
O O10 0.723844 0.708524 0.228926
O O11 0.898649 0.689927 0.320580
O O12 0.853659 0.500000 0.002247
O O13 0.000000 0.337066 0.000000
O O14 0.804609 0.500000 0.660094
O O15 0.887935 0.711262 0.635549
O O16 0.674373 0.690978 0.591571
O O17 0.479349 0.249862 0.579807
O O18 0.470431 0.000000 0.610550
O O19 0.500000 0.708839 0.500000
O O20 0.518989 0.500000 0.562248
O O21 0.776562 0.000000 0.828170
#
# Coordination Sequence:
#
# PCOD8089370 Si02
#       8
#     8   8   8   8   8   8   8   8
#     4  10  21  35  52  74  99 127 160 197 240 291
#     4  10  21  36  52  73 100 128 159 197 241 291
#     4   9  19  35  52  71  98 129 163 205 249 290
#     4  10  19  33  53  74  98 127 159 196 238 287
#     4   9  18  33  52  74  99 130 169 206 243 289
#     4   9  18  33  52  73  99 132 169 207 244 287
#     4   9  18  32  49  73 106 137 165 202 246 290
#     4  10  21  36  52  73 100 128 160 201 247 293
#
# _framework density 18.30696
#
# number of rings (size 3 to 8) (size 9 to 14) (size 15 to 20)
#    0.000    2.500    1.250    0.375    0.000    4.000 
#    0.000    0.000    0.000    0.000    0.000    0.000 
#    0.000    0.000    0.000    0.000    0.000    0.000 
#
# Total GULP energy -396861.978510 kJ/mol
# GULP energy per Si atom -12401.936828 kJ/mol
# Density = 1.826529 g / cm^3
# Si number density = 18.306960 Si / 1000 Ang^3
#
#
#
# Elastic Constant Matrix: (Units=GPa)
#
#
# Indices 1 2 3 4 5 6 
#
# 1 105.0313 44.4509 35.4342 0.0000 -22.7288 0.0000
# 2 44.4509 65.5612 54.9342 0.0000 -20.1082 0.0000
# 3 35.4342 54.9342 106.0720 0.0000 -25.9817 0.0000
# 4 0.0000 0.0000 0.0000 31.3655 0.0000 -9.9114
# 5 -22.7288 -20.1082 -25.9817 0.0000 23.3483 0.0000
# 6 0.0000 0.0000 0.0000 -9.9114 0.0000 30.2299
#
#
#
# Elastic Compliance Matrix: (Units=1/GPa)
#
#
# Indices 1 2 3 4 5 6 
#
# 1 0.014435 -0.008616 0.001738 0.000000 0.008565 0.000000
# 2 -0.008616 0.034124 -0.013266 0.000000 0.006238 0.000000
# 3 0.001738 -0.013266 0.018329 0.000000 0.010664 0.000000
# 4 0.000000 0.000000 0.000000 0.035567 0.000000 0.011661
# 5 0.008565 0.006238 0.010664 0.000000 0.068407 0.000000
# 6 0.000000 0.000000 0.000000 0.011661 0.000000 0.036903
#
#
# Mechanical properties :
#
#
# Convention : Reuss Voigt Hill
#
# Bulk Modulus (GPa) = 37.59434 60.70035 49.14734
# Shear Modulus (GPa) = 19.46128 26.44510 22.95319
#
# Velocity S-wave (km/s) = 3.26399 3.80483 3.54474
# Velocity P-wave (km/s) = 5.89788 7.24785 6.60743
#
# Compressibility (1/GPa) = 0.02659975
#
# Stress axis : x y z
#
# Youngs Moduli (GPa) = 69.27802 29.30474 54.55706
#
# Poissons Ratio (x) = 0.25250 -0.09484
# Poissons Ratio (y) = 0.59692 0.72377
# Poissons Ratio (z) = -0.12043 0.38877
#
# Static dielectric constant tensor:
#      x y z
#    x 3.393810 0.000000 0.038030 
#    y 0.000000 3.355150 0.000000 
#    z 0.038030 0.000000 3.295150 
# 
# 
# High freq. dielectric constant tensor:
#      x y z
#    x 1.713500 0.000000 0.000060 
#    y 0.000000 1.703860 0.000000 
#    z 0.000060 0.000000 1.700950 
# 
# From -- ./inp_files/359854.got.cif
#   From: 2010.06.25/outbox.cif.g09.slc.cpg/sg12_180_cif.got.tgz:359854.got - 2010.06.28 00:19:55.
