data_PCOD8089567
_publ_section_title
;
Structure prediction by ZEFSAII (Michael W. Deem and Ramdas Pophale) SiO2 
 PCOD8089567
Probable space group: C 2/M
;
_chemical_formula_sum "Si O2"
_cell_formula_units_Z 56
_cell_length_a 20.732768
_cell_length_b 8.709251
_cell_length_c 23.078703
_cell_angle_alpha 90.000000
_cell_angle_beta 46.026191
_cell_angle_gamma 90.000000
_cell_volume 2998.991317
_symmetry_space_group_name_H-M "C 2/M"
_symmetry_group_IT_number 12
_symmetry_cell_setting 'monoclinic'
loop_
_space_group_symop_operation_xyz
x,y,z
-x,y,-z
-x,-y,-z
x,-y,z
1/2+x,1/2+y,z
1/2-x,1/2+y,-z
1/2-x,1/2-y,-z
1/2+x,1/2-y,z
loop_
_atom_site_type_symbol
_atom_site_label
_atom_site_fract_x
_atom_site_fract_y
_atom_site_fract_z
Si Si1 0.757680 0.818245 0.837442
Si Si2 0.043339 0.821020 0.264191
Si Si3 0.017770 0.179151 0.572496
Si Si4 0.506884 0.181351 0.822948
Si Si5 0.673938 0.818274 0.007392
Si Si6 0.803130 0.682775 0.249411
Si Si7 0.635492 0.818717 0.407305
O O1 0.856927 0.752304 0.788288
O O2 0.690799 0.766729 0.930547
O O3 0.719479 0.754372 0.800759
O O4 0.764078 0.000000 0.828874
O O5 0.983186 0.789881 0.358386
O O6 0.994869 0.737805 0.241739
O O7 0.049971 0.000000 0.245634
O O8 0.924286 0.236381 0.604103
O O9 0.100884 0.270539 0.492683
O O10 0.027685 0.000000 0.552282
O O11 0.597166 0.239333 0.797430
O O12 0.503991 0.000000 0.824342
O O13 0.422327 0.246163 0.912071
O O14 0.678487 0.000000 0.010199
O O15 0.750000 0.750000 0.000000
O O16 0.793320 0.500000 0.260053
O O17 0.736942 0.761944 0.336731
O O18 0.627865 0.000000 0.404823
#
# Coordination Sequence:
#
# PCOD8089567 Si02
#       7
#     8   8   8   8   8   8   8
#     4   9  17  32  56  79 103 141 186 223 260 317
#     4  10  19  34  57  82 106 143 185 221 264 324
#     4  10  19  34  57  82 108 144 185 221 265 323
#     4  10  22  35  54  82 112 144 179 228 277 320
#     4  10  19  33  53  81 109 139 180 226 273 315
#     4  10  20  38  56  76 110 149 186 220 269 330
#     4  11  21  33  53  84 114 140 175 228 279 317
#
# _framework density 18.672946
#
# number of rings (size 3 to 8) (size 9 to 14) (size 15 to 20)
#    0.000    2.000    2.857    2.571    0.000    2.286 
#    0.000    4.286    0.000    0.000    0.000    3.000 
#    0.000    0.000    0.000    0.000    0.000    0.000 
#
# Total GULP energy -347221.458255 kJ/mol
# GULP energy per Si atom -12400.766366 kJ/mol
# Density = 1.863045 g / cm^3
# Si number density = 18.672946 Si / 1000 Ang^3
#
#
#
# Elastic Constant Matrix: (Units=GPa)
#
#
# Indices 1 2 3 4 5 6 
#
# 1 126.2264 18.5872 66.4425 0.0000 -3.2740 0.0003
# 2 18.5872 26.1156 23.0030 0.0002 -3.0305 0.0003
# 3 66.4425 23.0030 140.2464 0.0000 -4.8589 0.0000
# 4 0.0000 0.0002 0.0000 19.6717 -0.0001 2.3746
# 5 -3.2740 -3.0305 -4.8589 -0.0001 28.4163 0.0000
# 6 0.0003 0.0003 0.0000 2.3746 0.0000 24.5780
#
#
#
# Elastic Compliance Matrix: (Units=1/GPa)
#
#
# Indices 1 2 3 4 5 6 
#
# 1 0.010858 -0.003729 -0.004530 0.000000 0.000079 0.000000
# 2 -0.003729 0.046395 -0.005720 0.000000 0.003540 -0.000001
# 3 -0.004530 -0.005720 0.010236 0.000000 0.000618 0.000000
# 4 0.000000 0.000000 0.000000 0.051434 0.000000 -0.004969
# 5 0.000079 0.003540 0.000618 0.000000 0.035683 0.000000
# 6 0.000000 -0.000001 0.000000 -0.004969 0.000000 0.041167
#
#
# Mechanical properties :
#
#
# Convention : Reuss Voigt Hill
#
# Bulk Modulus (GPa) = 25.29684 56.51709 40.90697
# Shear Modulus (GPa) = 21.10533 26.83693 23.97113
#
# Velocity S-wave (km/s) = 3.36558 3.79517 3.58681
# Velocity P-wave (km/s) = 5.35534 7.03825 6.25366
#
# Compressibility (1/GPa) = 0.03953062
#
# Stress axis : x y z
#
# Youngs Moduli (GPa) = 92.10113 21.55422 97.69568
#
# Poissons Ratio (x) = 0.08037 0.44252
# Poissons Ratio (y) = 0.34343 0.55886
# Poissons Ratio (z) = 0.41718 0.12330
#
# Static dielectric constant tensor:
#      x y z
#    x 3.057200 0.000000 -0.174580 
#    y 0.000000 3.190330 0.000000 
#    z -0.174580 0.000000 3.652780 
# 
# 
# High freq. dielectric constant tensor:
#      x y z
#    x 1.707560 0.000000 0.006850 
#    y 0.000000 1.704500 0.000000 
#    z 0.006850 0.000000 1.741800 
# 
# From -- ./inp_files/342359.got.cif
#   From: 2010.06.25/outbox.cif.g09.slc.cpg/sg12_172_cif.got.tgz:342359.got - 2010.06.28 00:19:55.
