data_PCOD8089534
_publ_section_title
;
Structure prediction by ZEFSAII (Michael W. Deem and Ramdas Pophale) SiO2 
 PCOD8089534
Probable space group: C 2/M
;
_chemical_formula_sum "Si O2"
_cell_formula_units_Z 64
_cell_length_a 30.746390
_cell_length_b 27.598334
_cell_length_c 8.399936
_cell_angle_alpha 90.000000
_cell_angle_beta 29.469719
_cell_angle_gamma 90.000000
_cell_volume 3506.597046
_symmetry_space_group_name_H-M "C 2/M"
_symmetry_group_IT_number 12
_symmetry_cell_setting 'monoclinic'
loop_
_space_group_symop_operation_xyz
x,y,z
-x,y,-z
-x,-y,-z
x,-y,z
1/2+x,1/2+y,z
1/2-x,1/2+y,-z
1/2-x,1/2-y,-z
1/2+x,1/2-y,z
loop_
_atom_site_type_symbol
_atom_site_label
_atom_site_fract_x
_atom_site_fract_y
_atom_site_fract_z
Si Si1 0.585537 0.693970 0.833655
Si Si2 0.577021 0.622232 0.132149
Si Si3 0.659249 0.552955 0.647344
Si Si4 0.267252 0.630521 0.796568
Si Si5 0.675188 0.216318 0.657784
Si Si6 0.747057 0.869097 0.233553
Si Si7 0.598731 0.135347 0.126901
Si Si8 0.832863 0.554901 0.304875
O O1 0.674369 0.672869 0.469387
O O2 0.600559 0.750790 0.813033
O O3 0.500000 0.684514 0.000000
O O4 0.567820 0.672234 0.065506
O O5 0.500000 0.612863 0.500000
O O6 0.578894 0.579907 0.993023
O O7 0.664784 0.621179 0.952806
O O8 0.626022 0.500000 0.704346
O O9 0.686586 0.580120 0.398841
O O10 0.741509 0.550908 0.503457
O O11 0.266884 0.634197 0.985595
O O12 0.166202 0.631618 0.059369
O O13 0.750000 0.250000 0.500000
O O14 0.712419 0.183124 0.398055
O O15 0.629079 0.182178 0.933129
O O16 0.681265 0.914071 0.486841
O O17 0.500000 0.143928 0.500000
O O18 0.599621 0.085860 0.019636
O O19 0.868704 0.500000 0.226445
#
# Coordination Sequence:
#
# PCOD8089534 Si02
#       8
#     8   8   8   8   8   8   8   8
#     4  11  22  37  58  81 108 146 189 231 278 332
#     4  10  19  33  53  79 111 144 184 231 275 331
#     4   8  16  32  54  77 108 149 184 223 281 331
#     4  10  20  36  55  82 114 144 185 237 275 331
#     4  11  20  41  56  74 113 149 182 228 280 326
#     4  10  20  34  58  79 108 150 181 228 282 330
#     4  10  21  37  59  82 112 149 186 230 279 332
#     4   8  16  34  57  80 108 145 184 224 278 338
#
# _framework density 18.251313
#
# number of rings (size 3 to 8) (size 9 to 14) (size 15 to 20)
#    0.000    2.250    2.500    2.250    0.000    3.000 
#    2.250    1.875    0.000   13.500    0.000    0.000 
#    0.000    0.000    0.000    0.000    0.000    0.000 
#
# Total GULP energy -396638.122583 kJ/mol
# GULP energy per Si atom -12394.941331 kJ/mol
# Density = 1.820977 g / cm^3
# Si number density = 18.251313 Si / 1000 Ang^3
#
#
#
# Elastic Constant Matrix: (Units=GPa)
#
#
# Indices 1 2 3 4 5 6 
#
# 1 83.5484 37.5704 40.8123 0.0000 16.4831 0.0000
# 2 37.5704 151.0572 54.4643 0.0000 16.3065 0.0000
# 3 40.8123 54.4643 107.5294 0.0000 10.8455 0.0000
# 4 0.0000 0.0000 0.0000 13.2739 0.0000 -1.9447
# 5 16.4831 16.3065 10.8455 0.0000 30.7866 0.0000
# 6 0.0000 0.0000 0.0000 -1.9447 0.0000 17.7989
#
#
#
# Elastic Compliance Matrix: (Units=1/GPa)
#
#
# Indices 1 2 3 4 5 6 
#
# 1 0.016228 -0.001683 -0.004687 0.000000 -0.006146 0.000000
# 2 -0.001683 0.008540 -0.003444 0.000000 -0.002409 0.000000
# 3 -0.004687 -0.003444 0.012842 0.000000 -0.000191 0.000000
# 4 0.000000 0.000000 0.000000 0.076561 0.000000 0.008365
# 5 -0.006146 -0.002409 -0.000191 0.000000 0.037115 0.000000
# 6 0.000000 0.000000 0.000000 0.008365 0.000000 0.057097
#
#
# Mechanical properties :
#
#
# Convention : Reuss Voigt Hill
#
# Bulk Modulus (GPa) = 55.60819 67.53655 61.57237
# Shear Modulus (GPa) = 21.36690 26.32441 23.84566
#
# Velocity S-wave (km/s) = 3.42527 3.80192 3.61850
# Velocity P-wave (km/s) = 6.79540 7.50712 7.16011
#
# Compressibility (1/GPa) = 0.01798296
#
# Stress axis : x y z
#
# Youngs Moduli (GPa) = 61.62234 117.09058 77.86732
#
# Poissons Ratio (x) = 0.19704 0.36496
# Poissons Ratio (y) = 0.10370 0.26818
# Poissons Ratio (z) = 0.28882 0.40327
#
# Static dielectric constant tensor:
#      x y z
#    x 3.171560 0.000000 0.087330 
#    y 0.000000 3.908760 0.000000 
#    z 0.087330 0.000000 3.285420 
# 
# 
# High freq. dielectric constant tensor:
#      x y z
#    x 1.692500 0.000000 0.010810 
#    y 0.000000 1.717290 0.000000 
#    z 0.010810 0.000000 1.699360 
# 
# From -- ./inp_files/113743.got.cif
#   From: 2010.06.25/outbox.cif.g09.slc.cpg/sg12_57_cif.got.tgz:113743.got - 2010.06.28 00:19:55.
