data_PCOD8089536
_publ_section_title
;
Structure prediction by ZEFSAII (Michael W. Deem and Ramdas Pophale) SiO2 
 PCOD8089536
Probable space group: C 2/M
;
_chemical_formula_sum "Si O2"
_cell_formula_units_Z 56
_cell_length_a 29.646661
_cell_length_b 8.516412
_cell_length_c 11.838725
_cell_angle_alpha 90.000000
_cell_angle_beta 71.189019
_cell_angle_gamma 90.000000
_cell_volume 2829.424688
_symmetry_space_group_name_H-M "C 2/M"
_symmetry_group_IT_number 12
_symmetry_cell_setting 'monoclinic'
loop_
_space_group_symop_operation_xyz
x,y,z
-x,y,-z
-x,-y,-z
x,-y,z
1/2+x,1/2+y,z
1/2-x,1/2+y,-z
1/2-x,1/2-y,-z
1/2+x,1/2-y,z
loop_
_atom_site_type_symbol
_atom_site_label
_atom_site_fract_x
_atom_site_fract_y
_atom_site_fract_z
Si Si1 0.562462 0.816229 0.863383
Si Si2 0.266048 0.316420 0.294020
Si Si3 0.204759 0.184678 0.974216
Si Si4 0.838247 0.184538 0.604488
Si Si5 0.534466 0.316134 0.119098
Si Si6 0.879149 0.186051 0.806434
Si Si7 0.349556 0.183879 0.360357
O O1 0.514317 0.780749 0.832087
O O2 0.607160 0.758845 0.753454
O O3 0.564861 0.000000 0.888319
O O4 0.562154 0.720135 0.980111
O O5 0.253443 0.500000 0.308448
O O6 0.217572 0.219733 0.339757
O O7 0.300684 0.272601 0.368908
O O8 0.294019 0.266433 0.157834
O O9 0.157908 0.256325 0.071721
O O10 0.205505 0.000000 0.986411
O O11 0.250000 0.250000 0.000000
O O12 0.866353 0.249321 0.692130
O O13 0.861657 0.272707 0.479403
O O14 0.845654 0.000000 0.583732
O O15 0.522797 0.500000 0.131910
O O16 0.567777 0.264557 0.197596
O O17 0.874331 0.000000 0.810895
O O18 0.341144 0.000000 0.354645
#
# Coordination Sequence:
#
# PCOD8089536 Si02
#       7
#     8   8   8   8   8   8   8
#     4  10  21  38  58  84 115 143 178 229 281 327
#     4  11  22  36  57  84 112 146 188 232 278 330
#     4  10  19  33  53  79 112 143 177 221 267 321
#     4  11  22  38  58  78 111 151 188 231 274 327
#     4  10  19  35  62  89 113 142 178 223 275 335
#     4   9  19  35  55  82 114 146 180 223 274 325
#     4  11  24  40  57  78 109 148 191 234 276 327
#
# _framework density 19.792010000000001
#
# number of rings (size 3 to 8) (size 9 to 14) (size 15 to 20)
#    0.000    1.714    1.429    4.286    0.000    4.000 
#    0.000    5.000    0.000    4.286    0.000    0.000 
#    0.000    0.000    0.000    0.000    0.000    0.000 
#
# Total GULP energy -347245.924328 kJ/mol
# GULP energy per Si atom -12401.640155 kJ/mol
# Density = 1.974696 g / cm^3
# Si number density = 19.792010 Si / 1000 Ang^3
#
#
#
# Elastic Constant Matrix: (Units=GPa)
#
#
# Indices 1 2 3 4 5 6 
#
# 1 115.2784 5.1124 39.8460 0.0000 13.8219 0.0000
# 2 5.1124 33.5057 13.7487 0.0000 -1.3701 0.0000
# 3 39.8460 13.7487 83.1203 0.0000 11.8879 0.0000
# 4 0.0000 0.0000 0.0000 27.1340 0.0000 -1.0666
# 5 13.8219 -1.3701 11.8879 0.0000 27.0585 0.0000
# 6 0.0000 0.0000 0.0000 -1.0666 0.0000 25.6892
#
#
#
# Elastic Compliance Matrix: (Units=1/GPa)
#
#
# Indices 1 2 3 4 5 6 
#
# 1 0.010687 0.000142 -0.004660 0.000000 -0.003405 0.000000
# 2 0.000142 0.032477 -0.006045 0.000000 0.004228 0.000000
# 3 -0.004660 -0.006045 0.015971 0.000000 -0.004943 0.000000
# 4 0.000000 0.000000 0.000000 0.036914 0.000000 0.001533
# 5 -0.003405 0.004228 -0.004943 0.000000 0.041082 0.000000
# 6 0.000000 0.000000 0.000000 0.001533 0.000000 0.038990
#
#
# Mechanical properties :
#
#
# Convention : Reuss Voigt Hill
#
# Bulk Modulus (GPa) = 26.30814 38.81318 32.56066
# Shear Modulus (GPa) = 23.81888 27.52282 25.67085
#
# Velocity S-wave (km/s) = 3.47285 3.73312 3.60534
# Velocity P-wave (km/s) = 5.42237 6.18342 5.81536
#
# Compressibility (1/GPa) = 0.03801104
#
# Stress axis : x y z
#
# Youngs Moduli (GPa) = 93.56951 30.79079 62.61236
#
# Poissons Ratio (x) = -0.00438 0.29176
# Poissons Ratio (y) = -0.01330 0.37848
# Poissons Ratio (z) = 0.43601 0.18612
#
# Static dielectric constant tensor:
#      x y z
#    x 3.702750 0.000000 0.091900 
#    y 0.000000 3.441800 0.000000 
#    z 0.091900 0.000000 3.816240 
# 
# 
# High freq. dielectric constant tensor:
#      x y z
#    x 1.773620 0.000000 0.007350 
#    y 0.000000 1.762360 0.000000 
#    z 0.007350 0.000000 1.769780 
# 
# From -- ./inp_files/180700.got.cif
#   From: 2010.06.25/outbox.cif.g09.slc.cpg/sg12_91_cif.got.tgz:180700.got - 2010.06.28 00:19:55.
