data_PCOD8089478
_publ_section_title
;
Structure prediction by ZEFSAII (Michael W. Deem and Ramdas Pophale) SiO2 
 PCOD8089478
Probable space group: C 2/M
;
_chemical_formula_sum "Si O2"
_cell_formula_units_Z 64
_cell_length_a 24.156904
_cell_length_b 9.184698
_cell_length_c 16.343979
_cell_angle_alpha 90.000000
_cell_angle_beta 91.559806
_cell_angle_gamma 90.000000
_cell_volume 3624.958135
_symmetry_space_group_name_H-M "C 2/M"
_symmetry_group_IT_number 12
_symmetry_cell_setting 'monoclinic'
loop_
_space_group_symop_operation_xyz
x,y,z
-x,y,-z
-x,-y,-z
x,-y,z
1/2+x,1/2+y,z
1/2-x,1/2+y,-z
1/2-x,1/2-y,-z
1/2+x,1/2-y,z
loop_
_atom_site_type_symbol
_atom_site_label
_atom_site_fract_x
_atom_site_fract_y
_atom_site_fract_z
Si Si1 0.872364 0.668583 0.128125
Si Si2 0.941884 0.828303 0.528047
Si Si3 0.043948 0.167072 0.769379
Si Si4 0.679149 0.827371 0.212466
Si Si5 0.804193 0.330354 0.972998
Si Si6 0.373551 0.669088 0.371330
Si Si7 0.077387 0.828067 0.289960
Si Si8 0.288283 0.828112 0.266287
O O1 0.884599 0.500000 0.138704
O O2 0.929328 0.747933 0.153359
O O3 0.822494 0.715281 0.186555
O O4 0.855009 0.710645 0.035247
O O5 0.892735 0.788341 0.463333
O O6 0.925454 0.771042 0.616826
O O7 0.000000 0.758347 0.500000
O O8 0.950614 0.000000 0.533687
O O9 0.075153 0.204280 0.686284
O O10 0.980125 0.209401 0.757027
O O11 0.050812 0.000000 0.791734
O O12 0.679556 0.782977 0.117259
O O13 0.622970 0.766131 0.246665
O O14 0.729673 0.751646 0.261176
O O15 0.682724 0.000000 0.224931
O O16 0.790795 0.500000 0.978534
O O17 0.750000 0.250000 0.000000
O O18 0.356445 0.500000 0.364501
O O19 0.321055 0.768718 0.346784
O O20 0.090877 0.000000 0.285932
O O21 0.279000 0.000000 0.274310
#
# Coordination Sequence:
#
# PCOD8089478 Si02
#       8
#     8   8   8   8   8   8   8   8
#     4   9  18  32  52  78 105 132 168 216 265 311
#     4   9  15  29  55  83 106 135 177 221 261 306
#     4   9  17  30  51  79 107 137 172 212 258 309
#     4  11  23  37  54  77 107 142 178 216 264 318
#     4  10  20  35  55  79 104 134 176 221 264 311
#     4   9  16  29  53  82 108 132 171 221 263 308
#     4  10  20  35  55  79 109 143 178 215 261 315
#     4  10  19  33  53  77 107 139 173 215 266 316
#
# _framework density 17.655376
#
# number of rings (size 3 to 8) (size 9 to 14) (size 15 to 20)
#    0.000    2.375    2.500    0.750    0.000    2.000 
#    0.000    1.875    0.000    4.500    0.000    0.000 
#    0.000    0.000    0.000    0.000    0.000    0.000 
#
# Total GULP energy -396811.853868 kJ/mol
# GULP energy per Si atom -12400.370433 kJ/mol
# Density = 1.761519 g / cm^3
# Si number density = 17.655376 Si / 1000 Ang^3
#
#
#
# Elastic Constant Matrix: (Units=GPa)
#
#
# Indices 1 2 3 4 5 6 
#
# 1 128.4034 57.3090 69.6965 0.0000 9.9112 0.0000
# 2 57.3090 59.9353 44.1398 0.0000 5.2647 0.0000
# 3 69.6965 44.1398 117.6118 0.0000 7.7300 0.0000
# 4 0.0000 0.0000 0.0000 22.7466 0.0000 2.6651
# 5 9.9112 5.2647 7.7300 0.0000 24.6012 0.0000
# 6 0.0000 0.0000 0.0000 2.6651 0.0000 33.3288
#
#
#
# Elastic Compliance Matrix: (Units=1/GPa)
#
#
# Indices 1 2 3 4 5 6 
#
# 1 0.015582 -0.011064 -0.004927 0.000000 -0.002362 0.000000
# 2 -0.011064 0.031037 -0.005053 0.000000 -0.000597 0.000000
# 3 -0.004927 -0.005053 0.013393 0.000000 -0.001142 0.000000
# 4 0.000000 0.000000 0.000000 0.044378 0.000000 -0.003549
# 5 -0.002362 -0.000597 -0.001142 0.000000 0.042087 0.000000
# 6 0.000000 0.000000 0.000000 -0.003549 0.000000 0.030288
#
#
# Mechanical properties :
#
#
# Convention : Reuss Voigt Hill
#
# Bulk Modulus (GPa) = 55.78229 72.02677 63.90453
# Shear Modulus (GPa) = 22.23921 25.12231 23.68076
#
# Velocity S-wave (km/s) = 3.55297 3.77626 3.66632
# Velocity P-wave (km/s) = 6.96385 7.73938 7.36183
#
# Compressibility (1/GPa) = 0.01792684
#
# Stress axis : x y z
#
# Youngs Moduli (GPa) = 64.17466 32.21926 74.66393
#
# Poissons Ratio (x) = 0.35647 0.36784
# Poissons Ratio (y) = 0.71003 0.37725
# Poissons Ratio (z) = 0.31616 0.16279
#
# Static dielectric constant tensor:
#      x y z
#    x 3.232280 0.000000 0.212890 
#    y 0.000000 3.124550 0.000000 
#    z 0.212890 0.000000 3.447850 
# 
# 
# High freq. dielectric constant tensor:
#      x y z
#    x 1.676720 0.000000 0.021490 
#    y 0.000000 1.668690 0.000000 
#    z 0.021490 0.000000 1.678970 
# 
# From -- ./inp_files/238752.got.cif
#   From: 2010.06.25/outbox.cif.g09.slc.cpg/sg12_120_cif.got.tgz:238752.got - 2010.06.28 00:19:55.
