data_PCOD8089925
_publ_section_title
;
Structure prediction by ZEFSAII (Michael W. Deem and Ramdas Pophale) SiO2 
 PCOD8089925
Probable space group: C 2/M
;
_chemical_formula_sum "Si O2"
_cell_formula_units_Z 64
_cell_length_a 20.392416
_cell_length_b 14.107228
_cell_length_c 26.954445
_cell_angle_alpha 90.000000
_cell_angle_beta 25.547960
_cell_angle_gamma 90.000000
_cell_volume 3344.155391
_symmetry_space_group_name_H-M "C 2/M"
_symmetry_group_IT_number 12
_symmetry_cell_setting 'monoclinic'
loop_
_space_group_symop_operation_xyz
x,y,z
-x,y,-z
-x,-y,-z
x,-y,z
1/2+x,1/2+y,z
1/2-x,1/2+y,-z
1/2-x,1/2-y,-z
1/2+x,1/2-y,z
loop_
_atom_site_type_symbol
_atom_site_label
_atom_site_fract_x
_atom_site_fract_y
_atom_site_fract_z
Si Si1 0.885754 0.395311 0.267780
Si Si2 0.437702 0.107165 0.120209
Si Si3 0.974850 0.894235 0.933053
Si Si4 0.283801 0.389422 0.881640
Si Si5 0.917394 0.218405 0.875636
Si Si6 0.336473 0.301270 0.744688
Si Si7 0.760384 0.105632 0.168577
Si Si8 0.046948 0.891528 0.521495
O O1 0.955566 0.500000 0.233735
O O2 0.856671 0.393246 0.228773
O O3 0.727838 0.382139 0.404497
O O4 0.994774 0.308658 0.207495
O O5 0.336225 0.174608 0.154723
O O6 0.438639 0.000000 0.097511
O O7 0.609380 0.150362 0.006860
O O8 0.993737 0.822650 0.873741
O O9 0.122067 0.891481 0.866635
O O10 0.952524 0.000000 0.926537
O O11 0.832800 0.869350 0.065590
O O12 0.266751 0.500000 0.895211
O O13 0.401729 0.360669 0.844108
O O14 0.363002 0.357041 0.777208
O O15 0.750000 0.250000 0.000000
O O16 0.359522 0.188704 0.738296
O O17 0.466533 0.329623 0.617927
O O18 0.685860 0.000000 0.217652
O O19 0.000000 0.851193 0.500000
O O20 0.991892 0.000000 0.564570
#
# Coordination Sequence:
#
# PCOD8089925 Si02
#       8
#     8   8   8   8   8   8   8   8
#     4  10  21  37  56  84 118 147 188 238 282 333
#     4  10  19  33  54  85 119 144 176 234 298 348
#     4   9  19  35  53  76 111 151 186 230 279 334
#     4  11  24  36  51  85 122 151 184 233 290 348
#     4  12  22  34  55  80 112 155 193 226 278 342
#     4  12  21  34  61  84 115 150 189 231 295 346
#     4   9  20  35  54  81 111 145 190 235 280 332
#     4  10  20  36  59  87 114 145 187 237 288 342
#
# _framework density 19.137867
#
# number of rings (size 3 to 8) (size 9 to 14) (size 15 to 20)
#    0.000    1.625    2.500    4.125    3.500    1.500 
#    0.000    1.250    0.000    1.875    0.000    0.000 
#    0.000    0.000    0.000    0.000    0.000    0.000 
#
# Total GULP energy -396677.224559 kJ/mol
# GULP energy per Si atom -12396.163267 kJ/mol
# Density = 1.909431 g / cm^3
# Si number density = 19.137867 Si / 1000 Ang^3
#
#
#
# Elastic Constant Matrix: (Units=GPa)
#
#
# Indices 1 2 3 4 5 6 
#
# 1 79.3935 29.8610 28.7756 0.0092 12.8063 -0.0028
# 2 29.8610 112.4526 53.5601 -0.0019 3.6654 -0.0004
# 3 28.7756 53.5601 93.5751 -0.0120 16.1819 -0.0040
# 4 0.0092 -0.0019 -0.0120 28.5088 0.0004 1.6734
# 5 12.8063 3.6654 16.1819 0.0004 21.7546 0.0019
# 6 -0.0028 -0.0004 -0.0040 1.6734 0.0019 24.5283
#
#
#
# Elastic Compliance Matrix: (Units=1/GPa)
#
#
# Indices 1 2 3 4 5 6 
#
# 1 0.015568 -0.003050 -0.001774 -0.000006 -0.007331 0.000002
# 2 -0.003050 0.013075 -0.007431 -0.000001 0.005120 -0.000002
# 3 -0.001774 -0.007431 0.017316 0.000007 -0.010584 0.000003
# 4 -0.000006 -0.000001 0.000007 0.035218 -0.000002 -0.002403
# 5 -0.007331 0.005120 -0.010584 -0.000002 0.057293 -0.000007
# 6 0.000002 -0.000002 0.000003 -0.002403 -0.000007 0.040933
#
#
# Mechanical properties :
#
#
# Convention : Reuss Voigt Hill
#
# Bulk Modulus (GPa) = 46.62338 56.64608 51.63473
# Shear Modulus (GPa) = 23.68954 26.50664 25.09809
#
# Velocity S-wave (km/s) = 3.52211 3.72565 3.62530
# Velocity P-wave (km/s) = 6.39961 6.94049 6.67553
#
# Compressibility (1/GPa) = 0.02144847
#
# Stress axis : x y z
#
# Youngs Moduli (GPa) = 64.23375 76.48059 57.75038
#
# Poissons Ratio (x) = 0.23328 0.10243
# Poissons Ratio (y) = 0.19593 0.42917
# Poissons Ratio (z) = 0.11393 0.56836
#
# Static dielectric constant tensor:
#      x y z
#    x 3.690020 0.000370 0.167070 
#    y 0.000370 3.005390 -0.000130 
#    z 0.167070 -0.000130 3.170370 
# 
# 
# High freq. dielectric constant tensor:
#      x y z
#    x 1.731430 0.000000 0.016400 
#    y 0.000000 1.758220 0.000000 
#    z 0.016400 0.000000 1.706610 
# 
# From -- ./inp_files/344004.got.cif
#   From: 2010.06.25/outbox.cif.g09.slc.cpg/sg12_173_cif.got.tgz:344004.got - 2010.06.28 00:19:55.
