data_PCOD8089850
_publ_section_title
;
Structure prediction by ZEFSAII (Michael W. Deem and Ramdas Pophale) SiO2 
 PCOD8089850
Probable space group: C 2/M
;
_chemical_formula_sum "Si O2"
_cell_formula_units_Z 64
_cell_length_a 20.693210
_cell_length_b 8.992493
_cell_length_c 23.261334
_cell_angle_alpha 90.000000
_cell_angle_beta 51.443064
_cell_angle_gamma 90.000000
_cell_volume 3384.880386
_symmetry_space_group_name_H-M "C 2/M"
_symmetry_group_IT_number 12
_symmetry_cell_setting 'monoclinic'
loop_
_space_group_symop_operation_xyz
x,y,z
-x,y,-z
-x,-y,-z
x,-y,z
1/2+x,1/2+y,z
1/2-x,1/2+y,-z
1/2-x,1/2-y,-z
1/2+x,1/2-y,z
loop_
_atom_site_type_symbol
_atom_site_label
_atom_site_fract_x
_atom_site_fract_y
_atom_site_fract_z
Si Si1 0.113637 0.166578 0.690057
Si Si2 0.015950 0.323441 0.162759
Si Si3 0.577572 0.662883 0.496218
Si Si4 0.960894 0.825434 0.082698
Si Si5 0.962115 0.674851 0.367854
Si Si6 0.773849 0.177034 0.194744
Si Si7 0.878837 0.324474 0.790284
Si Si8 0.212502 0.333677 0.352013
O O1 0.105961 0.239999 0.631927
O O2 0.209371 0.159426 0.650147
O O3 0.068808 0.268209 0.762016
O O4 0.075554 0.000000 0.712221
O O5 0.014371 0.500000 0.158321
O O6 0.092685 0.270655 0.161522
O O7 0.019950 0.252370 0.097227
O O8 0.500000 0.640017 0.500000
O O9 0.603241 0.500000 0.506991
O O10 0.552726 0.779277 0.558829
O O11 0.649302 0.723800 0.416317
O O12 0.866965 0.761128 0.134871
O O13 0.961017 0.000000 0.095966
O O14 0.000000 0.787419 0.000000
O O15 0.949000 0.500000 0.368388
O O16 0.052855 0.723871 0.294918
O O17 0.711372 0.237674 0.179203
O O18 0.737673 0.230445 0.275733
O O19 0.778263 0.000000 0.190735
O O20 0.873832 0.500000 0.793880
O O21 0.174478 0.500000 0.366429
#
# Coordination Sequence:
#
# PCOD8089850 Si02
#       8
#     8   8   8   8   8   8   8   8
#     4  10  19  34  56  82 109 138 178 225 274 323
#     4  10  19  33  54  81 112 145 181 220 271 328
#     4  11  24  38  51  73 107 143 179 229 286 327
#     4  10  20  35  57  83 110 143 181 224 274 325
#     4  10  20  35  55  78 105 142 186 225 273 329
#     4   9  16  32  55  80 106 135 182 228 264 318
#     4   8  16  30  53  80 104 138 182 226 263 311
#     4  10  20  34  56  79 101 139 184 227 272 322
#
# _framework density 18.907609999999998
#
# number of rings (size 3 to 8) (size 9 to 14) (size 15 to 20)
#    0.000    2.250    1.250    3.000    0.000    3.750 
#    0.000    0.625    0.000    4.500    0.000    0.000 
#    0.000    0.000    0.000    0.000    0.000    0.000 
#
# Total GULP energy -396652.286296 kJ/mol
# GULP energy per Si atom -12395.383947 kJ/mol
# Density = 1.886458 g / cm^3
# Si number density = 18.907610 Si / 1000 Ang^3
#
#
#
# Elastic Constant Matrix: (Units=GPa)
#
#
# Indices 1 2 3 4 5 6 
#
# 1 128.8339 37.7499 59.0763 0.0000 9.8397 0.0004
# 2 37.7499 58.7482 30.3771 -0.0002 7.8989 0.0015
# 3 59.0763 30.3771 94.5306 -0.0002 17.6939 0.0000
# 4 0.0000 -0.0002 -0.0002 22.2514 0.0001 5.0721
# 5 9.8397 7.8989 17.6939 0.0001 22.3692 -0.0001
# 6 0.0004 0.0015 0.0000 5.0721 -0.0001 26.5018
#
#
#
# Elastic Compliance Matrix: (Units=1/GPa)
#
#
# Indices 1 2 3 4 5 6 
#
# 1 0.011834 -0.004592 -0.006162 0.000000 0.001290 0.000000
# 2 -0.004592 0.022303 -0.003758 0.000000 -0.002883 -0.000001
# 3 -0.006162 -0.003758 0.017467 0.000000 -0.009779 0.000000
# 4 0.000000 0.000000 0.000000 0.046991 0.000000 -0.008993
# 5 0.001290 -0.002883 -0.009779 0.000000 0.052891 0.000000
# 6 0.000000 -0.000001 0.000000 -0.008993 0.000000 0.039455
#
#
# Mechanical properties :
#
#
# Convention : Reuss Voigt Hill
#
# Bulk Modulus (GPa) = 44.28231 59.61325 51.94778
# Shear Modulus (GPa) = 21.97898 24.55177 23.26538
#
# Velocity S-wave (km/s) = 3.41316 3.60740 3.51162
# Velocity P-wave (km/s) = 6.24532 6.99630 6.63145
#
# Compressibility (1/GPa) = 0.02258238
#
# Stress axis : x y z
#
# Youngs Moduli (GPa) = 84.50055 44.83701 57.25023
#
# Poissons Ratio (x) = 0.20588 0.35275
# Poissons Ratio (y) = 0.38801 0.21513
# Poissons Ratio (z) = 0.52066 0.16848
#
# Static dielectric constant tensor:
#      x y z
#    x 3.852650 0.000000 0.079570 
#    y 0.000000 3.417710 0.000000 
#    z 0.079570 0.000000 3.267380 
# 
# 
# High freq. dielectric constant tensor:
#      x y z
#    x 1.746840 0.000000 0.009820 
#    y 0.000000 1.716050 0.000000 
#    z 0.009820 0.000000 1.714230 
# 
# From -- ./inp_files/346015.got.cif
#   From: 2010.06.25/outbox.cif.g09.slc.cpg/sg12_174_cif.got.tgz:346015.got - 2010.06.28 00:19:55.
