data_PCOD8089629
_publ_section_title
;
Structure prediction by ZEFSAII (Michael W. Deem and Ramdas Pophale) SiO2 
 PCOD8089629
Probable space group: C 2/M
;
_chemical_formula_sum "Si O2"
_cell_formula_units_Z 64
_cell_length_a 26.400681
_cell_length_b 9.721516
_cell_length_c 13.323883
_cell_angle_alpha 90.000000
_cell_angle_beta 79.994985
_cell_angle_gamma 90.000000
_cell_volume 3367.632482
_symmetry_space_group_name_H-M "C 2/M"
_symmetry_group_IT_number 12
_symmetry_cell_setting 'monoclinic'
loop_
_space_group_symop_operation_xyz
x,y,z
-x,y,-z
-x,-y,-z
x,-y,z
1/2+x,1/2+y,z
1/2-x,1/2+y,-z
1/2-x,1/2-y,-z
1/2+x,1/2-y,z
loop_
_atom_site_type_symbol
_atom_site_label
_atom_site_fract_x
_atom_site_fract_y
_atom_site_fract_z
Si Si1 0.534488 0.157160 0.720211
Si Si2 0.079335 0.339709 0.259178
Si Si3 0.105694 0.152819 0.066927
Si Si4 0.283394 0.662211 0.274118
Si Si5 0.168668 0.337765 0.374189
Si Si6 0.214103 0.849163 0.954347
Si Si7 0.855063 0.662066 0.395009
Si Si8 0.954679 0.847670 0.094820
O O1 0.479758 0.182959 0.681484
O O2 0.583728 0.193192 0.634603
O O3 0.535792 0.243499 0.820304
O O4 0.537568 0.000000 0.753753
O O5 0.090110 0.500000 0.235156
O O6 0.083981 0.261329 0.152644
O O7 0.121608 0.278834 0.322290
O O8 0.082278 0.000000 0.098423
O O9 0.166540 0.146097 0.046326
O O10 0.093898 0.196765 0.955848
O O11 0.290796 0.500000 0.295037
O O12 0.224476 0.709271 0.315319
O O13 0.297136 0.700275 0.155032
O O14 0.322778 0.749940 0.326875
O O15 0.163571 0.500000 0.374595
O O16 0.161758 0.284615 0.489811
O O17 0.239793 0.000000 0.937185
O O18 0.250000 0.750000 0.000000
O O19 0.843420 0.500000 0.383443
O O20 0.946644 0.000000 0.144016
O O21 0.000000 0.845559 0.000000
#
# Coordination Sequence:
#
# PCOD8089629 Si02
#       8
#     8   8   8   8   8   8   8   8
#     4  10  21  34  52  81 112 140 176 219 264 315
#     4  10  20  35  55  78 105 142 180 217 264 317
#     4  10  20  34  51  76 107 140 176 216 259 310
#     4  10  20  37  59  81 105 138 181 225 266 316
#     4   9  19  36  58  80 104 137 179 224 271 319
#     4  10  21  35  53  78 110 142 175 213 259 314
#     4  10  21  37  56  81 110 139 175 223 272 318
#     4  10  19  33  54  76 102 140 177 209 255 309
#
# _framework density 19.004448
#
# number of rings (size 3 to 8) (size 9 to 14) (size 15 to 20)
#    0.000    2.125    1.250    1.875    0.000    4.750 
#    0.000    3.750    0.000    0.000    0.000    2.625 
#    0.000    0.000    0.000    0.000    0.000    0.000 
#
# Total GULP energy -396574.778421 kJ/mol
# GULP energy per Si atom -12392.961826 kJ/mol
# Density = 1.896119 g / cm^3
# Si number density = 19.004448 Si / 1000 Ang^3
#
#
#
# Elastic Constant Matrix: (Units=GPa)
#
#
# Indices 1 2 3 4 5 6 
#
# 1 125.6393 42.5254 36.4402 0.0000 -0.6717 0.0000
# 2 42.5254 56.1606 36.5940 0.0000 6.1594 0.0000
# 3 36.4402 36.5940 79.9748 0.0000 -4.4942 0.0000
# 4 0.0000 0.0000 0.0000 22.9682 0.0000 4.2848
# 5 -0.6717 6.1594 -4.4942 0.0000 27.6027 0.0000
# 6 0.0000 0.0000 0.0000 4.2848 0.0000 28.8744
#
#
#
# Elastic Compliance Matrix: (Units=1/GPa)
#
#
# Indices 1 2 3 4 5 6 
#
# 1 0.010935 -0.007528 -0.001441 0.000000 0.001711 0.000000
# 2 -0.007528 0.032248 -0.011848 0.000000 -0.009308 0.000000
# 3 -0.001441 -0.011848 0.018902 0.000000 0.005686 0.000000
# 4 0.000000 0.000000 0.000000 0.044778 0.000000 -0.006645
# 5 0.001711 -0.009308 0.005686 0.000000 0.039273 0.000000
# 6 0.000000 0.000000 0.000000 -0.006645 0.000000 0.035619
#
#
# Mechanical properties :
#
#
# Convention : Reuss Voigt Hill
#
# Bulk Modulus (GPa) = 48.90483 54.76597 51.83540
# Shear Modulus (GPa) = 21.71965 25.63673 23.67819
#
# Velocity S-wave (km/s) = 3.38431 3.67684 3.53360
# Velocity P-wave (km/s) = 6.40785 6.84876 6.63197
#
# Compressibility (1/GPa) = 0.02044788
#
# Stress axis : x y z
#
# Youngs Moduli (GPa) = 91.45260 31.00986 52.90509
#
# Poissons Ratio (x) = 0.23345 0.07626
# Poissons Ratio (y) = 0.68848 0.62684
# Poissons Ratio (z) = 0.13182 0.36742
#
# Static dielectric constant tensor:
#      x y z
#    x 3.510630 0.000000 -0.100070 
#    y 0.000000 3.131930 0.000000 
#    z -0.100070 0.000000 3.639530 
# 
# 
# High freq. dielectric constant tensor:
#      x y z
#    x 1.760150 0.000000 -0.004160 
#    y 0.000000 1.719470 0.000000 
#    z -0.004160 0.000000 1.728220 
# 
# From -- ./inp_files/182029.got.cif
#   From: 2010.06.25/outbox.cif.g09.slc.cpg/sg12_92_cif.got.tgz:182029.got - 2010.06.28 00:19:55.
