data_PCOD8089676
_publ_section_title
;
Structure prediction by ZEFSAII (Michael W. Deem and Ramdas Pophale) SiO2 
 PCOD8089676
Probable space group: C 2/M
;
_chemical_formula_sum "Si O2"
_cell_formula_units_Z 56
_cell_length_a 19.334438
_cell_length_b 9.402242
_cell_length_c 21.132385
_cell_angle_alpha 90.000000
_cell_angle_beta 125.715601
_cell_angle_gamma 90.000000
_cell_volume 3119.084891
_symmetry_space_group_name_H-M "C 2/M"
_symmetry_group_IT_number 12
_symmetry_cell_setting 'monoclinic'
loop_
_space_group_symop_operation_xyz
x,y,z
-x,y,-z
-x,-y,-z
x,-y,z
1/2+x,1/2+y,z
1/2-x,1/2+y,-z
1/2-x,1/2-y,-z
1/2+x,1/2-y,z
loop_
_atom_site_type_symbol
_atom_site_label
_atom_site_fract_x
_atom_site_fract_y
_atom_site_fract_z
Si Si1 0.174209 0.665783 0.646978
Si Si2 0.990894 0.666310 0.363718
Si Si3 0.595858 0.337271 0.052669
Si Si4 0.666175 0.661022 0.952371
Si Si5 0.768547 0.335312 0.799760
Si Si6 0.900717 0.837762 0.213314
Si Si7 0.679502 0.833041 0.502796
O O1 0.191128 0.500000 0.669448
O O2 0.243603 0.758231 0.721269
O O3 0.187944 0.703416 0.581193
O O4 0.078024 0.705846 0.618428
O O5 0.989806 0.500000 0.350304
O O6 0.084722 0.717687 0.433394
O O7 0.968589 0.741440 0.285823
O O8 0.605657 0.500000 0.081501
O O9 0.647644 0.236557 0.127156
O O10 0.500000 0.283904 0.000000
O O11 0.620720 0.321237 0.993770
O O12 0.693347 0.500000 0.951929
O O13 0.602962 0.710754 0.862033
O O14 0.750000 0.750000 0.000000
O O15 0.787166 0.500000 0.795398
O O16 0.693604 0.314310 0.809971
O O17 0.930796 0.000000 0.237383
O O18 0.750000 0.750000 0.500000
O O19 0.691853 0.000000 0.496882
#
# Coordination Sequence:
#
# PCOD8089676 Si02
#       7
#     8   8   8   8   8   8   8
#     4   9  18  35  59  81 102 137 179 218 260 309
#     4   9  18  34  57  81 104 134 178 221 256 304
#     4  10  21  36  53  75 106 144 182 217 259 316
#     4  10  19  33  54  77 104 138 177 221 262 308
#     4  10  19  33  54  80 109 136 171 222 268 312
#     4   9  18  32  51  79 108 134 170 218 268 309
#     4  10  21  37  56  80 111 142 173 213 261 314
#
# _framework density 17.953983999999998
#
# number of rings (size 3 to 8) (size 9 to 14) (size 15 to 20)
#    0.000    2.429    1.429    0.857    0.000    4.286 
#    2.571    0.000    0.000    4.286    0.000    0.000 
#    0.000    0.000    0.000    0.000    0.000    0.000 
#
# Total GULP energy -347175.636014 kJ/mol
# GULP energy per Si atom -12399.129858 kJ/mol
# Density = 1.791312 g / cm^3
# Si number density = 17.953984 Si / 1000 Ang^3
#
#
#
# Elastic Constant Matrix: (Units=GPa)
#
#
# Indices 1 2 3 4 5 6 
#
# 1 77.3801 48.0768 68.6035 0.0000 9.9073 0.0000
# 2 48.0768 76.9949 78.0032 0.0000 5.8765 0.0000
# 3 68.6035 78.0032 166.4855 0.0000 5.9411 0.0000
# 4 0.0000 0.0000 0.0000 34.8779 0.0000 0.7201
# 5 9.9073 5.8765 5.9411 0.0000 21.8799 0.0000
# 6 0.0000 0.0000 0.0000 0.7201 0.0000 24.8961
#
#
#
# Elastic Compliance Matrix: (Units=1/GPa)
#
#
# Indices 1 2 3 4 5 6 
#
# 1 0.024381 -0.009062 -0.005548 0.000000 -0.007099 0.000000
# 2 -0.009062 0.028364 -0.009522 0.000000 -0.000929 0.000000
# 3 -0.005548 -0.009522 0.012696 0.000000 0.001622 0.000000
# 4 0.000000 0.000000 0.000000 0.028689 0.000000 -0.000830
# 5 -0.007099 -0.000929 0.001622 0.000000 0.048728 0.000000
# 6 0.000000 0.000000 0.000000 -0.000830 0.000000 0.040191
#
#
# Mechanical properties :
#
#
# Convention : Reuss Voigt Hill
#
# Bulk Modulus (GPa) = 58.21415 78.91416 68.56415
# Shear Modulus (GPa) = 21.09386 24.74259 22.91822
#
# Velocity S-wave (km/s) = 3.43138 3.71632 3.57669
# Velocity P-wave (km/s) = 6.94216 7.90340 7.43832
#
# Compressibility (1/GPa) = 0.01717795
#
# Stress axis : x y z
#
# Youngs Moduli (GPa) = 41.01637 35.25626 78.76515
#
# Poissons Ratio (x) = 0.31948 0.43695
# Poissons Ratio (y) = 0.37167 0.75001
# Poissons Ratio (z) = 0.22754 0.33571
#
# Static dielectric constant tensor:
#      x y z
#    x 3.084030 0.000000 -0.103000 
#    y 0.000000 3.320800 0.000000 
#    z -0.103000 0.000000 3.446230 
# 
# 
# High freq. dielectric constant tensor:
#      x y z
#    x 1.679350 0.000000 -0.003820 
#    y 0.000000 1.691170 0.000000 
#    z -0.003820 0.000000 1.708020 
# 
# From -- ./inp_files/281720.got.cif
#   From: 2010.06.25/outbox.cif.g09.slc.cpg/sg12_141_cif.got.tgz:281720.got - 2010.06.28 00:19:55.
