data_PCOD8089408
_publ_section_title
;
Structure prediction by ZEFSAII (Michael W. Deem and Ramdas Pophale) SiO2 
 PCOD8089408
Probable space group: C 2/M
;
_chemical_formula_sum "Si O2"
_cell_formula_units_Z 40
_cell_length_a 19.258824
_cell_length_b 8.534910
_cell_length_c 27.221675
_cell_angle_alpha 90.000000
_cell_angle_beta 28.235438
_cell_angle_gamma 90.000000
_cell_volume 2116.862352
_symmetry_space_group_name_H-M "C 2/M"
_symmetry_group_IT_number 12
_symmetry_cell_setting 'monoclinic'
loop_
_space_group_symop_operation_xyz
x,y,z
-x,y,-z
-x,-y,-z
x,-y,z
1/2+x,1/2+y,z
1/2-x,1/2+y,-z
1/2-x,1/2-y,-z
1/2+x,1/2-y,z
loop_
_atom_site_type_symbol
_atom_site_label
_atom_site_fract_x
_atom_site_fract_y
_atom_site_fract_z
Si Si1 0.169004 0.683306 0.668493
Si Si2 0.047002 0.682617 0.281911
Si Si3 0.727912 0.681834 0.732932
Si Si4 0.151758 0.683583 0.881884
Si Si5 0.529396 0.683290 0.569066
O O1 0.175062 0.500000 0.676478
O O2 0.147418 0.776645 0.732437
O O3 0.317171 0.738757 0.549200
O O4 0.031296 0.727103 0.720158
O O5 0.028040 0.500000 0.305661
O O6 0.218086 0.725748 0.171199
O O7 0.970310 0.778738 0.373375
O O8 0.710715 0.500000 0.755473
O O9 0.651493 0.778065 0.824287
O O10 0.899570 0.725923 0.621980
O O11 0.175729 0.500000 0.874677
O O12 0.000000 0.741337 0.000000
O O13 0.503221 0.500000 0.577565
#
# Coordination Sequence:
#
# PCOD8089408 Si02
#       5
#     8   8   8   8   8
#     4  10  21  35  51  76 111 146 175 210 257 305
#     4  10  20  34  54  80 108 137 174 218 259 304
#     4  11  22  34  53  80 107 137 176 219 258 303
#     4  10  21  39  61  79  99 132 172 214 263 319
#     4  10  19  33  53  75 107 148 181 210 250 304
#
# _framework density 18.895890999999999
#
# number of rings (size 3 to 8) (size 9 to 14) (size 15 to 20)
#    0.000    1.800    0.000    7.200    0.000    7.200 
#    0.000    1.000    0.000    0.000    0.000    0.000 
#    0.000    0.000    0.000    0.000    0.000    0.000 
#
# Total GULP energy -248088.073504 kJ/mol
# GULP energy per Si atom -12404.403675 kJ/mol
# Density = 1.885288 g / cm^3
# Si number density = 18.895891 Si / 1000 Ang^3
#
#
#
# Elastic Constant Matrix: (Units=GPa)
#
#
# Indices 1 2 3 4 5 6 
#
# 1 138.7633 17.3807 47.2868 -0.0020 -5.3097 0.0031
# 2 17.3807 39.7434 6.6481 -0.0018 -1.0076 0.0003
# 3 47.2868 6.6481 111.4223 0.0041 0.1408 -0.0033
# 4 -0.0020 -0.0018 0.0041 18.5377 -0.0001 -2.1303
# 5 -5.3097 -1.0076 0.1408 -0.0001 11.0606 -0.0001
# 6 0.0031 0.0003 -0.0033 -2.1303 -0.0001 33.1183
#
#
#
# Elastic Compliance Matrix: (Units=1/GPa)
#
#
# Indices 1 2 3 4 5 6 
#
# 1 0.009005 -0.003227 -0.003634 0.000001 0.004075 -0.000001
# 2 -0.003227 0.026632 -0.000221 0.000002 0.000880 0.000000
# 3 -0.003634 -0.000221 0.010533 -0.000003 -0.001899 0.000001
# 4 0.000001 0.000002 -0.000003 0.054346 0.000001 0.003496
# 5 0.004075 0.000880 -0.001899 0.000001 0.092472 0.000000
# 6 -0.000001 0.000000 0.000001 0.003496 0.000000 0.030420
#
#
# Mechanical properties :
#
#
# Convention : Reuss Voigt Hill
#
# Bulk Modulus (GPa) = 31.24411 48.06224 39.65317
# Shear Modulus (GPa) = 20.14184 27.11754 23.62969
#
# Velocity S-wave (km/s) = 3.26841 3.79238 3.54011
# Velocity P-wave (km/s) = 5.55105 6.68332 6.14332
#
# Compressibility (1/GPa) = 0.03200603
#
# Stress axis : x y z
#
# Youngs Moduli (GPa) = 111.04808 37.54903 94.94148
#
# Poissons Ratio (x) = 0.12117 0.34505
# Poissons Ratio (y) = 0.35834 0.02095
# Poissons Ratio (z) = 0.40358 0.00829
#
# Static dielectric constant tensor:
#      x y z
#    x 3.499470 -0.000010 -0.052320 
#    y -0.000010 3.487600 0.000010 
#    z -0.052320 0.000010 3.405140 
# 
# 
# High freq. dielectric constant tensor:
#      x y z
#    x 1.738680 0.000000 -0.000810 
#    y 0.000000 1.741170 0.000000 
#    z -0.000810 0.000000 1.716510 
# 
# From -- ./inp_files/162643.got.cif
#   From: 2010.06.25/outbox.cif.g09.slc.cpg/sg12_82_cif.got.tgz:162643.got - 2010.06.28 00:19:55.
