data_PCOD8089018
_publ_section_title
;
Structure prediction by ZEFSAII (Michael W. Deem and Ramdas Pophale) SiO2 
 PCOD8089018
Probable space group: C 2/M
;
_chemical_formula_sum "Si O2"
_cell_formula_units_Z 56
_cell_length_a 18.870472
_cell_length_b 12.876103
_cell_length_c 15.150965
_cell_angle_alpha 90.000000
_cell_angle_beta 66.697916
_cell_angle_gamma 90.000000
_cell_volume 3381.072662
_symmetry_space_group_name_H-M "C 2/M"
_symmetry_group_IT_number 12
_symmetry_cell_setting 'monoclinic'
loop_
_space_group_symop_operation_xyz
x,y,z
-x,y,-z
-x,-y,-z
x,-y,z
1/2+x,1/2+y,z
1/2-x,1/2+y,-z
1/2-x,1/2-y,-z
1/2+x,1/2-y,z
loop_
_atom_site_type_symbol
_atom_site_label
_atom_site_fract_x
_atom_site_fract_y
_atom_site_fract_z
Si Si1 0.048737 0.876817 0.108999
Si Si2 0.912401 0.248535 0.739307
Si Si3 0.315568 0.214383 0.533421
Si Si4 0.111418 0.121740 0.890105
Si Si5 0.773622 0.623786 0.740361
Si Si6 0.412788 0.383731 0.573344
Si Si7 0.031082 0.380492 0.581483
O O1 0.081684 0.802308 0.167938
O O2 0.960539 0.841615 0.134253
O O3 0.054142 0.000000 0.129774
O O4 0.099429 0.849354 0.998170
O O5 0.839154 0.324968 0.769135
O O6 0.902674 0.152856 0.678162
O O7 0.988747 0.313841 0.677301
O O8 0.250000 0.250000 0.500000
O O9 0.281026 0.156528 0.635108
O O10 0.359987 0.319005 0.534205
O O11 0.377033 0.136912 0.457221
O O12 0.191637 0.168314 0.814974
O O13 0.115188 0.000000 0.878864
O O14 0.780967 0.500000 0.744931
O O15 0.500000 0.373738 0.500000
O O16 0.382088 0.500000 0.582531
O O17 0.010887 0.500000 0.607903
O O18 0.000000 0.345067 0.500000
#
# Coordination Sequence:
#
# PCOD8089018 Si02
#       7
#     8   8   8   8   8   8   8
#     4   9  18  33  54  78 104 131 162 209 260 306
#     4  11  19  31  51  79  98 134 174 203 249 301
#     4  11  22  34  50  75 103 134 172 206 252 300
#     4   8  17  34  53  76 103 130 163 208 261 302
#     4  10  20  34  53  75 102 133 171 215 248 290
#     4  10  19  33  48  68 100 133 166 207 248 294
#     4  11  20  36  54  71 103 138 173 210 243 290
#
# _framework density 16.562792000000002
#
# number of rings (size 3 to 8) (size 9 to 14) (size 15 to 20)
#    0.000    2.000    4.286    2.143    2.000    1.714 
#    0.000    0.000    0.000    0.000    0.000    9.000 
#    0.000    0.000    0.000    0.000    0.000    0.000 
#
# Total GULP energy -347143.616122 kJ/mol
# GULP energy per Si atom -12397.986290 kJ/mol
# Density = 1.652509 g / cm^3
# Si number density = 16.562792 Si / 1000 Ang^3
#
#
#
# Elastic Constant Matrix: (Units=GPa)
#
#
# Indices 1 2 3 4 5 6 
#
# 1 111.2339 35.6188 60.0614 0.0000 -4.4581 0.0000
# 2 35.6188 85.9110 37.5383 0.0000 3.2348 0.0000
# 3 60.0614 37.5383 85.4319 0.0000 -7.8281 0.0000
# 4 0.0000 0.0000 0.0000 25.9220 0.0000 2.1543
# 5 -4.4581 3.2348 -7.8281 0.0000 35.6988 0.0000
# 6 0.0000 0.0000 0.0000 2.1543 0.0000 22.2233
#
#
#
# Elastic Compliance Matrix: (Units=1/GPa)
#
#
# Indices 1 2 3 4 5 6 
#
# 1 0.014753 -0.001955 -0.009519 0.000000 -0.000068 0.000000
# 2 -0.001955 0.014934 -0.005443 0.000000 -0.002791 0.000000
# 3 -0.009519 -0.005443 0.021151 0.000000 0.003942 0.000000
# 4 0.000000 0.000000 0.000000 0.038891 0.000000 -0.003770
# 5 -0.000068 -0.002791 0.003942 0.000000 0.029121 0.000000
# 6 0.000000 0.000000 0.000000 -0.003770 0.000000 0.045363
#
#
# Mechanical properties :
#
#
# Convention : Reuss Voigt Hill
#
# Bulk Modulus (GPa) = 58.81333 61.00153 59.90743
# Shear Modulus (GPa) = 24.54401 26.72603 25.63502
#
# Velocity S-wave (km/s) = 3.85369 4.02135 3.93841
# Velocity P-wave (km/s) = 7.44229 7.64670 7.54519
#
# Compressibility (1/GPa) = 0.01700295
#
# Stress axis : x y z
#
# Youngs Moduli (GPa) = 67.78126 66.96154 47.27970
#
# Poissons Ratio (x) = 0.13089 0.45007
# Poissons Ratio (y) = 0.13249 0.25736
# Poissons Ratio (z) = 0.64524 0.36450
#
# Static dielectric constant tensor:
#      x y z
#    x 3.298780 0.000000 -0.329420 
#    y 0.000000 3.095640 0.000000 
#    z -0.329420 0.000000 3.199660 
# 
# 
# High freq. dielectric constant tensor:
#      x y z
#    x 1.637090 0.000000 -0.012810 
#    y 0.000000 1.632610 0.000000 
#    z -0.012810 0.000000 1.630100 
# 
# From -- ./inp_files/223166.got.cif
#   From: 2010.06.25/outbox.cif.g09.slc.cpg/sg12_112_cif.got.tgz:223166.got - 2010.06.28 00:19:55.
