data_PCOD8089619
_publ_section_title
;
Structure prediction by ZEFSAII (Michael W. Deem and Ramdas Pophale) SiO2 
 PCOD8089619
Probable space group: C 2/M
;
_chemical_formula_sum "Si O2"
_cell_formula_units_Z 40
_cell_length_a 27.088205
_cell_length_b 8.625367
_cell_length_c 11.531424
_cell_angle_alpha 90.000000
_cell_angle_beta 126.553204
_cell_angle_gamma 90.000000
_cell_volume 2164.316514
_symmetry_space_group_name_H-M "C 2/M"
_symmetry_group_IT_number 12
_symmetry_cell_setting 'monoclinic'
loop_
_space_group_symop_operation_xyz
x,y,z
-x,y,-z
-x,-y,-z
x,-y,z
1/2+x,1/2+y,z
1/2-x,1/2+y,-z
1/2-x,1/2-y,-z
1/2+x,1/2-y,z
loop_
_atom_site_type_symbol
_atom_site_label
_atom_site_fract_x
_atom_site_fract_y
_atom_site_fract_z
Si Si1 0.798583 0.679866 0.922414
Si Si2 0.445347 0.317454 0.501808
Si Si3 0.965295 0.817005 0.788081
Si Si4 0.584724 0.181231 0.059821
Si Si5 0.827606 0.320743 0.222939
O O1 0.780034 0.500000 0.895398
O O2 0.847683 0.721202 0.892256
O O3 0.737953 0.779571 0.811731
O O4 0.827194 0.724603 0.086906
O O5 0.500000 0.244457 0.500000
O O6 0.453471 0.500000 0.517536
O O7 0.450669 0.252171 0.639720
O O8 0.379679 0.277798 0.357645
O O9 0.918776 0.731206 0.810892
O O10 0.955127 0.000000 0.784347
O O11 0.035474 0.777235 0.916781
O O12 0.569870 0.000000 0.025310
O O13 0.842050 0.500000 0.262671
#
# Coordination Sequence:
#
# PCOD8089619 Si02
#       5
#     8   8   8   8   8
#     4   9  19  35  53  75 103 134 167 205 251 300
#     4  10  21  36  53  74 103 137 167 202 252 302
#     4  10  20  33  51  76 104 133 168 208 249 297
#     4  10  19  33  54  76 101 134 169 207 250 295
#     4  10  20  33  53  79 103 130 167 210 251 295
#
# _framework density 18.481584999999999
#
# number of rings (size 3 to 8) (size 9 to 14) (size 15 to 20)
#    0.000    2.200    0.000    4.200    0.000    4.400 
#    0.000    1.000    0.000    0.000    0.000    0.000 
#    0.000    0.000    0.000    0.000    0.000    0.000 
#
# Total GULP energy -248055.018629 kJ/mol
# GULP energy per Si atom -12402.750931 kJ/mol
# Density = 1.843952 g / cm^3
# Si number density = 18.481585 Si / 1000 Ang^3
#
#
#
# Elastic Constant Matrix: (Units=GPa)
#
#
# Indices 1 2 3 4 5 6 
#
# 1 145.6645 19.4661 58.8228 0.0000 -8.6474 0.0000
# 2 19.4661 21.7271 6.7724 0.0000 -5.8518 0.0000
# 3 58.8228 6.7724 105.1120 0.0000 -11.1883 0.0000
# 4 0.0000 0.0000 0.0000 27.0175 0.0000 1.5174
# 5 -8.6474 -5.8518 -11.1883 0.0000 22.0604 0.0000
# 6 0.0000 0.0000 0.0000 1.5174 0.0000 29.7073
#
#
#
# Elastic Compliance Matrix: (Units=1/GPa)
#
#
# Indices 1 2 3 4 5 6 
#
# 1 0.009891 -0.007451 -0.005130 0.000000 -0.000701 0.000000
# 2 -0.007451 0.055541 0.001954 0.000000 0.012803 0.000000
# 3 -0.005130 0.001954 0.012790 0.000000 0.004994 0.000000
# 4 0.000000 0.000000 0.000000 0.037120 0.000000 -0.001896
# 5 -0.000701 0.012803 0.004994 0.000000 0.050985 0.000000
# 6 0.000000 0.000000 0.000000 -0.001896 0.000000 0.033759
#
#
# Mechanical properties :
#
#
# Convention : Reuss Voigt Hill
#
# Bulk Modulus (GPa) = 17.55374 49.18068 33.36721
# Shear Modulus (GPa) = 20.80501 28.25318 24.52909
#
# Velocity S-wave (km/s) = 3.35881 3.91413 3.64705
# Velocity P-wave (km/s) = 4.95588 6.86262 5.98566
#
# Compressibility (1/GPa) = 0.05696792
#
# Stress axis : x y z
#
# Youngs Moduli (GPa) = 101.10523 18.00483 78.18627
#
# Poissons Ratio (x) = 0.13416 0.40106
# Poissons Ratio (y) = 0.75337 -0.15280
# Poissons Ratio (z) = 0.51863 -0.03519
#
# Static dielectric constant tensor:
#      x y z
#    x 3.613510 0.000000 -0.175900 
#    y 0.000000 3.346840 0.000000 
#    z -0.175900 0.000000 3.272290 
# 
# 
# High freq. dielectric constant tensor:
#      x y z
#    x 1.725890 0.000000 -0.003190 
#    y 0.000000 1.717360 0.000000 
#    z -0.003190 0.000000 1.702420 
# 
# From -- ./inp_files/162644.got.cif
#   From: 2010.06.25/outbox.cif.g09.slc.cpg/sg12_82_cif.got.tgz:162644.got - 2010.06.28 00:19:55.
