data_PCOD8089646
_publ_section_title
;
Structure prediction by ZEFSAII (Michael W. Deem and Ramdas Pophale) SiO2 
 PCOD8089646
Probable space group: C 2/M
;
_chemical_formula_sum "Si O2"
_cell_formula_units_Z 48
_cell_length_a 15.253460
_cell_length_b 8.766854
_cell_length_c 18.985785
_cell_angle_alpha 90.000000
_cell_angle_beta 91.143716
_cell_angle_gamma 90.000000
_cell_volume 2538.365571
_symmetry_space_group_name_H-M "C 2/M"
_symmetry_group_IT_number 12
_symmetry_cell_setting 'monoclinic'
loop_
_space_group_symop_operation_xyz
x,y,z
-x,y,-z
-x,-y,-z
x,-y,z
1/2+x,1/2+y,z
1/2-x,1/2+y,-z
1/2-x,1/2-y,-z
1/2+x,1/2-y,z
loop_
_atom_site_type_symbol
_atom_site_label
_atom_site_fract_x
_atom_site_fract_y
_atom_site_fract_z
Si Si1 0.987723 0.319716 0.580557
Si Si2 0.841472 0.818880 0.668903
Si Si3 0.646909 0.180523 0.181715
Si Si4 0.330698 0.178956 0.166650
Si Si5 0.507207 0.181328 0.921398
Si Si6 0.146527 0.321959 0.674492
O O1 0.978384 0.500000 0.590933
O O2 0.899309 0.240980 0.605728
O O3 0.000000 0.274455 0.500000
O O4 0.069738 0.249503 0.625640
O O5 0.875747 0.753520 0.743430
O O6 0.742218 0.758991 0.653939
O O7 0.844368 0.000000 0.673621
O O8 0.741049 0.230142 0.153112
O O9 0.574196 0.241206 0.125860
O O10 0.643413 0.000000 0.190061
O O11 0.400950 0.236460 0.110627
O O12 0.371180 0.215362 0.244039
O O13 0.309775 0.000000 0.159753
O O14 0.505441 0.000000 0.922782
O O15 0.500000 0.248983 0.000000
O O16 0.145061 0.500000 0.659954
#
# Coordination Sequence:
#
# PCOD8089646 Si02
#       6
#     8   8   8   8   8   8
#     4  10  20  34  53  77 104 134 169 208 249 296
#     4  10  20  35  54  74 100 134 170 207 251 303
#     4  10  19  33  54  77 100 128 169 215 251 292
#     4   9  17  32  53  73  98 133 170 206 247 299
#     4   9  18  32  51  75 104 139 170 198 248 314
#     4   8  16  32  51  71  98 133 166 200 250 301
#
# _framework density 18.909806
#
# number of rings (size 3 to 8) (size 9 to 14) (size 15 to 20)
#    0.000    2.667    0.000    3.000    0.000    4.333 
#    0.000    9.167    0.000    3.500    0.000    0.000 
#    0.000    0.000    0.000    0.000    0.000    0.000 
#
# Total GULP energy -297582.588015 kJ/mol
# GULP energy per Si atom -12399.274501 kJ/mol
# Density = 1.886677 g / cm^3
# Si number density = 18.909806 Si / 1000 Ang^3
#
#
#
# Elastic Constant Matrix: (Units=GPa)
#
#
# Indices 1 2 3 4 5 6 
#
# 1 93.8879 21.6236 59.0566 0.0000 -20.6101 0.0000
# 2 21.6236 39.1083 27.3842 0.0000 -6.9952 0.0000
# 3 59.0566 27.3842 112.2436 0.0000 -21.8498 0.0000
# 4 0.0000 0.0000 0.0000 20.4770 0.0000 -4.4042
# 5 -20.6101 -6.9952 -21.8498 0.0000 30.6303 0.0000
# 6 0.0000 0.0000 0.0000 -4.4042 0.0000 26.8176
#
#
#
# Elastic Compliance Matrix: (Units=1/GPa)
#
#
# Indices 1 2 3 4 5 6 
#
# 1 0.017152 -0.003524 -0.007054 0.000000 0.005704 0.000000
# 2 -0.003524 0.031662 -0.005719 0.000000 0.000781 0.000000
# 3 -0.007054 -0.005719 0.014908 0.000000 0.004582 0.000000
# 4 0.000000 0.000000 0.000000 0.050623 0.000000 0.008314
# 5 0.005704 0.000781 0.004582 0.000000 0.039932 0.000000
# 6 0.000000 0.000000 0.000000 0.008314 0.000000 0.038654
#
#
# Mechanical properties :
#
#
# Convention : Reuss Voigt Hill
#
# Bulk Modulus (GPa) = 32.12491 51.26319 41.69405
# Shear Modulus (GPa) = 21.19524 24.73000 22.96262
#
# Velocity S-wave (km/s) = 3.35156 3.62026 3.48850
# Velocity P-wave (km/s) = 5.65709 6.68156 6.19055
#
# Compressibility (1/GPa) = 0.03112849
#
# Stress axis : x y z
#
# Youngs Moduli (GPa) = 58.30218 31.58328 67.07819
#
# Poissons Ratio (x) = 0.11129 0.47320
# Poissons Ratio (y) = 0.20544 0.38361
# Poissons Ratio (z) = 0.41129 0.18062
#
# Static dielectric constant tensor:
#      x y z
#    x 3.752300 0.000000 0.042320 
#    y 0.000000 3.105550 0.000000 
#    z 0.042320 0.000000 3.556750 
# 
# 
# High freq. dielectric constant tensor:
#      x y z
#    x 1.749010 0.000000 -0.003180 
#    y 0.000000 1.700240 0.000000 
#    z -0.003180 0.000000 1.732650 
# 
# From -- ./inp_files/267719.got.cif
#   From: 2010.06.25/outbox.cif.g09.slc.cpg/sg12_134_cif.got.tgz:267719.got - 2010.06.28 00:19:55.
