data_PCOD8089551
_publ_section_title
;
Structure prediction by ZEFSAII (Michael W. Deem and Ramdas Pophale) SiO2 
 PCOD8089551
Probable space group: C 2/M
;
_chemical_formula_sum "Si O2"
_cell_formula_units_Z 64
_cell_length_a 15.539347
_cell_length_b 9.118097
_cell_length_c 23.960749
_cell_angle_alpha 90.000000
_cell_angle_beta 98.690207
_cell_angle_gamma 90.000000
_cell_volume 3356.005799
_symmetry_space_group_name_H-M "C 2/M"
_symmetry_group_IT_number 12
_symmetry_cell_setting 'monoclinic'
loop_
_space_group_symop_operation_xyz
x,y,z
-x,y,-z
-x,-y,-z
x,-y,z
1/2+x,1/2+y,z
1/2-x,1/2+y,-z
1/2-x,1/2-y,-z
1/2+x,1/2-y,z
loop_
_atom_site_type_symbol
_atom_site_label
_atom_site_fract_x
_atom_site_fract_y
_atom_site_fract_z
Si Si1 0.169171 0.172056 0.824566
Si Si2 0.393788 0.673999 0.430228
Si Si3 0.410941 0.673209 0.557774
Si Si4 0.683137 0.827913 0.248443
Si Si5 0.957326 0.672937 0.940385
Si Si6 0.771858 0.825078 0.633830
Si Si7 0.999824 0.672447 0.176103
Si Si8 0.263434 0.171071 0.943452
O O1 0.244114 0.218637 0.789085
O O2 0.194768 0.221389 0.889878
O O3 0.079623 0.251627 0.799036
O O4 0.154019 0.000000 0.820197
O O5 0.379710 0.500000 0.422409
O O6 0.383894 0.726281 0.493398
O O7 0.490015 0.721884 0.418067
O O8 0.323050 0.758931 0.386933
O O9 0.409077 0.500000 0.557949
O O10 0.341675 0.735653 0.595358
O O11 0.695829 0.729800 0.303710
O O12 0.589418 0.786293 0.214786
O O13 0.689610 0.000000 0.263656
O O14 0.971471 0.500000 0.943632
O O15 0.999657 0.733647 0.887560
O O16 0.856641 0.713766 0.928031
O O17 0.000000 0.745247 0.000000
O O18 0.766151 0.000000 0.632556
O O19 0.985091 0.500000 0.175530
O O20 0.256657 0.000000 0.954818
O O21 0.250000 0.250000 0.000000
#
# Coordination Sequence:
#
# PCOD8089551 Si02
#       8
#     8   8   8   8   8   8   8   8
#     4  10  21  38  58  79 108 142 178 225 281 331
#     4   9  17  35  60  83 111 153 192 221 268 337
#     4   8  17  34  57  83 114 150 188 227 272 330
#     4  10  22  41  58  75 106 151 193 227 269 335
#     4   9  16  29  52  79 106 136 173 215 263 325
#     4  11  22  35  54  84 116 144 184 238 284 318
#     4  10  20  37  60  82 104 139 187 229 269 328
#     4  10  19  33  53  80 110 140 175 219 270 329
#
# _framework density 19.07029
#
# number of rings (size 3 to 8) (size 9 to 14) (size 15 to 20)
#    0.000    2.375    1.250    2.250    0.000    3.500 
#    0.000    7.500    0.000    2.250    0.000    0.000 
#    0.000    0.000    0.000    0.000    0.000    0.000 
#
# Total GULP energy -396741.933195 kJ/mol
# GULP energy per Si atom -12398.185412 kJ/mol
# Density = 1.902688 g / cm^3
# Si number density = 19.070290 Si / 1000 Ang^3
#
#
#
# Elastic Constant Matrix: (Units=GPa)
#
#
# Indices 1 2 3 4 5 6 
#
# 1 132.4661 39.1653 54.5811 0.0000 9.9705 0.0000
# 2 39.1653 37.7014 34.3050 0.0000 3.1506 0.0000
# 3 54.5811 34.3050 93.7344 0.0000 8.3702 0.0000
# 4 0.0000 0.0000 0.0000 27.2019 0.0000 -1.0370
# 5 9.9705 3.1506 8.3702 0.0000 25.0565 0.0000
# 6 0.0000 0.0000 0.0000 -1.0370 0.0000 27.0283
#
#
#
# Elastic Compliance Matrix: (Units=1/GPa)
#
#
# Indices 1 2 3 4 5 6 
#
# 1 0.011765 -0.008970 -0.003351 0.000000 -0.002434 0.000000
# 2 -0.008970 0.046606 -0.011987 0.000000 0.001713 0.000000
# 3 -0.003351 -0.011987 0.017268 0.000000 -0.002928 0.000000
# 4 0.000000 0.000000 0.000000 0.036816 0.000000 0.001413
# 5 -0.002434 0.001713 -0.002928 0.000000 0.041641 0.000000
# 6 0.000000 0.000000 0.000000 0.001413 0.000000 0.037052
#
#
# Mechanical properties :
#
#
# Convention : Reuss Voigt Hill
#
# Bulk Modulus (GPa) = 37.00328 57.77829 47.39079
# Shear Modulus (GPa) = 20.09884 24.91403 22.50644
#
# Velocity S-wave (km/s) = 3.24996 3.61838 3.43911
# Velocity P-wave (km/s) = 5.79040 6.91522 6.37765
#
# Compressibility (1/GPa) = 0.02702463
#
# Stress axis : x y z
#
# Youngs Moduli (GPa) = 84.99904 21.45651 57.91094
#
# Poissons Ratio (x) = 0.19245 0.19403
# Poissons Ratio (y) = 0.76240 0.69418
# Poissons Ratio (z) = 0.28479 0.25720
#
# Static dielectric constant tensor:
#      x y z
#    x 3.729040 0.000000 -0.097100 
#    y 0.000000 3.116900 0.000000 
#    z -0.097100 0.000000 3.610480 
# 
# 
# High freq. dielectric constant tensor:
#      x y z
#    x 1.757590 0.000000 0.000890 
#    y 0.000000 1.706410 0.000000 
#    z 0.000890 0.000000 1.743420 
# 
# From -- ./inp_files/338830.got.cif
#   From: 2010.06.25/outbox.cif.g09.slc.cpg/sg12_170_cif.got.tgz:338830.got - 2010.06.28 00:19:55.
