data_PCOD8089566
_publ_section_title
;
Structure prediction by ZEFSAII (Michael W. Deem and Ramdas Pophale) SiO2 
 PCOD8089566
Probable space group: C 2/M
;
_chemical_formula_sum "Si O2"
_cell_formula_units_Z 56
_cell_length_a 13.158383
_cell_length_b 13.704141
_cell_length_c 16.301130
_cell_angle_alpha 90.000000
_cell_angle_beta 107.495989
_cell_angle_gamma 90.000000
_cell_volume 2803.503734
_symmetry_space_group_name_H-M "C 2/M"
_symmetry_group_IT_number 12
_symmetry_cell_setting 'monoclinic'
loop_
_space_group_symop_operation_xyz
x,y,z
-x,y,-z
-x,-y,-z
x,-y,z
1/2+x,1/2+y,z
1/2-x,1/2+y,-z
1/2-x,1/2-y,-z
1/2+x,1/2-y,z
loop_
_atom_site_type_symbol
_atom_site_label
_atom_site_fract_x
_atom_site_fract_y
_atom_site_fract_z
Si Si1 0.347817 0.254604 0.758966
Si Si2 0.903646 0.287804 0.600112
Si Si3 0.880392 0.291668 0.946103
Si Si4 0.877604 0.780085 0.347972
Si Si5 0.300577 0.385874 0.490690
Si Si6 0.685546 0.612918 0.973557
Si Si7 0.534917 0.613318 0.788334
O O1 0.395812 0.190351 0.695608
O O2 0.360359 0.191052 0.844587
O O3 0.224264 0.279891 0.709713
O O4 0.416037 0.353194 0.783500
O O5 0.826940 0.363493 0.533440
O O6 0.860578 0.176448 0.574975
O O7 0.027363 0.294204 0.600560
O O8 0.807934 0.366351 0.980161
O O9 0.849969 0.179023 0.958290
O O10 0.000000 0.316699 0.000000
O O11 0.844836 0.851868 0.413347
O O12 0.926259 0.843258 0.287294
O O13 0.322513 0.500000 0.509892
O O14 0.670034 0.500000 0.993783
O O15 0.613632 0.646270 0.879635
O O16 0.534649 0.500000 0.777317
#
# Coordination Sequence:
#
# PCOD8089566 Si02
#       7
#     8   8   8   8   8   8   8
#     4  10  20  35  54  82 110 146 181 227 278 330
#     4   9  21  35  55  84 117 144 179 233 277 323
#     4  11  21  37  60  80 109 151 189 227 279 333
#     4  10  19  35  58  80 111 146 185 223 276 328
#     4  10  20  37  59  84 111 146 188 226 272 328
#     4  10  22  36  54  82 110 139 186 235 275 326
#     4  10  19  33  53  81 109 137 181 234 275 321
#
# _framework density 19.975004999999999
#
# number of rings (size 3 to 8) (size 9 to 14) (size 15 to 20)
#    0.000    2.000    2.857    0.857    0.000    4.571 
#    0.000    0.714    0.000   14.571    0.000    0.000 
#    0.000    0.000    0.000    0.000    0.000    0.000 
#
# Total GULP energy -347105.538920 kJ/mol
# GULP energy per Si atom -12396.626390 kJ/mol
# Density = 1.992954 g / cm^3
# Si number density = 19.975005 Si / 1000 Ang^3
#
#
#
# Elastic Constant Matrix: (Units=GPa)
#
#
# Indices 1 2 3 4 5 6 
#
# 1 110.0388 8.7663 10.0976 0.0000 38.2435 0.0000
# 2 8.7663 43.8126 9.7596 0.0000 0.7991 0.0000
# 3 10.0976 9.7596 59.5845 0.0000 13.6948 0.0000
# 4 0.0000 0.0000 0.0000 15.7935 0.0000 3.9682
# 5 38.2435 0.7991 13.6948 0.0000 32.3836 0.0000
# 6 0.0000 0.0000 0.0000 3.9682 0.0000 17.9889
#
#
#
# Elastic Compliance Matrix: (Units=1/GPa)
#
#
# Indices 1 2 3 4 5 6 
#
# 1 0.016048 -0.003384 0.002405 0.000000 -0.019885 0.000000
# 2 -0.003384 0.024442 -0.004663 0.000000 0.005365 0.000000
# 3 0.002405 -0.004663 0.019678 0.000000 -0.011047 0.000000
# 4 0.000000 0.000000 0.000000 0.067033 0.000000 -0.014787
# 5 -0.019885 0.005365 -0.011047 0.000000 0.058902 0.000000
# 6 0.000000 0.000000 0.000000 -0.014787 0.000000 0.058852
#
#
# Mechanical properties :
#
#
# Convention : Reuss Voigt Hill
#
# Bulk Modulus (GPa) = 20.45660 30.07586 25.26623
# Shear Modulus (GPa) = 18.34637 25.55403 21.95020
#
# Velocity S-wave (km/s) = 3.03391 3.58061 3.31854
# Velocity P-wave (km/s) = 4.74722 5.67308 5.23068
#
# Compressibility (1/GPa) = 0.04888398
#
# Stress axis : x y z
#
# Youngs Moduli (GPa) = 62.31488 40.91243 50.81796
#
# Poissons Ratio (x) = 0.13845 -0.12222
# Poissons Ratio (y) = 0.21087 0.23697
# Poissons Ratio (z) = -0.14987 0.19078
#
# Static dielectric constant tensor:
#      x y z
#    x 4.042390 0.000000 0.177520 
#    y 0.000000 3.167100 0.000000 
#    z 0.177520 0.000000 3.916540 
# 
# 
# High freq. dielectric constant tensor:
#      x y z
#    x 1.797450 0.000000 0.005270 
#    y 0.000000 1.727520 0.000000 
#    z 0.005270 0.000000 1.795330 
# 
# From -- ./inp_files/262970.got.cif
#   From: 2010.06.25/outbox.cif.g09.slc.cpg/sg12_132_cif.got.tgz:262970.got - 2010.06.28 00:19:55.
