data_PCOD8089627
_publ_section_title
;
Structure prediction by ZEFSAII (Michael W. Deem and Ramdas Pophale) SiO2 
 PCOD8089627
Probable space group: C 2/M
;
_chemical_formula_sum "Si O2"
_cell_formula_units_Z 56
_cell_length_a 25.146583
_cell_length_b 8.988780
_cell_length_c 14.217299
_cell_angle_alpha 90.000000
_cell_angle_beta 90.289386
_cell_angle_gamma 90.000000
_cell_volume 3213.596079
_symmetry_space_group_name_H-M "C 2/M"
_symmetry_group_IT_number 12
_symmetry_cell_setting 'monoclinic'
loop_
_space_group_symop_operation_xyz
x,y,z
-x,y,-z
-x,-y,-z
x,-y,z
1/2+x,1/2+y,z
1/2-x,1/2+y,-z
1/2-x,1/2-y,-z
1/2+x,1/2-y,z
loop_
_atom_site_type_symbol
_atom_site_label
_atom_site_fract_x
_atom_site_fract_y
_atom_site_fract_z
Si Si1 0.687011 0.826044 0.402586
Si Si2 0.557999 0.829173 0.886831
Si Si3 0.349809 0.327017 0.208383
Si Si4 0.435668 0.170775 0.896071
Si Si5 0.745041 0.823890 0.899342
Si Si6 0.309067 0.671526 0.410164
Si Si7 0.846479 0.174798 0.780408
O O1 0.667569 0.767817 0.503963
O O2 0.748486 0.781742 0.387419
O O3 0.652253 0.750105 0.321523
O O4 0.677111 0.000000 0.397142
O O5 0.590943 0.720204 0.819817
O O6 0.496228 0.797275 0.867600
O O7 0.571601 0.000000 0.863506
O O8 0.572904 0.793891 0.994486
O O9 0.339685 0.500000 0.186018
O O10 0.308849 0.228924 0.149397
O O11 0.344104 0.294652 0.318990
O O12 0.399099 0.279685 0.836296
O O13 0.420584 0.000000 0.874846
O O14 0.794806 0.771084 0.837233
O O15 0.743551 0.000000 0.911701
O O16 0.750000 0.750000 0.000000
O O17 0.311387 0.500000 0.440255
O O18 0.846005 0.000000 0.766082
#
# Coordination Sequence:
#
# PCOD8089627 Si02
#       7
#     8   8   8   8   8   8   8
#     4  10  19  33  54  76 102 138 175 213 258 310
#     4   9  19  36  56  78 103 138 180 221 260 306
#     4  11  21  34  53  78 108 140 172 212 262 312
#     4   9  19  36  56  76 103 139 180 220 261 307
#     4  11  23  35  49  73 107 143 175 211 257 311
#     4   9  19  34  51  75 106 137 172 213 257 310
#     4  11  22  34  51  77 107 138 174 216 263 311
#
# _framework density 17.425961999999998
#
# number of rings (size 3 to 8) (size 9 to 14) (size 15 to 20)
#    0.000    2.000    1.429    3.429    0.000    6.857 
#    0.000    1.429    0.000    0.857    0.000    6.000 
#    0.000    0.000    0.000    0.000    0.000    0.000 
#
# Total GULP energy -347322.787287 kJ/mol
# GULP energy per Si atom -12404.385260 kJ/mol
# Density = 1.738630 g / cm^3
# Si number density = 17.425962 Si / 1000 Ang^3
#
#
#
# Elastic Constant Matrix: (Units=GPa)
#
#
# Indices 1 2 3 4 5 6 
#
# 1 73.6971 32.3997 44.8594 0.0000 -7.6309 0.0000
# 2 32.3997 70.7249 52.6119 0.0000 -1.8914 0.0000
# 3 44.8594 52.6119 108.5999 0.0000 -6.0510 0.0000
# 4 0.0000 0.0000 0.0000 34.6635 0.0000 1.9059
# 5 -7.6309 -1.8914 -6.0510 0.0000 20.6713 0.0000
# 6 0.0000 0.0000 0.0000 1.9059 0.0000 30.9724
#
#
#
# Elastic Compliance Matrix: (Units=1/GPa)
#
#
# Indices 1 2 3 4 5 6 
#
# 1 0.019520 -0.004722 -0.005488 0.000000 0.005168 0.000000
# 2 -0.004722 0.023274 -0.009458 0.000000 -0.002382 0.000000
# 3 -0.005488 -0.009458 0.016159 0.000000 0.001839 0.000000
# 4 0.000000 0.000000 0.000000 0.028947 0.000000 -0.001781
# 5 0.005168 -0.002382 0.001839 0.000000 0.050604 0.000000
# 6 0.000000 0.000000 0.000000 -0.001781 0.000000 0.032396
#
#
# Mechanical properties :
#
#
# Convention : Reuss Voigt Hill
#
# Bulk Modulus (GPa) = 50.97039 56.97376 53.97208
# Shear Modulus (GPa) = 23.06533 25.47151 24.26842
#
# Velocity S-wave (km/s) = 3.64210 3.82736 3.73588
# Velocity P-wave (km/s) = 6.85564 7.23169 7.04617
#
# Compressibility (1/GPa) = 0.01961923
#
# Stress axis : x y z
#
# Youngs Moduli (GPa) = 51.22826 42.96615 61.88434
#
# Poissons Ratio (x) = 0.20288 0.33961
# Poissons Ratio (y) = 0.24190 0.58527
# Poissons Ratio (z) = 0.28113 0.40635
#
# Static dielectric constant tensor:
#      x y z
#    x 3.091640 0.000000 -0.060940 
#    y 0.000000 3.251850 0.000000 
#    z -0.060940 0.000000 3.305940 
# 
# 
# High freq. dielectric constant tensor:
#      x y z
#    x 1.654300 0.000000 -0.001780 
#    y 0.000000 1.681130 0.000000 
#    z -0.001780 0.000000 1.674980 
# 
# From -- ./inp_files/231068.got.cif
#   From: 2010.06.25/outbox.cif.g09.slc.cpg/sg12_116_cif.got.tgz:231068.got - 2010.06.28 00:19:55.
