data_PCOD8089783
_publ_section_title
;
Structure prediction by ZEFSAII (Michael W. Deem and Ramdas Pophale) SiO2 
 PCOD8089783
Probable space group: C 2/M
;
_chemical_formula_sum "Si O2"
_cell_formula_units_Z 64
_cell_length_a 13.247830
_cell_length_b 14.084132
_cell_length_c 20.081963
_cell_angle_alpha 90.000000
_cell_angle_beta 117.794083
_cell_angle_gamma 90.000000
_cell_volume 3314.684781
_symmetry_space_group_name_H-M "C 2/M"
_symmetry_group_IT_number 12
_symmetry_cell_setting 'monoclinic'
loop_
_space_group_symop_operation_xyz
x,y,z
-x,y,-z
-x,-y,-z
x,-y,z
1/2+x,1/2+y,z
1/2-x,1/2+y,-z
1/2-x,1/2-y,-z
1/2+x,1/2-y,z
loop_
_atom_site_type_symbol
_atom_site_label
_atom_site_fract_x
_atom_site_fract_y
_atom_site_fract_z
Si Si1 0.674051 0.108314 0.912774
Si Si2 0.468874 0.762242 0.800746
Si Si3 0.563966 0.775633 0.451124
Si Si4 0.737935 0.108077 0.309252
Si Si5 0.406855 0.725615 0.286766
Si Si6 0.774330 0.890163 0.474645
Si Si7 0.632425 0.892348 0.048810
Si Si8 0.196617 0.785413 0.148667
O O1 0.568752 0.174021 0.860956
O O2 0.788247 0.141420 0.908063
O O3 0.644901 0.000000 0.885333
O O4 0.697670 0.118570 0.998555
O O5 0.367359 0.829426 0.745911
O O6 0.513069 0.699521 0.752078
O O7 0.417989 0.693711 0.843395
O O8 0.500000 0.793531 0.500000
O O9 0.476983 0.784721 0.363004
O O10 0.658033 0.858040 0.474400
O O11 0.620386 0.671007 0.464933
O O12 0.851828 0.131581 0.301955
O O13 0.766049 0.130278 0.394027
O O14 0.703853 0.000000 0.287463
O O15 0.306447 0.795421 0.230332
O O16 0.798054 0.000000 0.498168
O O17 0.691369 0.823025 0.119778
O O18 0.643434 0.000000 0.079412
O O19 0.500000 0.864935 0.000000
#
# Coordination Sequence:
#
# PCOD8089783 Si02
#       8
#     8   8   8   8   8   8   8   8
#     4  10  20  35  57  85 112 146 186 228 273 324
#     4  10  19  35  55  79 112 147 182 226 272 333
#     4  11  21  38  60  78 112 150 180 234 281 327
#     4  10  19  33  54  80 107 137 180 230 273 327
#     4  10  21  35  53  84 109 144 183 224 280 333
#     4  10  22  36  56  84 108 140 185 229 277 331
#     4  10  19  34  58  86 112 142 186 232 274 319
#     4  10  21  34  56  84 116 146 183 229 276 330
#
# _framework density 19.308021
#
# number of rings (size 3 to 8) (size 9 to 14) (size 15 to 20)
#    0.000    1.875    3.750    0.750    0.000    3.000 
#    0.000    0.625    0.000    4.125    0.000    0.000 
#    0.000    0.000    0.000    0.000    0.000    0.000 
#
# Total GULP energy -396747.964907 kJ/mol
# GULP energy per Si atom -12398.373903 kJ/mol
# Density = 1.926407 g / cm^3
# Si number density = 19.308021 Si / 1000 Ang^3
#
#
#
# Elastic Constant Matrix: (Units=GPa)
#
#
# Indices 1 2 3 4 5 6 
#
# 1 143.4277 32.1499 36.1294 0.0000 -36.2887 0.0000
# 2 32.1499 46.3689 19.7786 0.0000 -11.5459 0.0000
# 3 36.1294 19.7786 69.3767 0.0000 -12.1665 0.0000
# 4 0.0000 0.0000 0.0000 10.1494 0.0000 -6.6816
# 5 -36.2887 -11.5459 -12.1665 0.0000 33.9112 0.0000
# 6 0.0000 0.0000 0.0000 -6.6816 0.0000 21.0100
#
#
#
# Elastic Compliance Matrix: (Units=1/GPa)
#
#
# Indices 1 2 3 4 5 6 
#
# 1 0.010972 -0.004039 -0.002929 0.000000 0.009316 0.000000
# 2 -0.004039 0.027342 -0.005140 0.000000 0.003143 0.000000
# 3 -0.002929 -0.005140 0.017659 0.000000 0.001451 0.000000
# 4 0.000000 0.000000 0.000000 0.124619 0.000000 0.039632
# 5 0.009316 0.003143 0.001451 0.000000 0.041048 0.000000
# 6 0.000000 0.000000 0.000000 0.039632 0.000000 0.060200
#
#
# Mechanical properties :
#
#
# Convention : Reuss Voigt Hill
#
# Bulk Modulus (GPa) = 31.48903 48.36546 39.92725
# Shear Modulus (GPa) = 15.79069 24.42181 20.10625
#
# Velocity S-wave (km/s) = 2.86288 3.56034 3.23048
# Velocity P-wave (km/s) = 5.22229 6.48114 5.88546
#
# Compressibility (1/GPa) = 0.03175709
#
# Stress axis : x y z
#
# Youngs Moduli (GPa) = 91.13989 36.57427 56.62719
#
# Poissons Ratio (x) = 0.14771 0.16586
# Poissons Ratio (y) = 0.36808 0.29109
# Poissons Ratio (z) = 0.26694 0.18801
#
# Static dielectric constant tensor:
#      x y z
#    x 3.963720 0.000000 -0.301220 
#    y 0.000000 3.261820 0.000000 
#    z -0.301220 0.000000 3.619610 
# 
# 
# High freq. dielectric constant tensor:
#      x y z
#    x 1.764660 0.000000 -0.014860 
#    y 0.000000 1.714500 0.000000 
#    z -0.014860 0.000000 1.758810 
# 
# From -- ./inp_files/305457.got.cif
#   From: 2010.06.25/outbox.cif.g09.slc.cpg/sg12_153_cif.got.tgz:305457.got - 2010.06.28 00:19:55.
