data_PCOD8089517
_publ_section_title
;
Structure prediction by ZEFSAII (Michael W. Deem and Ramdas Pophale) SiO2 
 PCOD8089517
Probable space group: C 2/M
;
_chemical_formula_sum "Si O2"
_cell_formula_units_Z 48
_cell_length_a 22.727738
_cell_length_b 17.756942
_cell_length_c 7.852094
_cell_angle_alpha 90.000000
_cell_angle_beta 53.131514
_cell_angle_gamma 90.000000
_cell_volume 2535.174701
_symmetry_space_group_name_H-M "C 2/M"
_symmetry_group_IT_number 12
_symmetry_cell_setting 'monoclinic'
loop_
_space_group_symop_operation_xyz
x,y,z
-x,y,-z
-x,-y,-z
x,-y,z
1/2+x,1/2+y,z
1/2-x,1/2+y,-z
1/2-x,1/2-y,-z
1/2+x,1/2-y,z
loop_
_atom_site_type_symbol
_atom_site_label
_atom_site_fract_x
_atom_site_fract_y
_atom_site_fract_z
Si Si1 0.787471 0.828803 0.954397
Si Si2 0.046708 0.373721 0.087348
Si Si3 0.417128 0.083989 0.549277
Si Si4 0.286016 0.914641 0.225616
Si Si5 0.073114 0.738539 0.281769
Si Si6 0.229200 0.414264 0.375823
O O1 0.773409 0.865700 0.161654
O O2 0.750000 0.750000 0.000000
O O3 0.758811 0.878543 0.849898
O O4 0.873952 0.809994 0.791641
O O5 0.056612 0.283949 0.111991
O O6 0.000287 0.408906 0.329247
O O7 0.125824 0.412062 0.941286
O O8 0.000000 0.387239 0.000000
O O9 0.395764 0.156918 0.702755
O O10 0.358575 0.089018 0.498538
O O11 0.408198 0.000000 0.650469
O O12 0.259062 0.880453 0.454243
O O13 0.261443 0.000000 0.264389
O O14 0.000000 0.766084 0.500000
O O15 0.257782 0.500000 0.312179
#
# Coordination Sequence:
#
# PCOD8089517 Si02
#       6
#     8   8   8   8   8   8
#     4  12  22  40  59  86 117 159 197 244 295 344
#     4  11  20  33  53  83 123 161 188 223 273 351
#     4  10  19  33  53  78 116 160 193 226 270 339
#     4  11  23  38  60  89 119 158 200 239 289 347
#     4  10  23  40  55  81 116 152 202 237 289 348
#     4  10  21  37  58  85 116 152 196 243 289 342
#
# _framework density 18.933608
#
# number of rings (size 3 to 8) (size 9 to 14) (size 15 to 20)
#    0.000    1.333    5.000    1.000    0.000    6.333 
#    6.000    0.000    0.000    2.000    0.000    2.333 
#    0.000    0.000    0.000    0.000    0.000    0.000 
#
# Total GULP energy -297322.567301 kJ/mol
# GULP energy per Si atom -12388.440304 kJ/mol
# Density = 1.889051 g / cm^3
# Si number density = 18.933608 Si / 1000 Ang^3
#
#
#
# Elastic Constant Matrix: (Units=GPa)
#
#
# Indices 1 2 3 4 5 6 
#
# 1 70.5362 37.2544 45.5448 0.0000 -0.2345 0.0000
# 2 37.2544 69.3256 58.7360 0.0000 -1.8758 0.0000
# 3 45.5448 58.7360 121.6295 0.0000 12.4136 0.0000
# 4 0.0000 0.0000 0.0000 24.8113 0.0000 -2.7633
# 5 -0.2345 -1.8758 12.4136 0.0000 32.1788 0.0000
# 6 0.0000 0.0000 0.0000 -2.7633 0.0000 14.2551
#
#
#
# Elastic Compliance Matrix: (Units=1/GPa)
#
#
# Indices 1 2 3 4 5 6 
#
# 1 0.020979 -0.007548 -0.004353 0.000000 0.001392 0.000000
# 2 -0.007548 0.028385 -0.011497 0.000000 0.006035 0.000000
# 3 -0.004353 -0.011497 0.016109 0.000000 -0.006916 0.000000
# 4 0.000000 0.000000 0.000000 0.041194 0.000000 0.007985
# 5 0.001392 0.006035 -0.006916 0.000000 0.034106 0.000000
# 6 0.000000 0.000000 0.000000 0.007985 0.000000 0.071698
#
#
# Mechanical properties :
#
#
# Convention : Reuss Voigt Hill
#
# Bulk Modulus (GPa) = 53.53935 60.50684 57.02310
# Shear Modulus (GPa) = 18.83293 22.24611 20.53952
#
# Velocity S-wave (km/s) = 3.15728 3.43148 3.29723
# Velocity P-wave (km/s) = 6.45213 6.90846 6.68419
#
# Compressibility (1/GPa) = 0.01867785
#
# Stress axis : x y z
#
# Youngs Moduli (GPa) = 47.66692 35.23002 62.07599
#
# Poissons Ratio (x) = 0.26593 0.27019
# Poissons Ratio (y) = 0.35981 0.71367
# Poissons Ratio (z) = 0.20747 0.40503
#
# Static dielectric constant tensor:
#      x y z
#    x 3.608560 0.000000 0.125330 
#    y 0.000000 4.356870 0.000000 
#    z 0.125330 0.000000 3.676860 
# 
# 
# High freq. dielectric constant tensor:
#      x y z
#    x 1.735850 0.000000 0.016690 
#    y 0.000000 1.711390 0.000000 
#    z 0.016690 0.000000 1.736000 
# 
# From -- ./inp_files/87138.got.cif
#   From: 2010.06.25/outbox.cif.g09.slc.cpg/sg12_44_cif.got.tgz:87138.got - 2010.06.28 00:19:55.
