data_PCOD8089201
_publ_section_title
;
Structure prediction by ZEFSAII (Michael W. Deem and Ramdas Pophale) SiO2 
 PCOD8089201
Probable space group: C 2/M
;
_chemical_formula_sum "Si O2"
_cell_formula_units_Z 56
_cell_length_a 25.711057
_cell_length_b 29.171434
_cell_length_c 13.572435
_cell_angle_alpha 90.000000
_cell_angle_beta 161.294491
_cell_angle_gamma 90.000000
_cell_volume 3264.674920
_symmetry_space_group_name_H-M "C 2/M"
_symmetry_group_IT_number 12
_symmetry_cell_setting 'monoclinic'
loop_
_space_group_symop_operation_xyz
x,y,z
-x,y,-z
-x,-y,-z
x,-y,z
1/2+x,1/2+y,z
1/2-x,1/2+y,-z
1/2-x,1/2-y,-z
1/2+x,1/2-y,z
loop_
_atom_site_type_symbol
_atom_site_label
_atom_site_fract_x
_atom_site_fract_y
_atom_site_fract_z
Si Si1 0.376674 0.798956 0.361754
Si Si2 0.259376 0.549667 0.635842
Si Si3 0.123535 0.049667 0.364159
Si Si4 0.014920 0.798957 0.638246
Si Si5 0.223597 0.354472 0.637907
Si Si6 0.585690 0.354472 0.362093
Si Si7 0.819029 0.300180 0.638058
O O1 0.500000 0.816968 0.500000
O O2 0.430088 0.750000 0.499999
O O3 0.378018 0.835366 0.452569
O O4 0.201810 0.793379 0.999999
O O5 0.177577 0.500000 0.514555
O O6 0.256052 0.557434 0.512104
O O7 0.169193 0.592335 0.526149
O O8 0.442545 0.548505 0.000001
O O9 0.143046 0.092335 0.473852
O O10 0.163023 0.000000 0.485445
O O11 0.000000 0.816968 0.500000
O O12 0.925450 0.835367 0.547433
O O13 0.181557 0.326308 0.465932
O O14 0.415314 0.350050 1.000000
O O15 0.715625 0.326308 0.534068
O O16 0.750000 0.250000 0.500000
O O17 0.000000 0.295920 0.000000
#
# Coordination Sequence:
#
# PCOD8089201 Si02
#       7
#     8   8   8   8   8   8   8
#     4  10  20  33  51  71  94 127 164 206 246 287
#     4   8  13  24  47  75  99 125 160 201 238 279
#     4   8  13  24  47  75  99 125 160 201 238 279
#     4  10  20  33  51  71  94 127 164 206 246 287
#     4  10  19  33  52  74 100 129 164 204 244 289
#     4  10  19  33  52  74 100 129 164 204 244 289
#     4  12  24  34  47  70 101 135 162 195 245 296
#
# _framework density 17.153316
#
# number of rings (size 3 to 8) (size 9 to 14) (size 15 to 20)
#    0.000    2.286    1.429    4.714    0.000    4.571 
#    0.000    0.000    0.000    2.571    0.000    0.000 
#    0.000    0.000    0.000    0.000    0.000    1.143 
#
# Total GULP energy -347055.199875 kJ/mol
# GULP energy per Si atom -12394.828567 kJ/mol
# Density = 1.711427 g / cm^3
# Si number density = 17.153316 Si / 1000 Ang^3
#
#
#
# Elastic Constant Matrix: (Units=GPa)
#
#
# Indices 1 2 3 4 5 6 
#
# 1 125.9946 98.8484 46.3229 0.0000 -3.5521 0.0000
# 2 98.8484 183.6477 41.9743 0.0000 -5.0796 0.0000
# 3 46.3229 41.9743 62.8319 0.0000 -2.0899 0.0000
# 4 0.0000 0.0000 0.0000 13.8905 0.0000 -0.6924
# 5 -3.5521 -5.0796 -2.0899 0.0000 20.0844 0.0000
# 6 0.0000 0.0000 0.0000 -0.6924 0.0000 21.6418
#
#
#
# Elastic Compliance Matrix: (Units=1/GPa)
#
#
# Indices 1 2 3 4 5 6 
#
# 1 0.016076 -0.007008 -0.007160 0.000000 0.000326 0.000000
# 2 -0.007008 0.009509 -0.001151 0.000000 0.001046 0.000000
# 3 -0.007160 -0.001151 0.021988 0.000000 0.000730 0.000000
# 4 0.000000 0.000000 0.000000 0.072107 0.000000 0.002307
# 5 0.000326 0.001046 0.000730 0.000000 0.050188 0.000000
# 6 0.000000 0.000000 0.000000 0.002307 0.000000 0.046281
#
#
# Mechanical properties :
#
#
# Convention : Reuss Voigt Hill
#
# Bulk Modulus (GPa) = 59.04895 82.97393 71.01144
# Shear Modulus (GPa) = 19.80737 23.47857 21.64297
#
# Velocity S-wave (km/s) = 3.40181 3.70367 3.55595
# Velocity P-wave (km/s) = 7.06603 8.17108 7.63856
#
# Compressibility (1/GPa) = 0.01693510
#
# Stress axis : x y z
#
# Youngs Moduli (GPa) = 62.20380 105.16261 45.47994
#
# Poissons Ratio (x) = 0.73693 0.32564
# Poissons Ratio (y) = 0.43589 0.05236
# Poissons Ratio (z) = 0.44538 0.12108
#
# Static dielectric constant tensor:
#      x y z
#    x 3.256070 0.000000 -0.020880 
#    y 0.000000 3.512160 0.000000 
#    z -0.020880 0.000000 3.022300 
# 
# 
# High freq. dielectric constant tensor:
#      x y z
#    x 1.644750 0.000000 -0.000240 
#    y 0.000000 1.672550 0.000000 
#    z -0.000240 0.000000 1.642110 
# 
# From -- ./inp_files/178703.got.cif
#   From: 2010.06.25/outbox.cif.g09.slc.cpg/sg12_90_cif.got.tgz:178703.got - 2010.06.28 00:19:55.
