data_PCOD8089290
_publ_section_title
;
Structure prediction by ZEFSAII (Michael W. Deem and Ramdas Pophale) SiO2 
 PCOD8089290
Probable space group: C 2/M
;
_chemical_formula_sum "Si O2"
_cell_formula_units_Z 48
_cell_length_a 14.439891
_cell_length_b 25.598268
_cell_length_c 12.737645
_cell_angle_alpha 90.000000
_cell_angle_beta 30.161939
_cell_angle_gamma 90.000000
_cell_volume 2365.662454
_symmetry_space_group_name_H-M "C 2/M"
_symmetry_group_IT_number 12
_symmetry_cell_setting 'monoclinic'
loop_
_space_group_symop_operation_xyz
x,y,z
-x,y,-z
-x,-y,-z
x,-y,z
1/2+x,1/2+y,z
1/2-x,1/2+y,-z
1/2-x,1/2-y,-z
1/2+x,1/2-y,z
loop_
_atom_site_type_symbol
_atom_site_label
_atom_site_fract_x
_atom_site_fract_y
_atom_site_fract_z
Si Si1 0.669767 0.101848 0.466355
Si Si2 0.001556 0.058800 0.738906
Si Si3 0.822483 0.789533 0.343968
Si Si4 0.024608 0.835614 0.320855
Si Si5 0.288441 0.059363 0.798416
Si Si6 0.199897 0.301434 0.782559
O O1 0.677040 0.164444 0.467400
O O2 0.459365 0.085836 0.690708
O O3 0.749060 0.087240 0.274749
O O4 0.787517 0.072728 0.440616
O O5 0.926484 0.102233 0.729802
O O6 0.985796 0.000000 0.707165
O O7 0.891188 0.063575 0.955202
O O8 0.750000 0.750000 0.500000
O O9 0.848828 0.757593 0.209521
O O10 0.006988 0.814801 0.217098
O O11 0.182790 0.802233 0.224069
O O12 0.824973 0.831136 0.574137
O O13 0.341774 0.000000 0.721964
O O14 0.000000 0.328665 0.000000
#
# Coordination Sequence:
#
# PCOD8089290 Si02
#       6
#     8   8   8   8   8   8
#     4  10  19  33  52  77 113 145 178 226 272 325
#     4  10  20  35  55  78 109 144 180 227 276 326
#     4   9  20  36  54  80 110 144 183 220 267 322
#     4   9  21  38  56  83 110 139 186 225 270 332
#     4  10  20  32  52  82 110 144 184 220 276 339
#     4  10  21  39  59  78 110 146 181 231 276 315
#
# _framework density 20.290299999999998
#
# number of rings (size 3 to 8) (size 9 to 14) (size 15 to 20)
#    0.000    2.333    0.000    2.500    0.000   14.000 
#    0.000    1.667    0.000    1.000    0.000    0.000 
#    0.000    0.000    0.000    0.000    0.000    0.000 
#
# Total GULP energy -297378.178752 kJ/mol
# GULP energy per Si atom -12390.757448 kJ/mol
# Density = 2.024412 g / cm^3
# Si number density = 20.290300 Si / 1000 Ang^3
#
#
#
# Elastic Constant Matrix: (Units=GPa)
#
#
# Indices 1 2 3 4 5 6 
#
# 1 102.4808 60.6958 14.9916 -0.0032 -21.7542 0.0067
# 2 60.6958 157.3847 25.1232 -0.0011 -1.6631 0.0024
# 3 14.9916 25.1232 68.2921 -0.0075 -15.4371 0.0140
# 4 -0.0032 -0.0011 -0.0075 23.3370 0.0023 4.2395
# 5 -21.7542 -1.6631 -15.4371 0.0023 20.8105 -0.0044
# 6 0.0067 0.0024 0.0140 4.2395 -0.0044 31.7272
#
#
#
# Elastic Compliance Matrix: (Units=1/GPa)
#
#
# Indices 1 2 3 4 5 6 
#
# 1 0.017948 -0.007247 0.003407 0.000002 0.020710 -0.000002
# 2 -0.007247 0.009719 -0.004231 -0.000001 -0.009937 0.000001
# 3 0.003407 -0.004231 0.019440 0.000006 0.017644 -0.000007
# 4 0.000002 -0.000001 0.000006 0.043916 0.000000 -0.005868
# 5 0.020710 -0.009937 0.017644 0.000000 0.081996 0.000000
# 6 -0.000002 0.000001 -0.000007 -0.005868 0.000000 0.032303
#
#
# Mechanical properties :
#
#
# Convention : Reuss Voigt Hill
#
# Bulk Modulus (GPa) = 32.29330 58.86433 45.57881
# Shear Modulus (GPa) = 21.57189 30.33142 25.95165
#
# Velocity S-wave (km/s) = 3.26415 3.87055 3.58022
# Velocity P-wave (km/s) = 5.49149 7.00350 6.29307
#
# Compressibility (1/GPa) = 0.03096618
#
# Stress axis : x y z
#
# Youngs Moduli (GPa) = 55.71789 102.89266 51.44100
#
# Poissons Ratio (x) = 0.74562 -0.17528
# Poissons Ratio (y) = 0.40376 0.21763
# Poissons Ratio (z) = -0.18985 0.43531
#
# Static dielectric constant tensor:
#      x y z
#    x 3.872300 -0.000010 -0.066260 
#    y -0.000010 4.099020 0.000010 
#    z -0.066260 0.000010 3.431790 
# 
# 
# High freq. dielectric constant tensor:
#      x y z
#    x 1.783590 0.000000 -0.009470 
#    y 0.000000 1.796580 0.000000 
#    z -0.009470 0.000000 1.773620 
# 
# From -- ./inp_files/218417.got.cif
#   From: 2010.06.25/outbox.cif.g09.slc.cpg/sg12_110_cif.got.tgz:218417.got - 2010.06.28 00:19:55.
