data_PCOD8089234
_publ_section_title
;
Structure prediction by ZEFSAII (Michael W. Deem and Ramdas Pophale) SiO2 
 PCOD8089234
Probable space group: C 2/M
;
_chemical_formula_sum "Si O2"
_cell_formula_units_Z 64
_cell_length_a 14.180823
_cell_length_b 8.879917
_cell_length_c 28.249456
_cell_angle_alpha 90.000000
_cell_angle_beta 88.606782
_cell_angle_gamma 90.000000
_cell_volume 3556.247877
_symmetry_space_group_name_H-M "C 2/M"
_symmetry_group_IT_number 12
_symmetry_cell_setting 'monoclinic'
loop_
_space_group_symop_operation_xyz
x,y,z
-x,y,-z
-x,-y,-z
x,-y,z
1/2+x,1/2+y,z
1/2-x,1/2+y,-z
1/2-x,1/2-y,-z
1/2+x,1/2-y,z
loop_
_atom_site_type_symbol
_atom_site_label
_atom_site_fract_x
_atom_site_fract_y
_atom_site_fract_z
Si Si1 0.342052 0.323259 0.126098
Si Si2 0.983725 0.176353 0.447787
Si Si3 0.653844 0.175630 0.618658
Si Si4 0.491307 0.678671 0.199706
Si Si5 0.496631 0.176301 0.300454
Si Si6 0.365802 0.676976 0.632229
Si Si7 0.000716 0.177529 0.054156
Si Si8 0.368657 0.179482 0.872483
O O1 0.330723 0.500000 0.128291
O O2 0.398673 0.268489 0.171882
O O3 0.400466 0.276764 0.078487
O O4 0.237677 0.253847 0.126026
O O5 0.074814 0.217485 0.415296
O O6 0.000000 0.243167 0.500000
O O7 0.889140 0.246469 0.427116
O O8 0.966565 0.000000 0.450471
O O9 0.592168 0.215550 0.665357
O O10 0.759609 0.234832 0.625659
O O11 0.654140 0.000000 0.608195
O O12 0.504052 0.500000 0.198040
O O13 0.479314 0.734494 0.252800
O O14 0.582473 0.753392 0.174692
O O15 0.592629 0.233685 0.323565
O O16 0.505491 0.000000 0.289968
O O17 0.369533 0.500000 0.643615
O O18 0.083768 0.264650 0.079779
O O19 0.019552 0.000000 0.059281
O O20 0.000000 0.229866 0.000000
O O21 0.372693 0.000000 0.870177
#
# Coordination Sequence:
#
# PCOD8089234 Si02
#       8
#     8   8   8   8   8   8   8   8
#     4   8  17  33  51  72 100 132 163 199 244 291
#     4   9  18  32  50  73 101 132 166 203 244 292
#     4   9  19  34  51  72  99 130 165 205 245 290
#     4  10  20  36  54  72  98 132 165 196 243 301
#     4  10  20  34  51  74 100 125 161 206 247 287
#     4   9  18  34  52  71  99 133 165 199 244 294
#     4   9  18  34  53  73 101 136 169 200 241 295
#     4  10  19  33  52  75 102 129 164 209 248 284
#
# _framework density 17.996497000000002
#
# number of rings (size 3 to 8) (size 9 to 14) (size 15 to 20)
#    0.000    2.750    0.000    1.875    0.000    3.500 
#    0.000    8.750    0.000    0.000    0.000    0.000 
#    0.000    0.000    0.000    0.000    0.000    0.000 
#
# Total GULP energy -396809.266662 kJ/mol
# GULP energy per Si atom -12400.289583 kJ/mol
# Density = 1.795554 g / cm^3
# Si number density = 17.996497 Si / 1000 Ang^3
#
#
#
# Elastic Constant Matrix: (Units=GPa)
#
#
# Indices 1 2 3 4 5 6 
#
# 1 154.1964 34.6468 56.0125 0.0000 0.5323 0.0000
# 2 34.6468 48.2321 36.1058 0.0000 2.6111 0.0000
# 3 56.0125 36.1058 129.3904 0.0000 10.6398 0.0000
# 4 0.0000 0.0000 0.0000 26.9760 0.0000 5.5649
# 5 0.5323 2.6111 10.6398 0.0000 14.3111 0.0000
# 6 0.0000 0.0000 0.0000 5.5649 0.0000 26.3789
#
#
#
# Elastic Compliance Matrix: (Units=1/GPa)
#
#
# Indices 1 2 3 4 5 6 
#
# 1 0.008379 -0.004153 -0.002668 0.000000 0.002430 0.000000
# 2 -0.004153 0.028273 -0.006050 0.000000 -0.000506 0.000000
# 3 -0.002668 -0.006050 0.011155 0.000000 -0.007090 0.000000
# 4 0.000000 0.000000 0.000000 0.038757 0.000000 -0.008176
# 5 0.002430 -0.000506 -0.007090 0.000000 0.075149 0.000000
# 6 0.000000 0.000000 0.000000 -0.008176 0.000000 0.039634
#
#
# Mechanical properties :
#
#
# Convention : Reuss Voigt Hill
#
# Bulk Modulus (GPa) = 45.32233 65.03878 55.18056
# Shear Modulus (GPa) = 21.32708 27.20346 24.26527
#
# Velocity S-wave (km/s) = 3.44622 3.89214 3.67595
# Velocity P-wave (km/s) = 6.40889 7.51109 6.98178
#
# Compressibility (1/GPa) = 0.02206418
#
# Stress axis : x y z
#
# Youngs Moduli (GPa) = 119.34169 35.36978 89.64754
#
# Poissons Ratio (x) = 0.14690 0.23920
# Poissons Ratio (y) = 0.49566 0.54235
# Poissons Ratio (z) = 0.31843 0.21398
#
# Static dielectric constant tensor:
#      x y z
#    x 3.573130 0.000000 0.009680 
#    y 0.000000 3.185110 0.000000 
#    z 0.009680 0.000000 3.381610 
# 
# 
# High freq. dielectric constant tensor:
#      x y z
#    x 1.700860 0.000000 0.002250 
#    y 0.000000 1.686700 0.000000 
#    z 0.002250 0.000000 1.699640 
# 
# From -- ./inp_files/359857.got.cif
#   From: 2010.06.25/outbox.cif.g09.slc.cpg/sg12_180_cif.got.tgz:359857.got - 2010.06.28 00:19:55.
