data_PCOD8089293
_publ_section_title
;
Structure prediction by ZEFSAII (Michael W. Deem and Ramdas Pophale) SiO2 
 PCOD8089293
Probable space group: C 2/M
;
_chemical_formula_sum "Si O2"
_cell_formula_units_Z 64
_cell_length_a 15.324377
_cell_length_b 8.946991
_cell_length_c 25.355179
_cell_angle_alpha 90.000000
_cell_angle_beta 107.582320
_cell_angle_gamma 90.000000
_cell_volume 3313.971576
_symmetry_space_group_name_H-M "C 2/M"
_symmetry_group_IT_number 12
_symmetry_cell_setting 'monoclinic'
loop_
_space_group_symop_operation_xyz
x,y,z
-x,y,-z
-x,-y,-z
x,-y,z
1/2+x,1/2+y,z
1/2-x,1/2+y,-z
1/2-x,1/2-y,-z
1/2+x,1/2-y,z
loop_
_atom_site_type_symbol
_atom_site_label
_atom_site_fract_x
_atom_site_fract_y
_atom_site_fract_z
Si Si1 0.003976 0.675356 0.939053
Si Si2 0.189854 0.177659 0.943547
Si Si3 0.249127 0.822130 0.741536
Si Si4 0.193115 0.677144 0.134315
Si Si5 0.554702 0.669254 0.560420
Si Si6 0.756113 0.332390 0.555809
Si Si7 0.627625 0.825413 0.329518
Si Si8 0.066496 0.326653 0.669653
O O1 0.019771 0.500000 0.932031
O O2 0.086070 0.764642 0.926479
O O3 0.909209 0.734894 0.896836
O O4 0.000000 0.711417 0.000000
O O5 0.234366 0.229857 0.896417
O O6 0.192194 0.000000 0.950505
O O7 0.250000 0.250000 0.000000
O O8 0.275013 0.757160 0.803628
O O9 0.324024 0.758506 0.713771
O O10 0.149089 0.769089 0.707033
O O11 0.248470 0.000000 0.742613
O O12 0.189881 0.500000 0.134870
O O13 0.500000 0.732960 0.500000
O O14 0.521580 0.500000 0.566702
O O15 0.661630 0.672429 0.569505
O O16 0.534286 0.775110 0.606018
O O17 0.785661 0.500000 0.547197
O O18 0.750000 0.250000 0.500000
O O19 0.829608 0.255440 0.608868
O O20 0.519170 0.797501 0.306897
O O21 0.651487 0.000000 0.336125
O O22 0.093805 0.500000 0.672722
#
# Coordination Sequence:
#
# PCOD8089293 Si02
#       8
#     8   8   8   8   8   8   8   8
#     4  10  19  36  59  86 119 155 194 238 287 348
#     4  11  21  36  57  88 121 156 197 241 292 345
#     4  10  20  41  64  79 108 157 198 230 278 346
#     4   9  20  37  60  85 113 153 197 234 282 347
#     4  10  20  35  56  82 112 148 191 232 277 346
#     4  10  19  33  52  78 108 141 179 223 276 336
#     4   9  19  36  57  78 107 146 185 225 279 339
#     4  11  22  36  57  86 115 144 185 242 293 334
#
# _framework density 19.312176000000001
#
# number of rings (size 3 to 8) (size 9 to 14) (size 15 to 20)
#    0.000    2.000    2.500    1.500    0.000    2.000 
#    0.000    5.000    0.000    0.000    0.000    0.000 
#    0.000    0.000    0.000    0.000    0.000    0.000 
#
# Total GULP energy -396793.501533 kJ/mol
# GULP energy per Si atom -12399.796923 kJ/mol
# Density = 1.926822 g / cm^3
# Si number density = 19.312176 Si / 1000 Ang^3
#
#
#
# Elastic Constant Matrix: (Units=GPa)
#
#
# Indices 1 2 3 4 5 6 
#
# 1 137.9015 28.7736 68.0085 0.0000 -5.8603 0.0000
# 2 28.7736 39.6858 29.9176 0.0000 -7.9700 0.0000
# 3 68.0085 29.9176 157.4370 0.0000 -6.7607 0.0000
# 4 0.0000 0.0000 0.0000 14.8089 0.0000 1.2236
# 5 -5.8603 -7.9700 -6.7607 0.0000 32.3346 0.0000
# 6 0.0000 0.0000 0.0000 1.2236 0.0000 27.9547
#
#
#
# Elastic Compliance Matrix: (Units=1/GPa)
#
#
# Indices 1 2 3 4 5 6 
#
# 1 0.009888 -0.004621 -0.003396 0.000000 -0.000057 0.000000
# 2 -0.004621 0.032829 -0.003967 0.000000 0.006425 0.000000
# 3 -0.003396 -0.003967 0.008581 0.000000 0.000201 0.000000
# 4 0.000000 0.000000 0.000000 0.067772 0.000000 -0.002966
# 5 -0.000057 0.006425 0.000201 0.000000 0.032542 0.000000
# 6 0.000000 0.000000 0.000000 -0.002966 0.000000 0.035902
#
#
# Mechanical properties :
#
#
# Convention : Reuss Voigt Hill
#
# Bulk Modulus (GPa) = 36.58740 65.38043 50.98392
# Shear Modulus (GPa) = 22.66651 28.90794 25.78723
#
# Velocity S-wave (km/s) = 3.42963 3.87315 3.65812
# Velocity P-wave (km/s) = 5.88809 7.34368 6.65580
#
# Compressibility (1/GPa) = 0.02733181
#
# Stress axis : x y z
#
# Youngs Moduli (GPa) = 101.13388 30.46130 116.53688
#
# Poissons Ratio (x) = 0.14075 0.39572
# Poissons Ratio (y) = 0.46730 0.46224
# Poissons Ratio (z) = 0.34342 0.12082
#
# Static dielectric constant tensor:
#      x y z
#    x 3.893260 0.000000 -0.186150 
#    y 0.000000 3.280160 0.000000 
#    z -0.186150 0.000000 3.848610 
# 
# 
# High freq. dielectric constant tensor:
#      x y z
#    x 1.766040 0.000000 0.000880 
#    y 0.000000 1.719500 0.000000 
#    z 0.000880 0.000000 1.755090 
# 
# From -- ./inp_files/359895.got.cif
#   From: 2010.06.25/outbox.cif.g09.slc.cpg/sg12_180_cif.got.tgz:359895.got - 2010.06.28 00:19:55.
