data_PCOD8089514
_publ_section_title
;
Structure prediction by ZEFSAII (Michael W. Deem and Ramdas Pophale) SiO2 
 PCOD8089514
Probable space group: C 2/M
;
_chemical_formula_sum "Si O2"
_cell_formula_units_Z 52
_cell_length_a 28.277873
_cell_length_b 9.646524
_cell_length_c 13.707597
_cell_angle_alpha 90.000000
_cell_angle_beta 44.893751
_cell_angle_gamma 90.000000
_cell_volume 2639.107434
_symmetry_space_group_name_H-M "C 2/M"
_symmetry_group_IT_number 12
_symmetry_cell_setting 'monoclinic'
loop_
_space_group_symop_operation_xyz
x,y,z
-x,y,-z
-x,-y,-z
x,-y,z
1/2+x,1/2+y,z
1/2-x,1/2+y,-z
1/2-x,1/2-y,-z
1/2+x,1/2-y,z
loop_
_atom_site_type_symbol
_atom_site_label
_atom_site_fract_x
_atom_site_fract_y
_atom_site_fract_z
Si Si1 0.296104 0.845959 0.301836
Si Si2 0.853375 0.844442 0.523919
Si Si3 0.685571 0.340655 0.203490
Si Si4 0.596900 0.848557 0.700091
Si Si5 0.840402 0.660703 0.940400
Si Si6 0.000000 0.234893 0.000000
Si Si7 0.618477 0.344094 0.954001
O O1 0.216961 0.830367 0.429299
O O2 0.329729 0.835039 0.358681
O O3 0.312128 0.000000 0.232599
O O4 0.322837 0.723184 0.195281
O O5 0.845517 0.796897 0.647299
O O6 0.907962 0.755038 0.384722
O O7 0.880758 0.000000 0.480340
O O8 0.667508 0.500000 0.202706
O O9 0.654644 0.233479 0.171947
O O10 0.765662 0.325339 0.092513
O O11 0.586270 0.000000 0.670770
O O12 0.541489 0.828374 0.864438
O O13 0.862602 0.500000 0.899425
O O14 0.890601 0.745786 0.937880
O O15 0.050374 0.143048 0.990913
O O16 0.639666 0.500000 0.953858
#
# Coordination Sequence:
#
# PCOD8089514 Si02
#       7
#     8   8   8   8   8   4   8
#     4   9  18  34  51  75 111 147 179 217 272 330
#     4  10  19  33  53  78 114 148 174 218 275 329
#     4   9  18  33  52  79 114 149 182 215 265 329
#     4  10  21  35  55  78 104 142 187 230 273 324
#     4  10  19  33  54  80 113 148 181 222 271 323
#     4  10  24  42  56  76 108 146 188 234 276 322
#     4  11  21  34  56  82 109 143 187 233 272 320
#
# _framework density 19.703631000000001
#
# number of rings (size 3 to 8) (size 9 to 14) (size 15 to 20)
#    0.000    2.154    1.538    1.846    0.000    6.769 
#    0.000    0.000    0.000    0.923    0.000    5.385 
#    0.000    0.000    0.000    0.000    0.000    0.000 
#
# Total GULP energy -322286.262802 kJ/mol
# GULP energy per Si atom -12395.625492 kJ/mol
# Density = 1.965878 g / cm^3
# Si number density = 19.703631 Si / 1000 Ang^3
#
#
#
# Elastic Constant Matrix: (Units=GPa)
#
#
# Indices 1 2 3 4 5 6 
#
# 1 66.9019 50.8103 33.7198 0.0000 17.2462 0.0000
# 2 50.8103 156.3186 59.0896 0.0000 27.8990 0.0000
# 3 33.7198 59.0896 99.1126 0.0000 31.5230 0.0000
# 4 0.0000 0.0000 0.0000 23.0241 0.0000 12.9386
# 5 17.2462 27.8990 31.5230 0.0000 25.5256 0.0000
# 6 0.0000 0.0000 0.0000 12.9386 0.0000 26.3514
#
#
#
# Elastic Compliance Matrix: (Units=1/GPa)
#
#
# Indices 1 2 3 4 5 6 
#
# 1 0.021531 -0.005000 -0.002397 0.000000 -0.006122 0.000000
# 2 -0.005000 0.009801 -0.002980 0.000000 -0.003654 0.000000
# 3 -0.002397 -0.002980 0.018331 0.000000 -0.017761 0.000000
# 4 0.000000 0.000000 0.000000 0.059984 0.000000 -0.029452
# 5 -0.006122 -0.003654 -0.017761 0.000000 0.069241 0.000000
# 6 0.000000 0.000000 0.000000 -0.029452 0.000000 0.052410
#
#
# Mechanical properties :
#
#
# Convention : Reuss Voigt Hill
#
# Bulk Modulus (GPa) = 34.59187 67.73027 51.16107
# Shear Modulus (GPa) = 19.10685 26.89445 23.00065
#
# Velocity S-wave (km/s) = 3.11740 3.69853 3.42033
# Velocity P-wave (km/s) = 5.52737 7.25865 6.45135
#
# Compressibility (1/GPa) = 0.02890853
#
# Stress axis : x y z
#
# Youngs Moduli (GPa) = 46.44515 102.03142 54.55338
#
# Poissons Ratio (x) = 0.51011 0.13078
# Poissons Ratio (y) = 0.23221 0.16257
# Poissons Ratio (z) = 0.11134 0.30406
#
# Static dielectric constant tensor:
#      x y z
#    x 3.507540 0.000000 0.127340 
#    y 0.000000 3.624380 0.000000 
#    z 0.127340 0.000000 3.227150 
# 
# 
# High freq. dielectric constant tensor:
#      x y z
#    x 1.751140 0.000000 0.020370 
#    y 0.000000 1.774650 0.000000 
#    z 0.020370 0.000000 1.739170 
# 
# From -- ./inp_files/249620.got.cif
#   From: 2010.06.25/outbox.cif.g09.slc.cpg/sg12_125_cif.got.tgz:249620.got - 2010.06.28 00:19:55.
