data_PCOD8089287
_publ_section_title
;
Structure prediction by ZEFSAII (Michael W. Deem and Ramdas Pophale) SiO2 
 PCOD8089287
Probable space group: C 2/M
;
_chemical_formula_sum "Si O2"
_cell_formula_units_Z 56
_cell_length_a 14.128129
_cell_length_b 13.923077
_cell_length_c 14.866810
_cell_angle_alpha 90.000000
_cell_angle_beta 92.270673
_cell_angle_gamma 90.000000
_cell_volume 2922.109783
_symmetry_space_group_name_H-M "C 2/M"
_symmetry_group_IT_number 12
_symmetry_cell_setting 'monoclinic'
loop_
_space_group_symop_operation_xyz
x,y,z
-x,y,-z
-x,-y,-z
x,-y,z
1/2+x,1/2+y,z
1/2-x,1/2+y,-z
1/2-x,1/2-y,-z
1/2+x,1/2-y,z
loop_
_atom_site_type_symbol
_atom_site_label
_atom_site_fract_x
_atom_site_fract_y
_atom_site_fract_z
Si Si1 0.219816 0.110087 0.061787
Si Si2 0.278309 0.207389 0.630032
Si Si3 0.873600 0.612383 0.788519
Si Si4 0.888131 0.292523 0.978320
Si Si5 0.096677 0.744469 0.528669
Si Si6 0.241815 0.894506 0.266237
Si Si7 0.548916 0.107921 0.683550
O O1 0.144675 0.181360 0.010343
O O2 0.197418 0.118906 0.166521
O O3 0.204563 0.000000 0.028269
O O4 0.328117 0.142179 0.045278
O O5 0.289454 0.134038 0.713623
O O6 0.173198 0.190624 0.584682
O O7 0.355437 0.192161 0.555148
O O8 0.295147 0.316394 0.664698
O O9 0.876069 0.500000 0.812266
O O10 0.858352 0.672010 0.878232
O O11 0.969165 0.652211 0.745740
O O12 0.000000 0.304409 0.000000
O O13 0.057399 0.660324 0.589576
O O14 0.000000 0.803785 0.500000
O O15 0.354291 0.885526 0.257337
O O16 0.215433 0.000000 0.304167
O O17 0.518587 0.000000 0.659534
#
# Coordination Sequence:
#
# PCOD8089287 Si02
#       7
#     8   8   8   8   8   8   8
#     4  10  21  38  60  85 117 155 197 237 285 348
#     4  10  20  34  53  81 108 144 184 226 287 328
#     4  11  21  35  56  84 116 146 186 235 289 344
#     4  11  23  38  59  90 123 155 190 242 298 343
#     4  10  19  33  52  77 110 144 177 232 277 337
#     4   9  17  34  57  78 104 142 190 232 272 334
#     4   9  18  30  52  83 108 139 181 231 286 336
#
# _framework density 19.164234
#
# number of rings (size 3 to 8) (size 9 to 14) (size 15 to 20)
#    0.000    2.000    2.857    1.286    0.000    3.429 
#    0.000    2.143    0.000    1.714    0.000    0.000 
#    0.000    0.000    0.000    0.000    0.000    0.000 
#
# Total GULP energy -347057.716344 kJ/mol
# GULP energy per Si atom -12394.918441 kJ/mol
# Density = 1.912062 g / cm^3
# Si number density = 19.164234 Si / 1000 Ang^3
#
#
#
# Elastic Constant Matrix: (Units=GPa)
#
#
# Indices 1 2 3 4 5 6 
#
# 1 86.5836 18.3936 13.8730 0.0000 7.2210 0.0000
# 2 18.3936 88.8897 21.3473 0.0000 -4.9860 0.0000
# 3 13.8730 21.3473 69.4761 0.0000 0.7554 0.0000
# 4 0.0000 0.0000 0.0000 21.6370 0.0000 -3.7201
# 5 7.2210 -4.9860 0.7554 0.0000 30.6672 0.0000
# 6 0.0000 0.0000 0.0000 -3.7201 0.0000 21.3726
#
#
#
# Elastic Compliance Matrix: (Units=1/GPa)
#
#
# Indices 1 2 3 4 5 6 
#
# 1 0.012611 -0.002374 -0.001753 0.000000 -0.003312 0.000000
# 2 -0.002374 0.012726 -0.003465 0.000000 0.002713 0.000000
# 3 -0.001753 -0.003465 0.015814 0.000000 -0.000540 0.000000
# 4 0.000000 0.000000 0.000000 0.047643 0.000000 0.008293
# 5 -0.003312 0.002713 -0.000540 0.000000 0.033843 0.000000
# 6 0.000000 0.000000 0.000000 0.008293 0.000000 0.048232
#
#
# Mechanical properties :
#
#
# Convention : Reuss Voigt Hill
#
# Bulk Modulus (GPa) = 38.51225 39.13078 38.82152
# Shear Modulus (GPa) = 25.67938 27.49106 26.58522
#
# Velocity S-wave (km/s) = 3.66452 3.79159 3.72860
# Velocity P-wave (km/s) = 6.16802 6.29533 6.23200
#
# Compressibility (1/GPa) = 0.02596576
#
# Stress axis : x y z
#
# Youngs Moduli (GPa) = 79.29587 78.58121 63.23481
#
# Poissons Ratio (x) = 0.18659 0.11082
# Poissons Ratio (y) = 0.18828 0.21914
# Poissons Ratio (z) = 0.13897 0.27232
#
# Static dielectric constant tensor:
#      x y z
#    x 3.542530 0.000000 0.047330 
#    y 0.000000 3.395550 0.000000 
#    z 0.047330 0.000000 3.526010 
# 
# 
# High freq. dielectric constant tensor:
#      x y z
#    x 1.738230 0.000000 -0.000640 
#    y 0.000000 1.723460 0.000000 
#    z -0.000640 0.000000 1.753650 
# 
# From -- ./inp_files/214240.got.cif
#   From: 2010.06.25/outbox.cif.g09.slc.cpg/sg12_108_cif.got.tgz:214240.got - 2010.06.28 00:19:55.
