data_PCOD8089928
_publ_section_title
;
Structure prediction by ZEFSAII (Michael W. Deem and Ramdas Pophale) SiO2 
 PCOD8089928
Probable space group: C 2/M
;
_chemical_formula_sum "Si O2"
_cell_formula_units_Z 56
_cell_length_a 14.330093
_cell_length_b 14.019818
_cell_length_c 20.277275
_cell_angle_alpha 90.000000
_cell_angle_beta 42.771883
_cell_angle_gamma 90.000000
_cell_volume 2766.448916
_symmetry_space_group_name_H-M "C 2/M"
_symmetry_group_IT_number 12
_symmetry_cell_setting 'monoclinic'
loop_
_space_group_symop_operation_xyz
x,y,z
-x,y,-z
-x,-y,-z
x,-y,z
1/2+x,1/2+y,z
1/2-x,1/2+y,-z
1/2-x,1/2-y,-z
1/2+x,1/2-y,z
loop_
_atom_site_type_symbol
_atom_site_label
_atom_site_fract_x
_atom_site_fract_y
_atom_site_fract_z
Si Si1 0.716402 0.268060 0.755244
Si Si2 0.673099 0.112953 0.084152
Si Si3 0.846519 0.254880 0.552135
Si Si4 0.722697 0.107896 0.523798
Si Si5 0.052823 0.389440 0.899745
Si Si6 0.478559 0.612379 0.935228
Si Si7 0.080354 0.391346 0.273814
O O1 0.738003 0.241188 0.667746
O O2 0.688843 0.171454 0.811755
O O3 0.588137 0.338726 0.830783
O O4 0.854991 0.321186 0.705810
O O5 0.569237 0.151249 0.082926
O O6 0.626045 0.149960 0.179749
O O7 0.666894 0.000000 0.087088
O O8 0.828232 0.146732 0.989089
O O9 0.836156 0.166634 0.506235
O O10 0.803281 0.350688 0.535750
O O11 0.000000 0.261724 0.500000
O O12 0.582727 0.112447 0.637739
O O13 0.776095 0.000000 0.488247
O O14 0.088493 0.500000 0.869249
O O15 0.000000 0.370274 0.000000
O O16 0.497622 0.500000 0.918560
O O17 0.500000 0.644040 0.000000
O O18 0.133791 0.500000 0.256981
#
# Coordination Sequence:
#
# PCOD8089928 Si02
#       7
#     8   8   8   8   8   8   8
#     4  12  22  36  60  90 120 161 198 258 319 361
#     4   9  18  35  58  83 116 155 197 250 297 356
#     4  11  24  43  64  96 130 157 213 273 311 378
#     4  10  23  44  68  91 126 171 207 255 323 382
#     4  10  23  42  58  81 121 170 218 247 284 361
#     4  10  19  33  54  87 125 151 189 249 313 373
#     4  10  19  35  63  94 121 155 202 250 314 385
#
# _framework density 20.242557000000001
#
# number of rings (size 3 to 8) (size 9 to 14) (size 15 to 20)
#    0.000    1.714    2.857    1.714    0.000    4.000 
#    2.571    0.000    0.000    0.000    0.000    0.000 
#    0.000    0.000    0.000    0.000    0.000    0.000 
#
# Total GULP energy -347229.030198 kJ/mol
# GULP energy per Si atom -12401.036793 kJ/mol
# Density = 2.019648 g / cm^3
# Si number density = 20.242557 Si / 1000 Ang^3
#
#
#
# Elastic Constant Matrix: (Units=GPa)
#
#
# Indices 1 2 3 4 5 6 
#
# 1 104.1193 37.4123 17.4587 0.0000 12.4144 0.0000
# 2 37.4123 103.9748 26.1105 0.0000 10.2627 0.0000
# 3 17.4587 26.1105 87.3075 -0.0001 16.7692 0.0001
# 4 0.0000 0.0000 -0.0001 29.3304 0.0000 -4.4506
# 5 12.4144 10.2627 16.7692 0.0000 22.4286 0.0000
# 6 0.0000 0.0000 0.0001 -4.4506 0.0000 13.2663
#
#
#
# Elastic Compliance Matrix: (Units=1/GPa)
#
#
# Indices 1 2 3 4 5 6 
#
# 1 0.011490 -0.003604 -0.000368 0.000000 -0.004436 0.000000
# 2 -0.003604 0.011687 -0.002488 0.000000 -0.001493 0.000000
# 3 -0.000368 -0.002488 0.014028 0.000000 -0.009146 0.000000
# 4 0.000000 0.000000 0.000000 0.035923 0.000000 0.012051
# 5 -0.004436 -0.001493 -0.009146 0.000000 0.054562 0.000000
# 6 0.000000 0.000000 0.000000 0.012051 0.000000 0.079422
#
#
# Mechanical properties :
#
#
# Convention : Reuss Voigt Hill
#
# Bulk Modulus (GPa) = 41.17698 50.81830 45.99764
# Shear Modulus (GPa) = 21.91767 27.29973 24.60870
#
# Velocity S-wave (km/s) = 3.29409 3.67635 3.49046
# Velocity P-wave (km/s) = 5.90373 6.57115 6.24636
#
# Compressibility (1/GPa) = 0.02428541
#
# Stress axis : x y z
#
# Youngs Moduli (GPa) = 87.03253 85.56810 71.28573
#
# Poissons Ratio (x) = 0.30840 0.02622
# Poissons Ratio (y) = 0.31368 0.17733
# Poissons Ratio (z) = 0.03201 0.21286
#
# Static dielectric constant tensor:
#      x y z
#    x 3.746700 0.000000 0.032580 
#    y 0.000000 3.728030 0.000000 
#    z 0.032580 0.000000 3.616170 
# 
# 
# High freq. dielectric constant tensor:
#      x y z
#    x 1.787210 0.000000 0.002600 
#    y 0.000000 1.790880 0.000000 
#    z 0.002600 0.000000 1.787730 
# 
# From -- ./inp_files/310787.got.cif
#   From: 2010.06.25/outbox.cif.g09.slc.cpg/sg12_156_cif.got.tgz:310787.got - 2010.06.28 00:19:55.
