data_PCOD8089919
_publ_section_title
;
Structure prediction by ZEFSAII (Michael W. Deem and Ramdas Pophale) SiO2 
 PCOD8089919
Probable space group: C 2/M
;
_chemical_formula_sum "Si O2"
_cell_formula_units_Z 56
_cell_length_a 23.159568
_cell_length_b 8.595318
_cell_length_c 19.498542
_cell_angle_alpha 90.000000
_cell_angle_beta 127.303366
_cell_angle_gamma 90.000000
_cell_volume 3087.456232
_symmetry_space_group_name_H-M "C 2/M"
_symmetry_group_IT_number 12
_symmetry_cell_setting 'monoclinic'
loop_
_space_group_symop_operation_xyz
x,y,z
-x,y,-z
-x,-y,-z
x,-y,z
1/2+x,1/2+y,z
1/2-x,1/2+y,-z
1/2-x,1/2-y,-z
1/2+x,1/2-y,z
loop_
_atom_site_type_symbol
_atom_site_label
_atom_site_fract_x
_atom_site_fract_y
_atom_site_fract_z
Si Si1 0.409386 0.316984 0.192486
Si Si2 0.433778 0.678719 0.501932
Si Si3 0.779181 0.181260 0.329343
Si Si4 0.276412 0.182197 0.180603
Si Si5 0.184828 0.819653 0.993739
Si Si6 0.058216 0.679530 0.347283
Si Si7 0.296650 0.682329 0.595782
O O1 0.425812 0.500000 0.211935
O O2 0.344591 0.275614 0.198591
O O3 0.480285 0.220347 0.260972
O O4 0.389021 0.266661 0.098609
O O5 0.500000 0.713585 0.500000
O O6 0.433368 0.500000 0.527138
O O7 0.361221 0.719934 0.409019
O O8 0.441144 0.791548 0.571300
O O9 0.760729 0.271832 0.246892
O O10 0.725206 0.238064 0.349140
O O11 0.767265 0.000000 0.308049
O O12 0.200234 0.221517 0.084765
O O13 0.294527 0.000000 0.188106
O O14 0.188994 0.000000 0.984392
O O15 0.250000 0.750000 0.000000
O O16 0.075883 0.500000 0.346029
O O17 0.118673 0.785070 0.354544
O O18 0.281976 0.500000 0.589387
O O19 0.250000 0.750000 0.500000
#
# Coordination Sequence:
#
# PCOD8089919 Si02
#       7
#     8   8   8   8   8   8   8
#     4  10  19  34  55  81 114 150 186 225 276 329
#     4  10  21  36  54  77 109 145 179 218 270 325
#     4  11  22  36  56  81 111 146 185 226 272 324
#     4  10  19  33  54  84 117 147 184 227 274 327
#     4   8  16  30  51  78 110 147 183 222 269 326
#     4  12  24  37  56  81 109 142 184 229 276 326
#     4  12  24  41  61  80 105 141 187 232 274 322
#
# _framework density 18.137907999999999
#
# number of rings (size 3 to 8) (size 9 to 14) (size 15 to 20)
#    0.000    1.571    1.429    4.714    0.000    3.143 
#    0.000    0.000    0.000    0.857    0.000    6.000 
#    0.000    0.000    0.000    0.000    0.000    0.000 
#
# Total GULP energy -347084.837768 kJ/mol
# GULP energy per Si atom -12395.887063 kJ/mol
# Density = 1.809663 g / cm^3
# Si number density = 18.137908 Si / 1000 Ang^3
#
#
#
# Elastic Constant Matrix: (Units=GPa)
#
#
# Indices 1 2 3 4 5 6 
#
# 1 71.8408 1.3734 40.2998 0.0000 -8.8132 0.0000
# 2 1.3734 40.3677 39.3624 0.0000 14.0496 0.0000
# 3 40.2998 39.3624 95.6195 0.0000 -50.8048 0.0000
# 4 0.0000 0.0000 0.0000 27.2299 0.0000 -1.7536
# 5 -8.8132 14.0496 -50.8048 0.0000 -24.5332 0.0000
# 6 0.0000 0.0000 0.0000 -1.7536 0.0000 28.3054
#
#
#
# Elastic Compliance Matrix: (Units=1/GPa)
#
#
# Indices 1 2 3 4 5 6 
#
# 1 0.017541 0.002442 -0.005239 0.000000 0.005946 0.000000
# 2 0.002442 0.021222 -0.001797 0.000000 0.014997 0.000000
# 3 -0.005239 -0.001797 0.006599 0.000000 -0.012812 0.000000
# 4 0.000000 0.000000 0.000000 0.036871 0.000000 0.002284
# 5 0.005946 0.014997 -0.012812 0.000000 -0.007777 0.000000
# 6 0.000000 0.000000 0.000000 0.002284 0.000000 0.035470
#
#
# Mechanical properties :
#
#
# Convention : Reuss Voigt Hill
#
# Bulk Modulus (GPa) = 27.64404 41.09989 34.37197
# Shear Modulus (GPa) = 38.11787 14.65326 26.38557
#
# Velocity S-wave (km/s) = 4.58925 2.84541 3.81822
# Velocity P-wave (km/s) = 6.58451 5.78826 6.19918
#
# Compressibility (1/GPa) = 0.03617416
#
# Stress axis : x y z
#
# Youngs Moduli (GPa) = 57.00841 47.12135 151.54687
#
# Poissons Ratio (x) = -0.11508 0.79394
# Poissons Ratio (y) = -0.13922 0.27233
# Poissons Ratio (z) = 0.29866 0.08468
#
# Static dielectric constant tensor:
#      x y z
#    x 3.206980 0.000000 -0.062570 
#    y 0.000000 3.451180 0.000000 
#    z -0.062570 0.000000 4.157760 
# 
# 
# High freq. dielectric constant tensor:
#      x y z
#    x 1.675890 0.000000 -0.000500 
#    y 0.000000 1.714590 0.000000 
#    z -0.000500 0.000000 1.718250 
# 
# From -- ./inp_files/288207.got.cif
#   From: 2010.06.25/outbox.cif.g09.slc.cpg/sg12_145_cif.got.tgz:288207.got - 2010.06.28 00:19:55.
