data_PCOD8089594
_publ_section_title
;
Structure prediction by ZEFSAII (Michael W. Deem and Ramdas Pophale) SiO2 
 PCOD8089594
Probable space group: C 2/M
;
_chemical_formula_sum "Si O2"
_cell_formula_units_Z 48
_cell_length_a 25.620233
_cell_length_b 19.992876
_cell_length_c 5.309853
_cell_angle_alpha 90.000000
_cell_angle_beta 65.377891
_cell_angle_gamma 90.000000
_cell_volume 2472.525365
_symmetry_space_group_name_H-M "C 2/M"
_symmetry_group_IT_number 12
_symmetry_cell_setting 'monoclinic'
loop_
_space_group_symop_operation_xyz
x,y,z
-x,y,-z
-x,-y,-z
x,-y,z
1/2+x,1/2+y,z
1/2-x,1/2+y,-z
1/2-x,1/2-y,-z
1/2+x,1/2-y,z
loop_
_atom_site_type_symbol
_atom_site_label
_atom_site_fract_x
_atom_site_fract_y
_atom_site_fract_z
Si Si1 0.536621 0.854321 0.177265
Si Si2 0.892499 0.000000 0.439919
Si Si3 0.291692 0.074196 0.669308
Si Si4 0.564638 0.355836 0.622214
Si Si5 0.844539 0.421216 0.063037
Si Si6 0.818120 0.000000 0.088996
Si Si7 0.563686 0.299216 0.124027
O O1 0.500000 0.868480 0.500000
O O2 0.562219 0.780209 0.132880
O O3 0.500000 0.865399 0.000000
O O4 0.588044 0.906913 0.069418
O O5 0.933486 0.935880 0.378039
O O6 0.862234 0.000000 0.229700
O O7 0.847356 0.000000 0.757650
O O8 0.313921 0.111348 0.371560
O O9 0.320234 0.000000 0.611526
O O10 0.222179 0.066506 0.811512
O O11 0.314878 0.111509 0.873964
O O12 0.595985 0.327019 0.308304
O O13 0.499527 0.330987 0.751126
O O14 0.595953 0.325007 0.806956
O O15 0.832404 0.500000 0.086561
#
# Coordination Sequence:
#
# PCOD8089594 Si02
#       7
#     8   4   8   8   8   4   8
#     4  12  21  34  54  80 111 150 195 213 253 314
#     4  12  22  32  55  98 100 133 180 236 282 314
#     4   8  17  34  54  72 108 142 170 214 285 333
#     4  10  20  34  54  74 116 138 187 216 264 321
#     4  10  19  33  53  83 110 139 184 225 265 316
#     4  10  20  36  57  80 118 131 174 224 296 344
#     4  10  19  37  51  70 109 167 178 206 250 323
#
# _framework density 19.413350000000001
#
# number of rings (size 3 to 8) (size 9 to 14) (size 15 to 20)
#    0.500    1.333    3.333    3.000    0.000    3.333 
#    0.000    0.000    0.000    0.000    0.000   23.333 
#    0.000    0.000    0.000    0.000    0.000    0.000 
#
# Total GULP energy -297394.750077 kJ/mol
# GULP energy per Si atom -12391.447920 kJ/mol
# Density = 1.936916 g / cm^3
# Si number density = 19.413350 Si / 1000 Ang^3
#
#
#
# Elastic Constant Matrix: (Units=GPa)
#
#
# Indices 1 2 3 4 5 6 
#
# 1 48.6984 14.3324 23.6027 0.0000 28.4595 0.0000
# 2 14.3324 23.7871 14.5097 0.0000 1.6897 0.0000
# 3 23.6027 14.5097 129.8647 0.0000 44.6402 0.0000
# 4 0.0000 0.0000 0.0000 51.2750 0.0000 23.7772
# 5 28.4595 1.6897 44.6402 0.0000 42.7847 0.0000
# 6 0.0000 0.0000 0.0000 23.7772 0.0000 13.4755
#
#
#
# Elastic Compliance Matrix: (Units=1/GPa)
#
#
# Indices 1 2 3 4 5 6 
#
# 1 0.049659 -0.032256 0.008568 0.000000 -0.040698 0.000000
# 2 -0.032256 0.066888 -0.012596 0.000000 0.031956 0.000000
# 3 0.008568 -0.012596 0.014561 0.000000 -0.020394 0.000000
# 4 0.000000 0.000000 0.000000 0.107285 0.000000 -0.189301
# 5 -0.040698 0.031956 -0.020394 0.000000 0.070461 0.000000
# 6 0.000000 0.000000 0.000000 -0.189301 0.000000 0.408225
#
#
# Mechanical properties :
#
#
# Convention : Reuss Voigt Hill
#
# Bulk Modulus (GPa) = 17.08226 34.13774 25.61000
# Shear Modulus (GPa) = 6.17925 31.50076 18.84000
#
# Velocity S-wave (km/s) = 1.78603 4.03256 3.11861
# Velocity P-wave (km/s) = 3.61546 6.26936 5.11744
#
# Compressibility (1/GPa) = 0.05854026
#
# Stress axis : x y z
#
# Youngs Moduli (GPa) = 20.13725 14.95038 68.67791
#
# Poissons Ratio (x) = 0.48225 -0.58845
# Poissons Ratio (y) = 0.64956 0.86504
# Poissons Ratio (z) = -0.17254 0.18831
#
# Static dielectric constant tensor:
#      x y z
#    x 53.200360 0.000000 90.916440 
#    y 0.000000 3.197640 0.000000 
#    z 90.916440 0.000000 167.974150 
# 
# 
# High freq. dielectric constant tensor:
#      x y z
#    x 1.731410 0.000000 0.036970 
#    y 0.000000 1.713950 0.000000 
#    z 0.036970 0.000000 1.781680 
# 
# From -- ./inp_files/29018.got.cif
#   From: 2010.06.25/outbox.cif.g09.slc.cpg/sg12_15_cif.got.tgz:29018.got - 2010.06.28 00:19:55.
