data_PCOD8089196
_publ_section_title
;
Structure prediction by ZEFSAII (Michael W. Deem and Ramdas Pophale) SiO2 
 PCOD8089196
Probable space group: C 2/M
;
_chemical_formula_sum "Si O2"
_cell_formula_units_Z 64
_cell_length_a 24.237160
_cell_length_b 8.898564
_cell_length_c 16.981975
_cell_angle_alpha 90.000000
_cell_angle_beta 86.276061
_cell_angle_gamma 90.000000
_cell_volume 3654.869737
_symmetry_space_group_name_H-M "C 2/M"
_symmetry_group_IT_number 12
_symmetry_cell_setting 'monoclinic'
loop_
_space_group_symop_operation_xyz
x,y,z
-x,y,-z
-x,-y,-z
x,-y,z
1/2+x,1/2+y,z
1/2-x,1/2+y,-z
1/2-x,1/2-y,-z
1/2+x,1/2-y,z
loop_
_atom_site_type_symbol
_atom_site_label
_atom_site_fract_x
_atom_site_fract_y
_atom_site_fract_z
Si Si1 0.200798 0.327327 0.338364
Si Si2 0.530831 0.821581 0.349140
Si Si3 0.789441 0.675459 0.101022
Si Si4 0.690651 0.173332 0.726172
Si Si5 0.112235 0.327961 0.214896
Si Si6 0.594587 0.174110 0.617947
Si Si7 0.175924 0.677240 0.067333
Si Si8 0.614907 0.322699 0.455183
O O1 0.202285 0.500000 0.364933
O O2 0.262861 0.270281 0.321277
O O3 0.167858 0.306415 0.260338
O O4 0.171161 0.233763 0.409743
O O5 0.560407 0.755467 0.266880
O O6 0.467119 0.775423 0.352897
O O7 0.560174 0.749954 0.422173
O O8 0.539810 0.000000 0.354588
O O9 0.775614 0.500000 0.098047
O O10 0.817010 0.719933 0.181503
O O11 0.732893 0.762599 0.096282
O O12 0.830860 0.719346 0.024542
O O13 0.632112 0.203784 0.690681
O O14 0.708498 0.000000 0.717744
O O15 0.096429 0.500000 0.204989
O O16 0.125519 0.257602 0.126766
O O17 0.617285 0.275791 0.545760
O O18 0.595750 0.000000 0.591943
O O19 0.177666 0.500000 0.079770
O O20 0.611079 0.500000 0.447555
#
# Coordination Sequence:
#
# PCOD8089196 Si02
#       8
#     8   8   8   8   8   8   8   8
#     4  10  19  33  52  73  98 131 164 195 242 300
#     4   9  18  34  54  73  94 127 168 205 242 289
#     4   9  17  27  43  69 101 129 156 197 243 285
#     4  10  20  33  48  70 101 134 166 203 244 286
#     4   8  14  26  47  72  94 120 158 199 235 279
#     4  10  21  36  52  68  94 134 172 201 240 296
#     4   9  15  26  45  70  98 127 159 196 240 287
#     4  11  22  35  53  76  99 120 154 210 259 291
#
# _framework density 17.510884000000001
#
# number of rings (size 3 to 8) (size 9 to 14) (size 15 to 20)
#    0.000    2.500    1.250    2.625    0.000    3.000 
#    0.000    0.000    0.000    0.750    0.000    5.250 
#    0.000    0.000    0.000   11.750    0.000   13.250 
#
# Total GULP energy -396609.907540 kJ/mol
# GULP energy per Si atom -12394.059611 kJ/mol
# Density = 1.747103 g / cm^3
# Si number density = 17.510884 Si / 1000 Ang^3
#
#
#
# Elastic Constant Matrix: (Units=GPa)
#
#
# Indices 1 2 3 4 5 6 
#
# 1 69.5655 20.0963 54.5670 0.0000 2.7710 0.0000
# 2 20.0963 44.9513 34.4803 0.0000 0.4644 0.0000
# 3 54.5670 34.4803 146.0266 0.0000 -9.1308 0.0000
# 4 0.0000 0.0000 0.0000 17.9875 0.0000 -2.4666
# 5 2.7710 0.4644 -9.1308 0.0000 20.1952 0.0000
# 6 0.0000 0.0000 0.0000 -2.4666 0.0000 18.8590
#
#
#
# Elastic Compliance Matrix: (Units=1/GPa)
#
#
# Indices 1 2 3 4 5 6 
#
# 1 0.021688 -0.003799 -0.007603 0.000000 -0.006326 0.000000
# 2 -0.003799 0.028093 -0.005374 0.000000 -0.002554 0.000000
# 3 -0.007603 -0.005374 0.011352 0.000000 0.006299 0.000000
# 4 0.000000 0.000000 0.000000 0.056609 0.000000 0.007404
# 5 -0.006326 -0.002554 0.006299 0.000000 0.053291 0.000000
# 6 0.000000 0.000000 0.000000 0.007404 0.000000 0.053993
#
#
# Mechanical properties :
#
#
# Convention : Reuss Voigt Hill
#
# Bulk Modulus (GPa) = 36.25531 53.20341 44.72936
# Shear Modulus (GPa) = 18.67262 21.50167 20.08714
#
# Velocity S-wave (km/s) = 3.26903 3.50795 3.39060
# Velocity P-wave (km/s) = 5.91593 6.84519 6.39745
#
# Compressibility (1/GPa) = 0.02758217
#
# Stress axis : x y z
#
# Youngs Moduli (GPa) = 46.10835 35.59619 88.09149
#
# Poissons Ratio (x) = 0.13522 0.66975
# Poissons Ratio (y) = 0.17516 0.47337
# Poissons Ratio (z) = 0.35056 0.19128
#
# Static dielectric constant tensor:
#      x y z
#    x 3.108840 0.000000 -0.259390 
#    y 0.000000 3.125550 0.000000 
#    z -0.259390 0.000000 3.699140 
# 
# 
# High freq. dielectric constant tensor:
#      x y z
#    x 1.648220 0.000000 -0.019340 
#    y 0.000000 1.660520 0.000000 
#    z -0.019340 0.000000 1.689130 
# 
# From -- ./inp_files/287600.got.cif
#   From: 2010.06.25/outbox.cif.g09.slc.cpg/sg12_144_cif.got.tgz:287600.got - 2010.06.28 00:19:55.
