data_PCOD8089422
_publ_section_title
;
Structure prediction by ZEFSAII (Michael W. Deem and Ramdas Pophale) SiO2 
 PCOD8089422
Probable space group: C 2/M
;
_chemical_formula_sum "Si O2"
_cell_formula_units_Z 56
_cell_length_a 32.802129
_cell_length_b 9.280873
_cell_length_c 15.781747
_cell_angle_alpha 90.000000
_cell_angle_beta 141.208087
_cell_angle_gamma 90.000000
_cell_volume 3009.973834
_symmetry_space_group_name_H-M "C 2/M"
_symmetry_group_IT_number 12
_symmetry_cell_setting 'monoclinic'
loop_
_space_group_symop_operation_xyz
x,y,z
-x,y,-z
-x,-y,-z
x,-y,z
1/2+x,1/2+y,z
1/2-x,1/2+y,-z
1/2-x,1/2-y,-z
1/2+x,1/2-y,z
loop_
_atom_site_type_symbol
_atom_site_label
_atom_site_fract_x
_atom_site_fract_y
_atom_site_fract_z
Si Si1 0.445269 0.329091 0.847136
Si Si2 0.202372 0.171646 0.356941
Si Si3 0.782548 0.834621 0.363286
Si Si4 0.988997 0.171714 0.387275
Si Si5 0.345277 0.331424 0.120113
Si Si6 0.427044 0.329613 0.631621
Si Si7 0.257200 0.336504 0.131529
O O1 0.448572 0.500000 0.856931
O O2 0.372577 0.279168 0.754860
O O3 0.459672 0.277476 0.773361
O O4 0.500000 0.263735 0.000000
O O5 0.250000 0.250000 0.500000
O O6 0.226013 0.228008 0.303739
O O7 0.209590 0.000000 0.377520
O O8 0.851419 0.785689 0.514014
O O9 0.789316 0.816796 0.274275
O O10 0.766509 0.000000 0.362553
O O11 0.918775 0.223257 0.241864
O O12 0.000000 0.234542 0.500000
O O13 0.038772 0.236000 0.397286
O O14 0.994449 0.000000 0.400628
O O15 0.342206 0.500000 0.099810
O O16 0.311489 0.284266 0.153138
O O17 0.308414 0.256602 0.982343
O O18 0.432950 0.500000 0.633810
O O19 0.237135 0.500000 0.080984
#
# Coordination Sequence:
#
# PCOD8089422 Si02
#       7
#     8   8   8   8   8   8   8
#     4   9  18  32  50  75 104 133 168 212 263 312
#     4  11  21  35  56  80 106 135 171 217 264 315
#     4  10  19  33  53  76 101 135 178 214 257 312
#     4   9  16  26  45  73 100 127 165 214 259 299
#     4   9  17  30  48  73 103 131 168 214 256 302
#     4   9  16  28  47  70  98 131 165 209 259 305
#     4   9  18  31  48  70 101 138 169 206 257 313
#
# _framework density 18.604811999999999
#
# number of rings (size 3 to 8) (size 9 to 14) (size 15 to 20)
#    0.000    2.571    1.429    1.286    0.000    5.143 
#    0.000    2.857    0.000    3.000    0.000    0.000 
#    0.000    0.000    0.000    0.000    0.000    0.000 
#
# Total GULP energy -347038.509783 kJ/mol
# GULP energy per Si atom -12394.232492 kJ/mol
# Density = 1.856247 g / cm^3
# Si number density = 18.604812 Si / 1000 Ang^3
#
#
#
# Elastic Constant Matrix: (Units=GPa)
#
#
# Indices 1 2 3 4 5 6 
#
# 1 119.8621 20.7615 56.0099 0.0000 1.8379 0.0000
# 2 20.7615 28.9387 24.6971 0.0000 5.1588 0.0000
# 3 56.0099 24.6971 128.9415 0.0000 1.4035 0.0000
# 4 0.0000 0.0000 0.0000 22.1996 0.0000 -0.5284
# 5 1.8379 5.1588 1.4035 0.0000 29.7690 0.0000
# 6 0.0000 0.0000 0.0000 -0.5284 0.0000 20.6509
#
#
#
# Elastic Compliance Matrix: (Units=1/GPa)
#
#
# Indices 1 2 3 4 5 6 
#
# 1 0.010947 -0.004598 -0.003878 0.000000 0.000304 0.000000
# 2 -0.004598 0.044658 -0.006478 0.000000 -0.007150 0.000000
# 3 -0.003878 -0.006478 0.010671 0.000000 0.000859 0.000000
# 4 0.000000 0.000000 0.000000 0.045073 0.000000 0.001153
# 5 0.000304 -0.007150 0.000859 0.000000 0.034772 0.000000
# 6 0.000000 0.000000 0.000000 0.001153 0.000000 0.048454
#
#
# Mechanical properties :
#
#
# Convention : Reuss Voigt Hill
#
# Bulk Modulus (GPa) = 27.49711 53.40880 40.45295
# Shear Modulus (GPa) = 21.13215 26.27549 23.70382
#
# Velocity S-wave (km/s) = 3.37388 3.76213 3.57328
# Velocity P-wave (km/s) = 5.47623 6.90223 6.23016
#
# Compressibility (1/GPa) = 0.03636746
#
# Stress axis : x y z
#
# Youngs Moduli (GPa) = 91.35163 22.39224 93.70906
#
# Poissons Ratio (x) = 0.10297 0.36337
# Poissons Ratio (y) = 0.42007 0.60709
# Poissons Ratio (z) = 0.35423 0.14507
#
# Static dielectric constant tensor:
#      x y z
#    x 3.694200 0.000000 -0.025780 
#    y 0.000000 3.050250 0.000000 
#    z -0.025780 0.000000 3.622520 
# 
# 
# High freq. dielectric constant tensor:
#      x y z
#    x 1.730670 0.000000 -0.004860 
#    y 0.000000 1.664980 0.000000 
#    z -0.004860 0.000000 1.729190 
# 
# From -- ./inp_files/250598.got.cif
#   From: 2010.06.25/outbox.cif.g09.slc.cpg/sg12_126_cif.got.tgz:250598.got - 2010.06.28 00:19:55.
