data_PCOD8089612
_publ_section_title
;
Structure prediction by ZEFSAII (Michael W. Deem and Ramdas Pophale) SiO2 
 PCOD8089612
Probable space group: C 2/M
;
_chemical_formula_sum "Si O2"
_cell_formula_units_Z 56
_cell_length_a 15.858290
_cell_length_b 9.633395
_cell_length_c 25.008844
_cell_angle_alpha 90.000000
_cell_angle_beta 50.778151
_cell_angle_gamma 90.000000
_cell_volume 2959.816673
_symmetry_space_group_name_H-M "C 2/M"
_symmetry_group_IT_number 12
_symmetry_cell_setting 'monoclinic'
loop_
_space_group_symop_operation_xyz
x,y,z
-x,y,-z
-x,-y,-z
x,-y,z
1/2+x,1/2+y,z
1/2-x,1/2+y,-z
1/2-x,1/2-y,-z
1/2+x,1/2-y,z
loop_
_atom_site_type_symbol
_atom_site_label
_atom_site_fract_x
_atom_site_fract_y
_atom_site_fract_z
Si Si1 0.289090 0.342192 0.789995
Si Si2 0.374375 0.338330 0.204643
Si Si3 0.925615 0.339156 0.581180
Si Si4 0.009345 0.839916 0.645644
Si Si5 0.718470 0.157728 0.934855
Si Si6 0.184823 0.838221 0.655898
Si Si7 0.588671 0.658312 0.059118
O O1 0.248987 0.500000 0.798115
O O2 0.231616 0.244217 0.770505
O O3 0.417320 0.330470 0.728333
O O4 0.259599 0.289414 0.861064
O O5 0.354568 0.500000 0.201600
O O6 0.388373 0.309598 0.262112
O O7 0.478629 0.284196 0.130089
O O8 0.916392 0.500000 0.602886
O O9 0.981269 0.253588 0.606279
O O10 0.806373 0.275608 0.614484
O O11 0.000000 0.322147 0.500000
O O12 0.119593 0.781234 0.630067
O O13 0.022551 0.000000 0.621602
O O14 0.818868 0.173751 0.934053
O O15 0.677016 0.000000 0.949239
O O16 0.617507 0.251251 0.995310
O O17 0.199672 0.000000 0.640409
O O18 0.575379 0.500000 0.045685
#
# Coordination Sequence:
#
# PCOD8089612 Si02
#       7
#     8   8   8   8   8   8   8
#     4  10  20  33  51  76 104 134 176 226 270 315
#     4  10  19  33  54  75 101 139 181 222 266 321
#     4  10  21  38  59  85 117 147 178 220 270 326
#     4  10  20  36  59  83 109 145 188 227 265 320
#     4   9  18  33  50  69  99 136 172 218 274 321
#     4   9  18  35  58  81 109 148 185 218 270 328
#     4   9  18  32  50  72  96 130 180 225 261 315
#
# _framework density 18.920089999999998
#
# number of rings (size 3 to 8) (size 9 to 14) (size 15 to 20)
#    0.000    2.429    1.429    0.857    0.000    6.000 
#    0.000    4.286    0.000    3.429    0.000    0.000 
#    0.000    0.000    0.000    0.000    0.000    0.000 
#
# Total GULP energy -347124.536651 kJ/mol
# GULP energy per Si atom -12397.304880 kJ/mol
# Density = 1.887703 g / cm^3
# Si number density = 18.920090 Si / 1000 Ang^3
#
#
#
# Elastic Constant Matrix: (Units=GPa)
#
#
# Indices 1 2 3 4 5 6 
#
# 1 113.2626 44.5701 48.0044 0.0000 9.2623 0.0001
# 2 44.5701 54.5253 37.6988 0.0000 7.7944 0.0002
# 3 48.0044 37.6988 95.7957 0.0000 4.1348 0.0000
# 4 0.0000 0.0000 0.0000 23.9265 0.0000 2.4171
# 5 9.2623 7.7944 4.1348 0.0000 28.3313 0.0000
# 6 0.0001 0.0002 0.0000 2.4171 0.0000 26.8088
#
#
#
# Elastic Compliance Matrix: (Units=1/GPa)
#
#
# Indices 1 2 3 4 5 6 
#
# 1 0.013847 -0.008706 -0.003443 0.000000 -0.001630 0.000000
# 2 -0.008706 0.031557 -0.007854 0.000000 -0.004689 0.000000
# 3 -0.003443 -0.007854 0.015209 0.000000 0.001067 0.000000
# 4 0.000000 0.000000 0.000000 0.042179 0.000000 -0.003803
# 5 -0.001630 -0.004689 0.001067 0.000000 0.036964 0.000000
# 6 0.000000 0.000000 0.000000 -0.003803 0.000000 0.037644
#
#
# Mechanical properties :
#
#
# Convention : Reuss Voigt Hill
#
# Bulk Modulus (GPa) = 48.52381 58.23669 53.38025
# Shear Modulus (GPa) = 22.29427 24.70070 23.49748
#
# Velocity S-wave (km/s) = 3.43642 3.61713 3.52793
# Velocity P-wave (km/s) = 6.43799 6.94924 6.69849
#
# Compressibility (1/GPa) = 0.02060844
#
# Stress axis : x y z
#
# Youngs Moduli (GPa) = 72.21653 31.68895 65.75202
#
# Poissons Ratio (x) = 0.27588 0.22636
# Poissons Ratio (y) = 0.62870 0.51639
# Poissons Ratio (z) = 0.24862 0.24887
#
# Static dielectric constant tensor:
#      x y z
#    x 3.517220 0.000000 -0.110690 
#    y 0.000000 3.337380 0.000000 
#    z -0.110690 0.000000 3.565380 
# 
# 
# High freq. dielectric constant tensor:
#      x y z
#    x 1.735080 0.000000 -0.002800 
#    y 0.000000 1.710070 0.000000 
#    z -0.002800 0.000000 1.742220 
# 
# From -- ./inp_files/309006.got.cif
#   From: 2010.06.25/outbox.cif.g09.slc.cpg/sg12_155_cif.got.tgz:309006.got - 2010.06.28 00:19:55.
