data_PCOD8089518
_publ_section_title
;
Structure prediction by ZEFSAII (Michael W. Deem and Ramdas Pophale) SiO2 
 PCOD8089518
Probable space group: C 2/M
;
_chemical_formula_sum "Si O2"
_cell_formula_units_Z 48
_cell_length_a 29.970153
_cell_length_b 8.846265
_cell_length_c 9.282536
_cell_angle_alpha 90.000000
_cell_angle_beta 90.400462
_cell_angle_gamma 90.000000
_cell_volume 2460.962178
_symmetry_space_group_name_H-M "C 2/M"
_symmetry_group_IT_number 12
_symmetry_cell_setting 'monoclinic'
loop_
_space_group_symop_operation_xyz
x,y,z
-x,y,-z
-x,-y,-z
x,-y,z
1/2+x,1/2+y,z
1/2-x,1/2+y,-z
1/2-x,1/2-y,-z
1/2+x,1/2-y,z
loop_
_atom_site_type_symbol
_atom_site_label
_atom_site_fract_x
_atom_site_fract_y
_atom_site_fract_z
Si Si1 0.019301 0.166429 0.159800
Si Si2 0.102452 0.677581 0.062236
Si Si3 0.328885 0.678028 0.737232
Si Si4 0.263697 0.173829 0.355619
Si Si5 0.924806 0.178433 0.236133
Si Si6 0.142884 0.321623 0.563157
O O1 0.060593 0.282172 0.166073
O O2 0.977555 0.217494 0.258539
O O3 0.036828 0.000000 0.206438
O O4 0.000000 0.157536 0.000000
O O5 0.109386 0.500000 0.060612
O O6 0.146930 0.756146 0.122557
O O7 0.095124 0.735235 0.901238
O O8 0.338079 0.500000 0.722108
O O9 0.275376 0.711435 0.761184
O O10 0.347113 0.761831 0.596023
O O11 0.250000 0.250000 0.500000
O O12 0.315487 0.217377 0.325425
O O13 0.262760 0.000000 0.392588
O O14 0.900324 0.235400 0.378597
O O15 0.918354 0.000000 0.212688
O O16 0.133244 0.500000 0.555989
#
# Coordination Sequence:
#
# PCOD8089518 Si02
#       6
#     8   8   8   8   8   8
#     4   8  16  32  52  72  97 131 169 204 243 301
#     4  11  21  33  52  78 104 131 167 212 256 294
#     4  10  19  34  54  75 102 137 172 204 247 303
#     4   8  16  30  50  73  98 131 168 204 244 296
#     4  10  20  35  54  76 102 135 171 204 247 304
#     4  10  19  33  53  79 106 130 165 212 255 294
#
# _framework density 19.504567000000002
#
# number of rings (size 3 to 8) (size 9 to 14) (size 15 to 20)
#    0.000    2.500    0.000    4.000    0.000    5.000 
#    0.000    1.667    0.000    5.000    0.000    0.000 
#    0.000    0.000    0.000    0.000    0.000    0.000 
#
# Total GULP energy -297330.896470 kJ/mol
# GULP energy per Si atom -12388.787353 kJ/mol
# Density = 1.946017 g / cm^3
# Si number density = 19.504567 Si / 1000 Ang^3
#
#
#
# Elastic Constant Matrix: (Units=GPa)
#
#
# Indices 1 2 3 4 5 6 
#
# 1 22.3433 18.9265 -7.7930 0.0000 2.5353 0.0000
# 2 18.9265 64.8392 -0.0687 0.0000 -1.0590 0.0000
# 3 -7.7930 -0.0687 19.0124 0.0000 -0.7659 0.0000
# 4 0.0000 0.0000 0.0000 26.6004 0.0000 0.8527
# 5 2.5353 -1.0590 -0.7659 0.0000 30.1656 0.0000
# 6 0.0000 0.0000 0.0000 0.8527 0.0000 27.2040
#
#
#
# Elastic Compliance Matrix: (Units=1/GPa)
#
#
# Indices 1 2 3 4 5 6 
#
# 1 0.074471 -0.021808 0.030194 0.000000 -0.006258 0.000000
# 2 -0.021808 0.021818 -0.008764 0.000000 0.002376 0.000000
# 3 0.030194 -0.008764 0.064894 0.000000 -0.001198 0.000000
# 4 0.000000 0.000000 0.000000 0.037631 0.000000 -0.001179
# 5 -0.006258 0.002376 -0.001198 0.000000 0.033729 0.000000
# 6 0.000000 0.000000 0.000000 -0.001179 0.000000 0.036796
#
#
# Mechanical properties :
#
#
# Convention : Reuss Voigt Hill
#
# Bulk Modulus (GPa) = 6.23343 14.25828 10.24585
# Shear Modulus (GPa) = 15.45254 23.13601 19.29427
#
# Velocity S-wave (km/s) = 2.81775 3.44784 3.14860
# Velocity P-wave (km/s) = 3.71337 4.81417 4.29915
#
# Compressibility (1/GPa) = 0.16042535
#
# Stress axis : x y z
#
# Youngs Moduli (GPa) = 13.42810 45.83359 15.40983
#
# Poissons Ratio (x) = 0.99954 -0.46529
# Poissons Ratio (y) = 0.29284 0.13506
# Poissons Ratio (z) = -0.40545 0.40171
#
# Static dielectric constant tensor:
#      x y z
#    x 4.514450 0.000000 0.052410 
#    y 0.000000 3.509230 0.000000 
#    z 0.052410 0.000000 3.098120 
# 
# 
# High freq. dielectric constant tensor:
#      x y z
#    x 1.777420 0.000000 0.003690 
#    y 0.000000 1.766720 0.000000 
#    z 0.003690 0.000000 1.711370 
# 
# From -- ./inp_files/108593.got.cif
#   From: 2010.06.25/outbox.cif.g09.slc.cpg/sg12_55_cif.got.tgz:108593.got - 2010.06.28 00:19:55.
