data_PCOD8089241
_publ_section_title
;
Structure prediction by ZEFSAII (Michael W. Deem and Ramdas Pophale) SiO2 
 PCOD8089241
Probable space group: C 2/M
;
_chemical_formula_sum "Si O2"
_cell_formula_units_Z 56
_cell_length_a 14.759364
_cell_length_b 9.695974
_cell_length_c 21.631495
_cell_angle_alpha 90.000000
_cell_angle_beta 101.532200
_cell_angle_gamma 90.000000
_cell_volume 3033.113064
_symmetry_space_group_name_H-M "C 2/M"
_symmetry_group_IT_number 12
_symmetry_cell_setting 'monoclinic'
loop_
_space_group_symop_operation_xyz
x,y,z
-x,y,-z
-x,-y,-z
x,-y,z
1/2+x,1/2+y,z
1/2-x,1/2+y,-z
1/2-x,1/2-y,-z
1/2+x,1/2-y,z
loop_
_atom_site_type_symbol
_atom_site_label
_atom_site_fract_x
_atom_site_fract_y
_atom_site_fract_z
Si Si1 0.284062 0.846499 0.058344
Si Si2 0.343678 0.338458 0.500605
Si Si3 0.452390 0.157955 0.280674
Si Si4 0.741214 0.841941 0.807490
Si Si5 0.971358 0.839251 0.402773
Si Si6 0.900329 0.662981 0.800557
Si Si7 0.504698 0.844473 0.933212
O O1 0.245467 0.798835 0.119109
O O2 0.393379 0.842660 0.079542
O O3 0.249663 0.000000 0.037645
O O4 0.250000 0.750000 0.000000
O O5 0.316933 0.500000 0.500990
O O6 0.250000 0.250000 0.500000
O O7 0.390460 0.303886 0.440956
O O8 0.424603 0.301860 0.560676
O O9 0.362880 0.182074 0.227096
O O10 0.448496 0.252755 0.339589
O O11 0.537431 0.201265 0.249341
O O12 0.460581 0.000000 0.303739
O O13 0.804674 0.741570 0.775432
O O14 0.770882 0.000000 0.801088
O O15 0.967265 0.000000 0.386268
O O16 0.885043 0.500000 0.802741
O O17 0.942246 0.722910 0.870906
O O18 0.468335 0.000000 0.938452
O O19 0.500000 0.767926 0.000000
#
# Coordination Sequence:
#
# PCOD8089241 Si02
#       7
#     8   8   8   8   8   8   8
#     4  10  19  33  52  75 103 135 174 224 278 333
#     4   9  19  37  60  86 118 151 186 228 272 320
#     4  10  21  38  57  79 112 150 188 228 273 330
#     4  10  21  37  54  76 109 143 176 226 285 330
#     4   9  20  38  58  83 116 152 186 226 275 323
#     4  10  20  36  56  78 103 139 187 228 268 331
#     4   9  16  29  51  74  97 130 174 220 268 325
#
# _framework density 18.462879999999998
#
# number of rings (size 3 to 8) (size 9 to 14) (size 15 to 20)
#    0.000    2.429    1.429    1.714    0.000    5.143 
#    0.000    7.857    0.000    2.571    0.000    0.000 
#    0.000    0.000    0.000    0.000    0.000    0.000 
#
# Total GULP energy -347054.265834 kJ/mol
# GULP energy per Si atom -12394.795208 kJ/mol
# Density = 1.842086 g / cm^3
# Si number density = 18.462880 Si / 1000 Ang^3
#
#
#
# Elastic Constant Matrix: (Units=GPa)
#
#
# Indices 1 2 3 4 5 6 
#
# 1 102.5844 52.9070 33.2938 0.0000 -19.6854 0.0000
# 2 52.9070 69.4400 59.8494 0.0000 -8.2475 0.0000
# 3 33.2938 59.8494 101.7152 0.0000 -11.6073 0.0000
# 4 0.0000 0.0000 0.0000 32.4026 0.0000 -1.1734
# 5 -19.6854 -8.2475 -11.6073 0.0000 21.2409 0.0000
# 6 0.0000 0.0000 0.0000 -1.1734 0.0000 32.8808
#
#
#
# Elastic Compliance Matrix: (Units=1/GPa)
#
#
# Indices 1 2 3 4 5 6 
#
# 1 0.020552 -0.019385 0.006392 0.000000 0.015013 0.000000
# 2 -0.019385 0.047590 -0.023035 0.000000 -0.012075 0.000000
# 3 0.006392 -0.023035 0.022341 0.000000 0.009189 0.000000
# 4 0.000000 0.000000 0.000000 0.030902 0.000000 0.001103
# 5 0.015013 -0.012075 0.009189 0.000000 0.061326 0.000000
# 6 0.000000 0.000000 0.000000 0.001103 0.000000 0.030452
#
#
# Mechanical properties :
#
#
# Convention : Reuss Voigt Hill
#
# Bulk Modulus (GPa) = 54.26471 62.87112 58.56791
# Shear Modulus (GPa) = 17.16091 25.81751 21.48921
#
# Velocity S-wave (km/s) = 3.05205 3.74350 3.41532
# Velocity P-wave (km/s) = 6.47109 7.26717 6.88065
#
# Compressibility (1/GPa) = 0.01842818
#
# Stress axis : x y z
#
# Youngs Moduli (GPa) = 48.65677 21.01296 44.76045
#
# Poissons Ratio (x) = 0.40734 -0.28612
# Poissons Ratio (y) = 0.94322 1.03104
# Poissons Ratio (z) = -0.31103 0.48402
#
# Static dielectric constant tensor:
#      x y z
#    x 3.479540 0.000000 -0.060200 
#    y 0.000000 3.247610 0.000000 
#    z -0.060200 0.000000 3.452140 
# 
# 
# High freq. dielectric constant tensor:
#      x y z
#    x 1.721970 0.000000 -0.005650 
#    y 0.000000 1.695430 0.000000 
#    z -0.005650 0.000000 1.719070 
# 
# From -- ./inp_files/309032.got.cif
#   From: 2010.06.25/outbox.cif.g09.slc.cpg/sg12_155_cif.got.tgz:309032.got - 2010.06.28 00:19:55.
