data_PCOD8089213
_publ_section_title
;
Structure prediction by ZEFSAII (Michael W. Deem and Ramdas Pophale) SiO2 
 PCOD8089213
Probable space group: C 2/M
;
_chemical_formula_sum "Si O2"
_cell_formula_units_Z 40
_cell_length_a 27.838038
_cell_length_b 8.793367
_cell_length_c 25.782567
_cell_angle_alpha 90.000000
_cell_angle_beta 20.179861
_cell_angle_gamma 90.000000
_cell_volume 2177.204245
_symmetry_space_group_name_H-M "C 2/M"
_symmetry_group_IT_number 12
_symmetry_cell_setting 'monoclinic'
loop_
_space_group_symop_operation_xyz
x,y,z
-x,y,-z
-x,-y,-z
x,-y,z
1/2+x,1/2+y,z
1/2-x,1/2+y,-z
1/2-x,1/2-y,-z
1/2+x,1/2-y,z
loop_
_atom_site_type_symbol
_atom_site_label
_atom_site_fract_x
_atom_site_fract_y
_atom_site_fract_z
Si Si1 0.003565 0.679050 0.167801
Si Si2 0.219436 0.679679 0.139369
Si Si3 0.477613 0.678165 0.739665
Si Si4 0.012535 0.320545 0.545131
Si Si5 0.708594 0.324048 0.423487
O O1 0.009834 0.500000 0.172644
O O2 0.998847 0.769313 0.226055
O O3 0.866939 0.723612 0.273714
O O4 0.134495 0.734275 0.001197
O O5 0.243584 0.500000 0.114427
O O6 0.152108 0.730464 0.153076
O O7 0.120634 0.733633 0.286568
O O8 0.442563 0.500000 0.773823
O O9 0.617223 0.718031 0.566468
O O10 0.018739 0.500000 0.536775
O O11 0.000000 0.251962 0.500000
O O12 0.154708 0.264370 0.427536
O O13 0.695047 0.500000 0.424143
#
# Coordination Sequence:
#
# PCOD8089213 Si02
#       5
#     8   8   8   8   8
#     4  11  21  33  49  74 108 138 167 204 246 293
#     4  10  20  34  52  75 102 133 169 206 249 298
#     4  10  19  33  52  74 102 137 174 206 243 291
#     4   9  19  37  59  78  96 124 166 213 256 300
#     4   9  20  35  52  76 103 133 169 207 247 296
#
# _framework density 18.372185999999999
#
# number of rings (size 3 to 8) (size 9 to 14) (size 15 to 20)
#    0.000    2.200    0.000    3.000    0.000    3.600 
#    0.000    1.000    0.000    6.000    0.000    0.000 
#    0.000    0.000    0.000    0.000    0.000    0.000 
#
# Total GULP energy -248065.643331 kJ/mol
# GULP energy per Si atom -12403.282167 kJ/mol
# Density = 1.833037 g / cm^3
# Si number density = 18.372186 Si / 1000 Ang^3
#
#
#
# Elastic Constant Matrix: (Units=GPa)
#
#
# Indices 1 2 3 4 5 6 
#
# 1 123.6765 18.1424 57.5493 0.0003 1.1754 0.0004
# 2 18.1424 31.2876 27.7972 0.0156 -0.6726 -0.0070
# 3 57.5493 27.7972 122.8962 0.0011 -21.3848 -0.0011
# 4 0.0003 0.0156 0.0011 30.2963 -0.0008 -3.7165
# 5 1.1754 -0.6726 -21.3848 -0.0008 20.6038 -0.0004
# 6 0.0004 -0.0070 -0.0011 -3.7165 -0.0004 25.7736
#
#
#
# Elastic Compliance Matrix: (Units=1/GPa)
#
#
# Indices 1 2 3 4 5 6 
#
# 1 0.011226 -0.001108 -0.006253 0.000000 -0.007167 -0.000001
# 2 -0.001108 0.041823 -0.010608 -0.000020 -0.009582 0.000008
# 3 -0.006253 -0.010608 0.016435 0.000005 0.017068 -0.000001
# 4 0.000000 -0.000020 0.000005 0.033602 0.000006 0.004845
# 5 -0.007167 -0.009582 0.017068 0.000006 0.066346 0.000000
# 6 -0.000001 0.000008 -0.000001 0.004845 0.000000 0.039498
#
#
# Mechanical properties :
#
#
# Convention : Reuss Voigt Hill
#
# Bulk Modulus (GPa) = 29.81113 53.87089 41.84101
# Shear Modulus (GPa) = 19.52745 26.95949 23.24347
#
# Velocity S-wave (km/s) = 3.26372 3.83483 3.56075
# Velocity P-wave (km/s) = 5.51942 6.99954 6.30308
#
# Compressibility (1/GPa) = 0.03354451
#
# Stress axis : x y z
#
# Youngs Moduli (GPa) = 89.07807 23.91050 60.84693
#
# Poissons Ratio (x) = 0.02649 0.38050
# Poissons Ratio (y) = 0.09868 0.64547
# Poissons Ratio (z) = 0.55705 0.25365
#
# Static dielectric constant tensor:
#      x y z
#    x 3.355840 0.000000 -0.009320 
#    y 0.000000 3.361700 0.000000 
#    z -0.009320 0.000000 3.620180 
# 
# 
# High freq. dielectric constant tensor:
#      x y z
#    x 1.697090 0.000000 -0.005710 
#    y 0.000000 1.716690 0.000000 
#    z -0.005710 0.000000 1.717050 
# 
# From -- ./inp_files/92707.got.cif
#   From: 2010.06.25/outbox.cif.g09.slc.cpg/sg12_47_cif.got.tgz:92707.got - 2010.06.28 00:19:55.
