data_PCOD8089942
_publ_section_title
;
Structure prediction by ZEFSAII (Michael W. Deem and Ramdas Pophale) SiO2 
 PCOD8089942
Probable space group: C 2/M
;
_chemical_formula_sum "Si O2"
_cell_formula_units_Z 56
_cell_length_a 14.607880
_cell_length_b 18.282235
_cell_length_c 16.503847
_cell_angle_alpha 90.000000
_cell_angle_beta 135.459076
_cell_angle_gamma 90.000000
_cell_volume 3091.568715
_symmetry_space_group_name_H-M "C 2/M"
_symmetry_group_IT_number 12
_symmetry_cell_setting 'monoclinic'
loop_
_space_group_symop_operation_xyz
x,y,z
-x,y,-z
-x,-y,-z
x,-y,z
1/2+x,1/2+y,z
1/2-x,1/2+y,-z
1/2-x,1/2-y,-z
1/2+x,1/2-y,z
loop_
_atom_site_type_symbol
_atom_site_label
_atom_site_fract_x
_atom_site_fract_y
_atom_site_fract_z
Si Si1 0.767304 0.917602 0.052272
Si Si2 0.138034 0.283211 0.045990
Si Si3 0.251425 0.323139 0.762260
Si Si4 0.603460 0.918020 0.788538
Si Si5 0.988861 0.182449 0.157250
Si Si6 0.627046 0.744239 0.537606
Si Si7 0.104918 0.299059 0.346891
O O1 0.687373 0.864685 0.060630
O O2 0.916708 0.889943 0.143250
O O3 0.764982 0.000000 0.086123
O O4 0.707414 0.915362 0.925490
O O5 0.244290 0.244581 0.171499
O O6 0.000000 0.293631 0.000000
O O7 0.119577 0.234635 0.953413
O O8 0.177004 0.391160 0.754408
O O9 0.401069 0.344068 0.836523
O O10 0.176612 0.302966 0.633575
O O11 0.477409 0.869422 0.731834
O O12 0.552820 0.000000 0.741312
O O13 0.052138 0.225602 0.271845
O O14 0.500000 0.705405 0.500000
O O15 0.744227 0.688265 0.587061
O O16 0.588521 0.788923 0.432717
#
# Coordination Sequence:
#
# PCOD8089942 Si02
#       7
#     8   8   8   8   8   8   8
#     4  11  22  33  50  79 115 148 175 211 267 330
#     4  10  19  33  55  77 103 137 179 226 265 316
#     4  10  20  34  54  83 106 136 180 224 272 316
#     4  11  21  34  53  79 116 146 172 215 273 333
#     4  10  19  34  56  79 107 140 180 225 266 316
#     4  10  20  34  59  85 103 132 185 237 267 313
#     4  10  20  36  56  83 110 141 182 229 270 313
#
# _framework density 18.113780999999999
#
# number of rings (size 3 to 8) (size 9 to 14) (size 15 to 20)
#    0.000    1.714    4.286    1.286    0.000    0.857 
#    0.000    2.857    0.000    5.571    0.000    0.000 
#    0.000    0.000    0.000    0.000    0.000    0.000 
#
# Total GULP energy -347144.679487 kJ/mol
# GULP energy per Si atom -12398.024267 kJ/mol
# Density = 1.807255 g / cm^3
# Si number density = 18.113781 Si / 1000 Ang^3
#
#
#
# Elastic Constant Matrix: (Units=GPa)
#
#
# Indices 1 2 3 4 5 6 
#
# 1 98.1488 30.5762 17.3100 0.0000 15.2816 0.0000
# 2 30.5762 94.8096 22.7797 0.0000 9.4058 0.0000
# 3 17.3100 22.7797 79.3747 0.0000 -7.1833 0.0000
# 4 0.0000 0.0000 0.0000 12.6688 0.0000 -4.7973
# 5 15.2816 9.4058 -7.1833 0.0000 30.8245 0.0000
# 6 0.0000 0.0000 0.0000 -4.7973 0.0000 17.2230
#
#
#
# Elastic Compliance Matrix: (Units=1/GPa)
#
#
# Indices 1 2 3 4 5 6 
#
# 1 0.012411 -0.002841 -0.002421 0.000000 -0.005850 0.000000
# 2 -0.002841 0.012567 -0.003276 0.000000 -0.003190 0.000000
# 3 -0.002421 -0.003276 0.014573 0.000000 0.005596 0.000000
# 4 0.000000 0.000000 0.000000 0.088241 0.000000 0.024579
# 5 -0.005850 -0.003190 0.005596 0.000000 0.037620 0.000000
# 6 0.000000 0.000000 0.000000 0.024579 0.000000 0.064908
#
#
# Mechanical properties :
#
#
# Convention : Reuss Voigt Hill
#
# Bulk Modulus (GPa) = 44.49036 45.96276 45.22656
# Shear Modulus (GPa) = 19.61650 25.58774 22.60212
#
# Velocity S-wave (km/s) = 3.29441 3.76255 3.53623
# Velocity P-wave (km/s) = 6.25186 6.65622 6.45721
#
# Compressibility (1/GPa) = 0.02247678
#
# Stress axis : x y z
#
# Youngs Moduli (GPa) = 80.57104 79.57298 68.62025
#
# Poissons Ratio (x) = 0.22604 0.16612
# Poissons Ratio (y) = 0.22887 0.22479
# Poissons Ratio (z) = 0.19505 0.26067
#
# Static dielectric constant tensor:
#      x y z
#    x 3.612320 0.000000 0.092060 
#    y 0.000000 3.136640 0.000000 
#    z 0.092060 0.000000 3.449110 
# 
# 
# High freq. dielectric constant tensor:
#      x y z
#    x 1.719740 0.000000 0.004520 
#    y 0.000000 1.659630 0.000000 
#    z 0.004520 0.000000 1.705980 
# 
# From -- ./inp_files/145513.got.cif
#   From: 2010.06.25/outbox.cif.g09.slc.cpg/sg12_73_cif.got.tgz:145513.got - 2010.06.28 00:19:55.
