data_PCOD8089589
_publ_section_title
;
Structure prediction by ZEFSAII (Michael W. Deem and Ramdas Pophale) SiO2 
 PCOD8089589
Probable space group: C 2/M
;
_chemical_formula_sum "Si O2"
_cell_formula_units_Z 48
_cell_length_a 26.822383
_cell_length_b 7.690892
_cell_length_c 13.806823
_cell_angle_alpha 90.000000
_cell_angle_beta 74.060449
_cell_angle_gamma 90.000000
_cell_volume 2738.675588
_symmetry_space_group_name_H-M "C 2/M"
_symmetry_group_IT_number 12
_symmetry_cell_setting 'monoclinic'
loop_
_space_group_symop_operation_xyz
x,y,z
-x,y,-z
-x,-y,-z
x,-y,z
1/2+x,1/2+y,z
1/2-x,1/2+y,-z
1/2-x,1/2-y,-z
1/2+x,1/2-y,z
loop_
_atom_site_type_symbol
_atom_site_label
_atom_site_fract_x
_atom_site_fract_y
_atom_site_fract_z
Si Si1 0.795209 0.807408 0.756811
Si Si2 0.060513 0.500000 0.082186
Si Si3 0.768415 0.295522 0.384070
Si Si4 0.799431 0.803296 0.087042
Si Si5 0.369781 0.706812 0.873936
Si Si6 0.130493 0.805884 0.769130
Si Si7 0.560987 0.000000 0.853833
O O1 0.772937 0.711981 0.671787
O O2 0.749271 0.817057 0.861122
O O3 0.847350 0.732071 0.780247
O O4 0.810639 0.000000 0.717434
O O5 0.081640 0.325328 0.122899
O O6 0.999719 0.500000 0.131915
O O7 0.074168 0.500000 0.961196
O O8 0.771659 0.500000 0.365007
O O9 0.750000 0.250000 0.500000
O O10 0.825601 0.218532 0.336830
O O11 0.845127 0.774827 0.139224
O O12 0.779095 0.000000 0.101330
O O13 0.822443 0.751778 0.971519
O O14 0.384385 0.500000 0.869889
O O15 0.083898 0.668568 0.786509
O O16 0.107306 0.000000 0.771029
#
# Coordination Sequence:
#
# PCOD8089589 Si02
#       7
#     8   4   8   8   8   8   4
#     4   9  19  30  47  70 103 143 173 206 262 319
#     4  11  24  34  56  73 105 147 191 230 261 304
#     4  10  19  33  53  82 114 140 172 213 261 328
#     4   9  17  27  45  72 100 136 173 207 252 313
#     4  10  20  34  47  72 104 137 179 222 258 308
#     4  10  19  34  54  75 107 141 176 222 267 312
#     4  11  22  38  52  79 101 147 191 224 271 305
#
# _framework density 17.526720000000001
#
# number of rings (size 3 to 8) (size 9 to 14) (size 15 to 20)
#    0.000    2.167    2.500    1.000    3.500    1.333 
#    0.000    1.667    0.000    0.000    0.000    2.333 
#    0.000    5.333    0.000    0.000    0.000    0.000 
#
# Total GULP energy -297368.298846 kJ/mol
# GULP energy per Si atom -12390.345785 kJ/mol
# Density = 1.748683 g / cm^3
# Si number density = 17.526720 Si / 1000 Ang^3
#
#
#
# Elastic Constant Matrix: (Units=GPa)
#
#
# Indices 1 2 3 4 5 6 
#
# 1 97.8196 46.8628 53.5451 0.0000 5.9922 0.0000
# 2 46.8628 86.1939 28.7484 0.0000 -2.0431 0.0000
# 3 53.5451 28.7484 85.3661 0.0000 -0.9739 0.0000
# 4 0.0000 0.0000 0.0000 19.9829 0.0000 -3.2329
# 5 5.9922 -2.0431 -0.9739 0.0000 15.3843 0.0000
# 6 0.0000 0.0000 0.0000 -3.2329 0.0000 20.6958
#
#
#
# Elastic Compliance Matrix: (Units=1/GPa)
#
#
# Indices 1 2 3 4 5 6 
#
# 1 0.020023 -0.007757 -0.010055 0.000000 -0.009466 0.000000
# 2 -0.007757 0.016108 -0.000501 0.000000 0.005129 0.000000
# 3 -0.010055 -0.000501 0.018247 0.000000 0.005005 0.000000
# 4 0.000000 0.000000 0.000000 0.051340 0.000000 0.008020
# 5 -0.009466 0.005129 0.005005 0.000000 0.069686 0.000000
# 6 0.000000 0.000000 0.000000 0.008020 0.000000 0.049572
#
#
# Mechanical properties :
#
#
# Convention : Reuss Voigt Hill
#
# Bulk Modulus (GPa) = 56.32996 58.63247 57.48121
# Shear Modulus (GPa) = 18.69040 20.56082 19.62561
#
# Velocity S-wave (km/s) = 3.26911 3.42879 3.34990
# Velocity P-wave (km/s) = 6.81606 7.01436 6.91592
#
# Compressibility (1/GPa) = 0.01775254
#
# Stress axis : x y z
#
# Youngs Moduli (GPa) = 49.94332 62.08240 54.80453
#
# Poissons Ratio (x) = 0.48157 0.55105
# Poissons Ratio (y) = 0.38741 0.02743
# Poissons Ratio (z) = 0.50217 0.03107
#
# Static dielectric constant tensor:
#      x y z
#    x 3.128530 0.000000 0.296780 
#    y 0.000000 3.394160 0.000000 
#    z 0.296780 0.000000 3.227370 
# 
# 
# High freq. dielectric constant tensor:
#      x y z
#    x 1.651780 0.000000 0.016320 
#    y 0.000000 1.685330 0.000000 
#    z 0.016320 0.000000 1.645920 
# 
# From -- ./inp_files/242616.got.cif
#   From: 2010.06.25/outbox.cif.g09.slc.cpg/sg12_122_cif.got.tgz:242616.got - 2010.06.28 00:19:55.
