data_PCOD8089936
_publ_section_title
;
Structure prediction by ZEFSAII (Michael W. Deem and Ramdas Pophale) SiO2 
 PCOD8089936
Probable space group: C 2/M
;
_chemical_formula_sum "Si O2"
_cell_formula_units_Z 64
_cell_length_a 18.136810
_cell_length_b 9.198769
_cell_length_c 20.715653
_cell_angle_alpha 90.000000
_cell_angle_beta 89.571980
_cell_angle_gamma 90.000000
_cell_volume 3456.026992
_symmetry_space_group_name_H-M "C 2/M"
_symmetry_group_IT_number 12
_symmetry_cell_setting 'monoclinic'
loop_
_space_group_symop_operation_xyz
x,y,z
-x,y,-z
-x,-y,-z
x,-y,z
1/2+x,1/2+y,z
1/2-x,1/2+y,-z
1/2-x,1/2-y,-z
1/2+x,1/2-y,z
loop_
_atom_site_type_symbol
_atom_site_label
_atom_site_fract_x
_atom_site_fract_y
_atom_site_fract_z
Si Si1 0.082469 0.327709 0.497408
Si Si2 0.834975 0.164948 0.864079
Si Si3 0.580205 0.172563 0.745206
Si Si4 0.836772 0.670380 0.128221
Si Si5 0.329082 0.826913 0.378398
Si Si6 0.914570 0.671932 0.752412
Si Si7 0.826028 0.167809 0.006657
Si Si8 0.673732 0.172116 0.372947
O O1 0.077315 0.500000 0.499745
O O2 0.128339 0.271548 0.558453
O O3 0.122124 0.276111 0.431961
O O4 0.000000 0.261382 0.500000
O O5 0.749027 0.208370 0.861106
O O6 0.881481 0.269580 0.818808
O O7 0.844514 0.000000 0.839722
O O8 0.866687 0.181586 0.937042
O O9 0.619163 0.228241 0.810065
O O10 0.625256 0.230490 0.683433
O O11 0.497144 0.233663 0.742678
O O12 0.579880 0.000000 0.743562
O O13 0.848454 0.500000 0.116169
O O14 0.869504 0.755832 0.065507
O O15 0.250002 0.754262 0.378166
O O16 0.319446 0.000000 0.377691
O O17 0.916687 0.500000 0.757277
O O18 0.865398 0.722675 0.692578
O O19 0.811587 0.000000 0.023732
O O20 0.750000 0.250000 0.000000
O O21 0.687319 0.000000 0.374690
#
# Coordination Sequence:
#
# PCOD8089936 Si02
#       8
#     8   8   8   8   8   8   8   8
#     4   9  17  31  53  78 102 132 169 205 242 287
#     4   9  18  32  50  73  99 126 158 200 247 293
#     4   9  18  33  51  72  97 127 168 209 242 286
#     4   9  17  31  51  72  96 126 161 204 246 287
#     4  10  19  33  55  76  97 132 171 203 242 294
#     4  10  20  33  50  71  97 131 166 203 247 291
#     4   9  17  30  49  73  99 126 160 201 243 290
#     4  10  20  33  50  76 106 129 161 211 251 284
#
# _framework density 18.518373
#
# number of rings (size 3 to 8) (size 9 to 14) (size 15 to 20)
#    0.000    2.625    0.000    3.000    0.000    7.000 
#    0.000    2.500    0.000    6.750    0.000    0.000 
#    0.000    0.000    0.000    0.000    0.000    0.000 
#
# Total GULP energy -396740.184909 kJ/mol
# GULP energy per Si atom -12398.130778 kJ/mol
# Density = 1.847622 g / cm^3
# Si number density = 18.518373 Si / 1000 Ang^3
#
#
#
# Elastic Constant Matrix: (Units=GPa)
#
#
# Indices 1 2 3 4 5 6 
#
# 1 127.8620 29.9685 67.4368 0.0000 -7.5634 0.0000
# 2 29.9685 37.3831 39.6184 0.0000 -2.8970 0.0000
# 3 67.4368 39.6184 155.4078 0.0000 -8.4551 0.0000
# 4 0.0000 0.0000 0.0000 21.7535 0.0000 -1.3106
# 5 -7.5634 -2.8970 -8.4551 0.0000 17.5479 0.0000
# 6 0.0000 0.0000 0.0000 -1.3106 0.0000 24.3784
#
#
#
# Elastic Compliance Matrix: (Units=1/GPa)
#
#
# Indices 1 2 3 4 5 6 
#
# 1 0.010884 -0.005035 -0.003316 0.000000 0.002262 0.000000
# 2 -0.005035 0.039026 -0.007734 0.000000 0.000546 0.000000
# 3 -0.003316 -0.007734 0.009959 0.000000 0.002092 0.000000
# 4 0.000000 0.000000 0.000000 0.046119 0.000000 0.002479
# 5 0.002262 0.000546 0.002092 0.000000 0.059060 0.000000
# 6 0.000000 0.000000 0.000000 0.002479 0.000000 0.041153
#
#
# Mechanical properties :
#
#
# Convention : Reuss Voigt Hill
#
# Bulk Modulus (GPa) = 36.10455 66.07781 51.09118
# Shear Modulus (GPa) = 20.19344 24.97791 22.58567
#
# Velocity S-wave (km/s) = 3.30578 3.67661 3.49612
# Velocity P-wave (km/s) = 5.84037 7.33369 6.62921
#
# Compressibility (1/GPa) = 0.02769734
#
# Stress axis : x y z
#
# Youngs Moduli (GPa) = 91.87833 25.62412 100.40971
#
# Poissons Ratio (x) = 0.12903 0.33297
# Poissons Ratio (y) = 0.46265 0.77658
# Poissons Ratio (z) = 0.30468 0.19818
#
# Static dielectric constant tensor:
#      x y z
#    x 3.377460 0.000000 0.106860 
#    y 0.000000 3.136440 0.000000 
#    z 0.106860 0.000000 3.968620 
# 
# 
# High freq. dielectric constant tensor:
#      x y z
#    x 1.707560 0.000000 0.003640 
#    y 0.000000 1.685460 0.000000 
#    z 0.003640 0.000000 1.740500 
# 
# From -- ./inp_files/314184.got.cif
#   From: 2010.06.25/outbox.cif.g09.slc.cpg/sg12_158_cif.got.tgz:314184.got - 2010.06.28 00:19:55.
