data_PCOD8089498
_publ_section_title
;
Structure prediction by ZEFSAII (Michael W. Deem and Ramdas Pophale) SiO2 
 PCOD8089498
Probable space group: C 2/M
;
_chemical_formula_sum "Si O2"
_cell_formula_units_Z 44
_cell_length_a 23.654447
_cell_length_b 17.128249
_cell_length_c 10.625393
_cell_angle_alpha 90.000000
_cell_angle_beta 34.313936
_cell_angle_gamma 90.000000
_cell_volume 2426.831243
_symmetry_space_group_name_H-M "C 2/M"
_symmetry_group_IT_number 12
_symmetry_cell_setting 'monoclinic'
loop_
_space_group_symop_operation_xyz
x,y,z
-x,y,-z
-x,-y,-z
x,-y,z
1/2+x,1/2+y,z
1/2-x,1/2+y,-z
1/2-x,1/2-y,-z
1/2+x,1/2-y,z
loop_
_atom_site_type_symbol
_atom_site_label
_atom_site_fract_x
_atom_site_fract_y
_atom_site_fract_z
Si Si1 0.966680 0.273692 0.918762
Si Si2 0.269475 0.851061 0.354870
Si Si3 0.613403 0.500000 0.251169
Si Si4 0.334987 0.500000 0.569451
Si Si5 0.855388 0.131026 0.009633
Si Si6 0.457384 0.500000 0.944182
Si Si7 0.677600 0.187745 0.475504
O O1 0.057621 0.318661 0.680875
O O2 0.929884 0.204745 0.892274
O O3 0.000000 0.245586 0.000000
O O4 0.877783 0.336270 0.093448
O O5 0.217834 0.925447 0.391140
O O6 0.283252 0.862984 0.478676
O O7 0.196252 0.778845 0.465532
O O8 0.500000 0.500000 0.500000
O O9 0.682131 0.500000 0.248925
O O10 0.635062 0.581058 0.136393
O O11 0.454376 0.500000 0.322741
O O12 0.886866 0.074733 0.064538
O O13 0.739017 0.157477 0.240601
O O14 0.500000 0.500000 0.000000
#
# Coordination Sequence:
#
# PCOD8089498 Si02
#       7
#     8   8   4   4   8   4   8
#     4   9  17  33  56  84 116 138 170 223 276 328
#     4   9  19  32  55  85 109 142 176 216 278 335
#     4  11  24  40  51  75 108 146 187 225 264 308
#     4  12  21  37  55  71 112 147 177 222 268 313
#     4  10  19  33  53  78 106 140 180 218 265 317
#     4  11  19  28  51  81 101 127 168 222 282 324
#     4   9  17  33  55  84 112 134 174 225 274 323
#
# _framework density 18.130638999999999
#
# number of rings (size 3 to 8) (size 9 to 14) (size 15 to 20)
#    0.000    2.182    1.818    3.818    0.000    0.727 
#    0.000    9.545    0.000    1.091    0.000    0.000 
#    0.000    0.000    0.000    0.000    0.000    0.000 
#
# Total GULP energy -272569.605946 kJ/mol
# GULP energy per Si atom -12389.527543 kJ/mol
# Density = 1.808937 g / cm^3
# Si number density = 18.130639 Si / 1000 Ang^3
#
#
#
# Elastic Constant Matrix: (Units=GPa)
#
#
# Indices 1 2 3 4 5 6 
#
# 1 62.6777 35.5011 20.6836 0.0000 13.1965 0.0000
# 2 35.5011 75.7265 31.4592 0.0000 3.4429 0.0000
# 3 20.6836 31.4592 113.8549 0.0000 -9.0435 0.0000
# 4 0.0000 0.0000 0.0000 21.9604 0.0000 -2.2197
# 5 13.1965 3.4429 -9.0435 0.0000 29.1278 0.0000
# 6 0.0000 0.0000 0.0000 -2.2197 0.0000 87.3965
#
#
#
# Elastic Compliance Matrix: (Units=1/GPa)
#
#
# Indices 1 2 3 4 5 6 
#
# 1 0.024785 -0.010052 -0.002586 0.000000 -0.010844 0.000000
# 2 -0.010052 0.019276 -0.003403 0.000000 0.001219 0.000000
# 3 -0.002586 -0.003403 0.010579 0.000000 0.004859 0.000000
# 4 0.000000 0.000000 0.000000 0.045654 0.000000 0.001160
# 5 -0.010844 0.001219 0.004859 0.000000 0.040609 0.000000
# 6 0.000000 0.000000 0.000000 0.001160 0.000000 0.011472
#
#
# Mechanical properties :
#
#
# Convention : Reuss Voigt Hill
#
# Bulk Modulus (GPa) = 44.33196 47.50522 45.91859
# Shear Modulus (GPa) = 26.04493 38.67129 32.35811
#
# Velocity S-wave (km/s) = 3.79425 4.62337 4.22918
# Velocity P-wave (km/s) = 6.61057 7.39995 7.01637
#
# Compressibility (1/GPa) = 0.02255709
#
# Stress axis : x y z
#
# Youngs Moduli (GPa) = 40.34763 51.87765 94.52448
#
# Poissons Ratio (x) = 0.52146 0.24449
# Poissons Ratio (y) = 0.40556 0.32170
# Poissons Ratio (z) = 0.10436 0.17656
#
# Static dielectric constant tensor:
#      x y z
#    x 3.120680 0.000000 -0.309120 
#    y 0.000000 3.231000 0.000000 
#    z -0.309120 0.000000 2.996210 
# 
# 
# High freq. dielectric constant tensor:
#      x y z
#    x 1.673850 0.000000 -0.013000 
#    y 0.000000 1.691490 0.000000 
#    z -0.013000 0.000000 1.711690 
# 
# From -- ./inp_files/183401.got.cif
#   From: 2010.06.25/outbox.cif.g09.slc.cpg/sg12_92_cif.got.tgz:183401.got - 2010.06.28 00:19:55.
