data_PCOD8089628
_publ_section_title
;
Structure prediction by ZEFSAII (Michael W. Deem and Ramdas Pophale) SiO2 
 PCOD8089628
Probable space group: C 2/M
;
_chemical_formula_sum "Si O2"
_cell_formula_units_Z 48
_cell_length_a 27.356699
_cell_length_b 8.879952
_cell_length_c 15.527567
_cell_angle_alpha 90.000000
_cell_angle_beta 139.210984
_cell_angle_gamma 90.000000
_cell_volume 2464.189335
_symmetry_space_group_name_H-M "C 2/M"
_symmetry_group_IT_number 12
_symmetry_cell_setting 'monoclinic'
loop_
_space_group_symop_operation_xyz
x,y,z
-x,y,-z
-x,-y,-z
x,-y,z
1/2+x,1/2+y,z
1/2-x,1/2+y,-z
1/2-x,1/2-y,-z
1/2+x,1/2-y,z
loop_
_atom_site_type_symbol
_atom_site_label
_atom_site_fract_x
_atom_site_fract_y
_atom_site_fract_z
Si Si1 0.171719 0.178910 0.238145
Si Si2 0.083761 0.679045 0.615103
Si Si3 0.159463 0.678770 0.542500
Si Si4 0.594644 0.675521 0.961080
Si Si5 0.169192 0.321616 0.897569
Si Si6 0.079848 0.175166 0.278422
O O1 0.256379 0.240103 0.358270
O O2 0.125326 0.240978 0.257586
O O3 0.169307 0.000000 0.234829
O O4 0.134470 0.236765 0.100333
O O5 0.081412 0.500000 0.611079
O O6 0.129842 0.739245 0.594542
O O7 0.122930 0.737957 0.753767
O O8 0.000000 0.745494 0.500000
O O9 0.158226 0.500000 0.538147
O O10 0.104777 0.738144 0.396397
O O11 0.612494 0.500000 0.968940
O O12 0.625879 0.771406 0.924416
O O13 0.506940 0.704805 0.854527
O O14 0.177139 0.500000 0.907212
O O15 0.250000 0.250000 0.000000
O O16 0.097121 0.000000 0.314743
#
# Coordination Sequence:
#
# PCOD8089628 Si02
#       6
#     8   8   8   8   8   8
#     4   9  18  34  55  77 104 143 185 218 259 321
#     4   9  18  33  53  76 103 139 179 214 256 316
#     4  10  19  33  54  76 102 139 180 220 262 317
#     4  10  20  36  57  79 105 139 180 222 264 314
#     4  11  22  37  58  82 109 140 176 219 265 315
#     4  10  20  34  54  80 108 138 175 223 273 316
#
# _framework density 19.479023000000002
#
# number of rings (size 3 to 8) (size 9 to 14) (size 15 to 20)
#    0.000    2.167    0.000    3.500    0.000    6.667 
#    0.000    5.000    0.000    6.500    0.000    0.000 
#    0.000    0.000    0.000    0.000    0.000    0.000 
#
# Total GULP energy -297666.598581 kJ/mol
# GULP energy per Si atom -12402.774941 kJ/mol
# Density = 1.943469 g / cm^3
# Si number density = 19.479023 Si / 1000 Ang^3
#
#
#
# Elastic Constant Matrix: (Units=GPa)
#
#
# Indices 1 2 3 4 5 6 
#
# 1 128.0173 25.0950 33.4185 0.0000 -4.5494 0.0000
# 2 25.0950 31.2762 25.0161 0.0000 0.4492 0.0000
# 3 33.4185 25.0161 124.9132 0.0000 -6.1155 0.0000
# 4 0.0000 0.0000 0.0000 27.9191 0.0000 -1.7332
# 5 -4.5494 0.4492 -6.1155 0.0000 44.5523 0.0000
# 6 0.0000 0.0000 0.0000 -1.7332 0.0000 22.7300
#
#
#
# Elastic Compliance Matrix: (Units=1/GPa)
#
#
# Indices 1 2 3 4 5 6 
#
# 1 0.009451 -0.006677 -0.001148 0.000000 0.000875 0.000000
# 2 -0.006677 0.042881 -0.006902 0.000000 -0.002062 0.000000
# 3 -0.001148 -0.006902 0.009758 0.000000 0.001292 0.000000
# 4 0.000000 0.000000 0.000000 0.035988 0.000000 0.002744
# 5 0.000875 -0.002062 0.001292 0.000000 0.022733 0.000000
# 6 0.000000 0.000000 0.000000 0.002744 0.000000 0.044204
#
#
# Mechanical properties :
#
#
# Convention : Reuss Voigt Hill
#
# Bulk Modulus (GPa) = 30.64221 50.14066 40.39143
# Shear Modulus (GPa) = 24.34862 32.41874 28.38368
#
# Velocity S-wave (km/s) = 3.53936 4.08400 3.82139
# Velocity P-wave (km/s) = 5.69805 6.93076 6.34441
#
# Compressibility (1/GPa) = 0.03263473
#
# Stress axis : x y z
#
# Youngs Moduli (GPa) = 105.80576 23.32021 102.47630
#
# Poissons Ratio (x) = 0.15572 0.11769
# Poissons Ratio (y) = 0.70651 0.70732
# Poissons Ratio (z) = 0.12151 0.16096
#
# Static dielectric constant tensor:
#      x y z
#    x 3.592510 0.000000 0.023260 
#    y 0.000000 3.151620 0.000000 
#    z 0.023260 0.000000 3.757160 
# 
# 
# High freq. dielectric constant tensor:
#      x y z
#    x 1.779430 0.000000 0.001080 
#    y 0.000000 1.715210 0.000000 
#    z 0.001080 0.000000 1.777780 
# 
# From -- ./inp_files/154186.got.cif
#   From: 2010.06.25/outbox.cif.g09.slc.cpg/sg12_78_cif.got.tgz:154186.got - 2010.06.28 00:19:55.
