data_PCOD8089803
_publ_section_title
;
Structure prediction by ZEFSAII (Michael W. Deem and Ramdas Pophale) SiO2 
 PCOD8089803
Probable space group: C 2/M
;
_chemical_formula_sum "Si O2"
_cell_formula_units_Z 56
_cell_length_a 29.198004
_cell_length_b 9.399767
_cell_length_c 12.609232
_cell_angle_alpha 90.000000
_cell_angle_beta 59.844699
_cell_angle_gamma 90.000000
_cell_volume 2992.318074
_symmetry_space_group_name_H-M "C 2/M"
_symmetry_group_IT_number 12
_symmetry_cell_setting 'monoclinic'
loop_
_space_group_symop_operation_xyz
x,y,z
-x,y,-z
-x,-y,-z
x,-y,z
1/2+x,1/2+y,z
1/2-x,1/2+y,-z
1/2-x,1/2-y,-z
1/2+x,1/2-y,z
loop_
_atom_site_type_symbol
_atom_site_label
_atom_site_fract_x
_atom_site_fract_y
_atom_site_fract_z
Si Si1 0.641002 0.831412 0.484156
Si Si2 0.907646 0.163336 0.846323
Si Si3 0.940918 0.665987 0.603524
Si Si4 0.443147 0.330916 0.031595
Si Si5 0.213771 0.837234 0.965372
Si Si6 0.259037 0.668239 0.297208
Si Si7 0.640227 0.668755 0.695660
O O1 0.600945 0.786486 0.437525
O O2 0.699946 0.774991 0.387714
O O3 0.622410 0.750982 0.611245
O O4 0.639832 0.000000 0.505355
O O5 0.929923 0.252850 0.724114
O O6 0.845060 0.178610 0.924107
O O7 0.924743 0.000000 0.810306
O O8 0.931282 0.227010 0.927816
O O9 0.934918 0.500000 0.633842
O O10 0.000000 0.705869 0.500000
O O11 0.442361 0.500000 0.028842
O O12 0.398862 0.279650 0.165791
O O13 0.500000 0.270549 0.000000
O O14 0.232743 0.000000 0.944822
O O15 0.250000 0.750000 0.000000
O O16 0.219966 0.773665 0.839886
O O17 0.258897 0.500000 0.292927
O O18 0.300146 0.716427 0.340876
O O19 0.636079 0.500000 0.680919
#
# Coordination Sequence:
#
# PCOD8089803 Si02
#       7
#     8   8   8   8   8   8   8
#     4  10  21  36  54  76 107 146 181 217 266 320
#     4  10  20  36  59  85 110 137 181 234 271 315
#     4  10  23  41  57  76 109 150 185 221 272 330
#     4   9  18  33  55  83 111 139 173 219 277 326
#     4  10  19  33  54  80 110 144 181 220 267 322
#     4   9  17  33  54  76 106 142 175 212 268 328
#     4  10  19  34  57  82 107 138 177 220 267 321
#
# _framework density 18.714587999999999
#
# number of rings (size 3 to 8) (size 9 to 14) (size 15 to 20)
#    0.000    2.286    1.429    1.286    2.000    2.571 
#    0.000    2.143    0.000    0.857    0.000    0.000 
#    0.000    0.000    0.000    0.000    0.000    0.000 
#
# Total GULP energy -347205.856104 kJ/mol
# GULP energy per Si atom -12400.209147 kJ/mol
# Density = 1.867199 g / cm^3
# Si number density = 18.714588 Si / 1000 Ang^3
#
#
#
# Elastic Constant Matrix: (Units=GPa)
#
#
# Indices 1 2 3 4 5 6 
#
# 1 133.5418 35.4553 71.1988 0.0000 -1.5570 0.0000
# 2 35.4553 37.3679 49.7387 0.0000 6.5274 0.0000
# 3 71.1988 49.7387 158.1762 0.0000 14.1448 0.0000
# 4 0.0000 0.0000 0.0000 28.6831 0.0000 5.0039
# 5 -1.5570 6.5274 14.1448 0.0000 27.8684 0.0000
# 6 0.0000 0.0000 0.0000 5.0039 0.0000 17.4939
#
#
#
# Elastic Compliance Matrix: (Units=1/GPa)
#
#
# Indices 1 2 3 4 5 6 
#
# 1 0.011056 -0.007017 -0.003114 0.000000 0.003842 0.000000
# 2 -0.007017 0.050825 -0.012281 0.000000 -0.006063 0.000000
# 3 -0.003114 -0.012281 0.011883 0.000000 -0.003329 0.000000
# 4 0.000000 0.000000 0.000000 0.036695 0.000000 -0.010496
# 5 0.003842 -0.006063 -0.003329 0.000000 0.039207 0.000000
# 6 0.000000 0.000000 0.000000 -0.010496 0.000000 0.060165
#
#
# Mechanical properties :
#
#
# Convention : Reuss Voigt Hill
#
# Bulk Modulus (GPa) = 34.55383 71.31907 52.93645
# Shear Modulus (GPa) = 18.91781 26.32195 22.61988
#
# Velocity S-wave (km/s) = 3.18285 3.75439 3.48037
# Velocity P-wave (km/s) = 5.65783 7.54887 6.67070
#
# Compressibility (1/GPa) = 0.02894035
#
# Stress axis : x y z
#
# Youngs Moduli (GPa) = 90.44755 19.67553 84.15258
#
# Poissons Ratio (x) = 0.13806 0.26203
# Poissons Ratio (y) = 0.63464 1.03350
# Poissons Ratio (z) = 0.28163 0.24164
#
# Static dielectric constant tensor:
#      x y z
#    x 3.687990 0.000000 -0.014360 
#    y 0.000000 3.081920 0.000000 
#    z -0.014360 0.000000 3.522550 
# 
# 
# High freq. dielectric constant tensor:
#      x y z
#    x 1.742900 0.000000 0.001640 
#    y 0.000000 1.685980 0.000000 
#    z 0.001640 0.000000 1.738610 
# 
# From -- ./inp_files/180865.got.cif
#   From: 2010.06.25/outbox.cif.g09.slc.cpg/sg12_91_cif.got.tgz:180865.got - 2010.06.28 00:19:55.
