data_PCOD8089753
_publ_section_title
;
Structure prediction by ZEFSAII (Michael W. Deem and Ramdas Pophale) SiO2 
 PCOD8089753
Probable space group: C 2/M
;
_chemical_formula_sum "Si O2"
_cell_formula_units_Z 64
_cell_length_a 20.035038
_cell_length_b 8.793197
_cell_length_c 25.154506
_cell_angle_alpha 90.000000
_cell_angle_beta 51.666001
_cell_angle_gamma 90.000000
_cell_volume 3476.122196
_symmetry_space_group_name_H-M "C 2/M"
_symmetry_group_IT_number 12
_symmetry_cell_setting 'monoclinic'
loop_
_space_group_symop_operation_xyz
x,y,z
-x,y,-z
-x,-y,-z
x,-y,z
1/2+x,1/2+y,z
1/2-x,1/2+y,-z
1/2-x,1/2-y,-z
1/2+x,1/2-y,z
loop_
_atom_site_type_symbol
_atom_site_label
_atom_site_fract_x
_atom_site_fract_y
_atom_site_fract_z
Si Si1 0.061027 0.680578 0.424128
Si Si2 0.994854 0.320326 0.146875
Si Si3 0.748528 0.177897 0.327588
Si Si4 0.828585 0.820763 0.930803
Si Si5 0.336550 0.320197 0.177398
Si Si6 0.701662 0.322144 0.175710
Si Si7 0.460914 0.677510 0.676120
Si Si8 0.421081 0.322574 0.287531
O O1 0.060674 0.500000 0.426762
O O2 0.156278 0.749029 0.386850
O O3 0.026243 0.730280 0.384140
O O4 0.000000 0.748268 0.500000
O O5 0.998320 0.500000 0.141031
O O6 0.086356 0.252013 0.087117
O O7 0.929057 0.256449 0.135532
O O8 0.969213 0.272463 0.219001
O O9 0.781433 0.239905 0.254805
O O10 0.819835 0.216145 0.337074
O O11 0.735151 0.000000 0.328889
O O12 0.822423 0.777455 0.871968
O O13 0.830630 0.000000 0.938640
O O14 0.750000 0.750000 0.000000
O O15 0.348639 0.500000 0.171770
O O16 0.287592 0.267124 0.148777
O O17 0.719222 0.500000 0.172711
O O18 0.624486 0.269568 0.251732
O O19 0.457409 0.500000 0.664647
O O20 0.541948 0.717401 0.673080
O O21 0.436749 0.500000 0.265863
#
# Coordination Sequence:
#
# PCOD8089753 Si02
#       8
#     8   8   8   8   8   8   8   8
#     4  10  20  34  51  75 109 146 185 231 279 330
#     4  11  21  34  55  84 115 147 184 227 278 329
#     4   8  15  29  50  74 100 138 180 219 268 325
#     4  11  23  41  60  83 117 152 187 226 277 334
#     4  10  19  33  56  82 110 143 184 231 277 329
#     4  10  20  35  56  83 113 141 178 232 280 325
#     4  10  19  33  54  79 107 139 179 230 280 324
#     4   9  17  33  54  77 105 140 183 230 279 328
#
# _framework density 18.411321000000001
#
# number of rings (size 3 to 8) (size 9 to 14) (size 15 to 20)
#    0.000    2.125    2.500    2.625    0.000    1.750 
#    0.000    1.250    0.000    3.750    0.000    0.000 
#    0.000    0.000    0.000    0.000    0.000    0.000 
#
# Total GULP energy -396784.817779 kJ/mol
# GULP energy per Si atom -12399.525556 kJ/mol
# Density = 1.836942 g / cm^3
# Si number density = 18.411321 Si / 1000 Ang^3
#
#
#
# Elastic Constant Matrix: (Units=GPa)
#
#
# Indices 1 2 3 4 5 6 
#
# 1 127.3522 40.1036 20.2552 -0.0001 -17.8269 -0.0004
# 2 40.1036 65.1855 25.9680 -0.0005 -4.6927 -0.0016
# 3 20.2552 25.9680 55.5790 0.0000 -12.0272 -0.0004
# 4 -0.0001 -0.0005 0.0000 22.3206 0.0000 2.5974
# 5 -17.8269 -4.6927 -12.0272 0.0000 28.8508 -0.0001
# 6 -0.0004 -0.0016 -0.0004 2.5974 -0.0001 29.8963
#
#
#
# Elastic Compliance Matrix: (Units=1/GPa)
#
#
# Indices 1 2 3 4 5 6 
#
# 1 0.010546 -0.006189 0.000264 0.000000 0.005620 0.000000
# 2 -0.006189 0.022493 -0.009112 0.000000 -0.003964 0.000001
# 3 0.000264 -0.009112 0.024036 0.000000 0.008701 0.000000
# 4 0.000000 0.000000 0.000000 0.045259 0.000000 -0.003932
# 5 0.005620 -0.003964 0.008701 0.000000 0.041116 0.000000
# 6 0.000000 0.000001 0.000000 -0.003932 0.000000 0.033791
#
#
# Mechanical properties :
#
#
# Convention : Reuss Voigt Hill
#
# Bulk Modulus (GPa) = 37.03322 46.75225 41.89273
# Shear Modulus (GPa) = 23.11461 26.99953 25.05707
#
# Velocity S-wave (km/s) = 3.54709 3.83360 3.69312
# Velocity P-wave (km/s) = 6.07732 6.71146 6.40224
#
# Compressibility (1/GPa) = 0.02700279
#
# Stress axis : x y z
#
# Youngs Moduli (GPa) = 94.82536 44.45883 41.60394
#
# Poissons Ratio (x) = 0.27514 -0.01100
# Poissons Ratio (y) = 0.58685 0.37908
# Poissons Ratio (z) = -0.02507 0.40509
#
# Static dielectric constant tensor:
#      x y z
#    x 3.721000 0.000000 -0.162780 
#    y 0.000000 3.197100 0.000000 
#    z -0.162780 0.000000 3.267320 
# 
# 
# High freq. dielectric constant tensor:
#      x y z
#    x 1.733350 0.000000 -0.010310 
#    y 0.000000 1.700960 0.000000 
#    z -0.010310 0.000000 1.683300 
# 
# From -- ./inp_files/346020.got.cif
#   From: 2010.06.25/outbox.cif.g09.slc.cpg/sg12_174_cif.got.tgz:346020.got - 2010.06.28 00:19:55.
