data_PCOD8089328
_publ_section_title
;
Structure prediction by ZEFSAII (Michael W. Deem and Ramdas Pophale) SiO2 
 PCOD8089328
Probable space group: C 2/M
;
_chemical_formula_sum "Si O2"
_cell_formula_units_Z 64
_cell_length_a 27.891787
_cell_length_b 8.960019
_cell_length_c 15.455730
_cell_angle_alpha 90.000000
_cell_angle_beta 92.881920
_cell_angle_gamma 90.000000
_cell_volume 3857.670954
_symmetry_space_group_name_H-M "C 2/M"
_symmetry_group_IT_number 12
_symmetry_cell_setting 'monoclinic'
loop_
_space_group_symop_operation_xyz
x,y,z
-x,y,-z
-x,-y,-z
x,-y,z
1/2+x,1/2+y,z
1/2-x,1/2+y,-z
1/2-x,1/2-y,-z
1/2+x,1/2-y,z
loop_
_atom_site_type_symbol
_atom_site_label
_atom_site_fract_x
_atom_site_fract_y
_atom_site_fract_z
Si Si1 0.192672 0.827459 0.404196
Si Si2 0.299884 0.170732 0.416741
Si Si3 0.545184 0.671418 0.201180
Si Si4 0.601235 0.824320 0.355657
Si Si5 0.447926 0.323668 0.984981
Si Si6 0.944296 0.174260 0.484404
Si Si7 0.068394 0.171643 0.831761
Si Si8 0.393805 0.827623 0.325712
O O1 0.246621 0.794834 0.375145
O O2 0.187799 0.779468 0.503540
O O3 0.154969 0.736326 0.341787
O O4 0.179212 0.000000 0.395947
O O5 0.338045 0.198743 0.344202
O O6 0.302235 0.000000 0.451054
O O7 0.556878 0.500000 0.225621
O O8 0.564833 0.775461 0.278093
O O9 0.571628 0.719441 0.112630
O O10 0.488288 0.694890 0.188195
O O11 0.585280 0.762526 0.446724
O O12 0.602107 0.000000 0.360561
O O13 0.454952 0.500000 0.987056
O O14 0.500000 0.247660 0.000000
O O15 0.417160 0.279799 0.067719
O O16 0.928632 0.229814 0.388744
O O17 0.000000 0.209681 0.500000
O O18 0.933323 0.000000 0.493100
O O19 0.099183 0.276275 0.772085
O O20 0.082309 0.000000 0.815679
O O21 0.408218 0.000000 0.337121
#
# Coordination Sequence:
#
# PCOD8089328 Si02
#       8
#     8   8   8   8   8   8   8   8
#     4  10  19  33  53  70  88 119 160 200 240 282
#     4   9  19  34  50  70  93 119 154 200 245 284
#     4   9  17  31  50  70  94 127 165 199 232 274
#     4  12  23  33  46  69  99 127 157 194 241 287
#     4   7  12  26  48  70  91 119 158 202 237 266
#     4  11  23  36  48  64  90 128 170 200 224 267
#     4   9  17  30  49  72  97 126 162 198 230 275
#     4  11  21  32  47  70  99 127 154 189 238 287
#
# _framework density 16.590320999999999
#
# number of rings (size 3 to 8) (size 9 to 14) (size 15 to 20)
#    0.000    2.250    1.250    4.500    0.000    5.500 
#    0.000    0.625    0.000    2.250    0.000    0.875 
#    0.000    0.000    0.000    0.000    0.000    0.000 
#
# Total GULP energy -396631.650368 kJ/mol
# GULP energy per Si atom -12394.739074 kJ/mol
# Density = 1.655256 g / cm^3
# Si number density = 16.590321 Si / 1000 Ang^3
#
#
#
# Elastic Constant Matrix: (Units=GPa)
#
#
# Indices 1 2 3 4 5 6 
#
# 1 68.8931 36.6744 20.3058 0.0000 -11.4088 0.0000
# 2 36.6744 76.0858 19.6795 0.0000 -5.2971 0.0000
# 3 20.3058 19.6795 65.7060 0.0000 -21.7002 0.0000
# 4 0.0000 0.0000 0.0000 12.6741 0.0000 -3.3579
# 5 -11.4088 -5.2971 -21.7002 0.0000 16.5824 0.0000
# 6 0.0000 0.0000 0.0000 -3.3579 0.0000 20.6475
#
#
#
# Elastic Compliance Matrix: (Units=1/GPa)
#
#
# Indices 1 2 3 4 5 6 
#
# 1 0.021563 -0.009603 0.000174 0.000000 0.011995 0.000000
# 2 -0.009603 0.018555 -0.004956 0.000000 -0.007166 0.000000
# 3 0.000174 -0.004956 0.028472 0.000000 0.035796 0.000000
# 4 0.000000 0.000000 0.000000 0.082454 0.000000 0.013409
# 5 0.011995 -0.007166 0.035796 0.000000 0.113113 0.000000
# 6 0.000000 0.000000 0.000000 0.013409 0.000000 0.050613
#
#
# Mechanical properties :
#
#
# Convention : Reuss Voigt Hill
#
# Bulk Modulus (GPa) = 25.11363 40.44493 32.77928
# Shear Modulus (GPa) = 14.01299 18.91582 16.46440
#
# Velocity S-wave (km/s) = 2.90944 3.38031 3.15367
# Velocity P-wave (km/s) = 5.14362 6.29816 5.74994
#
# Compressibility (1/GPa) = 0.03981902
#
# Stress axis : x y z
#
# Youngs Moduli (GPa) = 46.37659 53.89375 35.12242
#
# Poissons Ratio (x) = 0.51756 -0.00612
# Poissons Ratio (y) = 0.44537 0.17407
# Poissons Ratio (z) = -0.00808 0.26710
#
# Static dielectric constant tensor:
#      x y z
#    x 3.149100 0.000000 -0.077950 
#    y 0.000000 3.054170 0.000000 
#    z -0.077950 0.000000 3.233690 
# 
# 
# High freq. dielectric constant tensor:
#      x y z
#    x 1.619990 0.000000 -0.008340 
#    y 0.000000 1.635410 0.000000 
#    z -0.008340 0.000000 1.626240 
# 
# From -- ./inp_files/244029.got.cif
#   From: 2010.06.25/outbox.cif.g09.slc.cpg/sg12_123_cif.got.tgz:244029.got - 2010.06.28 00:19:55.
