data_PCOD8089484
_publ_section_title
;
Structure prediction by ZEFSAII (Michael W. Deem and Ramdas Pophale) SiO2 
 PCOD8089484
Probable space group: C 2/M
;
_chemical_formula_sum "Si O2"
_cell_formula_units_Z 64
_cell_length_a 19.499761
_cell_length_b 25.577388
_cell_length_c 11.096745
_cell_angle_alpha 90.000000
_cell_angle_beta 40.533895
_cell_angle_gamma 90.000000
_cell_volume 3596.881552
_symmetry_space_group_name_H-M "C 2/M"
_symmetry_group_IT_number 12
_symmetry_cell_setting 'monoclinic'
loop_
_space_group_symop_operation_xyz
x,y,z
-x,y,-z
-x,-y,-z
x,-y,z
1/2+x,1/2+y,z
1/2-x,1/2+y,-z
1/2-x,1/2-y,-z
1/2+x,1/2-y,z
loop_
_atom_site_type_symbol
_atom_site_label
_atom_site_fract_x
_atom_site_fract_y
_atom_site_fract_z
Si Si1 0.617819 0.939934 0.363657
Si Si2 0.128715 0.855570 0.605510
Si Si3 0.770201 0.647390 0.636796
Si Si4 0.111511 0.939436 0.416427
Si Si5 0.602679 0.357412 0.055890
Si Si6 0.364457 0.729963 0.805473
Si Si7 0.596874 0.249815 0.520773
Si Si8 0.790363 0.058724 0.952488
O O1 0.500000 0.920566 0.500000
O O2 0.669866 0.903513 0.394770
O O3 0.623802 0.000000 0.400792
O O4 0.671788 0.933547 0.160074
O O5 0.223447 0.868128 0.569816
O O6 0.127577 0.899806 0.504616
O O7 0.141845 0.796238 0.542885
O O8 0.017981 0.856873 0.825554
O O9 0.849133 0.695576 0.516947
O O10 0.676448 0.665087 0.851763
O O11 0.200602 0.923039 0.198527
O O12 0.000000 0.930414 0.500000
O O13 0.123633 0.000000 0.443368
O O14 0.622159 0.327146 0.155872
O O15 0.631987 0.415955 0.053116
O O16 0.370447 0.729977 0.654514
O O17 0.470641 0.760965 0.707238
O O18 0.250000 0.750000 0.000000
O O19 0.830634 0.000000 0.901690
#
# Coordination Sequence:
#
# PCOD8089484 Si02
#       8
#     8   8   8   8   8   8   8   8
#     4   9  20  37  58  81 105 138 185 236 275 315
#     4  11  22  35  52  79 116 149 181 217 269 333
#     4  11  22  36  54  77 112 152 181 219 274 332
#     4  10  19  33  56  82 111 144 180 225 273 322
#     4  10  19  33  53  77 110 145 181 218 267 321
#     4  10  19  34  56  82 101 133 185 231 264 310
#     4  10  22  34  55  79 109 144 180 223 273 316
#     4   9  17  31  54  83 108 135 176 224 271 316
#
# _framework density 17.793191
#
# number of rings (size 3 to 8) (size 9 to 14) (size 15 to 20)
#    0.000    2.000    2.500    1.500    3.500    0.500 
#    0.000    0.000    0.000    6.000    0.000    3.500 
#    0.000    0.000    0.000    0.000    0.000    0.000 
#
# Total GULP energy -396532.424166 kJ/mol
# GULP energy per Si atom -12391.638255 kJ/mol
# Density = 1.775269 g / cm^3
# Si number density = 17.793191 Si / 1000 Ang^3
#
#
#
# Elastic Constant Matrix: (Units=GPa)
#
#
# Indices 1 2 3 4 5 6 
#
# 1 118.2478 53.5659 56.9156 0.0001 -6.0717 -0.0001
# 2 53.5659 88.2817 47.3178 0.0000 -3.5541 0.0000
# 3 56.9156 47.3178 112.0392 0.0001 -13.7352 0.0000
# 4 0.0001 0.0000 0.0001 24.6186 0.0000 0.1067
# 5 -6.0717 -3.5541 -13.7352 0.0000 20.1706 0.0000
# 6 -0.0001 0.0000 0.0000 0.1067 0.0000 20.5953
#
#
#
# Elastic Compliance Matrix: (Units=1/GPa)
#
#
# Indices 1 2 3 4 5 6 
#
# 1 0.013060 -0.005648 -0.004243 0.000000 0.000047 0.000000
# 2 -0.005648 0.017143 -0.004592 0.000000 -0.001807 0.000000
# 3 -0.004243 -0.004592 0.013928 0.000000 0.007397 0.000000
# 4 0.000000 0.000000 0.000000 0.040621 0.000000 -0.000210
# 5 0.000047 -0.001807 0.007397 0.000000 0.054310 0.000000
# 6 0.000000 0.000000 0.000000 -0.000210 0.000000 0.048556
#
#
# Mechanical properties :
#
#
# Convention : Reuss Voigt Hill
#
# Bulk Modulus (GPa) = 65.95019 70.46302 68.20660
# Shear Modulus (GPa) = 22.55913 23.79486 23.17700
#
# Velocity S-wave (km/s) = 3.56455 3.66088 3.61304
# Velocity P-wave (km/s) = 7.35437 7.58660 7.47138
#
# Compressibility (1/GPa) = 0.01516296
#
# Stress axis : x y z
#
# Youngs Moduli (GPa) = 76.56793 58.33229 71.80033
#
# Poissons Ratio (x) = 0.32947 0.30468
# Poissons Ratio (y) = 0.43247 0.32973
# Poissons Ratio (z) = 0.32492 0.26788
#
# Static dielectric constant tensor:
#      x y z
#    x 3.082600 0.000000 -0.063730 
#    y 0.000000 3.305430 0.000000 
#    z -0.063730 0.000000 3.701800 
# 
# 
# High freq. dielectric constant tensor:
#      x y z
#    x 1.662650 0.000000 -0.003380 
#    y 0.000000 1.691980 0.000000 
#    z -0.003380 0.000000 1.700360 
# 
# From -- ./inp_files/170144.got.cif
#   From: 2010.06.25/outbox.cif.g09.slc.cpg/sg12_86_cif.got.tgz:170144.got - 2010.06.28 00:19:55.
