data_PCOD8089397
_publ_section_title
;
Structure prediction by ZEFSAII (Michael W. Deem and Ramdas Pophale) SiO2 
 PCOD8089397
Probable space group: C 2/M
;
_chemical_formula_sum "Si O2"
_cell_formula_units_Z 48
_cell_length_a 29.089243
_cell_length_b 12.513023
_cell_length_c 14.457401
_cell_angle_alpha 90.000000
_cell_angle_beta 29.600605
_cell_angle_gamma 90.000000
_cell_volume 2599.374179
_symmetry_space_group_name_H-M "C 2/M"
_symmetry_group_IT_number 12
_symmetry_cell_setting 'monoclinic'
loop_
_space_group_symop_operation_xyz
x,y,z
-x,y,-z
-x,-y,-z
x,-y,z
1/2+x,1/2+y,z
1/2-x,1/2+y,-z
1/2-x,1/2-y,-z
1/2+x,1/2-y,z
loop_
_atom_site_type_symbol
_atom_site_label
_atom_site_fract_x
_atom_site_fract_y
_atom_site_fract_z
Si Si1 0.790996 0.624013 0.822561
Si Si2 0.118852 0.801772 0.226168
Si Si3 0.700710 0.249730 0.378278
Si Si4 0.380879 0.123066 0.113981
Si Si5 0.909067 0.377895 0.280477
Si Si6 0.931126 0.118689 0.499502
O O1 0.814806 0.500000 0.785009
O O2 0.855196 0.681824 0.787328
O O3 0.807680 0.664987 0.689798
O O4 0.684840 0.649810 0.032707
O O5 0.125676 0.877987 0.304556
O O6 0.016695 0.798864 0.359825
O O7 0.805191 0.294421 0.206245
O O8 0.661724 0.196151 0.539134
O O9 0.634112 0.349606 0.471587
O O10 0.382789 0.136979 0.220188
O O11 0.355923 0.000000 0.132294
O O12 0.482176 0.153065 0.894420
O O13 0.893626 0.500000 0.338146
O O14 0.969324 0.000000 0.415143
#
# Coordination Sequence:
#
# PCOD8089397 Si02
#       6
#     8   8   8   8   8   8
#     4  10  20  34  52  76 107 138 173 218 269 314
#     4   9  19  35  52  70 101 143 181 207 260 318
#     4  11  21  31  55  85 110 131 179 226 272 314
#     4   9  19  37  58  78 105 146 184 217 260 325
#     4   9  19  37  57  77 109 146 178 216 272 324
#     4  10  19  33  53  75 102 139 179 221 260 309
#
# _framework density 18.465983000000001
#
# number of rings (size 3 to 8) (size 9 to 14) (size 15 to 20)
#    0.000    2.333    0.000    4.500    2.333    0.000 
#    0.000    8.333    0.000    0.000    0.000    7.000 
#    0.000    0.000    0.000    0.000    0.000    0.000 
#
# Total GULP energy -297534.446222 kJ/mol
# GULP energy per Si atom -12397.268593 kJ/mol
# Density = 1.842395 g / cm^3
# Si number density = 18.465983 Si / 1000 Ang^3
#
#
#
# Elastic Constant Matrix: (Units=GPa)
#
#
# Indices 1 2 3 4 5 6 
#
# 1 56.8201 30.5954 15.5245 0.0000 -19.1504 0.0000
# 2 30.5954 107.9242 32.8015 0.0000 -12.4000 0.0000
# 3 15.5245 32.8015 75.3609 0.0000 -6.5635 0.0000
# 4 0.0000 0.0000 0.0000 24.3500 0.0000 -0.7181
# 5 -19.1504 -12.4000 -6.5635 0.0000 32.2863 0.0000
# 6 0.0000 0.0000 0.0000 -0.7181 0.0000 21.2427
#
#
#
# Elastic Compliance Matrix: (Units=1/GPa)
#
#
# Indices 1 2 3 4 5 6 
#
# 1 0.025081 -0.005107 -0.001852 0.000000 0.012539 0.000000
# 2 -0.005107 0.012056 -0.004129 0.000000 0.000762 0.000000
# 3 -0.001852 -0.004129 0.015489 0.000000 0.000464 0.000000
# 4 0.000000 0.000000 0.000000 0.041109 0.000000 0.001390
# 5 0.012539 0.000762 0.000464 0.000000 0.038797 0.000000
# 6 0.000000 0.000000 0.000000 0.001390 0.000000 0.047122
#
#
# Mechanical properties :
#
#
# Convention : Reuss Voigt Hill
#
# Bulk Modulus (GPa) = 32.84042 44.21642 38.52842
# Shear Modulus (GPa) = 23.58717 26.32138 24.95427
#
# Velocity S-wave (km/s) = 3.57785 3.77954 3.68008
# Velocity P-wave (km/s) = 5.90686 6.56074 6.24237
#
# Compressibility (1/GPa) = 0.03045028
#
# Stress axis : x y z
#
# Youngs Moduli (GPa) = 39.87042 82.94650 64.56330
#
# Poissons Ratio (x) = 0.42359 0.11957
# Poissons Ratio (y) = 0.20361 0.26659
# Poissons Ratio (z) = 0.07384 0.34250
#
# Static dielectric constant tensor:
#      x y z
#    x 3.241140 0.000000 -0.054190 
#    y 0.000000 3.337610 0.000000 
#    z -0.054190 0.000000 3.456950 
# 
# 
# High freq. dielectric constant tensor:
#      x y z
#    x 1.706650 0.000000 -0.003800 
#    y 0.000000 1.706820 0.000000 
#    z -0.003800 0.000000 1.721640 
# 
# From -- ./inp_files/250728.got.cif
#   From: 2010.06.25/outbox.cif.g09.slc.cpg/sg12_126_cif.got.tgz:250728.got - 2010.06.28 00:19:55.
