data_PCOD8089779
_publ_section_title
;
Structure prediction by ZEFSAII (Michael W. Deem and Ramdas Pophale) SiO2 
 PCOD8089779
Probable space group: C 2/M
;
_chemical_formula_sum "Si O2"
_cell_formula_units_Z 64
_cell_length_a 23.060922
_cell_length_b 8.600178
_cell_length_c 22.702685
_cell_angle_alpha 90.000000
_cell_angle_beta 131.344253
_cell_angle_gamma 90.000000
_cell_volume 3380.329784
_symmetry_space_group_name_H-M "C 2/M"
_symmetry_group_IT_number 12
_symmetry_cell_setting 'monoclinic'
loop_
_space_group_symop_operation_xyz
x,y,z
-x,y,-z
-x,-y,-z
x,-y,z
1/2+x,1/2+y,z
1/2-x,1/2+y,-z
1/2-x,1/2-y,-z
1/2+x,1/2-y,z
loop_
_atom_site_type_symbol
_atom_site_label
_atom_site_fract_x
_atom_site_fract_y
_atom_site_fract_z
Si Si1 0.976237 0.815038 0.074198
Si Si2 0.703646 0.682247 0.603673
Si Si3 0.090004 0.682600 0.441634
Si Si4 0.378169 0.683670 0.900546
Si Si5 0.434914 0.685656 0.298051
Si Si6 0.010339 0.820166 0.788629
Si Si7 0.222165 0.183480 0.748510
Si Si8 0.156312 0.820334 0.369822
O O1 0.964001 0.743809 0.131691
O O2 0.057657 0.754518 0.102478
O O3 0.981621 0.000000 0.080508
O O4 0.905400 0.765497 0.984533
O O5 0.685476 0.500000 0.592049
O O6 0.628387 0.772925 0.529652
O O7 0.720907 0.746128 0.680855
O O8 0.776785 0.715079 0.611773
O O9 0.092752 0.500000 0.432299
O O10 0.139877 0.769178 0.425279
O O11 0.001988 0.741388 0.383287
O O12 0.369680 0.500000 0.890385
O O13 0.296424 0.759006 0.833077
O O14 0.444349 0.500000 0.306299
O O15 0.444285 0.750355 0.237176
O O16 0.353377 0.744604 0.267892
O O17 0.919123 0.793862 0.720485
O O18 0.031103 0.000000 0.804814
O O19 0.222937 0.000000 0.749001
O O20 0.182264 0.000000 0.387142
#
# Coordination Sequence:
#
# PCOD8089779 Si02
#       8
#     8   8   8   8   8   8   8   8
#     4   8  14  27  49  79 105 129 162 205 254 304
#     4  11  22  35  51  73 101 135 171 211 257 309
#     4  11  22  36  54  77 103 131 165 211 258 304
#     4   9  17  30  51  76 105 133 163 206 256 309
#     4   9  19  37  55  71  96 136 177 214 254 302
#     4   8  14  27  51  75  96 127 170 208 244 296
#     4  10  22  37  52  71 101 137 173 213 261 304
#     4  10  19  33  54  80 107 135 166 206 253 304
#
# _framework density 18.933064000000002
#
# number of rings (size 3 to 8) (size 9 to 14) (size 15 to 20)
#    0.000    2.500    0.000    4.500    0.000    3.000 
#    0.000    4.375    0.000    3.750    0.000    0.000 
#    0.000    0.000    0.000    0.000    0.000    0.000 
#
# Total GULP energy -396731.972357 kJ/mol
# GULP energy per Si atom -12397.874136 kJ/mol
# Density = 1.888997 g / cm^3
# Si number density = 18.933064 Si / 1000 Ang^3
#
#
#
# Elastic Constant Matrix: (Units=GPa)
#
#
# Indices 1 2 3 4 5 6 
#
# 1 94.2810 17.3278 70.6988 0.0000 17.0278 0.0000
# 2 17.3278 30.6522 25.2985 0.0000 -0.1106 0.0000
# 3 70.6988 25.2985 145.0411 0.0000 2.3586 0.0000
# 4 0.0000 0.0000 0.0000 26.7096 0.0000 4.7750
# 5 17.0278 -0.1106 2.3586 0.0000 24.8001 0.0000
# 6 0.0000 0.0000 0.0000 4.7750 0.0000 16.7824
#
#
#
# Elastic Compliance Matrix: (Units=1/GPa)
#
#
# Indices 1 2 3 4 5 6 
#
# 1 0.020595 -0.004186 -0.009093 0.000000 -0.013295 0.000000
# 2 -0.004186 0.038977 -0.004815 0.000000 0.003506 0.000000
# 3 -0.009093 -0.004815 0.012084 0.000000 0.005072 0.000000
# 4 0.000000 0.000000 0.000000 0.039446 0.000000 -0.011223
# 5 -0.013295 0.003506 0.005072 0.000000 0.048984 0.000000
# 6 0.000000 0.000000 0.000000 -0.011223 0.000000 0.062779
#
#
# Mechanical properties :
#
#
# Convention : Reuss Voigt Hill
#
# Bulk Modulus (GPa) = 28.19357 55.18052 41.68704
# Shear Modulus (GPa) = 18.45855 24.10170 21.28012
#
# Velocity S-wave (km/s) = 3.12579 3.57178 3.35620
# Velocity P-wave (km/s) = 5.28686 6.79841 6.08972
#
# Compressibility (1/GPa) = 0.03546908
#
# Stress axis : x y z
#
# Youngs Moduli (GPa) = 48.55441 25.65599 82.75326
#
# Poissons Ratio (x) = 0.10740 0.75245
# Poissons Ratio (y) = 0.20325 0.39846
# Poissons Ratio (z) = 0.44149 0.12354
#
# Static dielectric constant tensor:
#      x y z
#    x 3.618330 0.000000 -0.186260 
#    y 0.000000 3.148150 0.000000 
#    z -0.186260 0.000000 3.807570 
# 
# 
# High freq. dielectric constant tensor:
#      x y z
#    x 1.727150 0.000000 -0.007780 
#    y 0.000000 1.707270 0.000000 
#    z -0.007780 0.000000 1.744790 
# 
# From -- ./inp_files/346179.got.cif
#   From: 2010.06.25/outbox.cif.g09.slc.cpg/sg12_174_cif.got.tgz:346179.got - 2010.06.28 00:19:55.
