data_PCOD8089591
_publ_section_title
;
Structure prediction by ZEFSAII (Michael W. Deem and Ramdas Pophale) SiO2 
 PCOD8089591
Probable space group: C 2/M
;
_chemical_formula_sum "Si O2"
_cell_formula_units_Z 56
_cell_length_a 24.692740
_cell_length_b 8.990868
_cell_length_c 14.895711
_cell_angle_alpha 90.000000
_cell_angle_beta 121.458498
_cell_angle_gamma 90.000000
_cell_volume 2820.918555
_symmetry_space_group_name_H-M "C 2/M"
_symmetry_group_IT_number 12
_symmetry_cell_setting 'monoclinic'
loop_
_space_group_symop_operation_xyz
x,y,z
-x,y,-z
-x,-y,-z
x,-y,z
1/2+x,1/2+y,z
1/2-x,1/2+y,-z
1/2-x,1/2-y,-z
1/2+x,1/2-y,z
loop_
_atom_site_type_symbol
_atom_site_label
_atom_site_fract_x
_atom_site_fract_y
_atom_site_fract_z
Si Si1 0.107436 0.163321 0.428287
Si Si2 0.432324 0.332457 0.796432
Si Si3 0.833859 0.324496 0.820670
Si Si4 0.563942 0.324382 0.816976
Si Si5 0.504902 0.171852 0.605554
Si Si6 0.745051 0.333848 0.588085
Si Si7 0.690309 0.177247 0.998522
O O1 0.118090 0.181094 0.329858
O O2 0.170063 0.165499 0.543319
O O3 0.065837 0.303733 0.419606
O O4 0.073567 0.000000 0.411784
O O5 0.437581 0.500000 0.836522
O O6 0.403788 0.237621 0.854464
O O7 0.502461 0.279258 0.824392
O O8 0.839088 0.500000 0.824033
O O9 0.781677 0.262727 0.704417
O O10 0.810546 0.271483 0.898153
O O11 0.576893 0.500000 0.831263
O O12 0.552856 0.273344 0.704472
O O13 0.624797 0.234869 0.901398
O O14 0.500000 0.228744 0.500000
O O15 0.524880 0.000000 0.630386
O O16 0.771354 0.500000 0.596012
O O17 0.750000 0.250000 0.500000
O O18 0.694673 0.000000 0.992060
O O19 0.750000 0.250000 0.000000
#
# Coordination Sequence:
#
# PCOD8089591 Si02
#       7
#     8   8   8   8   8   8   8
#     4   9  18  32  51  79 117 157 194 235 287 348
#     4   9  18  34  57  87 119 149 192 242 295 356
#     4  10  22  37  58  88 121 158 200 247 302 357
#     4  10  22  41  64  88 117 157 199 246 304 356
#     4  10  21  36  56  86 119 151 195 244 294 353
#     4  10  19  33  53  82 118 154 191 231 283 347
#     4  11  25  45  64  87 119 157 205 255 302 357
#
# _framework density 19.851690000000001
#
# number of rings (size 3 to 8) (size 9 to 14) (size 15 to 20)
#    0.000    2.143    1.429    2.143    0.000    7.429 
#    0.000    4.286    0.000    0.000    0.000    0.000 
#    0.000    0.000    0.000    0.000    0.000    0.000 
#
# Total GULP energy -346966.589313 kJ/mol
# GULP energy per Si atom -12391.663904 kJ/mol
# Density = 1.980651 g / cm^3
# Si number density = 19.851690 Si / 1000 Ang^3
#
#
#
# Elastic Constant Matrix: (Units=GPa)
#
#
# Indices 1 2 3 4 5 6 
#
# 1 116.2536 41.6912 74.6922 0.0000 -7.2783 0.0000
# 2 41.6912 56.5314 46.6226 0.0000 -8.4781 0.0000
# 3 74.6922 46.6226 134.0415 0.0000 -6.6446 0.0000
# 4 0.0000 0.0000 0.0000 26.9764 0.0000 1.2640
# 5 -7.2783 -8.4781 -6.6446 0.0000 31.2667 0.0000
# 6 0.0000 0.0000 0.0000 1.2640 0.0000 35.7884
#
#
#
# Elastic Compliance Matrix: (Units=1/GPa)
#
#
# Indices 1 2 3 4 5 6 
#
# 1 0.014606 -0.005605 -0.006161 0.000000 0.000571 0.000000
# 2 -0.005605 0.027736 -0.006282 0.000000 0.004881 0.000000
# 3 -0.006161 -0.006282 0.013061 0.000000 -0.000362 0.000000
# 4 0.000000 0.000000 0.000000 0.037131 0.000000 -0.001311
# 5 0.000571 0.004881 -0.000362 0.000000 0.033362 0.000000
# 6 0.000000 0.000000 0.000000 -0.001311 0.000000 0.027988
#
#
# Mechanical properties :
#
#
# Convention : Reuss Voigt Hill
#
# Bulk Modulus (GPa) = 51.79629 70.31538 61.05584
# Shear Modulus (GPa) = 25.45620 28.39433 26.92526
#
# Velocity S-wave (km/s) = 3.58483 3.78606 3.68682
# Velocity P-wave (km/s) = 6.57898 7.38983 6.99616
#
# Compressibility (1/GPa) = 0.01930640
#
# Stress axis : x y z
#
# Youngs Moduli (GPa) = 68.46376 36.05461 76.56600
#
# Poissons Ratio (x) = 0.20209 0.47174
# Poissons Ratio (y) = 0.38374 0.48098
# Poissons Ratio (z) = 0.42182 0.22649
#
# Static dielectric constant tensor:
#      x y z
#    x 3.616760 0.000000 0.083240 
#    y 0.000000 3.450740 0.000000 
#    z 0.083240 0.000000 3.930640 
# 
# 
# High freq. dielectric constant tensor:
#      x y z
#    x 1.761600 0.000000 0.004390 
#    y 0.000000 1.771170 0.000000 
#    z 0.004390 0.000000 1.777500 
# 
# From -- ./inp_files/238930.got.cif
#   From: 2010.06.25/outbox.cif.g09.slc.cpg/sg12_120_cif.got.tgz:238930.got - 2010.06.28 00:19:55.
