data_PCOD8089202
_publ_section_title
;
Structure prediction by ZEFSAII (Michael W. Deem and Ramdas Pophale) SiO2 
 PCOD8089202
Probable space group: C 2/M
;
_chemical_formula_sum "Si O2"
_cell_formula_units_Z 64
_cell_length_a 29.912668
_cell_length_b 8.861899
_cell_length_c 14.826878
_cell_angle_alpha 90.000000
_cell_angle_beta 101.400039
_cell_angle_gamma 90.000000
_cell_volume 3852.812138
_symmetry_space_group_name_H-M "C 2/M"
_symmetry_group_IT_number 12
_symmetry_cell_setting 'monoclinic'
loop_
_space_group_symop_operation_xyz
x,y,z
-x,y,-z
-x,-y,-z
x,-y,z
1/2+x,1/2+y,z
1/2-x,1/2+y,-z
1/2-x,1/2-y,-z
1/2+x,1/2-y,z
loop_
_atom_site_type_symbol
_atom_site_label
_atom_site_fract_x
_atom_site_fract_y
_atom_site_fract_z
Si Si1 0.567568 0.826210 0.585867
Si Si2 0.057324 0.322292 0.882168
Si Si3 0.712159 0.673523 0.875620
Si Si4 0.532511 0.825712 0.381036
Si Si5 0.803758 0.824661 0.924950
Si Si6 0.382216 0.674751 0.245150
Si Si7 0.461960 0.677621 0.803133
Si Si8 0.895002 0.677729 0.913576
O O1 0.564385 0.784289 0.478999
O O2 0.519669 0.794131 0.614889
O O3 0.605808 0.722154 0.647829
O O4 0.581419 0.000000 0.602745
O O5 0.050459 0.500000 0.874056
O O6 0.087319 0.272208 0.809841
O O7 0.007908 0.248223 0.860843
O O8 0.081922 0.271741 0.983561
O O9 0.727760 0.500000 0.878106
O O10 0.754866 0.776697 0.864612
O O11 0.671148 0.708351 0.790684
O O12 0.694837 0.714698 0.968628
O O13 0.546566 0.720591 0.304112
O O14 0.538896 0.000000 0.356383
O O15 0.842542 0.728180 0.891585
O O16 0.812299 0.000000 0.909714
O O17 0.393273 0.500000 0.232476
O O18 0.465240 0.500000 0.813889
O O19 0.419343 0.738320 0.841762
O O20 0.898427 0.500000 0.900129
#
# Coordination Sequence:
#
# PCOD8089202 Si02
#       8
#     8   8   8   8   8   8   8   8
#     4   9  18  32  52  74 100 133 168 207 251 303
#     4  11  22  35  50  70 100 138 178 209 243 297
#     4   9  19  33  49  72 104 135 165 204 255 304
#     4   9  18  34  52  72  99 133 170 208 251 299
#     4  10  19  33  52  74 100 130 170 214 251 294
#     4  11  20  31  50  77 106 135 167 208 254 299
#     4  12  24  35  51  74 101 134 173 215 254 294
#     4  11  23  37  53  71  98 138 177 211 251 299
#
# _framework density 16.611243999999999
#
# number of rings (size 3 to 8) (size 9 to 14) (size 15 to 20)
#    0.000    1.750    2.500    3.750    0.000    5.000 
#    0.000    1.250    0.000    0.000    0.000    0.875 
#    0.000    0.000    0.000    0.000    0.000    0.000 
#
# Total GULP energy -396918.538985 kJ/mol
# GULP energy per Si atom -12403.704343 kJ/mol
# Density = 1.657344 g / cm^3
# Si number density = 16.611244 Si / 1000 Ang^3
#
#
#
# Elastic Constant Matrix: (Units=GPa)
#
#
# Indices 1 2 3 4 5 6 
#
# 1 91.4749 41.7097 44.5445 0.0000 6.3507 0.0000
# 2 41.7097 72.6020 32.7902 0.0000 3.4824 0.0000
# 3 44.5445 32.7902 74.4423 0.0000 10.0163 0.0000
# 4 0.0000 0.0000 0.0000 24.4036 0.0000 1.5407
# 5 6.3507 3.4824 10.0163 0.0000 22.0995 0.0000
# 6 0.0000 0.0000 0.0000 1.5407 0.0000 29.4478
#
#
#
# Elastic Compliance Matrix: (Units=1/GPa)
#
#
# Indices 1 2 3 4 5 6 
#
# 1 0.017728 -0.006743 -0.007556 0.000000 -0.000607 0.000000
# 2 -0.006743 0.019771 -0.004809 0.000000 0.001002 0.000000
# 3 -0.007556 -0.004809 0.020957 0.000000 -0.006569 0.000000
# 4 0.000000 0.000000 0.000000 0.041113 0.000000 -0.002151
# 5 -0.000607 0.001002 -0.006569 0.000000 0.048244 0.000000
# 6 0.000000 0.000000 0.000000 -0.002151 0.000000 0.034071
#
#
# Mechanical properties :
#
#
# Convention : Reuss Voigt Hill
#
# Bulk Modulus (GPa) = 49.40654 52.95644 51.18149
# Shear Modulus (GPa) = 22.04120 23.15516 22.59818
#
# Velocity S-wave (km/s) = 3.64659 3.73761 3.69238
# Velocity P-wave (km/s) = 6.89475 7.11164 7.00403
#
# Compressibility (1/GPa) = 0.02024024
#
# Stress axis : x y z
#
# Youngs Moduli (GPa) = 56.40686 50.57820 47.71714
#
# Poissons Ratio (x) = 0.34105 0.36057
# Poissons Ratio (y) = 0.38035 0.22946
# Poissons Ratio (z) = 0.42623 0.24322
#
# Static dielectric constant tensor:
#      x y z
#    x 3.013540 0.000000 0.137900 
#    y 0.000000 3.150410 0.000000 
#    z 0.137900 0.000000 3.173170 
# 
# 
# High freq. dielectric constant tensor:
#      x y z
#    x 1.622660 0.000000 0.012000 
#    y 0.000000 1.649390 0.000000 
#    z 0.012000 0.000000 1.626620 
# 
# From -- ./inp_files/248502.got.cif
#   From: 2010.06.25/outbox.cif.g09.slc.cpg/sg12_125_cif.got.tgz:248502.got - 2010.06.28 00:19:55.
