data_PCOD8089481
_publ_section_title
;
Structure prediction by ZEFSAII (Michael W. Deem and Ramdas Pophale) SiO2 
 PCOD8089481
Probable space group: C 2/M
;
_chemical_formula_sum "Si O2"
_cell_formula_units_Z 64
_cell_length_a 20.633903
_cell_length_b 8.460926
_cell_length_c 18.854309
_cell_angle_alpha 90.000000
_cell_angle_beta 107.389471
_cell_angle_gamma 90.000000
_cell_volume 3141.178896
_symmetry_space_group_name_H-M "C 2/M"
_symmetry_group_IT_number 12
_symmetry_cell_setting 'monoclinic'
loop_
_space_group_symop_operation_xyz
x,y,z
-x,y,-z
-x,-y,-z
x,-y,z
1/2+x,1/2+y,z
1/2-x,1/2+y,-z
1/2-x,1/2-y,-z
1/2+x,1/2-y,z
loop_
_atom_site_type_symbol
_atom_site_label
_atom_site_fract_x
_atom_site_fract_y
_atom_site_fract_z
Si Si1 0.949967 0.186052 0.420818
Si Si2 0.166321 0.681292 0.148004
Si Si3 0.689644 0.815696 0.651383
Si Si4 0.829959 0.686909 0.691259
Si Si5 0.468228 0.684704 0.691481
Si Si6 0.681993 0.322253 0.800816
Si Si7 0.575010 0.823375 0.997384
Si Si8 0.437227 0.182437 0.161606
O O1 0.983961 0.243425 0.357631
O O2 0.000000 0.235217 0.500000
O O3 0.878759 0.274772 0.414623
O O4 0.936381 0.000000 0.415061
O O5 0.142719 0.500000 0.146852
O O6 0.158484 0.754762 0.224441
O O7 0.242652 0.697009 0.143872
O O8 0.120069 0.766055 0.072399
O O9 0.760736 0.765617 0.636640
O O10 0.683670 0.707226 0.718277
O O11 0.691636 0.000000 0.670250
O O12 0.819503 0.500000 0.688400
O O13 0.894426 0.732327 0.664007
O O14 0.455367 0.500000 0.680767
O O15 0.504077 0.725345 0.777511
O O16 0.653913 0.500000 0.804164
O O17 0.634136 0.195067 0.821888
O O18 0.573855 0.739765 0.919908
O O19 0.604967 0.000000 0.996282
O O20 0.500000 0.830217 0.000000
O O21 0.459900 0.000000 0.163479
#
# Coordination Sequence:
#
# PCOD8089481 Si02
#       8
#     8   8   8   8   8   8   8   8
#     4  10  22  41  64  88 117 155 192 231 286 344
#     4   8  16  31  51  75 105 145 190 235 281 334
#     4  11  21  36  60  89 120 151 191 235 284 343
#     4  10  20  36  61  87 116 154 196 238 285 340
#     4  11  22  37  59  86 117 148 189 241 287 341
#     4  10  19  33  53  77 108 148 190 234 287 339
#     4   9  17  30  48  72 103 141 188 238 288 341
#     4  11  21  32  53  81 108 143 190 240 289 341
#
# _framework density 20.374516
#
# number of rings (size 3 to 8) (size 9 to 14) (size 15 to 20)
#    0.000    2.000    1.250    4.125    0.000    3.250 
#    0.000    0.625    0.000   13.500    0.000    0.000 
#    0.000    0.000    0.000    0.000    0.000    0.000 
#
# Total GULP energy -396672.257769 kJ/mol
# GULP energy per Si atom -12396.008055 kJ/mol
# Density = 2.032814 g / cm^3
# Si number density = 20.374516 Si / 1000 Ang^3
#
#
#
# Elastic Constant Matrix: (Units=GPa)
#
#
# Indices 1 2 3 4 5 6 
#
# 1 104.8652 28.3728 29.2283 0.0000 25.7388 0.0000
# 2 28.3728 54.2614 23.8081 0.0000 9.6166 0.0000
# 3 29.2283 23.8081 93.1945 0.0000 26.3718 0.0000
# 4 0.0000 0.0000 0.0000 15.8370 0.0000 3.0461
# 5 25.7388 9.6166 26.3718 0.0000 30.0202 0.0000
# 6 0.0000 0.0000 0.0000 3.0461 0.0000 27.4730
#
#
#
# Elastic Compliance Matrix: (Units=1/GPa)
#
#
# Indices 1 2 3 4 5 6 
#
# 1 0.013355 -0.005217 -0.000118 0.000000 -0.009676 0.000000
# 2 -0.005217 0.022953 -0.004542 0.000000 0.001110 0.000000
# 3 -0.000118 -0.004542 0.015287 0.000000 -0.011874 0.000000
# 4 0.000000 0.000000 0.000000 0.064519 0.000000 -0.007154
# 5 -0.009676 0.001110 -0.011874 0.000000 0.051682 0.000000
# 6 0.000000 0.000000 0.000000 -0.007154 0.000000 0.037193
#
#
# Mechanical properties :
#
#
# Convention : Reuss Voigt Hill
#
# Bulk Modulus (GPa) = 31.40379 46.12661 38.76520
# Shear Modulus (GPa) = 21.24437 26.06018 23.65227
#
# Velocity S-wave (km/s) = 3.23258 3.58027 3.41086
# Velocity P-wave (km/s) = 5.42028 6.30711 5.88044
#
# Compressibility (1/GPa) = 0.03184329
#
# Stress axis : x y z
#
# Youngs Moduli (GPa) = 74.87660 43.56697 65.41341
#
# Poissons Ratio (x) = 0.22728 0.00771
# Poissons Ratio (y) = 0.39062 0.29709
# Poissons Ratio (z) = 0.00882 0.19787
#
# Static dielectric constant tensor:
#      x y z
#    x 3.922290 0.000000 0.177340 
#    y 0.000000 3.392700 0.000000 
#    z 0.177340 0.000000 3.817620 
# 
# 
# High freq. dielectric constant tensor:
#      x y z
#    x 1.803360 0.000000 0.018810 
#    y 0.000000 1.767150 0.000000 
#    z 0.018810 0.000000 1.783880 
# 
# From -- ./inp_files/320079.got.cif
#   From: 2010.06.25/outbox.cif.g09.slc.cpg/sg12_161_cif.got.tgz:320079.got - 2010.06.28 00:19:55.
