data_PCOD8089362
_publ_section_title
;
Structure prediction by ZEFSAII (Michael W. Deem and Ramdas Pophale) SiO2 
 PCOD8089362
Probable space group: C 2/M
;
_chemical_formula_sum "Si O2"
_cell_formula_units_Z 64
_cell_length_a 20.487125
_cell_length_b 9.100915
_cell_length_c 24.179556
_cell_angle_alpha 90.000000
_cell_angle_beta 52.824732
_cell_angle_gamma 90.000000
_cell_volume 3592.185208
_symmetry_space_group_name_H-M "C 2/M"
_symmetry_group_IT_number 12
_symmetry_cell_setting 'monoclinic'
loop_
_space_group_symop_operation_xyz
x,y,z
-x,y,-z
-x,-y,-z
x,-y,z
1/2+x,1/2+y,z
1/2-x,1/2+y,-z
1/2-x,1/2-y,-z
1/2+x,1/2-y,z
loop_
_atom_site_type_symbol
_atom_site_label
_atom_site_fract_x
_atom_site_fract_y
_atom_site_fract_z
Si Si1 0.901943 0.328004 0.654459
Si Si2 0.687032 0.171258 0.413211
Si Si3 0.522358 0.171348 0.206640
Si Si4 0.648028 0.828822 0.656026
Si Si5 0.587536 0.825421 0.568661
Si Si6 0.731709 0.335915 0.925298
Si Si7 0.845077 0.174817 0.787962
Si Si8 0.372268 0.837392 0.944797
O O1 0.896104 0.500000 0.672731
O O2 0.870621 0.296179 0.609117
O O3 0.846095 0.235253 0.725087
O O4 0.994770 0.268559 0.610399
O O5 0.773850 0.247550 0.359591
O O6 0.642225 0.236812 0.490408
O O7 0.703586 0.000000 0.412122
O O8 0.426775 0.203627 0.263951
O O9 0.573575 0.268639 0.223116
O O10 0.546217 0.211226 0.130880
O O11 0.543210 0.000000 0.208306
O O12 0.625749 0.767969 0.606479
O O13 0.667793 0.000000 0.642638
O O14 0.585590 0.000000 0.567548
O O15 0.713747 0.500000 0.912771
O O16 0.762682 0.235093 0.859166
O O17 0.799572 0.337634 0.937790
O O18 0.647541 0.271315 0.994379
O O19 0.842829 0.000000 0.789954
O O20 0.383435 0.000000 0.964196
#
# Coordination Sequence:
#
# PCOD8089362 Si02
#       8
#     8   8   8   8   8   8   8   8
#     4  10  19  35  54  71  98 134 172 208 250 304
#     4  10  21  34  52  77 101 129 168 214 253 296
#     4   9  17  31  49  69  96 135 172 201 245 300
#     4  10  19  33  53  74 102 137 167 204 251 304
#     4   9  17  33  56  76  95 129 173 208 249 303
#     4   9  16  26  41  63  96 133 163 194 244 302
#     4  11  20  29  46  72  99 127 165 212 253 291
#     4   8  14  24  40  64  94 125 163 205 240 283
#
# _framework density 17.816454
#
# number of rings (size 3 to 8) (size 9 to 14) (size 15 to 20)
#    0.000    2.500    1.250    3.000    0.000    5.500 
#    0.000    0.625    0.000    1.500    0.000    0.875 
#    0.000    7.000    0.000    0.000    0.000    0.000 
#
# Total GULP energy -396755.441535 kJ/mol
# GULP energy per Si atom -12398.607548 kJ/mol
# Density = 1.777590 g / cm^3
# Si number density = 17.816454 Si / 1000 Ang^3
#
#
#
# Elastic Constant Matrix: (Units=GPa)
#
#
# Indices 1 2 3 4 5 6 
#
# 1 51.5314 21.3242 23.8957 0.0000 -9.3784 0.0000
# 2 21.3242 78.1282 47.6597 -0.0002 -5.2160 -0.0001
# 3 23.8957 47.6597 132.9000 0.0000 -20.4849 -0.0001
# 4 0.0000 -0.0002 0.0000 28.2847 0.0000 -2.1104
# 5 -9.3784 -5.2160 -20.4849 0.0000 11.6699 0.0000
# 6 0.0000 -0.0001 -0.0001 -2.1104 0.0000 20.1410
#
#
#
# Elastic Compliance Matrix: (Units=1/GPa)
#
#
# Indices 1 2 3 4 5 6 
#
# 1 0.024937 -0.005844 0.000409 0.000000 0.018147 0.000000
# 2 -0.005844 0.017898 -0.006661 0.000000 -0.008389 0.000000
# 3 0.000409 -0.006661 0.012930 0.000000 0.020048 0.000000
# 4 0.000000 0.000000 0.000000 0.035633 0.000000 0.003734
# 5 0.018147 -0.008389 0.020048 0.000000 0.131716 0.000000
# 6 0.000000 0.000000 0.000000 0.003734 0.000000 0.050041
#
#
# Mechanical properties :
#
#
# Convention : Reuss Voigt Hill
#
# Bulk Modulus (GPa) = 31.67291 49.81321 40.74306
# Shear Modulus (GPa) = 16.24060 23.33111 19.78586
#
# Velocity S-wave (km/s) = 3.02247 3.62266 3.33609
# Velocity P-wave (km/s) = 5.47689 6.74671 6.14469
#
# Compressibility (1/GPa) = 0.03157272
#
# Stress axis : x y z
#
# Youngs Moduli (GPa) = 40.10116 55.87330 77.34209
#
# Poissons Ratio (x) = 0.32655 -0.03165
# Poissons Ratio (y) = 0.23437 0.51514
# Poissons Ratio (z) = -0.01641 0.37215
#
# Static dielectric constant tensor:
#      x y z
#    x 2.861540 0.000000 -0.103390 
#    y 0.000000 3.167850 0.000000 
#    z -0.103390 0.000000 3.707880 
# 
# 
# High freq. dielectric constant tensor:
#      x y z
#    x 1.638760 0.000000 -0.009020 
#    y 0.000000 1.672820 0.000000 
#    z -0.009020 0.000000 1.710440 
# 
# From -- ./inp_files/348562.got.cif
#   From: 2010.06.25/outbox.cif.g09.slc.cpg/sg12_175_cif.got.tgz:348562.got - 2010.06.28 00:19:55.
