data_PCOD8089789
_publ_section_title
;
Structure prediction by ZEFSAII (Michael W. Deem and Ramdas Pophale) SiO2 
 PCOD8089789
Probable space group: C 2/M
;
_chemical_formula_sum "Si O2"
_cell_formula_units_Z 56
_cell_length_a 27.594134
_cell_length_b 13.815102
_cell_length_c 24.001626
_cell_angle_alpha 90.000000
_cell_angle_beta 19.275336
_cell_angle_gamma 90.000000
_cell_volume 3020.422462
_symmetry_space_group_name_H-M "C 2/M"
_symmetry_group_IT_number 12
_symmetry_cell_setting 'monoclinic'
loop_
_space_group_symop_operation_xyz
x,y,z
-x,y,-z
-x,-y,-z
x,-y,z
1/2+x,1/2+y,z
1/2-x,1/2+y,-z
1/2-x,1/2-y,-z
1/2+x,1/2-y,z
loop_
_atom_site_type_symbol
_atom_site_label
_atom_site_fract_x
_atom_site_fract_y
_atom_site_fract_z
Si Si1 0.598241 0.719263 0.736523
Si Si2 0.610268 0.390683 0.836000
Si Si3 0.619420 0.113399 0.167656
Si Si4 0.836582 0.610780 0.678682
Si Si5 0.147103 0.107833 0.182749
Si Si6 0.901005 0.790585 0.389765
Si Si7 0.730135 0.277232 0.896152
O O1 0.610302 0.643313 0.772969
O O2 0.736051 0.792048 0.594516
O O3 0.613809 0.673788 0.658022
O O4 0.435128 0.763434 0.916173
O O5 0.555478 0.500000 0.890990
O O6 0.773382 0.380654 0.684729
O O7 0.500000 0.337966 0.000000
O O8 0.477924 0.183674 0.312899
O O9 0.715880 0.145476 0.116240
O O10 0.571243 0.000000 0.226551
O O11 0.723584 0.127125 0.001601
O O12 0.835984 0.500000 0.700234
O O13 0.738981 0.673624 0.826492
O O14 0.000000 0.653089 0.500000
O O15 0.168501 0.181675 0.210742
O O16 0.990738 0.127194 0.324104
O O17 0.149497 0.000000 0.204021
#
# Coordination Sequence:
#
# PCOD8089789 Si02
#       7
#     8   8   8   8   8   8   8
#     4  11  21  34  53  78 115 152 184 228 276 339
#     4  10  21  35  52  81 117 149 183 221 273 343
#     4  10  19  33  54  80 108 144 185 227 270 327
#     4  10  22  37  55  85 114 142 182 225 274 335
#     4  10  20  36  56  78 105 141 190 233 271 320
#     4  10  21  37  52  80 115 148 193 230 277 334
#     4  11  19  36  57  79 110 149 185 225 282 335
#
# _framework density 18.540451999999998
#
# number of rings (size 3 to 8) (size 9 to 14) (size 15 to 20)
#    0.000    1.714    4.286    1.286    4.000    1.714 
#    0.000    2.857    0.000    0.429    0.000    1.000 
#    0.000    0.000    0.000    0.000    0.000    0.000 
#
# Total GULP energy -346946.369315 kJ/mol
# GULP energy per Si atom -12390.941761 kJ/mol
# Density = 1.849825 g / cm^3
# Si number density = 18.540452 Si / 1000 Ang^3
#
#
#
# Elastic Constant Matrix: (Units=GPa)
#
#
# Indices 1 2 3 4 5 6 
#
# 1 98.8718 38.4495 30.5696 0.0007 -5.4003 -0.0004
# 2 38.4495 82.2791 15.3930 0.0039 2.7782 -0.0015
# 3 30.5696 15.3930 102.4088 -0.0015 -10.7319 -0.0003
# 4 0.0007 0.0039 -0.0015 21.0652 0.0009 1.8081
# 5 -5.4003 2.7782 -10.7319 0.0009 25.4165 -0.0003
# 6 -0.0004 -0.0015 -0.0003 1.8081 -0.0003 20.7675
#
#
#
# Elastic Compliance Matrix: (Units=1/GPa)
#
#
# Indices 1 2 3 4 5 6 
#
# 1 0.013382 -0.005789 -0.002888 0.000000 0.002257 0.000000
# 2 -0.005789 0.015135 -0.000888 -0.000003 -0.003260 0.000001
# 3 -0.002888 -0.000888 0.011202 0.000001 0.004213 0.000000
# 4 0.000000 -0.000003 0.000001 0.047829 -0.000001 -0.004164
# 5 0.002257 -0.003260 0.004213 -0.000001 0.041959 0.000001
# 6 0.000000 0.000001 0.000000 -0.004164 0.000001 0.048515
#
#
# Mechanical properties :
#
#
# Convention : Reuss Voigt Hill
#
# Bulk Modulus (GPa) = 48.57235 50.26489 49.41862
# Shear Modulus (GPa) = 24.50793 26.72635 25.61714
#
# Velocity S-wave (km/s) = 3.63969 3.80085 3.72114
# Velocity P-wave (km/s) = 6.62707 6.81408 6.72123
#
# Compressibility (1/GPa) = 0.02058784
#
# Stress axis : x y z
#
# Youngs Moduli (GPa) = 74.72970 66.07040 89.27060
#
# Poissons Ratio (x) = 0.38250 0.25780
# Poissons Ratio (y) = 0.43263 0.07931
# Poissons Ratio (z) = 0.21580 0.05870
#
# Static dielectric constant tensor:
#      x y z
#    x 3.464680 -0.000010 -0.212340 
#    y -0.000010 3.177620 0.000010 
#    z -0.212340 0.000010 3.669770 
# 
# 
# High freq. dielectric constant tensor:
#      x y z
#    x 1.723400 0.000000 -0.021220 
#    y 0.000000 1.678960 0.000000 
#    z -0.021220 0.000000 1.724200 
# 
# From -- ./inp_files/352038.got.cif
#   From: 2010.06.25/outbox.cif.g09.slc.cpg/sg12_177_cif.got.tgz:352038.got - 2010.06.28 00:19:55.
