data_PCOD8089578
_publ_section_title
;
Structure prediction by ZEFSAII (Michael W. Deem and Ramdas Pophale) SiO2 
 PCOD8089578
Probable space group: C 2/M
;
_chemical_formula_sum "Si O2"
_cell_formula_units_Z 56
_cell_length_a 30.649196
_cell_length_b 8.688824
_cell_length_c 19.552969
_cell_angle_alpha 90.000000
_cell_angle_beta 143.676395
_cell_angle_gamma 90.000000
_cell_volume 3084.378320
_symmetry_space_group_name_H-M "C 2/M"
_symmetry_group_IT_number 12
_symmetry_cell_setting 'monoclinic'
loop_
_space_group_symop_operation_xyz
x,y,z
-x,y,-z
-x,-y,-z
x,-y,z
1/2+x,1/2+y,z
1/2-x,1/2+y,-z
1/2-x,1/2-y,-z
1/2+x,1/2-y,z
loop_
_atom_site_type_symbol
_atom_site_label
_atom_site_fract_x
_atom_site_fract_y
_atom_site_fract_z
Si Si1 0.728757 0.677565 0.282884
Si Si2 0.185308 0.680385 0.874152
Si Si3 0.600886 0.180010 0.895110
Si Si4 0.442988 0.818765 0.738730
Si Si5 0.200011 0.819304 0.496156
Si Si6 0.243780 0.317826 0.156750
Si Si7 0.068814 0.822845 0.131550
O O1 0.750605 0.500000 0.319521
O O2 0.769665 0.775496 0.391795
O O3 0.755389 0.737682 0.243702
O O4 0.641175 0.701291 0.177465
O O5 0.197362 0.500000 0.877525
O O6 0.112271 0.712068 0.827943
O O7 0.186428 0.766860 0.802440
O O8 0.250000 0.750000 0.000000
O O9 0.523023 0.251535 0.820099
O O10 0.599526 0.000000 0.907605
O O11 0.668220 0.245446 0.026272
O O12 0.383238 0.740561 0.614439
O O13 0.424824 0.782859 0.794164
O O14 0.439799 0.000000 0.722566
O O15 0.250000 0.750000 0.500000
O O16 0.201112 0.000000 0.487749
O O17 0.243708 0.500000 0.165666
O O18 0.059568 0.000000 0.142811
O O19 0.000000 0.766307 0.000000
#
# Coordination Sequence:
#
# PCOD8089578 Si02
#       7
#     8   8   8   8   8   8   8
#     4  11  22  36  55  78 107 142 180 221 268 319
#     4   9  16  30  51  77 110 145 181 219 263 319
#     4   8  17  32  52  80 112 144 178 216 263 322
#     4  11  21  35  56  79 105 141 181 222 267 318
#     4  12  24  40  58  77 102 138 183 229 270 315
#     4  10  19  33  53  81 114 145 180 220 266 321
#     4  10  21  35  51  76 110 142 174 217 266 317
#
# _framework density 18.156009999999998
#
# number of rings (size 3 to 8) (size 9 to 14) (size 15 to 20)
#    0.000    1.857    1.429    4.714    0.000    0.857 
#    0.000    7.857    0.000    0.857    0.000    6.000 
#    0.000    0.000    0.000    0.000    0.000    0.000 
#
# Total GULP energy -347170.500243 kJ/mol
# GULP energy per Si atom -12398.946437 kJ/mol
# Density = 1.811469 g / cm^3
# Si number density = 18.156010 Si / 1000 Ang^3
#
#
#
# Elastic Constant Matrix: (Units=GPa)
#
#
# Indices 1 2 3 4 5 6 
#
# 1 95.5347 20.7420 21.2819 0.0000 -22.1063 0.0000
# 2 20.7420 73.0539 18.3732 0.0000 -1.2797 0.0000
# 3 21.2819 18.3732 82.8798 0.0000 -12.3492 0.0000
# 4 0.0000 0.0000 0.0000 27.9681 0.0000 -6.0207
# 5 -22.1063 -1.2797 -12.3492 0.0000 22.3592 0.0000
# 6 0.0000 0.0000 0.0000 -6.0207 0.0000 25.1097
#
#
#
# Elastic Compliance Matrix: (Units=1/GPa)
#
#
# Indices 1 2 3 4 5 6 
#
# 1 0.014659 -0.003697 -0.000890 0.000000 0.013790 0.000000
# 2 -0.003697 0.015451 -0.003148 0.000000 -0.004509 0.000000
# 3 -0.000890 -0.003148 0.013985 0.000000 0.006664 0.000000
# 4 0.000000 0.000000 0.000000 0.037701 0.000000 0.009040
# 5 0.013790 -0.004509 0.006664 0.000000 0.061781 0.000000
# 6 0.000000 0.000000 0.000000 0.009040 0.000000 0.041993
#
#
# Mechanical properties :
#
#
# Convention : Reuss Voigt Hill
#
# Bulk Modulus (GPa) = 34.93330 41.36252 38.14791
# Shear Modulus (GPa) = 23.74383 27.82550 25.78466
#
# Velocity S-wave (km/s) = 3.62023 3.91906 3.77261
# Velocity P-wave (km/s) = 6.06277 6.58103 6.32721
#
# Compressibility (1/GPa) = 0.02862598
#
# Stress axis : x y z
#
# Youngs Moduli (GPa) = 68.21607 64.72142 71.50548
#
# Poissons Ratio (x) = 0.23926 0.06363
# Poissons Ratio (y) = 0.25218 0.22509
# Poissons Ratio (z) = 0.06071 0.20373
#
# Static dielectric constant tensor:
#      x y z
#    x 3.799860 0.000000 0.038090 
#    y 0.000000 3.408280 0.000000 
#    z 0.038090 0.000000 3.366120 
# 
# 
# High freq. dielectric constant tensor:
#      x y z
#    x 1.710370 0.000000 -0.007290 
#    y 0.000000 1.704700 0.000000 
#    z -0.007290 0.000000 1.679780 
# 
# From -- ./inp_files/288477.got.cif
#   From: 2010.06.25/outbox.cif.g09.slc.cpg/sg12_145_cif.got.tgz:288477.got - 2010.06.28 00:19:55.
