data_PCOD8089149
_publ_section_title
;
Structure prediction by ZEFSAII (Michael W. Deem and Ramdas Pophale) SiO2 
 PCOD8089149
Probable space group: C 2/M
;
_chemical_formula_sum "Si O2"
_cell_formula_units_Z 56
_cell_length_a 17.770434
_cell_length_b 16.844133
_cell_length_c 12.070794
_cell_angle_alpha 90.000000
_cell_angle_beta 129.794376
_cell_angle_gamma 90.000000
_cell_volume 2776.128522
_symmetry_space_group_name_H-M "C 2/M"
_symmetry_group_IT_number 12
_symmetry_cell_setting 'monoclinic'
loop_
_space_group_symop_operation_xyz
x,y,z
-x,y,-z
-x,-y,-z
x,-y,z
1/2+x,1/2+y,z
1/2-x,1/2+y,-z
1/2-x,1/2-y,-z
1/2+x,1/2-y,z
loop_
_atom_site_type_symbol
_atom_site_label
_atom_site_fract_x
_atom_site_fract_y
_atom_site_fract_z
Si Si1 0.805192 0.593823 0.589576
Si Si2 0.894052 0.907675 0.144195
Si Si3 0.283383 0.641707 0.819070
Si Si4 0.094124 0.409812 0.530919
Si Si5 0.253451 0.299268 0.115234
Si Si6 0.113855 0.592848 0.100690
Si Si7 0.110767 0.906539 0.290956
O O1 0.817757 0.500000 0.597349
O O2 0.875365 0.630188 0.558490
O O3 0.836127 0.624756 0.739038
O O4 0.692132 0.617065 0.459352
O O5 0.849601 0.855802 0.203807
O O6 0.004884 0.877950 0.231984
O O7 0.890914 0.000000 0.173958
O O8 0.828903 0.892187 0.974465
O O9 0.187996 0.590237 0.700015
O O10 0.247266 0.733373 0.789311
O O11 0.366102 0.636352 0.802871
O O12 0.063539 0.500000 0.478207
O O13 0.000000 0.366831 0.500000
O O14 0.159683 0.357256 0.042593
O O15 0.250000 0.250000 0.000000
O O16 0.133929 0.500000 0.098687
O O17 0.000000 0.611452 0.000000
O O18 0.111056 0.000000 0.267623
#
# Coordination Sequence:
#
# PCOD8089149 Si02
#       7
#     8   8   8   8   8   8   8
#     4   8  16  32  53  79 107 133 173 226 270 314
#     4  10  19  33  55  79 103 138 183 224 263 315
#     4  10  19  33  51  78 110 140 174 217 273 331
#     4   9  17  31  53  81 113 147 183 227 273 316
#     4  10  23  37  51  78 114 145 175 224 281 324
#     4  10  21  39  62  81 101 141 192 231 268 325
#     4   9  17  32  56  82 105 133 172 220 270 317
#
# _framework density 20.171976000000001
#
# number of rings (size 3 to 8) (size 9 to 14) (size 15 to 20)
#    0.000    2.571    0.000    3.000    0.000    5.714 
#    0.000    9.286    0.000    3.429    0.000    0.000 
#    0.000    0.000    0.000    0.000    0.000    0.000 
#
# Total GULP energy -347030.460084 kJ/mol
# GULP energy per Si atom -12393.945003 kJ/mol
# Density = 2.012606 g / cm^3
# Si number density = 20.171976 Si / 1000 Ang^3
#
#
#
# Elastic Constant Matrix: (Units=GPa)
#
#
# Indices 1 2 3 4 5 6 
#
# 1 163.6197 62.3034 39.3163 0.0000 19.5041 0.0000
# 2 62.3034 69.2951 12.1856 0.0000 -2.4552 0.0000
# 3 39.3163 12.1856 74.9688 0.0000 3.7523 0.0000
# 4 0.0000 0.0000 0.0000 9.1080 0.0000 -7.4335
# 5 19.5041 -2.4552 3.7523 0.0000 24.1875 0.0000
# 6 0.0000 0.0000 0.0000 -7.4335 0.0000 38.8420
#
#
#
# Elastic Compliance Matrix: (Units=1/GPa)
#
#
# Indices 1 2 3 4 5 6 
#
# 1 0.012554 -0.010909 -0.004282 0.000000 -0.010566 0.000000
# 2 -0.010909 0.024422 0.001196 0.000000 0.011090 0.000000
# 3 -0.004282 0.001196 0.015330 0.000000 0.001196 0.000000
# 4 0.000000 0.000000 0.000000 0.130116 0.000000 0.024901
# 5 -0.010566 0.011090 0.001196 0.000000 0.050804 0.000000
# 6 0.000000 0.000000 0.000000 0.024901 0.000000 0.030511
#
#
# Mechanical properties :
#
#
# Convention : Reuss Voigt Hill
#
# Bulk Modulus (GPa) = 41.12288 59.49934 50.31111
# Shear Modulus (GPa) = 16.67604 27.36606 22.02105
#
# Velocity S-wave (km/s) = 2.87835 3.68725 3.30762
# Velocity P-wave (km/s) = 5.61043 6.90564 6.29145
#
# Compressibility (1/GPa) = 0.02431736
#
# Stress axis : x y z
#
# Youngs Moduli (GPa) = 79.65585 40.94717 65.23125
#
# Poissons Ratio (x) = 0.44668 0.27931
# Poissons Ratio (y) = 0.86895 -0.07804
# Poissons Ratio (z) = 0.34107 -0.04899
#
# Static dielectric constant tensor:
#      x y z
#    x 4.042790 0.000000 -0.034010 
#    y 0.000000 3.719370 0.000000 
#    z -0.034010 0.000000 3.553130 
# 
# 
# High freq. dielectric constant tensor:
#      x y z
#    x 1.801770 0.000000 0.005630 
#    y 0.000000 1.767800 0.000000 
#    z 0.005630 0.000000 1.763980 
# 
# From -- ./inp_files/158326.got.cif
#   From: 2010.06.25/outbox.cif.g09.slc.cpg/sg12_80_cif.got.tgz:158326.got - 2010.06.28 00:19:55.
