data_PCOD8089987
_publ_section_title
;
Structure prediction by ZEFSAII (Michael W. Deem and Ramdas Pophale) SiO2 
 PCOD8089987
Probable space group: C 2/M
;
_chemical_formula_sum "Si O2"
_cell_formula_units_Z 40
_cell_length_a 22.739926
_cell_length_b 8.981013
_cell_length_c 18.333603
_cell_angle_alpha 90.000000
_cell_angle_beta 143.753920
_cell_angle_gamma 90.000000
_cell_volume 2213.791083
_symmetry_space_group_name_H-M "C 2/M"
_symmetry_group_IT_number 12
_symmetry_cell_setting 'monoclinic'
loop_
_space_group_symop_operation_xyz
x,y,z
-x,y,-z
-x,-y,-z
x,-y,z
1/2+x,1/2+y,z
1/2-x,1/2+y,-z
1/2-x,1/2-y,-z
1/2+x,1/2-y,z
loop_
_atom_site_type_symbol
_atom_site_label
_atom_site_fract_x
_atom_site_fract_y
_atom_site_fract_z
Si Si1 0.102251 0.326412 0.812888
Si Si2 0.787235 0.174575 0.644773
Si Si3 0.782678 0.671974 0.927557
Si Si4 0.385357 0.172537 0.878226
Si Si5 0.894007 0.174949 0.603746
O O1 0.083162 0.500000 0.782598
O O2 0.184836 0.272245 0.837973
O O3 0.001679 0.240223 0.695661
O O4 0.137679 0.288425 0.930152
O O5 0.837305 0.225198 0.769176
O O6 0.860150 0.218838 0.651403
O O7 0.682046 0.256593 0.530773
O O8 0.766929 0.000000 0.626315
O O9 0.751050 0.500000 0.901901
O O10 0.832144 0.710523 0.900544
O O11 0.373011 0.000000 0.844178
O O12 0.500000 0.216057 0.000000
O O13 0.896956 0.000000 0.594729
#
# Coordination Sequence:
#
# PCOD8089987 Si02
#       5
#     8   8   8   8   8
#     4  10  19  33  55  79 104 136 175 218 257 299
#     4  10  21  35  53  79 107 135 172 216 258 304
#     4   9  19  34  52  77 108 140 173 209 255 310
#     4  10  20  35  55  78 107 141 172 207 256 311
#     4  10  20  35  55  77 104 138 173 212 260 311
#
# _framework density 18.068552
#
# number of rings (size 3 to 8) (size 9 to 14) (size 15 to 20)
#    0.000    2.200    0.000    3.000    0.000    6.000 
#    0.000    1.000    0.000    6.000    0.000    0.000 
#    0.000    0.000    0.000    0.000    0.000    0.000 
#
# Total GULP energy -248101.122998 kJ/mol
# GULP energy per Si atom -12405.056150 kJ/mol
# Density = 1.802743 g / cm^3
# Si number density = 18.068552 Si / 1000 Ang^3
#
#
#
# Elastic Constant Matrix: (Units=GPa)
#
#
# Indices 1 2 3 4 5 6 
#
# 1 93.1671 44.7284 63.0274 0.0000 5.6764 0.0000
# 2 44.7284 80.3448 56.4270 0.0000 10.4110 0.0000
# 3 63.0274 56.4270 120.2171 0.0000 17.4866 0.0000
# 4 0.0000 0.0000 0.0000 37.1019 0.0000 0.8000
# 5 5.6764 10.4110 17.4866 0.0000 28.1371 0.0000
# 6 0.0000 0.0000 0.0000 0.8000 0.0000 28.7462
#
#
#
# Elastic Compliance Matrix: (Units=1/GPa)
#
#
# Indices 1 2 3 4 5 6 
#
# 1 0.018115 -0.005213 -0.007475 0.000000 0.002920 0.000000
# 2 -0.005213 0.020133 -0.006361 0.000000 -0.002444 0.000000
# 3 -0.007475 -0.006361 0.016119 0.000000 -0.006156 0.000000
# 4 0.000000 0.000000 0.000000 0.026969 0.000000 -0.000751
# 5 0.002920 -0.002444 -0.006156 0.000000 0.039681 0.000000
# 6 0.000000 0.000000 0.000000 -0.000751 0.000000 0.034808
#
#
# Mechanical properties :
#
#
# Convention : Reuss Voigt Hill
#
# Bulk Modulus (GPa) = 61.47270 69.12163 65.29717
# Shear Modulus (GPa) = 25.08191 27.43344 26.25768
#
# Velocity S-wave (km/s) = 3.72983 3.90076 3.81625
# Velocity P-wave (km/s) = 7.25566 7.65677 7.45892
#
# Compressibility (1/GPa) = 0.01626738
#
# Stress axis : x y z
#
# Youngs Moduli (GPa) = 55.20177 49.67006 62.04044
#
# Poissons Ratio (x) = 0.25895 0.46377
# Poissons Ratio (y) = 0.28779 0.39464
# Poissons Ratio (z) = 0.41265 0.31595
#
# Static dielectric constant tensor:
#      x y z
#    x 3.303760 0.000000 0.058440 
#    y 0.000000 3.361990 0.000000 
#    z 0.058440 0.000000 3.285740 
# 
# 
# High freq. dielectric constant tensor:
#      x y z
#    x 1.694640 0.000000 0.009270 
#    y 0.000000 1.707830 0.000000 
#    z 0.009270 0.000000 1.700620 
# 
# From -- ./inp_files/171862.got.cif
#   From: 2010.06.25/outbox.cif.g09.slc.cpg/sg12_86_cif.got.tgz:171862.got - 2010.06.28 00:19:55.
