data_PCOD8089911
_publ_section_title
;
Structure prediction by ZEFSAII (Michael W. Deem and Ramdas Pophale) SiO2 
 PCOD8089911
Probable space group: C 2/M
;
_chemical_formula_sum "Si O2"
_cell_formula_units_Z 60
_cell_length_a 33.222790
_cell_length_b 9.095409
_cell_length_c 11.033184
_cell_angle_alpha 90.000000
_cell_angle_beta 112.542502
_cell_angle_gamma 90.000000
_cell_volume 3079.221696
_symmetry_space_group_name_H-M "C 2/M"
_symmetry_group_IT_number 12
_symmetry_cell_setting 'monoclinic'
loop_
_space_group_symop_operation_xyz
x,y,z
-x,y,-z
-x,-y,-z
x,-y,z
1/2+x,1/2+y,z
1/2-x,1/2+y,-z
1/2-x,1/2-y,-z
1/2+x,1/2-y,z
loop_
_atom_site_type_symbol
_atom_site_label
_atom_site_fract_x
_atom_site_fract_y
_atom_site_fract_z
Si Si1 0.221355 0.830797 0.307931
Si Si2 0.633546 0.331507 0.092053
Si Si3 0.574207 0.661908 0.246687
Si Si4 0.894683 0.325563 0.495274
Si Si5 0.545001 0.672396 0.618877
Si Si6 0.305427 0.328789 0.450853
Si Si7 0.435902 0.162836 0.124560
Si Si8 0.500000 0.757013 0.000000
O O1 0.185009 0.797280 0.163206
O O2 0.262727 0.727632 0.329583
O O3 0.200601 0.795779 0.414495
O O4 0.236386 0.000000 0.320321
O O5 0.625208 0.500000 0.043948
O O6 0.613069 0.301484 0.199954
O O7 0.611306 0.228371 0.966200
O O8 0.581301 0.500000 0.312746
O O9 0.575340 0.780378 0.355417
O O10 0.528235 0.658103 0.123963
O O11 0.892988 0.500000 0.484002
O O12 0.915683 0.258958 0.398814
O O13 0.846493 0.261542 0.451294
O O14 0.500000 0.707060 0.500000
O O15 0.555239 0.500000 0.632201
O O16 0.541208 0.732479 0.750991
O O17 0.312460 0.500000 0.431637
O O18 0.428521 0.000000 0.169186
O O19 0.466887 0.147268 0.042410
#
# Coordination Sequence:
#
# PCOD8089911 Si02
#       8
#     8   8   8   8   8   8   8   4
#     4   9  17  32  53  83 119 154 191 236 285 336
#     4   9  18  34  55  79 114 153 189 229 278 337
#     4  10  19  34  54  79 109 147 191 232 279 336
#     4  12  24  37  57  84 116 152 190 238 290 342
#     4  11  25  44  64  83 108 149 198 243 288 342
#     4  10  19  33  54  83 118 155 193 236 283 341
#     4  11  23  38  57  84 116 148 188 234 287 342
#     4  10  22  36  56  84 114 148 182 232 284 342
#
# _framework density 19.485444999999999
#
# number of rings (size 3 to 8) (size 9 to 14) (size 15 to 20)
#    0.000    1.733    1.333    3.600    0.000    8.533 
#    0.000    0.000    0.000    0.800    0.000    0.000 
#    0.000    0.000    0.000    0.000    0.000    0.000 
#
# Total GULP energy -372014.716585 kJ/mol
# GULP energy per Si atom -12400.490553 kJ/mol
# Density = 1.944110 g / cm^3
# Si number density = 19.485445 Si / 1000 Ang^3
#
#
#
# Elastic Constant Matrix: (Units=GPa)
#
#
# Indices 1 2 3 4 5 6 
#
# 1 92.6615 52.0033 44.7094 0.0000 14.5605 0.0000
# 2 52.0033 132.4098 50.4580 0.0000 5.3074 0.0000
# 3 44.7094 50.4580 93.9888 0.0000 18.6313 0.0000
# 4 0.0000 0.0000 0.0000 27.0761 0.0000 0.5593
# 5 14.5605 5.3074 18.6313 0.0000 29.9306 0.0000
# 6 0.0000 0.0000 0.0000 0.5593 0.0000 25.5576
#
#
#
# Elastic Compliance Matrix: (Units=1/GPa)
#
#
# Indices 1 2 3 4 5 6 
#
# 1 0.016104 -0.004473 -0.004407 0.000000 -0.004298 0.000000
# 2 -0.004473 0.010814 -0.004254 0.000000 0.002906 0.000000
# 3 -0.004407 -0.004254 0.016478 0.000000 -0.007359 0.000000
# 4 0.000000 0.000000 0.000000 0.036950 0.000000 -0.000809
# 5 -0.004298 0.002906 -0.007359 0.000000 0.039567 0.000000
# 6 0.000000 0.000000 0.000000 -0.000809 0.000000 0.039145
#
#
# Mechanical properties :
#
#
# Convention : Reuss Voigt Hill
#
# Bulk Modulus (GPa) = 58.38311 68.15571 63.26941
# Shear Modulus (GPa) = 26.17322 27.97216 27.07269
#
# Velocity S-wave (km/s) = 3.66897 3.79296 3.73148
# Velocity P-wave (km/s) = 6.92647 7.36450 7.14884
#
# Compressibility (1/GPa) = 0.01712824
#
# Stress axis : x y z
#
# Youngs Moduli (GPa) = 62.09566 92.47676 60.68543
#
# Poissons Ratio (x) = 0.41366 0.26746
# Poissons Ratio (y) = 0.27776 0.25813
# Poissons Ratio (z) = 0.27367 0.39336
#
# Static dielectric constant tensor:
#      x y z
#    x 3.547350 0.000000 0.229000 
#    y 0.000000 3.487810 0.000000 
#    z 0.229000 0.000000 3.498560 
# 
# 
# High freq. dielectric constant tensor:
#      x y z
#    x 1.748600 0.000000 0.022240 
#    y 0.000000 1.760270 0.000000 
#    z 0.022240 0.000000 1.744780 
# 
# From -- ./inp_files/187678.got.cif
#   From: 2010.06.25/outbox.cif.g09.slc.cpg/sg12_94_cif.got.tgz:187678.got - 2010.06.28 00:19:55.
