data_PCOD8089656
_publ_section_title
;
Structure prediction by ZEFSAII (Michael W. Deem and Ramdas Pophale) SiO2 
 PCOD8089656
Probable space group: C 2/M
;
_chemical_formula_sum "Si O2"
_cell_formula_units_Z 56
_cell_length_a 19.503402
_cell_length_b 9.472952
_cell_length_c 21.090022
_cell_angle_alpha 90.000000
_cell_angle_beta 125.679770
_cell_angle_gamma 90.000000
_cell_volume 3165.071959
_symmetry_space_group_name_H-M "C 2/M"
_symmetry_group_IT_number 12
_symmetry_cell_setting 'monoclinic'
loop_
_space_group_symop_operation_xyz
x,y,z
-x,y,-z
-x,-y,-z
x,-y,z
1/2+x,1/2+y,z
1/2-x,1/2+y,-z
1/2-x,1/2-y,-z
1/2+x,1/2-y,z
loop_
_atom_site_type_symbol
_atom_site_label
_atom_site_fract_x
_atom_site_fract_y
_atom_site_fract_z
Si Si1 0.005783 0.660346 0.807496
Si Si2 0.126308 0.161215 0.195084
Si Si3 0.736832 0.334270 0.371008
Si Si4 0.076074 0.332981 0.498605
Si Si5 0.597566 0.165499 0.367738
Si Si6 0.332964 0.163058 0.033038
Si Si7 0.098766 0.157639 0.041229
O O1 0.979939 0.500000 0.807513
O O2 0.105519 0.682854 0.872906
O O3 0.956228 0.751784 0.831699
O O4 0.979948 0.700579 0.721676
O O5 0.205163 0.200627 0.282702
O O6 0.149112 0.188931 0.134031
O O7 0.099856 0.000000 0.191194
O O8 0.729687 0.500000 0.383347
O O9 0.833292 0.281290 0.426366
O O10 0.681006 0.250408 0.392184
O O11 0.070617 0.500000 0.500406
O O12 0.067267 0.284280 0.420741
O O13 0.000000 0.266697 0.500000
O O14 0.620829 0.000000 0.380435
O O15 0.310454 0.000000 0.010167
O O16 0.250000 0.250000 0.000000
O O17 0.377167 0.221134 0.994238
O O18 0.123320 0.000000 0.029733
O O19 0.000000 0.164635 0.000000
#
# Coordination Sequence:
#
# PCOD8089656 Si02
#       7
#     8   8   8   8   8   8   8
#     4   9  18  32  50  74  99 128 166 206 249 296
#     4   9  17  30  50  77 102 128 163 208 252 291
#     4   9  17  30  50  76 100 127 165 202 241 288
#     4   9  17  30  48  73 102 129 161 200 242 291
#     4   9  17  31  52  75  97 126 162 202 247 290
#     4  11  23  37  52  73 103 137 173 211 253 301
#     4  10  19  33  54  77 102 133 169 207 254 303
#
# _framework density 17.693121000000001
#
# number of rings (size 3 to 8) (size 9 to 14) (size 15 to 20)
#    0.000    2.571    1.429    0.857    0.000    1.429 
#    2.571    0.000    0.000    1.714    0.000    0.000 
#    0.000    0.000    0.000    0.000    0.000    0.000 
#
# Total GULP energy -347103.797617 kJ/mol
# GULP energy per Si atom -12396.564201 kJ/mol
# Density = 1.765285 g / cm^3
# Si number density = 17.693121 Si / 1000 Ang^3
#
#
#
# Elastic Constant Matrix: (Units=GPa)
#
#
# Indices 1 2 3 4 5 6 
#
# 1 109.4890 43.9397 68.9070 0.0000 4.6182 0.0000
# 2 43.9397 63.6375 42.5309 0.0000 5.0619 0.0000
# 3 68.9070 42.5309 123.0791 0.0000 1.6572 0.0000
# 4 0.0000 0.0000 0.0000 14.4169 0.0000 -7.5744
# 5 4.6182 5.0619 1.6572 0.0000 24.1193 0.0000
# 6 0.0000 0.0000 0.0000 -7.5744 0.0000 20.9272
#
#
#
# Elastic Compliance Matrix: (Units=1/GPa)
#
#
# Indices 1 2 3 4 5 6 
#
# 1 0.016003 -0.006467 -0.006708 0.000000 -0.001246 0.000000
# 2 -0.006467 0.023402 -0.004421 0.000000 -0.003369 0.000000
# 3 -0.006708 -0.004421 0.013390 0.000000 0.001292 0.000000
# 4 0.000000 0.000000 0.000000 0.085650 0.000000 0.031001
# 5 -0.001246 -0.003369 0.001292 0.000000 0.042318 0.000000
# 6 0.000000 0.000000 0.000000 0.031001 0.000000 0.059005
#
#
# Mechanical properties :
#
#
# Convention : Reuss Voigt Hill
#
# Bulk Modulus (GPa) = 56.80558 67.44009 62.12284
# Shear Modulus (GPa) = 17.80451 21.28119 19.54285
#
# Velocity S-wave (km/s) = 3.17566 3.47189 3.32707
# Velocity P-wave (km/s) = 6.75442 7.36691 7.06730
#
# Compressibility (1/GPa) = 0.01760390
#
# Stress axis : x y z
#
# Youngs Moduli (GPa) = 62.48874 42.73152 74.68046
#
# Poissons Ratio (x) = 0.27636 0.50094
# Poissons Ratio (y) = 0.40414 0.33013
# Poissons Ratio (z) = 0.41916 0.18890
#
# Static dielectric constant tensor:
#      x y z
#    x 2.050750 0.000000 0.588540 
#    y 0.000000 3.241580 0.000000 
#    z 0.588540 0.000000 3.376490 
# 
# 
# High freq. dielectric constant tensor:
#      x y z
#    x 1.657650 0.000000 0.000990 
#    y 0.000000 1.669970 0.000000 
#    z 0.000990 0.000000 1.704450 
# 
# From -- ./inp_files/314429.got.cif
#   From: 2010.06.25/outbox.cif.g09.slc.cpg/sg12_158_cif.got.tgz:314429.got - 2010.06.28 00:19:55.
