data_PCOD8089464
_publ_section_title
;
Structure prediction by ZEFSAII (Michael W. Deem and Ramdas Pophale) SiO2 
 PCOD8089464
Probable space group: C 2/M
;
_chemical_formula_sum "Si O2"
_cell_formula_units_Z 56
_cell_length_a 17.943801
_cell_length_b 13.486277
_cell_length_c 19.174689
_cell_angle_alpha 90.000000
_cell_angle_beta 138.889125
_cell_angle_gamma 90.000000
_cell_volume 3051.003242
_symmetry_space_group_name_H-M "C 2/M"
_symmetry_group_IT_number 12
_symmetry_cell_setting 'monoclinic'
loop_
_space_group_symop_operation_xyz
x,y,z
-x,y,-z
-x,-y,-z
x,-y,z
1/2+x,1/2+y,z
1/2-x,1/2+y,-z
1/2-x,1/2-y,-z
1/2+x,1/2-y,z
loop_
_atom_site_type_symbol
_atom_site_label
_atom_site_fract_x
_atom_site_fract_y
_atom_site_fract_z
Si Si1 0.743465 0.658451 0.046313
Si Si2 0.285804 0.388004 0.715837
Si Si3 0.800407 0.887800 0.568741
Si Si4 0.867666 0.382757 0.267776
Si Si5 0.579946 0.809161 0.350751
Si Si6 0.956085 0.392352 0.128777
Si Si7 0.010548 0.201613 0.926044
O O1 0.791443 0.677248 0.158117
O O2 0.889687 0.868714 0.036879
O O3 0.828826 0.582704 0.068062
O O4 0.750000 0.750000 0.000000
O O5 0.322429 0.500000 0.759751
O O6 0.248133 0.376625 0.609418
O O7 0.179363 0.356954 0.688673
O O8 0.393337 0.319262 0.805405
O O9 0.700748 0.863154 0.444281
O O10 0.903912 0.810218 0.632968
O O11 0.845329 0.000000 0.587537
O O12 0.862780 0.500000 0.248148
O O13 0.996356 0.343777 0.353763
O O14 0.529477 0.840961 0.241144
O O15 0.006739 0.500000 0.142873
O O16 0.957089 0.317480 0.063788
O O17 0.000000 0.179517 0.000000
#
# Coordination Sequence:
#
# PCOD8089464 Si02
#       7
#     8   8   8   8   8   8   8
#     4   9  18  30  49  71 100 135 170 214 249 301
#     4  10  21  34  51  78 110 136 170 217 261 312
#     4  10  20  35  55  84 107 131 173 214 262 313
#     4  10  19  33  53  77 104 137 176 213 256 315
#     4  10  19  34  58  79 105 141 164 214 267 305
#     4  10  20  35  54  77 101 135 180 215 255 310
#     4  11  20  34  52  74 106 140 172 212 262 308
#
# _framework density 18.354617999999999
#
# number of rings (size 3 to 8) (size 9 to 14) (size 15 to 20)
#    0.000    2.000    2.857    2.571    0.000    2.286 
#    0.000    2.143    0.000    0.857    0.000    2.000 
#    0.000    0.000    0.000    0.000    0.000    0.000 
#
# Total GULP energy -346906.195501 kJ/mol
# GULP energy per Si atom -12389.506982 kJ/mol
# Density = 1.831284 g / cm^3
# Si number density = 18.354618 Si / 1000 Ang^3
#
#
#
# Elastic Constant Matrix: (Units=GPa)
#
#
# Indices 1 2 3 4 5 6 
#
# 1 86.8156 27.3637 15.7741 0.0000 6.1861 0.0000
# 2 27.3637 98.1976 27.7595 0.0000 5.6854 0.0000
# 3 15.7741 27.7595 51.0795 0.0000 6.0703 0.0000
# 4 0.0000 0.0000 0.0000 17.6193 0.0000 0.6459
# 5 6.1861 5.6854 6.0703 0.0000 26.4749 0.0000
# 6 0.0000 0.0000 0.0000 0.6459 0.0000 20.9998
#
#
#
# Elastic Compliance Matrix: (Units=1/GPa)
#
#
# Indices 1 2 3 4 5 6 
#
# 1 0.012963 -0.002876 -0.002214 0.000000 -0.001904 0.000000
# 2 -0.002876 0.012702 -0.005932 0.000000 -0.000696 0.000000
# 3 -0.002214 -0.005932 0.023924 0.000000 -0.003694 0.000000
# 4 0.000000 0.000000 0.000000 0.056820 0.000000 -0.001748
# 5 -0.001904 -0.000696 -0.003694 0.000000 0.039213 0.000000
# 6 0.000000 0.000000 0.000000 -0.001748 0.000000 0.047673
#
#
# Mechanical properties :
#
#
# Convention : Reuss Voigt Hill
#
# Bulk Modulus (GPa) = 36.30469 41.98746 39.14608
# Shear Modulus (GPa) = 22.26957 24.03183 23.15070
#
# Velocity S-wave (km/s) = 3.48702 3.62236 3.55533
# Velocity P-wave (km/s) = 6.00291 6.35773 6.18286
#
# Compressibility (1/GPa) = 0.02754465
#
# Stress axis : x y z
#
# Youngs Moduli (GPa) = 77.14179 78.72588 41.79917
#
# Poissons Ratio (x) = 0.22644 0.09254
# Poissons Ratio (y) = 0.22188 0.24796
# Poissons Ratio (z) = 0.17078 0.46702
#
# Static dielectric constant tensor:
#      x y z
#    x 3.588060 0.000000 0.146330 
#    y 0.000000 3.410730 0.000000 
#    z 0.146330 0.000000 3.335650 
# 
# 
# High freq. dielectric constant tensor:
#      x y z
#    x 1.705260 0.000000 0.002860 
#    y 0.000000 1.700490 0.000000 
#    z 0.002860 0.000000 1.706770 
# 
# From -- ./inp_files/321054.got.cif
#   From: 2010.06.25/outbox.cif.g09.slc.cpg/sg12_161_cif.got.tgz:321054.got - 2010.06.28 00:19:55.
