data_PCOD8089095
_publ_section_title
;
Structure prediction by ZEFSAII (Michael W. Deem and Ramdas Pophale) SiO2 
 PCOD8089095
Probable space group: C 2/M
;
_chemical_formula_sum "Si O2"
_cell_formula_units_Z 64
_cell_length_a 14.394071
_cell_length_b 13.797341
_cell_length_c 27.671559
_cell_angle_alpha 90.000000
_cell_angle_beta 40.761398
_cell_angle_gamma 90.000000
_cell_volume 3588.114405
_symmetry_space_group_name_H-M "C 2/M"
_symmetry_group_IT_number 12
_symmetry_cell_setting 'monoclinic'
loop_
_space_group_symop_operation_xyz
x,y,z
-x,y,-z
-x,-y,-z
x,-y,z
1/2+x,1/2+y,z
1/2-x,1/2+y,-z
1/2-x,1/2-y,-z
1/2+x,1/2-y,z
loop_
_atom_site_type_symbol
_atom_site_label
_atom_site_fract_x
_atom_site_fract_y
_atom_site_fract_z
Si Si1 0.961212 0.885225 0.092961
Si Si2 0.304977 0.722684 0.233402
Si Si3 0.028576 0.614857 0.786876
Si Si4 0.332498 0.391012 0.395392
Si Si5 0.373430 0.885257 0.443659
Si Si6 0.711566 0.387308 0.929744
Si Si7 0.500945 0.786916 0.693801
Si Si8 0.831809 0.608667 0.633007
O O1 0.931694 0.829324 0.154419
O O2 0.849340 0.845493 0.096778
O O3 0.947951 0.000000 0.107886
O O4 0.119272 0.853609 0.012507
O O5 0.351039 0.833657 0.227406
O O6 0.161473 0.708828 0.259213
O O7 0.285864 0.671547 0.292568
O O8 0.061056 0.500000 0.770483
O O9 0.877098 0.636360 0.872029
O O10 0.021289 0.662205 0.736955
O O11 0.393191 0.500000 0.376332
O O12 0.270687 0.352759 0.471335
O O13 0.458654 0.326287 0.324029
O O14 0.198656 0.388776 0.411810
O O15 0.385443 0.840309 0.385798
O O16 0.510563 0.849838 0.420180
O O17 0.370573 0.000000 0.440059
O O18 0.683893 0.500000 0.935074
O O19 0.821230 0.500000 0.658041
#
# Coordination Sequence:
#
# PCOD8089095 Si02
#       8
#     8   8   8   8   8   8   8   8
#     4   9  16  30  54  83 109 131 168 220 265 306
#     4  11  21  32  53  81 105 138 177 214 257 311
#     4  11  22  37  54  76 110 145 178 216 261 311
#     4  10  19  33  51  72 102 134 168 216 268 312
#     4   9  18  31  52  77  98 128 171 219 265 310
#     4   8  16  31  53  79 106 137 169 213 265 306
#     4  11  21  35  53  76 103 141 181 216 257 317
#     4   9  17  30  49  77 104 125 161 214 267 312
#
# _framework density 17.836666999999998
#
# number of rings (size 3 to 8) (size 9 to 14) (size 15 to 20)
#    0.000    2.250    2.500    2.250    0.000    3.500 
#    0.000    0.000    0.000    0.000    0.000    6.125 
#    0.000    0.000    0.000    0.000    0.000    0.000 
#
# Total GULP energy -396560.962266 kJ/mol
# GULP energy per Si atom -12392.530071 kJ/mol
# Density = 1.779607 g / cm^3
# Si number density = 17.836667 Si / 1000 Ang^3
#
#
#
# Elastic Constant Matrix: (Units=GPa)
#
#
# Indices 1 2 3 4 5 6 
#
# 1 35.5134 18.7874 14.6044 0.0000 7.1667 0.0000
# 2 18.7874 74.5498 49.4274 0.0000 5.4926 0.0000
# 3 14.6044 49.4274 95.3164 0.0000 11.0532 0.0000
# 4 0.0000 0.0000 0.0000 26.3042 0.0000 0.0143
# 5 7.1667 5.4926 11.0532 0.0000 17.4740 0.0000
# 6 0.0000 0.0000 0.0000 0.0143 0.0000 20.2425
#
#
#
# Elastic Compliance Matrix: (Units=1/GPa)
#
#
# Indices 1 2 3 4 5 6 
#
# 1 0.034701 -0.008013 0.000212 0.000000 -0.011848 0.000000
# 2 -0.008013 0.022294 -0.010685 0.000000 0.003038 0.000000
# 3 0.000212 -0.010685 0.016857 0.000000 -0.007391 0.000000
# 4 0.000000 0.000000 0.000000 0.038017 0.000000 -0.000027
# 5 -0.011848 0.003038 -0.007391 0.000000 0.065807 0.000000
# 6 0.000000 0.000000 0.000000 -0.000027 0.000000 0.049401
#
#
# Mechanical properties :
#
#
# Convention : Reuss Voigt Hill
#
# Bulk Modulus (GPa) = 27.11501 41.22421 34.16961
# Shear Modulus (GPa) = 18.09351 20.97483 19.53417
#
# Velocity S-wave (km/s) = 3.18842 3.43292 3.31292
# Velocity P-wave (km/s) = 5.36559 6.23502 5.81657
#
# Compressibility (1/GPa) = 0.03687995
#
# Stress axis : x y z
#
# Youngs Moduli (GPa) = 28.81761 44.85547 59.32272
#
# Poissons Ratio (x) = 0.35942 -0.01258
# Poissons Ratio (y) = 0.23091 0.63388
# Poissons Ratio (z) = -0.00611 0.47929
#
# Static dielectric constant tensor:
#      x y z
#    x 3.041530 0.000000 0.033310 
#    y 0.000000 3.172700 0.000000 
#    z 0.033310 0.000000 3.533800 
# 
# 
# High freq. dielectric constant tensor:
#      x y z
#    x 1.664120 0.000000 0.008090 
#    y 0.000000 1.674090 0.000000 
#    z 0.008090 0.000000 1.701190 
# 
# From -- ./inp_files/361248.got.cif
#   From: 2010.06.25/outbox.cif.g09.slc.cpg/sg12_181_cif.got.tgz:361248.got - 2010.06.28 00:19:55.
