data_PCOD8089649
_publ_section_title
;
Structure prediction by ZEFSAII (Michael W. Deem and Ramdas Pophale) SiO2 
 PCOD8089649
Probable space group: C 2/M
;
_chemical_formula_sum "Si O2"
_cell_formula_units_Z 48
_cell_length_a 13.364657
_cell_length_b 13.360558
_cell_length_c 30.552151
_cell_angle_alpha 90.000000
_cell_angle_beta 153.778246
_cell_angle_gamma 90.000000
_cell_volume 2410.436062
_symmetry_space_group_name_H-M "C 2/M"
_symmetry_group_IT_number 12
_symmetry_cell_setting 'monoclinic'
loop_
_space_group_symop_operation_xyz
x,y,z
-x,y,-z
-x,-y,-z
x,-y,z
1/2+x,1/2+y,z
1/2-x,1/2+y,-z
1/2-x,1/2-y,-z
1/2+x,1/2-y,z
loop_
_atom_site_type_symbol
_atom_site_label
_atom_site_fract_x
_atom_site_fract_y
_atom_site_fract_z
Si Si1 0.247566 0.115028 0.280635
Si Si2 0.710484 0.610703 0.113959
Si Si3 0.381040 0.887335 0.784758
Si Si4 0.203080 0.383978 0.405956
Si Si5 0.494138 0.276604 0.886633
Si Si6 0.137077 0.798581 0.617615
O O1 0.460747 0.126733 0.332326
O O2 0.294393 0.184274 0.341916
O O3 0.031102 0.150995 0.166362
O O4 0.212675 0.000000 0.282216
O O5 0.775882 0.500000 0.157968
O O6 0.648080 0.681611 0.129205
O O7 0.915853 0.655398 0.166166
O O8 0.500000 0.599856 0.000000
O O9 0.374147 0.827814 0.827360
O O10 0.154561 0.867921 0.667968
O O11 0.419748 0.000000 0.813572
O O12 0.285333 0.500000 0.438462
O O13 0.380223 0.311578 0.500618
O O14 0.189800 0.341748 0.351187
O O15 0.750000 0.250000 0.000000
#
# Coordination Sequence:
#
# PCOD8089649 Si02
#       6
#     8   8   8   8   8   8
#     4  10  22  37  55  80 112 147 183 222 269 327
#     4  10  19  33  54  77 101 133 178 223 264 318
#     4  10  20  34  54  80 107 137 176 222 270 321
#     4  10  19  35  59  85 112 142 181 225 270 320
#     4  11  21  33  53  79 105 137 179 228 270 312
#     4  10  19  33  57  85 111 141 178 225 270 317
#
# _framework density 19.913409000000001
#
# number of rings (size 3 to 8) (size 9 to 14) (size 15 to 20)
#    0.000    1.833    1.667    4.000    0.000    3.333 
#    0.000    1.667    0.000   19.500    0.000    0.000 
#    0.000    0.000    0.000    0.000    0.000    0.000 
#
# Total GULP energy -297418.490917 kJ/mol
# GULP energy per Si atom -12392.437122 kJ/mol
# Density = 1.986809 g / cm^3
# Si number density = 19.913409 Si / 1000 Ang^3
#
#
#
# Elastic Constant Matrix: (Units=GPa)
#
#
# Indices 1 2 3 4 5 6 
#
# 1 65.7170 55.8236 14.3053 0.0006 -14.3572 -0.0010
# 2 55.8236 156.0268 40.3959 -0.0006 -21.0611 -0.0002
# 3 14.3053 40.3959 78.0575 0.0031 -20.8455 -0.0040
# 4 0.0006 -0.0006 0.0031 37.9498 -0.0025 -12.7016
# 5 -14.3572 -21.0611 -20.8455 -0.0025 29.6613 0.0002
# 6 -0.0010 -0.0002 -0.0040 -12.7016 0.0002 43.8733
#
#
#
# Elastic Compliance Matrix: (Units=1/GPa)
#
#
# Indices 1 2 3 4 5 6 
#
# 1 0.022869 -0.007684 0.001581 0.000000 0.006725 0.000001
# 2 -0.007684 0.010230 -0.003619 0.000001 0.001002 0.000000
# 3 0.001581 -0.003619 0.017127 0.000000 0.010232 0.000001
# 4 0.000000 0.000001 0.000000 0.029178 0.000003 0.008447
# 5 0.006725 0.001002 0.010232 0.000003 0.044871 0.000002
# 6 0.000001 0.000000 0.000001 0.008447 0.000002 0.025238
#
#
# Mechanical properties :
#
#
# Convention : Reuss Voigt Hill
#
# Bulk Modulus (GPa) = 32.48511 57.87231 45.17871
# Shear Modulus (GPa) = 27.89922 34.91531 31.40727
#
# Velocity S-wave (km/s) = 3.74709 4.19185 3.97570
# Velocity P-wave (km/s) = 5.92195 7.24941 6.61904
#
# Compressibility (1/GPa) = 0.03078333
#
# Stress axis : x y z
#
# Youngs Moduli (GPa) = 43.72805 97.74857 58.38884
#
# Poissons Ratio (x) = 0.75106 -0.09233
# Poissons Ratio (y) = 0.33599 0.21129
# Poissons Ratio (z) = -0.06914 0.35372
#
# Static dielectric constant tensor:
#      x y z
#    x 3.464490 0.000000 -0.144040 
#    y 0.000000 3.822080 0.000000 
#    z -0.144040 0.000000 3.835080 
# 
# 
# High freq. dielectric constant tensor:
#      x y z
#    x 1.750190 0.000000 -0.014090 
#    y 0.000000 1.773820 0.000000 
#    z -0.014090 0.000000 1.795410 
# 
# From -- ./inp_files/212757.got.cif
#   From: 2010.06.25/outbox.cif.g09.slc.cpg/sg12_107_cif.got.tgz:212757.got - 2010.06.28 00:19:55.
