data_PCOD8089604
_publ_section_title
;
Structure prediction by ZEFSAII (Michael W. Deem and Ramdas Pophale) SiO2 
 PCOD8089604
Probable space group: C 2/M
;
_chemical_formula_sum "Si O2"
_cell_formula_units_Z 56
_cell_length_a 18.146842
_cell_length_b 25.317723
_cell_length_c 14.683362
_cell_angle_alpha 90.000000
_cell_angle_beta 25.785895
_cell_angle_gamma 90.000000
_cell_volume 2934.606643
_symmetry_space_group_name_H-M "C 2/M"
_symmetry_group_IT_number 12
_symmetry_cell_setting 'monoclinic'
loop_
_space_group_symop_operation_xyz
x,y,z
-x,y,-z
-x,-y,-z
x,-y,z
1/2+x,1/2+y,z
1/2-x,1/2+y,-z
1/2-x,1/2-y,-z
1/2+x,1/2-y,z
loop_
_atom_site_type_symbol
_atom_site_label
_atom_site_fract_x
_atom_site_fract_y
_atom_site_fract_z
Si Si1 0.136781 0.739263 0.486492
Si Si2 0.316395 0.662739 0.674775
Si Si3 0.271445 0.500000 0.833429
Si Si4 0.571913 0.689325 0.736263
Si Si5 0.161495 0.000000 0.445584
Si Si6 0.712676 0.802683 0.097653
Si Si7 0.747644 0.893853 0.567186
Si Si8 0.864957 0.386738 0.960211
O O1 0.168468 0.774693 0.361395
O O2 0.307178 0.705626 0.314553
O O3 0.099306 0.773347 0.618170
O O4 0.971165 0.702878 0.649889
O O5 0.500000 0.639368 0.500000
O O6 0.247496 0.636111 0.662049
O O7 0.181739 0.649969 0.902066
O O8 0.468221 0.500000 0.633366
O O9 0.232807 0.500000 0.767292
O O10 0.196168 0.447137 0.962122
O O11 0.618155 0.629987 0.653328
O O12 0.373609 0.691091 0.987442
O O13 0.208215 0.046673 0.460739
O O14 0.717297 0.856579 0.033403
O O15 0.750000 0.750000 0.000000
O O16 0.565171 0.887128 0.724655
#
# Coordination Sequence:
#
# PCOD8089604 Si02
#       8
#     8   8   4   8   4   8   8   8
#     4   9  18  33  48  68  94 124 170 216 258 307
#     4  11  21  33  47  70  99 133 172 216 258 309
#     4  11  23  35  51  69 100 142 180 215 260 303
#     4   9  17  32  50  67  90 124 170 213 258 304
#     4  11  21  35  47  67  98 138 176 221 257 296
#     4  10  19  33  54  71  94 133 175 218 264 309
#     4  11  21  33  50  69 100 136 177 219 259 300
#     4  12  22  35  51  76 102 138 182 221 258 312
#
# _framework density 19.082626000000001
#
# number of rings (size 3 to 8) (size 9 to 14) (size 15 to 20)
#    0.000    1.571    2.857    5.143    2.000    0.571 
#    2.571    0.000    0.000    0.000    0.000    0.000 
#    0.000    0.000    0.000   11.571    0.000   54.571 
#
# Total GULP energy -347014.796561 kJ/mol
# GULP energy per Si atom -12393.385591 kJ/mol
# Density = 1.903919 g / cm^3
# Si number density = 19.082626 Si / 1000 Ang^3
#
#
#
# Elastic Constant Matrix: (Units=GPa)
#
#
# Indices 1 2 3 4 5 6 
#
# 1 31.9316 30.8287 32.5899 -0.0127 -20.8379 -0.0032
# 2 30.8287 122.3443 46.7722 -0.0170 -4.5995 -0.0022
# 3 32.5899 46.7722 104.7110 0.1505 -38.8415 0.0484
# 4 -0.0127 -0.0170 0.1505 28.7069 -0.0004 -4.0667
# 5 -20.8379 -4.5995 -38.8415 -0.0004 33.8646 -0.0103
# 6 -0.0032 -0.0022 0.0484 -4.0667 -0.0103 31.3049
#
#
#
# Elastic Compliance Matrix: (Units=1/GPa)
#
#
# Indices 1 2 3 4 5 6 
#
# 1 0.079032 -0.018680 0.001470 0.000020 0.047779 0.000023
# 2 -0.018680 0.015157 -0.007757 0.000043 -0.018333 0.000011
# 3 0.001470 -0.007757 0.021760 -0.000124 0.024809 -0.000042
# 4 0.000020 0.000043 -0.000124 0.035489 -0.000122 0.004610
# 5 0.047779 -0.018333 0.024809 -0.000122 0.084895 -0.000023
# 6 0.000023 0.000011 -0.000042 0.004610 -0.000023 0.032543
#
#
# Mechanical properties :
#
#
# Convention : Reuss Voigt Hill
#
# Bulk Modulus (GPa) = 15.14818 53.26319 34.20569
# Shear Modulus (GPa) = 14.67074 28.69502 21.68288
#
# Velocity S-wave (km/s) = 2.77573 3.88200 3.37451
# Velocity P-wave (km/s) = 4.26947 6.93294 5.75734
#
# Compressibility (1/GPa) = 0.06601452
#
# Stress axis : x y z
#
# Youngs Moduli (GPa) = 12.65314 65.97638 45.95523
#
# Poissons Ratio (x) = 1.23246 -0.06754
# Poissons Ratio (y) = 0.23636 0.35646
# Poissons Ratio (z) = -0.01860 0.51175
#
# Static dielectric constant tensor:
#      x y z
#    x 3.317350 -0.000230 -0.404090 
#    y -0.000230 3.835360 0.000710 
#    z -0.404090 0.000710 3.690960 
# 
# 
# High freq. dielectric constant tensor:
#      x y z
#    x 1.707210 -0.000010 -0.043720 
#    y -0.000010 1.730920 0.000040 
#    z -0.043720 0.000040 1.742130 
# 
# From -- ./inp_files/286335.got.cif
#   From: 2010.06.25/outbox.cif.g09.slc.cpg/sg12_144_cif.got.tgz:286335.got - 2010.06.28 00:19:55.
