data_PCOD8089951
_publ_section_title
;
Structure prediction by ZEFSAII (Michael W. Deem and Ramdas Pophale) SiO2 
 PCOD8089951
Probable space group: C 2/M
;
_chemical_formula_sum "Si O2"
_cell_formula_units_Z 40
_cell_length_a 26.909901
_cell_length_b 8.788376
_cell_length_c 11.334110
_cell_angle_alpha 90.000000
_cell_angle_beta 54.757837
_cell_angle_gamma 90.000000
_cell_volume 2189.180667
_symmetry_space_group_name_H-M "C 2/M"
_symmetry_group_IT_number 12
_symmetry_cell_setting 'monoclinic'
loop_
_space_group_symop_operation_xyz
x,y,z
-x,y,-z
-x,-y,-z
x,-y,z
1/2+x,1/2+y,z
1/2-x,1/2+y,-z
1/2-x,1/2-y,-z
1/2+x,1/2-y,z
loop_
_atom_site_type_symbol
_atom_site_label
_atom_site_fract_x
_atom_site_fract_y
_atom_site_fract_z
Si Si1 0.832982 0.675365 0.952128
Si Si2 0.926285 0.179476 0.204405
Si Si3 0.196254 0.178439 0.498859
Si Si4 0.048499 0.677552 0.076788
Si Si5 0.221824 0.323627 0.219305
O O1 0.816220 0.500000 0.000452
O O2 0.903120 0.709955 0.885827
O O3 0.822380 0.715048 0.829717
O O4 0.790651 0.777669 0.093446
O O5 0.868126 0.229608 0.359299
O O6 0.986816 0.231682 0.191739
O O7 0.928630 0.000000 0.178552
O O8 0.922914 0.265492 0.084807
O O9 0.250000 0.250000 0.500000
O O10 0.197290 0.229846 0.362698
O O11 0.204536 0.000000 0.493898
O O12 0.033326 0.500000 0.086760
O O13 0.221266 0.500000 0.253571
#
# Coordination Sequence:
#
# PCOD8089951 Si02
#       5
#     8   8   8   8   8
#     4   9  19  35  54  78 106 136 173 213 254 304
#     4  10  21  35  51  75 105 134 169 211 255 305
#     4  11  23  37  54  77 105 137 171 211 259 308
#     4  10  19  33  55  78 101 133 171 211 254 300
#     4  10  20  34  54  79 106 137 172 212 257 304
#
# _framework density 18.271674999999998
#
# number of rings (size 3 to 8) (size 9 to 14) (size 15 to 20)
#    0.000    2.000    0.000    4.800    0.000    8.800 
#    0.000    1.000    0.000    6.000    0.000    0.000 
#    0.000    0.000    0.000    0.000    0.000    0.000 
#
# Total GULP energy -248057.528081 kJ/mol
# GULP energy per Si atom -12402.876404 kJ/mol
# Density = 1.823009 g / cm^3
# Si number density = 18.271675 Si / 1000 Ang^3
#
#
#
# Elastic Constant Matrix: (Units=GPa)
#
#
# Indices 1 2 3 4 5 6 
#
# 1 132.7521 34.7942 64.0113 0.0000 -12.7493 0.0000
# 2 34.7942 60.6966 41.7125 0.0000 -6.8013 0.0000
# 3 64.0113 41.7125 127.8082 0.0000 -9.8010 0.0000
# 4 0.0000 0.0000 0.0000 31.9185 0.0000 0.1490
# 5 -12.7493 -6.8013 -9.8010 0.0000 21.8443 0.0000
# 6 0.0000 0.0000 0.0000 0.1490 0.0000 29.1036
#
#
#
# Elastic Compliance Matrix: (Units=1/GPa)
#
#
# Indices 1 2 3 4 5 6 
#
# 1 0.010595 -0.002865 -0.004107 0.000000 0.003449 0.000000
# 2 -0.002865 0.022295 -0.005631 0.000000 0.002743 0.000000
# 3 -0.004107 -0.005631 0.011807 0.000000 0.001147 0.000000
# 4 0.000000 0.000000 0.000000 0.031331 0.000000 -0.000160
# 5 0.003449 0.002743 0.001147 0.000000 0.049160 0.000000
# 6 0.000000 0.000000 0.000000 -0.000160 0.000000 0.034361
#
#
# Mechanical properties :
#
#
# Convention : Reuss Voigt Hill
#
# Bulk Modulus (GPa) = 51.30531 66.92145 59.11338
# Shear Modulus (GPa) = 26.14347 28.62252 27.38300
#
# Velocity S-wave (km/s) = 3.78672 3.96219 3.87545
# Velocity P-wave (km/s) = 6.87453 7.59192 7.24211
#
# Compressibility (1/GPa) = 0.01949116
#
# Stress axis : x y z
#
# Youngs Moduli (GPa) = 94.38122 44.85331 84.69524
#
# Poissons Ratio (x) = 0.12849 0.34785
# Poissons Ratio (y) = 0.27038 0.47694
# Poissons Ratio (z) = 0.38763 0.25258
#
# Static dielectric constant tensor:
#      x y z
#    x 3.544970 0.000000 -0.050150 
#    y 0.000000 3.508810 0.000000 
#    z -0.050150 0.000000 3.312700 
# 
# 
# High freq. dielectric constant tensor:
#      x y z
#    x 1.717910 0.000000 -0.003950 
#    y 0.000000 1.722280 0.000000 
#    z -0.003950 0.000000 1.693190 
# 
# From -- ./inp_files/171550.got.cif
#   From: 2010.06.25/outbox.cif.g09.slc.cpg/sg12_86_cif.got.tgz:171550.got - 2010.06.28 00:19:55.
