data_PCOD8089285
_publ_section_title
;
Structure prediction by ZEFSAII (Michael W. Deem and Ramdas Pophale) SiO2 
 PCOD8089285
Probable space group: C 2/M
;
_chemical_formula_sum "Si O2"
_cell_formula_units_Z 64
_cell_length_a 32.094305
_cell_length_b 9.153149
_cell_length_c 15.170927
_cell_angle_alpha 90.000000
_cell_angle_beta 47.243974
_cell_angle_gamma 90.000000
_cell_volume 3272.316031
_symmetry_space_group_name_H-M "C 2/M"
_symmetry_group_IT_number 12
_symmetry_cell_setting 'monoclinic'
loop_
_space_group_symop_operation_xyz
x,y,z
-x,y,-z
-x,-y,-z
x,-y,z
1/2+x,1/2+y,z
1/2-x,1/2+y,-z
1/2-x,1/2-y,-z
1/2+x,1/2-y,z
loop_
_atom_site_type_symbol
_atom_site_label
_atom_site_fract_x
_atom_site_fract_y
_atom_site_fract_z
Si Si1 0.065226 0.829184 0.911026
Si Si2 0.274633 0.334584 0.545855
Si Si3 0.579827 0.167937 0.239464
Si Si4 0.124763 0.671742 0.986725
Si Si5 0.749728 0.172739 0.771800
Si Si6 0.595115 0.665655 0.674362
Si Si7 0.131708 0.173862 0.325279
Si Si8 0.448946 0.168793 0.420678
O O1 0.096020 0.746640 0.945076
O O2 0.094041 0.782825 0.777350
O O3 0.071752 0.000000 0.920272
O O4 0.000000 0.781306 0.000000
O O5 0.253991 0.500000 0.564795
O O6 0.250000 0.250000 0.500000
O O7 0.251510 0.263919 0.669641
O O8 0.342045 0.324119 0.453372
O O9 0.615966 0.269929 0.251432
O O10 0.513860 0.186670 0.356967
O O11 0.598713 0.000000 0.225615
O O12 0.592548 0.219169 0.121619
O O13 0.120691 0.500000 0.976519
O O14 0.190686 0.721530 0.901145
O O15 0.803892 0.228710 0.749458
O O16 0.754900 0.000000 0.757054
O O17 0.571482 0.500000 0.701676
O O18 0.556096 0.770744 0.671502
O O19 0.089760 0.239825 0.457925
O O20 0.125950 0.000000 0.337603
O O21 0.430322 0.000000 0.449672
#
# Coordination Sequence:
#
# PCOD8089285 Si02
#       8
#     8   8   8   8   8   8   8   8
#     4  10  21  36  55  83 119 154 191 238 284 330
#     4  10  19  33  52  77 109 142 181 228 273 326
#     4  10  23  40  57  84 117 148 188 240 290 336
#     4  10  21  39  61  82 113 155 193 234 284 339
#     4   9  19  37  58  81 113 148 185 234 283 331
#     4  10  20  35  55  80 114 151 186 232 284 334
#     4  11  22  39  62  86 113 149 191 234 288 347
#     4  11  22  37  58  85 118 149 186 238 288 341
#
# _framework density 19.558012000000002
#
# number of rings (size 3 to 8) (size 9 to 14) (size 15 to 20)
#    0.000    1.875    1.250    2.625    0.000    4.750 
#    0.000    1.250    0.000    0.000    0.000    0.000 
#    0.000    0.000    0.000    0.000    0.000    0.000 
#
# Total GULP energy -396867.393798 kJ/mol
# GULP energy per Si atom -12402.106056 kJ/mol
# Density = 1.951350 g / cm^3
# Si number density = 19.558012 Si / 1000 Ang^3
#
#
#
# Elastic Constant Matrix: (Units=GPa)
#
#
# Indices 1 2 3 4 5 6 
#
# 1 130.4661 55.6163 40.1461 -0.0002 7.8635 -0.0001
# 2 55.6163 72.2264 32.1359 -0.0022 5.6334 0.0011
# 3 40.1461 32.1359 101.5894 -0.0001 0.0644 0.0001
# 4 -0.0002 -0.0022 -0.0001 23.9492 0.0003 11.1549
# 5 7.8635 5.6334 0.0644 0.0003 33.0762 -0.0001
# 6 -0.0001 0.0011 0.0001 11.1549 -0.0001 32.9580
#
#
#
# Elastic Compliance Matrix: (Units=1/GPa)
#
#
# Indices 1 2 3 4 5 6 
#
# 1 0.011842 -0.008059 -0.002130 -0.000001 -0.001439 0.000001
# 2 -0.008059 0.021849 -0.003726 0.000003 -0.001798 -0.000002
# 3 -0.002130 -0.003726 0.011863 0.000000 0.001118 0.000000
# 4 -0.000001 0.000003 0.000000 0.049569 -0.000001 -0.016777
# 5 -0.001439 -0.001798 0.001118 -0.000001 0.030879 0.000000
# 6 0.000001 -0.000002 0.000000 -0.016777 0.000000 0.036020
#
#
# Mechanical properties :
#
#
# Convention : Reuss Voigt Hill
#
# Bulk Modulus (GPa) = 56.41549 62.23094 59.32322
# Shear Modulus (GPa) = 25.54143 29.75559 27.64851
#
# Velocity S-wave (km/s) = 3.61769 3.90475 3.76396
# Velocity P-wave (km/s) = 6.80867 7.22614 7.02051
#
# Compressibility (1/GPa) = 0.01772563
#
# Stress axis : x y z
#
# Youngs Moduli (GPa) = 84.44235 45.76856 84.29631
#
# Poissons Ratio (x) = 0.36886 0.17952
# Poissons Ratio (y) = 0.68054 0.31405
# Poissons Ratio (z) = 0.17983 0.17051
#
# Static dielectric constant tensor:
#      x y z
#    x 3.781510 0.000000 -0.142080 
#    y 0.000000 3.487790 0.000000 
#    z -0.142080 0.000000 3.813940 
# 
# 
# High freq. dielectric constant tensor:
#      x y z
#    x 1.769480 0.000000 0.001320 
#    y 0.000000 1.744440 0.000000 
#    z 0.001320 0.000000 1.773100 
# 
# From -- ./inp_files/249678.got.cif
#   From: 2010.06.25/outbox.cif.g09.slc.cpg/sg12_125_cif.got.tgz:249678.got - 2010.06.28 00:19:55.
