data_PCOD8089824
_publ_section_title
;
Structure prediction by ZEFSAII (Michael W. Deem and Ramdas Pophale) SiO2 
 PCOD8089824
Probable space group: C 2/M
;
_chemical_formula_sum "Si O2"
_cell_formula_units_Z 64
_cell_length_a 13.940513
_cell_length_b 13.892487
_cell_length_c 17.249107
_cell_angle_alpha 90.000000
_cell_angle_beta 86.714021
_cell_angle_gamma 90.000000
_cell_volume 3335.114498
_symmetry_space_group_name_H-M "C 2/M"
_symmetry_group_IT_number 12
_symmetry_cell_setting 'monoclinic'
loop_
_space_group_symop_operation_xyz
x,y,z
-x,y,-z
-x,-y,-z
x,-y,z
1/2+x,1/2+y,z
1/2-x,1/2+y,-z
1/2-x,1/2-y,-z
1/2+x,1/2-y,z
loop_
_atom_site_type_symbol
_atom_site_label
_atom_site_fract_x
_atom_site_fract_y
_atom_site_fract_z
Si Si1 0.685396 0.606213 0.896696
Si Si2 0.448676 0.258946 0.717182
Si Si3 0.986240 0.893620 0.845548
Si Si4 0.707070 0.889852 0.517696
Si Si5 0.293154 0.386251 0.933891
Si Si6 0.601523 0.717766 0.452115
Si Si7 0.388762 0.888398 0.311602
Si Si8 0.257134 0.227774 0.202611
O O1 0.729463 0.500000 0.883201
O O2 0.570454 0.602209 0.904649
O O3 0.708560 0.665815 0.818943
O O4 0.723106 0.649783 0.976866
O O5 0.512435 0.329632 0.768252
O O6 0.422921 0.304680 0.635648
O O7 0.505409 0.158156 0.702892
O O8 0.351017 0.250506 0.768743
O O9 0.897625 0.854187 0.899279
O O10 0.962647 0.000000 0.813860
O O11 0.649493 0.823932 0.458664
O O12 0.818660 0.858158 0.521082
O O13 0.647052 0.879769 0.599227
O O14 0.706197 0.000000 0.488147
O O15 0.277559 0.500000 0.931312
O O16 0.222564 0.334716 0.876456
O O17 0.500000 0.706773 0.500000
O O18 0.312831 0.826198 0.267420
O O19 0.392174 0.000000 0.284526
#
# Coordination Sequence:
#
# PCOD8089824 Si02
#       8
#     8   8   8   8   8   8   8   8
#     4  10  19  33  54  80 116 149 185 235 290 343
#     4  11  22  37  58  87 114 151 191 239 287 341
#     4   9  18  33  55  82 111 144 187 236 285 339
#     4  10  23  41  62  88 115 151 194 237 288 345
#     4   9  18  32  54  84 109 145 193 238 283 339
#     4  11  22  39  64  86 121 150 190 240 290 339
#     4  11  22  39  61  84 115 154 196 240 284 343
#     4  11  21  36  58  83 116 153 196 237 290 341
#
# _framework density 19.189746
#
# number of rings (size 3 to 8) (size 9 to 14) (size 15 to 20)
#    0.000    1.750    3.750    1.125    0.000    4.000 
#    0.000    0.000    0.000    0.000    0.000    4.375 
#    0.000    0.000    0.000    0.000    0.000    0.000 
#
# Total GULP energy -396497.671617 kJ/mol
# GULP energy per Si atom -12390.552238 kJ/mol
# Density = 1.914607 g / cm^3
# Si number density = 19.189746 Si / 1000 Ang^3
#
#
#
# Elastic Constant Matrix: (Units=GPa)
#
#
# Indices 1 2 3 4 5 6 
#
# 1 65.6292 15.4733 10.8271 0.0000 -5.0229 0.0000
# 2 15.4733 71.2998 25.8466 0.0000 -8.1961 0.0000
# 3 10.8271 25.8466 59.7579 0.0000 4.0772 0.0000
# 4 0.0000 0.0000 0.0000 30.0694 0.0000 -0.4743
# 5 -5.0229 -8.1961 4.0772 0.0000 25.9350 0.0000
# 6 0.0000 0.0000 0.0000 -0.4743 0.0000 20.7029
#
#
#
# Elastic Compliance Matrix: (Units=1/GPa)
#
#
# Indices 1 2 3 4 5 6 
#
# 1 0.016374 -0.002490 -0.002075 0.000000 0.002711 0.000000
# 2 -0.002490 0.018155 -0.007844 0.000000 0.006488 0.000000
# 3 -0.002075 -0.007844 0.020924 0.000000 -0.006170 0.000000
# 4 0.000000 0.000000 0.000000 0.033268 0.000000 0.000762
# 5 0.002711 0.006488 -0.006170 0.000000 0.042103 0.000000
# 6 0.000000 0.000000 0.000000 0.000762 0.000000 0.048320
#
#
# Mechanical properties :
#
#
# Convention : Reuss Voigt Hill
#
# Bulk Modulus (GPa) = 32.64172 33.44232 33.04202
# Shear Modulus (GPa) = 23.34560 24.97744 24.16152
#
# Velocity S-wave (km/s) = 3.49172 3.61169 3.55221
# Velocity P-wave (km/s) = 5.77088 5.90402 5.83783
#
# Compressibility (1/GPa) = 0.03063564
#
# Stress axis : x y z
#
# Youngs Moduli (GPa) = 61.07300 55.08135 47.79251
#
# Poissons Ratio (x) = 0.13714 0.09916
# Poissons Ratio (y) = 0.15205 0.37489
# Poissons Ratio (z) = 0.12671 0.43206
#
# Static dielectric constant tensor:
#      x y z
#    x 3.486770 0.000000 0.105800 
#    y 0.000000 3.594930 0.000000 
#    z 0.105800 0.000000 3.563990 
# 
# 
# High freq. dielectric constant tensor:
#      x y z
#    x 1.742270 0.000000 0.009160 
#    y 0.000000 1.743270 0.000000 
#    z 0.009160 0.000000 1.747330 
# 
# From -- ./inp_files/269847.got.cif
#   From: 2010.06.25/outbox.cif.g09.slc.cpg/sg12_135_cif.got.tgz:269847.got - 2010.06.28 00:19:55.
