data_PCOD8089159
_publ_section_title
;
Structure prediction by ZEFSAII (Michael W. Deem and Ramdas Pophale) SiO2 
 PCOD8089159
Probable space group: C 2/M
;
_chemical_formula_sum "Si O2"
_cell_formula_units_Z 64
_cell_length_a 20.633676
_cell_length_b 8.783204
_cell_length_c 21.626053
_cell_angle_alpha 90.000000
_cell_angle_beta 117.915356
_cell_angle_gamma 90.000000
_cell_volume 3463.237685
_symmetry_space_group_name_H-M "C 2/M"
_symmetry_group_IT_number 12
_symmetry_cell_setting 'monoclinic'
loop_
_space_group_symop_operation_xyz
x,y,z
-x,y,-z
-x,-y,-z
x,-y,z
1/2+x,1/2+y,z
1/2-x,1/2+y,-z
1/2-x,1/2-y,-z
1/2+x,1/2-y,z
loop_
_atom_site_type_symbol
_atom_site_label
_atom_site_fract_x
_atom_site_fract_y
_atom_site_fract_z
Si Si1 0.047444 0.327492 0.193891
Si Si2 0.901562 0.681302 0.571136
Si Si3 0.466090 0.678051 0.049900
Si Si4 0.328630 0.818167 0.049572
Si Si5 0.675148 0.179525 0.339233
Si Si6 0.831226 0.319411 0.413647
Si Si7 0.566646 0.182319 0.650413
Si Si8 0.596018 0.827398 0.795899
O O1 0.049765 0.500000 0.169157
O O2 0.124819 0.278628 0.257832
O O3 0.026702 0.216157 0.128823
O O4 0.988822 0.316907 0.222823
O O5 0.903295 0.500000 0.572098
O O6 0.860703 0.743584 0.613720
O O7 0.858064 0.743379 0.491856
O O8 0.984245 0.745277 0.605805
O O9 0.448872 0.500000 0.042935
O O10 0.389474 0.765636 0.027038
O O11 0.500000 0.730610 0.000000
O O12 0.352869 0.752685 0.128062
O O13 0.325825 0.000000 0.047073
O O14 0.250000 0.750000 0.000000
O O15 0.751474 0.260194 0.361685
O O16 0.686438 0.000000 0.349593
O O17 0.830871 0.500000 0.413262
O O18 0.885964 0.256885 0.385539
O O19 0.602035 0.247710 0.730403
O O20 0.564880 0.000000 0.652472
O O21 0.622352 0.000000 0.802489
#
# Coordination Sequence:
#
# PCOD8089159 Si02
#       8
#     8   8   8   8   8   8   8   8
#     4   9  17  32  55  77  97 133 181 216 248 304
#     4   9  16  29  51  74  96 130 176 215 250 300
#     4  10  21  37  57  82 110 138 172 218 270 321
#     4  10  20  35  57  82 110 143 180 218 259 313
#     4  10  19  33  52  71 100 139 173 208 254 310
#     4  10  20  30  46  77 107 129 163 216 265 303
#     4   9  15  28  50  74  99 127 167 215 255 295
#     4   8  14  28  51  75  96 128 172 210 247 297
#
# _framework density 18.479817000000001
#
# number of rings (size 3 to 8) (size 9 to 14) (size 15 to 20)
#    0.000    2.625    1.250    2.250    0.000    3.000 
#    2.250    0.000    0.000    5.250    0.000    0.000 
#    0.000    0.000    0.000    0.000    0.000    0.000 
#
# Total GULP energy -396687.893842 kJ/mol
# GULP energy per Si atom -12396.496683 kJ/mol
# Density = 1.843776 g / cm^3
# Si number density = 18.479817 Si / 1000 Ang^3
#
#
#
# Elastic Constant Matrix: (Units=GPa)
#
#
# Indices 1 2 3 4 5 6 
#
# 1 116.7999 23.7850 61.7365 0.0000 11.2212 0.0000
# 2 23.7850 29.8218 23.5097 0.0000 -0.2663 0.0000
# 3 61.7365 23.5097 115.1691 0.0000 8.0722 0.0000
# 4 0.0000 0.0000 0.0000 20.1502 0.0000 6.8156
# 5 11.2212 -0.2663 8.0722 0.0000 34.7263 0.0000
# 6 0.0000 0.0000 0.0000 6.8156 0.0000 24.5929
#
#
#
# Elastic Compliance Matrix: (Units=1/GPa)
#
#
# Indices 1 2 3 4 5 6 
#
# 1 0.012997 -0.006035 -0.005527 0.000000 -0.002961 0.000000
# 2 -0.006035 0.042938 -0.005784 0.000000 0.003624 0.000000
# 3 -0.005527 -0.005784 0.012915 0.000000 -0.001260 0.000000
# 4 0.000000 0.000000 0.000000 0.054760 0.000000 -0.015176
# 5 -0.002961 0.003624 -0.001260 0.000000 0.030074 0.000000
# 6 0.000000 0.000000 0.000000 -0.015176 0.000000 0.044868
#
#
# Mechanical properties :
#
#
# Convention : Reuss Voigt Hill
#
# Bulk Modulus (GPa) = 29.27665 53.31702 41.29684
# Shear Modulus (GPa) = 20.43904 26.07785 23.25845
#
# Velocity S-wave (km/s) = 3.32930 3.76061 3.55150
# Velocity P-wave (km/s) = 5.53677 6.91161 6.26204
#
# Compressibility (1/GPa) = 0.03415692
#
# Stress axis : x y z
#
# Youngs Moduli (GPa) = 76.94292 23.28958 77.42974
#
# Poissons Ratio (x) = 0.14054 0.42799
# Poissons Ratio (y) = 0.46432 0.44786
# Poissons Ratio (z) = 0.42530 0.13471
#
# Static dielectric constant tensor:
#      x y z
#    x 3.370950 0.000000 -0.063560 
#    y 0.000000 2.960960 0.000000 
#    z -0.063560 0.000000 3.681200 
# 
# 
# High freq. dielectric constant tensor:
#      x y z
#    x 1.711400 0.000000 0.000920 
#    y 0.000000 1.673110 0.000000 
#    z 0.000920 0.000000 1.732050 
# 
# From -- ./inp_files/320001.got.cif
#   From: 2010.06.25/outbox.cif.g09.slc.cpg/sg12_161_cif.got.tgz:320001.got - 2010.06.28 00:19:55.
