data_PCOD8089416
_publ_section_title
;
Structure prediction by ZEFSAII (Michael W. Deem and Ramdas Pophale) SiO2 
 PCOD8089416
Probable space group: C 2/M
;
_chemical_formula_sum "Si O2"
_cell_formula_units_Z 40
_cell_length_a 5.243455
_cell_length_b 18.746566
_cell_length_c 21.033657
_cell_angle_alpha 90.000000
_cell_angle_beta 84.838283
_cell_angle_gamma 90.000000
_cell_volume 2059.156227
_symmetry_space_group_name_H-M "C 2/M"
_symmetry_group_IT_number 12
_symmetry_cell_setting 'monoclinic'
loop_
_space_group_symop_operation_xyz
x,y,z
-x,y,-z
-x,-y,-z
x,-y,z
1/2+x,1/2+y,z
1/2-x,1/2+y,-z
1/2-x,1/2-y,-z
1/2+x,1/2-y,z
loop_
_atom_site_type_symbol
_atom_site_label
_atom_site_fract_x
_atom_site_fract_y
_atom_site_fract_z
Si Si1 0.529183 0.585002 0.927905
Si Si2 0.786367 0.219600 0.428592
Si Si3 0.889796 0.917667 0.364019
Si Si4 0.907183 0.417407 0.286532
Si Si5 0.945572 0.414746 0.144349
O O1 0.529172 0.500000 0.928191
O O2 0.293247 0.613714 0.891223
O O3 0.793129 0.614486 0.892606
O O4 0.500000 0.614514 0.000000
O O5 0.750000 0.250000 0.500000
O O6 0.538194 0.242534 0.393181
O O7 0.820567 0.133530 0.425462
O O8 0.675657 0.904682 0.315445
O O9 0.162046 0.889546 0.331506
O O10 0.894784 0.000000 0.387199
O O11 0.852004 0.500000 0.278119
O O12 0.921736 0.382703 0.216165
O O13 0.951519 0.500000 0.145440
#
# Coordination Sequence:
#
# PCOD8089416 Si02
#       5
#     8   8   8   8   8
#     4   9  15  21  30  46  73 115 164 203 235 283
#     4  10  21  38  56  77 105 136 166 200 247 307
#     4  10  19  33  53  76 100 129 170 212 249 298
#     4   9  17  28  45  69  94 122 162 213 259 295
#     4   9  15  23  34  51  79 113 154 205 249 283
#
# _framework density 19.425433999999999
#
# number of rings (size 3 to 8) (size 9 to 14) (size 15 to 20)
#    0.000    2.600    0.000    3.000    0.000    7.200 
#    0.000    4.000    0.000    0.000    0.000    0.000 
#    0.000    0.000    0.000    0.000    0.000  252.000 
#
# Total GULP energy -247828.934258 kJ/mol
# GULP energy per Si atom -12391.446713 kJ/mol
# Density = 1.938122 g / cm^3
# Si number density = 19.425434 Si / 1000 Ang^3
#
#
#
# Elastic Constant Matrix: (Units=GPa)
#
#
# Indices 1 2 3 4 5 6 
#
# 1 168.1089 24.6224 26.9763 0.0000 -9.0421 0.0000
# 2 24.6224 58.3388 32.6812 0.0000 -15.5776 0.0000
# 3 26.9763 32.6812 88.3310 0.0000 -15.2539 0.0000
# 4 0.0000 0.0000 0.0000 5.4125 0.0000 -3.0386
# 5 -9.0421 -15.5776 -15.2539 0.0000 21.1107 0.0000
# 6 0.0000 0.0000 0.0000 -3.0386 0.0000 13.2933
#
#
#
# Elastic Compliance Matrix: (Units=1/GPa)
#
#
# Indices 1 2 3 4 5 6 
#
# 1 0.006446 -0.001936 -0.001168 0.000000 0.000489 0.000000
# 2 -0.001936 0.025027 -0.006424 0.000000 0.012997 0.000000
# 3 -0.001168 -0.006424 0.015024 0.000000 0.005615 0.000000
# 4 0.000000 0.000000 0.000000 0.211954 0.000000 0.048448
# 5 0.000489 0.012997 0.005615 0.000000 0.061226 0.000000
# 6 0.000000 0.000000 0.000000 0.048448 0.000000 0.086300
#
#
# Mechanical properties :
#
#
# Convention : Reuss Voigt Hill
#
# Bulk Modulus (GPa) = 36.44085 53.70427 45.07256
# Shear Modulus (GPa) = 11.51592 23.32989 17.42290
#
# Velocity S-wave (km/s) = 2.43744 3.46930 2.99810
# Velocity P-wave (km/s) = 5.16929 6.61471 5.93616
#
# Compressibility (1/GPa) = 0.02744173
#
# Stress axis : x y z
#
# Youngs Moduli (GPa) = 155.14105 39.95608 66.55864
#
# Poissons Ratio (x) = 0.07735 0.07774
# Poissons Ratio (y) = 0.30031 0.42759
# Poissons Ratio (z) = 0.18120 0.25669
#
# Static dielectric constant tensor:
#      x y z
#    x 3.362420 0.000000 -0.258090 
#    y 0.000000 2.978320 0.000000 
#    z -0.258090 0.000000 3.460520 
# 
# 
# High freq. dielectric constant tensor:
#      x y z
#    x 1.789830 0.000000 -0.000200 
#    y 0.000000 1.684250 0.000000 
#    z -0.000200 0.000000 1.742860 
# 
# From -- ./inp_files/252579.got.cif
#   From: 2010.06.25/outbox.cif.g09.slc.cpg/sg12_127_cif.got.tgz:252579.got - 2010.06.28 00:19:55.
