data_PCOD8089463
_publ_section_title
;
Structure prediction by ZEFSAII (Michael W. Deem and Ramdas Pophale) SiO2 
 PCOD8089463
Probable space group: C 2/M
;
_chemical_formula_sum "Si O2"
_cell_formula_units_Z 48
_cell_length_a 15.864433
_cell_length_b 9.393508
_cell_length_c 17.396565
_cell_angle_alpha 90.000000
_cell_angle_beta 108.158849
_cell_angle_gamma 90.000000
_cell_volume 2463.367042
_symmetry_space_group_name_H-M "C 2/M"
_symmetry_group_IT_number 12
_symmetry_cell_setting 'monoclinic'
loop_
_space_group_symop_operation_xyz
x,y,z
-x,y,-z
-x,-y,-z
x,-y,z
1/2+x,1/2+y,z
1/2-x,1/2+y,-z
1/2-x,1/2-y,-z
1/2+x,1/2-y,z
loop_
_atom_site_type_symbol
_atom_site_label
_atom_site_fract_x
_atom_site_fract_y
_atom_site_fract_z
Si Si1 0.946721 0.836570 0.324325
Si Si2 0.687611 0.664993 0.581994
Si Si3 0.378389 0.167064 0.581704
Si Si4 0.571322 0.157394 0.088143
Si Si5 0.467279 0.655327 0.160074
Si Si6 0.324829 0.656767 0.986700
O O1 0.860873 0.795560 0.351328
O O2 0.919037 0.812390 0.227364
O O3 0.032801 0.739891 0.362217
O O4 0.973335 0.000000 0.348511
O O5 0.670623 0.500000 0.555176
O O6 0.643162 0.765918 0.506706
O O7 0.794165 0.693393 0.615285
O O8 0.396533 0.000000 0.576279
O O9 0.534704 0.217626 0.158574
O O10 0.646327 0.267277 0.083589
O O11 0.610403 0.000000 0.115254
O O12 0.500000 0.147767 0.000000
O O13 0.515088 0.500000 0.179276
O O14 0.400478 0.646295 0.070999
O O15 0.289633 0.500000 0.955227
O O16 0.250000 0.750000 0.000000
#
# Coordination Sequence:
#
# PCOD8089463 Si02
#       6
#     8   8   8   8   8   8
#     4  10  20  36  56  77 108 146 182 216 269 333
#     4   9  19  36  56  77 106 146 184 219 264 326
#     4  10  20  34  54  82 110 139 182 229 271 313
#     4   9  17  31  52  74  97 129 169 211 256 308
#     4   9  19  35  53  74 103 138 174 215 265 323
#     4  10  19  33  53  77 104 136 177 220 264 316
#
# _framework density 19.485524999999999
#
# number of rings (size 3 to 8) (size 9 to 14) (size 15 to 20)
#    0.000    2.500    0.000    2.000    0.000    6.667 
#    3.000    0.000    0.000    0.000    0.000    0.000 
#    0.000    0.000    0.000    0.000    0.000    0.000 
#
# Total GULP energy -297394.686894 kJ/mol
# GULP energy per Si atom -12391.445287 kJ/mol
# Density = 1.944118 g / cm^3
# Si number density = 19.485525 Si / 1000 Ang^3
#
#
#
# Elastic Constant Matrix: (Units=GPa)
#
#
# Indices 1 2 3 4 5 6 
#
# 1 103.7516 59.4558 35.2790 0.0000 -39.6136 0.0000
# 2 59.4558 143.7527 34.7139 0.0000 -28.3897 0.0000
# 3 35.2790 34.7139 67.9093 0.0000 -39.3248 0.0000
# 4 0.0000 0.0000 0.0000 22.3381 0.0000 -4.1565
# 5 -39.6136 -28.3897 -39.3248 0.0000 34.8089 0.0000
# 6 0.0000 0.0000 0.0000 -4.1565 0.0000 37.0893
#
#
#
# Elastic Compliance Matrix: (Units=1/GPa)
#
#
# Indices 1 2 3 4 5 6 
#
# 1 0.020733 -0.004862 0.008911 0.000000 0.029697 0.000000
# 2 -0.004862 0.009453 -0.003025 0.000000 -0.001241 0.000000
# 3 0.008911 -0.003025 0.046520 0.000000 0.060229 0.000000
# 4 0.000000 0.000000 0.000000 0.045720 0.000000 0.005124
# 5 0.029697 -0.001241 0.060229 0.000000 0.129555 0.000000
# 6 0.000000 0.000000 0.000000 0.005124 0.000000 0.027536
#
#
# Mechanical properties :
#
#
# Convention : Reuss Voigt Hill
#
# Bulk Modulus (GPa) = 12.69776 63.81232 38.25504
# Shear Modulus (GPa) = 16.46258 31.24494 23.85376
#
# Velocity S-wave (km/s) = 2.90980 4.00871 3.50262
# Velocity P-wave (km/s) = 4.22137 7.36519 6.00275
#
# Compressibility (1/GPa) = 0.07875405
#
# Stress axis : x y z
#
# Youngs Moduli (GPa) = 48.23156 105.78912 21.49635
#
# Poissons Ratio (x) = 0.51438 -0.19156
# Poissons Ratio (y) = 0.23452 0.06502
# Poissons Ratio (z) = -0.42981 0.31999
#
# Static dielectric constant tensor:
#      x y z
#    x 3.206320 0.000000 -0.432120 
#    y 0.000000 3.857260 0.000000 
#    z -0.432120 0.000000 3.341480 
# 
# 
# High freq. dielectric constant tensor:
#      x y z
#    x 1.749420 0.000000 -0.028180 
#    y 0.000000 1.773160 0.000000 
#    z -0.028180 0.000000 1.735380 
# 
# From -- ./inp_files/273696.got.cif
#   From: 2010.06.25/outbox.cif.g09.slc.cpg/sg12_137_cif.got.tgz:273696.got - 2010.06.28 00:19:55.
