data_PCOD8089262
_publ_section_title
;
Structure prediction by ZEFSAII (Michael W. Deem and Ramdas Pophale) SiO2 
 PCOD8089262
Probable space group: C 2/M
;
_chemical_formula_sum "Si O2"
_cell_formula_units_Z 56
_cell_length_a 9.744128
_cell_length_b 18.540987
_cell_length_c 28.588857
_cell_angle_alpha 90.000000
_cell_angle_beta 143.913233
_cell_angle_gamma 90.000000
_cell_volume 3042.251334
_symmetry_space_group_name_H-M "C 2/M"
_symmetry_group_IT_number 12
_symmetry_cell_setting 'monoclinic'
loop_
_space_group_symop_operation_xyz
x,y,z
-x,y,-z
-x,-y,-z
x,-y,z
1/2+x,1/2+y,z
1/2-x,1/2+y,-z
1/2-x,1/2-y,-z
1/2+x,1/2-y,z
loop_
_atom_site_type_symbol
_atom_site_label
_atom_site_fract_x
_atom_site_fract_y
_atom_site_fract_z
Si Si1 0.770444 0.816240 0.910123
Si Si2 0.771223 0.081816 0.580138
Si Si3 0.564190 0.730181 0.410339
Si Si4 0.579877 0.795203 0.316401
Si Si5 0.517191 0.917633 0.231280
Si Si6 0.315244 0.211266 0.841757
Si Si7 0.887651 0.078431 0.251927
O O1 0.697792 0.879622 0.854681
O O2 0.574565 0.797025 0.893840
O O3 0.825425 0.743652 0.896257
O O4 0.000000 0.842779 0.000000
O O5 0.500000 0.097209 0.500000
O O6 0.908056 0.144627 0.590946
O O7 0.846884 0.087459 0.656049
O O8 0.832935 0.000000 0.578822
O O9 0.750000 0.750000 0.500000
O O10 0.610547 0.784874 0.380131
O O11 0.299859 0.744473 0.353369
O O12 0.567990 0.877942 0.294881
O O13 0.337475 0.758033 0.235915
O O14 0.738663 0.910966 0.258485
O O15 0.451030 0.000000 0.224180
O O16 0.187193 0.133574 0.808998
O O17 0.846020 0.000000 0.218222
#
# Coordination Sequence:
#
# PCOD8089262 Si02
#       7
#     8   8   8   8   8   8   8
#     4  10  20  34  56  83 111 140 171 217 271 324
#     4  10  19  33  52  76 105 140 183 226 266 305
#     4  12  23  35  53  81 111 144 182 230 273 316
#     4  11  20  36  55  77 107 144 183 223 270 316
#     4   9  18  33  55  79 105 138 177 220 267 322
#     4  10  19  34  54  81 107 139 179 219 265 320
#     4   9  16  31  54  76 101 138 185 224 255 308
#
# _framework density 18.407420999999999
#
# number of rings (size 3 to 8) (size 9 to 14) (size 15 to 20)
#    0.000    1.857    2.857    3.429    0.000    0.286 
#    0.000    0.714    0.000   10.714    0.000    0.000 
#    0.000    0.000    0.000    0.000    0.000    0.000 
#
# Total GULP energy -347005.999237 kJ/mol
# GULP energy per Si atom -12393.071401 kJ/mol
# Density = 1.836552 g / cm^3
# Si number density = 18.407421 Si / 1000 Ang^3
#
#
#
# Elastic Constant Matrix: (Units=GPa)
#
#
# Indices 1 2 3 4 5 6 
#
# 1 50.2113 20.3523 32.3841 0.0012 3.1218 0.0005
# 2 20.3523 113.1031 40.1901 0.0010 -8.0479 0.0004
# 3 32.3841 40.1901 112.2952 0.0020 4.5625 0.0011
# 4 0.0012 0.0010 0.0020 23.3628 0.0008 -4.5341
# 5 3.1218 -8.0479 4.5625 0.0008 31.7475 0.0005
# 6 0.0005 0.0004 0.0011 -4.5341 0.0005 19.3557
#
#
#
# Elastic Compliance Matrix: (Units=1/GPa)
#
#
# Indices 1 2 3 4 5 6 
#
# 1 0.025086 -0.002441 -0.006272 -0.000001 -0.002184 0.000000
# 2 -0.002441 0.010681 -0.003258 0.000000 0.003416 0.000000
# 3 -0.006272 -0.003258 0.011958 -0.000001 -0.001928 -0.000001
# 4 -0.000001 0.000000 -0.000001 0.044842 -0.000001 0.010504
# 5 -0.002184 0.003416 -0.001928 -0.000001 0.032856 -0.000001
# 6 0.000000 0.000000 -0.000001 0.010504 -0.000001 0.054125
#
#
# Mechanical properties :
#
#
# Convention : Reuss Voigt Hill
#
# Bulk Modulus (GPa) = 42.04442 51.27363 46.65903
# Shear Modulus (GPa) = 23.64980 27.07205 25.36093
#
# Velocity S-wave (km/s) = 3.58830 3.83915 3.71584
# Velocity P-wave (km/s) = 6.32917 6.89691 6.61913
#
# Compressibility (1/GPa) = 0.02378437
#
# Stress axis : x y z
#
# Youngs Moduli (GPa) = 39.86244 93.62095 83.62498
#
# Poissons Ratio (x) = 0.22851 0.52451
# Poissons Ratio (y) = 0.09730 0.27243
# Poissons Ratio (z) = 0.25002 0.30499
#
# Static dielectric constant tensor:
#      x y z
#    x 3.162290 0.000000 0.146450 
#    y 0.000000 3.700580 0.000000 
#    z 0.146450 0.000000 3.477700 
# 
# 
# High freq. dielectric constant tensor:
#      x y z
#    x 1.679170 0.000000 0.017290 
#    y 0.000000 1.717160 0.000000 
#    z 0.017290 0.000000 1.722670 
# 
# From -- ./inp_files/356737.got.cif
#   From: 2010.06.25/outbox.cif.g09.slc.cpg/sg12_179_cif.got.tgz:356737.got - 2010.06.28 00:19:55.
