data_PCOD8089007
_publ_section_title
;
Structure prediction by ZEFSAII (Michael W. Deem and Ramdas Pophale) SiO2 
 PCOD8089007
Probable space group: C 2/M
;
_chemical_formula_sum "Si O2"
_cell_formula_units_Z 44
_cell_length_a 31.421614
_cell_length_b 10.608371
_cell_length_c 19.587221
_cell_angle_alpha 90.000000
_cell_angle_beta 20.198325
_cell_angle_gamma 90.000000
_cell_volume 2254.290166
_symmetry_space_group_name_H-M "C 2/M"
_symmetry_group_IT_number 12
_symmetry_cell_setting 'monoclinic'
loop_
_space_group_symop_operation_xyz
x,y,z
-x,y,-z
-x,-y,-z
x,-y,z
1/2+x,1/2+y,z
1/2-x,1/2+y,-z
1/2-x,1/2-y,-z
1/2+x,1/2-y,z
loop_
_atom_site_type_symbol
_atom_site_label
_atom_site_fract_x
_atom_site_fract_y
_atom_site_fract_z
Si Si1 0.392722 0.500000 0.373166
Si Si2 0.034375 0.760731 0.652149
Si Si3 0.295662 0.258178 0.207471
Si Si4 0.364341 0.000000 0.174013
Si Si5 0.961603 0.000000 0.979652
Si Si6 0.073941 0.854724 0.323539
Si Si7 0.307458 0.141670 0.051042
O O1 0.456272 0.382071 0.313986
O O2 0.244009 0.500000 0.605507
O O3 0.422542 0.500000 0.247182
O O4 0.170192 0.705566 0.435350
O O5 0.966364 0.784959 0.683587
O O6 0.950796 0.658244 0.816299
O O7 0.353394 0.126915 0.146452
O O8 0.386711 0.373394 0.079672
O O9 0.267073 0.238660 0.170769
O O10 0.500000 0.000000 0.000000
O O11 0.000000 0.000000 0.000000
O O12 0.000000 0.800833 0.500000
O O13 0.039217 0.000000 0.365268
O O14 0.219601 0.833535 0.117993
O O15 0.286989 0.000000 0.108910
#
# Coordination Sequence:
#
# PCOD8089007 Si02
#       7
#     4   8   8   4   4   8   8
#     4  10  22  40  68  91 113 168 203 248 314 382
#     4  11  21  39  62  90 128 162 212 250 307 364
#     4  11  23  41  67  90 124 165 202 261 314 370
#     4  10  22  44  65  93 119 153 207 259 307 377
#     4  12  26  48  64  92 128 161 202 262 335 387
#     4  10  19  32  60  91 125 170 213 255 293 359
#     4  11  22  37  60  93 128 164 214 256 303 363
#
# _framework density 19.518338
#
# number of rings (size 3 to 8) (size 9 to 14) (size 15 to 20)
#    0.000    1.273    5.455    1.091    1.273    0.000 
#    3.273    2.727    0.000    1.636    0.000    0.000 
#    0.000    0.000    0.000    0.000    0.000    0.000 
#
# Total GULP energy -272755.453128 kJ/mol
# GULP energy per Si atom -12397.975142 kJ/mol
# Density = 1.947391 g / cm^3
# Si number density = 19.518338 Si / 1000 Ang^3
#
#
#
# Elastic Constant Matrix: (Units=GPa)
#
#
# Indices 1 2 3 4 5 6 
#
# 1 96.6425 27.9885 29.2533 0.0000 2.9477 0.0000
# 2 27.9885 85.1747 29.3371 0.0000 -5.0491 0.0000
# 3 29.2533 29.3371 111.0098 0.0000 -3.5887 0.0000
# 4 0.0000 0.0000 0.0000 6.8283 0.0000 16.8324
# 5 2.9477 -5.0491 -3.5887 0.0000 35.9135 0.0000
# 6 0.0000 0.0000 0.0000 16.8324 0.0000 14.8516
#
#
#
# Elastic Compliance Matrix: (Units=1/GPa)
#
#
# Indices 1 2 3 4 5 6 
#
# 1 0.012057 -0.003244 -0.002374 0.000000 -0.001683 0.000000
# 2 -0.003244 0.013868 -0.002747 0.000000 0.001941 0.000000
# 3 -0.002374 -0.002747 0.010387 0.000000 0.000847 0.000000
# 4 0.000000 0.000000 0.000000 -0.081639 0.000000 0.092527
# 5 -0.001683 0.001941 0.000847 0.000000 0.028340 0.000000
# 6 0.000000 0.000000 0.000000 0.092527 0.000000 -0.037535
#
#
# Mechanical properties :
#
#
# Convention : Reuss Voigt Hill
#
# Bulk Modulus (GPa) = 51.07003 51.77610 51.42306
# Shear Modulus (GPa) = -159.93201 25.26854 -67.33174
#
# Velocity S-wave (km/s) = -9.06186 3.60197 -5.87976
# Velocity P-wave (km/s) = 9.12511 6.62445 4.43759
#
# Compressibility (1/GPa) = 0.01958096
#
# Stress axis : x y z
#
# Youngs Moduli (GPa) = 82.93999 72.10906 96.27105
#
# Poissons Ratio (x) = 0.23391 0.22858
# Poissons Ratio (y) = 0.26905 0.26449
# Poissons Ratio (z) = 0.19693 0.19811
#
# Static dielectric constant tensor:
#      x y z
#    x 3.533600 0.000000 0.049250 
#    y 0.000000 3.388100 0.000000 
#    z 0.049250 0.000000 3.778990 
# 
# 
# High freq. dielectric constant tensor:
#      x y z
#    x 1.758470 0.000000 0.001160 
#    y 0.000000 1.745870 0.000000 
#    z 0.001160 0.000000 1.772260 
# 
# From -- ./inp_files/212009.got.cif
#   From: 2010.06.25/outbox.cif.g09.slc.cpg/sg12_107_cif.got.tgz:212009.got - 2010.06.28 00:19:55.
