data_PCOD8089742
_publ_section_title
;
Structure prediction by ZEFSAII (Michael W. Deem and Ramdas Pophale) SiO2 
 PCOD8089742
Probable space group: C 2/M
;
_chemical_formula_sum "Si O2"
_cell_formula_units_Z 56
_cell_length_a 28.179156
_cell_length_b 9.081837
_cell_length_c 17.619099
_cell_angle_alpha 90.000000
_cell_angle_beta 43.202477
_cell_angle_gamma 90.000000
_cell_volume 3086.801564
_symmetry_space_group_name_H-M "C 2/M"
_symmetry_group_IT_number 12
_symmetry_cell_setting 'monoclinic'
loop_
_space_group_symop_operation_xyz
x,y,z
-x,y,-z
-x,-y,-z
x,-y,z
1/2+x,1/2+y,z
1/2-x,1/2+y,-z
1/2-x,1/2-y,-z
1/2+x,1/2-y,z
loop_
_atom_site_type_symbol
_atom_site_label
_atom_site_fract_x
_atom_site_fract_y
_atom_site_fract_z
Si Si1 0.427508 0.326059 0.121624
Si Si2 0.659979 0.674016 0.335596
Si Si3 0.565245 0.327078 0.582169
Si Si4 0.318275 0.171424 0.144535
Si Si5 0.453215 0.826610 0.244476
Si Si6 0.593139 0.671976 0.260668
Si Si7 0.609560 0.831106 0.092914
O O1 0.423828 0.500000 0.137108
O O2 0.365522 0.273989 0.140726
O O3 0.417564 0.248206 0.213917
O O4 0.500000 0.276633 0.000000
O O5 0.651242 0.500000 0.341944
O O6 0.618092 0.733167 0.457092
O O7 0.739658 0.720087 0.251073
O O8 0.627577 0.740742 0.296106
O O9 0.574444 0.500000 0.587483
O O10 0.582365 0.238717 0.638772
O O11 0.488201 0.290794 0.642748
O O12 0.331609 0.000000 0.148844
O O13 0.334272 0.200927 0.037468
O O14 0.534317 0.784192 0.149021
O O15 0.440320 0.000000 0.255977
O O16 0.607157 0.500000 0.239907
O O17 0.629758 0.740140 0.143977
O O18 0.608260 0.000000 0.118946
#
# Coordination Sequence:
#
# PCOD8089742 Si02
#       7
#     8   8   8   8   8   8   8
#     4  11  22  35  55  81 105 129 166 213 260 309
#     4   9  18  33  53  76 103 140 180 214 252 301
#     4   9  17  32  54  78 105 136 175 220 256 290
#     4  10  20  35  53  74 105 141 174 208 255 313
#     4  10  19  33  54  79 105 134 170 210 257 309
#     4   9  17  30  52  78 103 135 177 217 253 296
#     4   9  18  31  48  74 105 135 168 210 258 307
#
# _framework density 18.141756000000001
#
# number of rings (size 3 to 8) (size 9 to 14) (size 15 to 20)
#    0.000    2.429    1.429    1.286    0.000    4.000 
#    0.000    2.857    0.000    3.429    0.000    0.000 
#    0.000    0.000    0.000    0.000    0.000    0.000 
#
# Total GULP energy -347262.807914 kJ/mol
# GULP energy per Si atom -12402.243140 kJ/mol
# Density = 1.810046 g / cm^3
# Si number density = 18.141756 Si / 1000 Ang^3
#
#
#
# Elastic Constant Matrix: (Units=GPa)
#
#
# Indices 1 2 3 4 5 6 
#
# 1 112.7019 46.6639 65.8727 -0.0021 17.7443 -0.0008
# 2 46.6639 52.7247 38.9725 0.0079 9.0388 -0.0067
# 3 65.8727 38.9725 109.8498 -0.0043 11.9271 0.0060
# 4 -0.0021 0.0079 -0.0043 21.7279 0.0118 7.8795
# 5 17.7443 9.0388 11.9271 0.0118 26.2842 -0.0074
# 6 -0.0008 -0.0067 0.0060 7.8795 -0.0074 23.4818
#
#
#
# Elastic Compliance Matrix: (Units=1/GPa)
#
#
# Indices 1 2 3 4 5 6 
#
# 1 0.017602 -0.009853 -0.006455 0.000009 -0.005565 -0.000005
# 2 -0.009853 0.031850 -0.005179 -0.000018 -0.001951 0.000016
# 3 -0.006455 -0.005179 0.014878 0.000008 -0.000612 -0.000008
# 4 0.000009 -0.000018 0.000008 0.052400 -0.000032 -0.017583
# 5 -0.005565 -0.001951 -0.000612 -0.000032 0.042752 0.000024
# 6 -0.000005 0.000016 -0.000008 -0.017583 0.000024 0.048486
#
#
# Mechanical properties :
#
#
# Convention : Reuss Voigt Hill
#
# Bulk Modulus (GPa) = 46.82809 64.25496 55.54153
# Shear Modulus (GPa) = 19.37526 22.54992 20.96259
#
# Velocity S-wave (km/s) = 3.27156 3.52942 3.40294
# Velocity P-wave (km/s) = 6.33555 7.21833 6.79130
#
# Compressibility (1/GPa) = 0.02135471
#
# Stress axis : x y z
#
# Youngs Moduli (GPa) = 56.81274 31.39760 67.21171
#
# Poissons Ratio (x) = 0.30935 0.43387
# Poissons Ratio (y) = 0.55976 0.34812
# Poissons Ratio (z) = 0.36674 0.16262
#
# Static dielectric constant tensor:
#      x y z
#    x 3.301190 -0.000020 0.147990 
#    y -0.000020 3.156700 0.000010 
#    z 0.147990 0.000010 3.445800 
# 
# 
# High freq. dielectric constant tensor:
#      x y z
#    x 1.700230 0.000000 0.015560 
#    y 0.000000 1.685120 0.000000 
#    z 0.015560 0.000000 1.700370 
# 
# From -- ./inp_files/238436.got.cif
#   From: 2010.06.25/outbox.cif.g09.slc.cpg/sg12_120_cif.got.tgz:238436.got - 2010.06.28 00:19:55.
