data_PCOD8089357
_publ_section_title
;
Structure prediction by ZEFSAII (Michael W. Deem and Ramdas Pophale) SiO2 
 PCOD8089357
Probable space group: C 2/M
;
_chemical_formula_sum "Si O2"
_cell_formula_units_Z 40
_cell_length_a 16.695052
_cell_length_b 13.893707
_cell_length_c 12.287260
_cell_angle_alpha 90.000000
_cell_angle_beta 51.422238
_cell_angle_gamma 90.000000
_cell_volume 2228.105888
_symmetry_space_group_name_H-M "C 2/M"
_symmetry_group_IT_number 12
_symmetry_cell_setting 'monoclinic'
loop_
_space_group_symop_operation_xyz
x,y,z
-x,y,-z
-x,-y,-z
x,-y,z
1/2+x,1/2+y,z
1/2-x,1/2+y,-z
1/2-x,1/2-y,-z
1/2+x,1/2-y,z
loop_
_atom_site_type_symbol
_atom_site_label
_atom_site_fract_x
_atom_site_fract_y
_atom_site_fract_z
Si Si1 0.815633 0.889336 0.735107
Si Si2 0.566587 0.241366 0.230224
Si Si3 0.409874 0.891366 0.991085
Si Si4 0.883197 0.603240 0.632096
Si Si5 0.159993 0.755726 0.490547
O O1 0.875131 0.840243 0.787129
O O2 0.840555 0.843031 0.595893
O O3 0.851261 0.000000 0.700597
O O4 0.695125 0.879987 0.855070
O O5 0.579925 0.200163 0.097911
O O6 0.623904 0.160127 0.250622
O O7 0.447499 0.256919 0.355957
O O8 0.415799 0.000000 0.932348
O O9 0.500000 0.880059 0.000000
O O10 0.830367 0.500000 0.692959
O O11 0.822640 0.657055 0.588837
O O12 0.000000 0.592687 0.500000
O O13 0.250000 0.750000 0.500000
#
# Coordination Sequence:
#
# PCOD8089357 Si02
#       5
#     8   8   8   8   8
#     4  10  21  36  53  75 105 141 177 209 250 310
#     4  10  19  33  53  74 101 135 172 212 252 304
#     4  10  20  34  55  81 105 131 167 217 270 309
#     4   8  15  28  46  68  93 123 160 202 248 293
#     4  10  20  32  49  75 104 135 170 211 257 301
#
# _framework density 17.952469000000001
#
# number of rings (size 3 to 8) (size 9 to 14) (size 15 to 20)
#    0.000    2.400    0.000    4.200    0.000    3.200 
#    0.000    0.000    0.000    0.600    0.000    0.000 
#    0.000    0.000    0.000    0.000    0.000    0.000 
#
# Total GULP energy -247797.420394 kJ/mol
# GULP energy per Si atom -12389.871020 kJ/mol
# Density = 1.791161 g / cm^3
# Si number density = 17.952469 Si / 1000 Ang^3
#
#
#
# Elastic Constant Matrix: (Units=GPa)
#
#
# Indices 1 2 3 4 5 6 
#
# 1 114.7938 50.0407 16.5479 0.0000 1.4912 0.0000
# 2 50.0407 141.9738 29.0579 0.0000 8.0878 0.0000
# 3 16.5479 29.0579 59.0638 0.0000 3.5724 0.0000
# 4 0.0000 0.0000 0.0000 26.7094 0.0000 0.0630
# 5 1.4912 8.0878 3.5724 0.0000 25.4101 0.0000
# 6 0.0000 0.0000 0.0000 0.0630 0.0000 22.1567
#
#
#
# Elastic Compliance Matrix: (Units=1/GPa)
#
#
# Indices 1 2 3 4 5 6 
#
# 1 0.010384 -0.003440 -0.001257 0.000000 0.000662 0.000000
# 2 -0.003440 0.009071 -0.003365 0.000000 -0.002212 0.000000
# 3 -0.001257 -0.003365 0.019031 0.000000 -0.001531 0.000000
# 4 0.000000 0.000000 0.000000 0.037440 0.000000 -0.000106
# 5 0.000662 -0.002212 -0.001531 0.000000 0.040235 0.000000
# 6 0.000000 0.000000 0.000000 -0.000106 0.000000 0.045133
#
#
# Mechanical properties :
#
#
# Convention : Reuss Voigt Hill
#
# Bulk Modulus (GPa) = 44.71975 56.34714 50.53345
# Shear Modulus (GPa) = 27.04577 29.53422 28.29000
#
# Velocity S-wave (km/s) = 3.88560 4.06043 3.97398
# Velocity P-wave (km/s) = 6.71526 7.31011 7.01899
#
# Compressibility (1/GPa) = 0.02236148
#
# Stress axis : x y z
#
# Youngs Moduli (GPa) = 96.30632 110.24286 52.54588
#
# Poissons Ratio (x) = 0.37927 0.06603
# Poissons Ratio (y) = 0.33133 0.17681
# Poissons Ratio (z) = 0.12102 0.37096
#
# Static dielectric constant tensor:
#      x y z
#    x 3.230950 0.000000 -0.023310 
#    y 0.000000 3.927040 0.000000 
#    z -0.023310 0.000000 3.175580 
# 
# 
# High freq. dielectric constant tensor:
#      x y z
#    x 1.693300 0.000000 -0.000200 
#    y 0.000000 1.701960 0.000000 
#    z -0.000200 0.000000 1.683450 
# 
# From -- ./inp_files/141820.got.cif
#   From: 2010.06.25/outbox.cif.g09.slc.cpg/sg12_71_cif.got.tgz:141820.got - 2010.06.28 00:19:55.
