data_PCOD8089691
_publ_section_title
;
Structure prediction by ZEFSAII (Michael W. Deem and Ramdas Pophale) SiO2 
 PCOD8089691
Probable space group: C 2/M
;
_chemical_formula_sum "Si O2"
_cell_formula_units_Z 60
_cell_length_a 28.068474
_cell_length_b 9.086344
_cell_length_c 12.343116
_cell_angle_alpha 90.000000
_cell_angle_beta 67.940602
_cell_angle_gamma 90.000000
_cell_volume 2917.537667
_symmetry_space_group_name_H-M "C 2/M"
_symmetry_group_IT_number 12
_symmetry_cell_setting 'monoclinic'
loop_
_space_group_symop_operation_xyz
x,y,z
-x,y,-z
-x,-y,-z
x,-y,z
1/2+x,1/2+y,z
1/2-x,1/2+y,-z
1/2-x,1/2-y,-z
1/2+x,1/2-y,z
loop_
_atom_site_type_symbol
_atom_site_label
_atom_site_fract_x
_atom_site_fract_y
_atom_site_fract_z
Si Si1 0.347711 0.171879 0.592028
Si Si2 0.115043 0.157554 0.885537
Si Si3 0.000000 0.796255 0.000000
Si Si4 0.177177 0.330074 0.999615
Si Si5 0.383600 0.329846 0.358444
Si Si6 0.000362 0.825672 0.769272
Si Si7 0.453844 0.829566 0.617830
Si Si8 0.790525 0.829226 0.820388
O O1 0.349501 0.231522 0.467941
O O2 0.400879 0.209629 0.605560
O O3 0.302488 0.253021 0.695672
O O4 0.335761 0.000000 0.598717
O O5 0.131680 0.275453 0.960605
O O6 0.130246 0.216027 0.752928
O O7 0.142634 0.000000 0.884028
O O8 0.054253 0.120089 0.940264
O O9 0.994684 0.723671 0.884373
O O10 0.168042 0.500000 0.034473
O O11 0.230670 0.302003 0.893210
O O12 0.175275 0.243693 0.114327
O O13 0.370458 0.500000 0.390107
O O14 0.443739 0.299761 0.330494
O O15 0.957520 0.769255 0.722527
O O16 0.991556 0.000000 0.804298
O O17 0.500000 0.784877 0.500000
O O18 0.457212 0.000000 0.647997
O O19 0.804625 0.000000 0.803121
#
# Coordination Sequence:
#
# PCOD8089691 Si02
#       8
#     8   8   4   8   8   8   8   8
#     4  11  22  36  57  83 114 149 190 244 294 344
#     4  10  20  37  61  86 118 159 198 239 284 338
#     4  10  21  38  57  86 121 154 197 238 275 330
#     4  10  22  41  63  89 119 149 188 237 293 351
#     4   9  19  35  54  79 113 152 195 236 279 336
#     4  10  19  33  54  77 108 150 195 236 271 328
#     4  10  21  36  51  75 115 153 186 230 289 344
#     4  10  22  41  64  87 115 150 189 240 294 349
#
# _framework density 20.565287999999999
#
# number of rings (size 3 to 8) (size 9 to 14) (size 15 to 20)
#    0.000    2.000    1.333    3.200    1.867    3.467 
#    0.000    3.333    0.000    0.000    0.000    0.000 
#    0.000    0.000    0.000    0.000    0.000    0.000 
#
# Total GULP energy -371734.433265 kJ/mol
# GULP energy per Si atom -12391.147775 kJ/mol
# Density = 2.051848 g / cm^3
# Si number density = 20.565288 Si / 1000 Ang^3
#
#
#
# Elastic Constant Matrix: (Units=GPa)
#
#
# Indices 1 2 3 4 5 6 
#
# 1 47.7126 26.9475 21.2237 0.0000 12.3578 0.0000
# 2 26.9475 86.4599 50.8081 0.0000 3.2224 0.0000
# 3 21.2237 50.8081 136.8344 0.0000 4.2326 0.0000
# 4 0.0000 0.0000 0.0000 13.2102 0.0000 1.9701
# 5 12.3578 3.2224 4.2326 0.0000 28.0508 0.0000
# 6 0.0000 0.0000 0.0000 1.9701 0.0000 18.1599
#
#
#
# Elastic Compliance Matrix: (Units=1/GPa)
#
#
# Indices 1 2 3 4 5 6 
#
# 1 0.028974 -0.007888 -0.001204 0.000000 -0.011677 0.000000
# 2 -0.007888 0.016963 -0.005146 0.000000 0.002303 0.000000
# 3 -0.001204 -0.005146 0.009415 0.000000 -0.000299 0.000000
# 4 0.000000 0.000000 0.000000 0.076944 0.000000 -0.008347
# 5 -0.011677 0.002303 -0.000299 0.000000 0.040574 0.000000
# 6 0.000000 0.000000 0.000000 -0.008347 0.000000 0.055972
#
#
# Mechanical properties :
#
#
# Convention : Reuss Voigt Hill
#
# Bulk Modulus (GPa) = 37.20863 52.10725 44.65794
# Shear Modulus (GPa) = 18.77753 23.35271 21.06512
#
# Velocity S-wave (km/s) = 3.02498 3.37343 3.20395
# Velocity P-wave (km/s) = 5.50753 6.36914 5.95394
#
# Compressibility (1/GPa) = 0.02687549
#
# Stress axis : x y z
#
# Youngs Moduli (GPa) = 34.51428 58.95236 106.21375
#
# Poissons Ratio (x) = 0.46499 0.12788
# Poissons Ratio (y) = 0.27224 0.54661
# Poissons Ratio (z) = 0.04155 0.30339
#
# Static dielectric constant tensor:
#      x y z
#    x 3.472410 0.000000 -0.003520 
#    y 0.000000 3.439230 0.000000 
#    z -0.003520 0.000000 3.898420 
# 
# 
# High freq. dielectric constant tensor:
#      x y z
#    x 1.784340 0.000000 0.003650 
#    y 0.000000 1.784680 0.000000 
#    z 0.003650 0.000000 1.821320 
# 
# From -- ./inp_files/187360.got.cif
#   From: 2010.06.25/outbox.cif.g09.slc.cpg/sg12_94_cif.got.tgz:187360.got - 2010.06.28 00:19:55.
