data_PCOD8089459
_publ_section_title
;
Structure prediction by ZEFSAII (Michael W. Deem and Ramdas Pophale) SiO2 
 PCOD8089459
Probable space group: C 2/M
;
_chemical_formula_sum "Si O2"
_cell_formula_units_Z 48
_cell_length_a 13.096836
_cell_length_b 16.481612
_cell_length_c 13.013785
_cell_angle_alpha 90.000000
_cell_angle_beta 93.964030
_cell_angle_gamma 90.000000
_cell_volume 2802.395791
_symmetry_space_group_name_H-M "C 2/M"
_symmetry_group_IT_number 12
_symmetry_cell_setting 'monoclinic'
loop_
_space_group_symop_operation_xyz
x,y,z
-x,y,-z
-x,-y,-z
x,-y,z
1/2+x,1/2+y,z
1/2-x,1/2+y,-z
1/2-x,1/2-y,-z
1/2+x,1/2-y,z
loop_
_atom_site_type_symbol
_atom_site_label
_atom_site_fract_x
_atom_site_fract_y
_atom_site_fract_z
Si Si1 0.079805 0.667146 0.731228
Si Si2 0.928707 0.906299 0.903104
Si Si3 0.752225 0.796930 0.893658
Si Si4 0.905077 0.790313 0.737521
Si Si5 0.011955 0.500000 0.667178
Si Si6 0.754626 0.668510 0.433226
Si Si7 0.330973 0.000000 0.508229
O O1 0.138633 0.688538 0.841219
O O2 0.033876 0.577414 0.739723
O O3 0.149981 0.675738 0.636504
O O4 0.983458 0.724191 0.703351
O O5 0.809871 0.883059 0.918171
O O6 0.967038 0.860419 0.803015
O O7 0.939417 0.000000 0.883156
O O8 0.000000 0.876179 0.000000
O O9 0.820734 0.750722 0.810874
O O10 0.750000 0.750000 0.000000
O O11 0.850242 0.833998 0.638118
O O12 0.090176 0.500000 0.578906
O O13 0.894714 0.500000 0.618924
O O14 0.750000 0.750000 0.500000
O O15 0.763585 0.583626 0.498047
#
# Coordination Sequence:
#
# PCOD8089459 Si02
#       7
#     8   8   8   8   4   8   4
#     4  10  19  33  53  77 103 135 172 214 257 305
#     4   9  18  31  52  76 100 133 173 208 247 304
#     4   9  19  31  53  73 103 135 169 208 255 301
#     4   9  20  31  53  76 103 134 170 206 256 303
#     4   9  18  30  52  77  98 132 173 216 257 302
#     4  10  20  33  54  78 104 137 172 212 257 310
#     4   9  18  32  52  75 104 134 171 216 260 299
#
# _framework density 17.128202999999999
#
# number of rings (size 3 to 8) (size 9 to 14) (size 15 to 20)
#    1.000    1.667    0.000    2.000    2.333    2.000 
#    0.000    0.000    3.667    2.000    0.000    0.000 
#    0.000    0.000    0.000    0.000    0.000    0.000 
#
# Total GULP energy -297319.417135 kJ/mol
# GULP energy per Si atom -12388.309047 kJ/mol
# Density = 1.708922 g / cm^3
# Si number density = 17.128203 Si / 1000 Ang^3
#
#
#
# Elastic Constant Matrix: (Units=GPa)
#
#
# Indices 1 2 3 4 5 6 
#
# 1 79.0318 46.7096 31.2547 0.0000 25.7964 0.0000
# 2 46.7096 123.4551 53.7897 0.0000 18.3894 0.0000
# 3 31.2547 53.7897 86.5615 0.0000 23.9787 0.0000
# 4 0.0000 0.0000 0.0000 25.5907 0.0000 5.0381
# 5 25.7964 18.3894 23.9787 0.0000 23.6369 0.0000
# 6 0.0000 0.0000 0.0000 5.0381 0.0000 30.3956
#
#
#
# Elastic Compliance Matrix: (Units=1/GPa)
#
#
# Indices 1 2 3 4 5 6 
#
# 1 0.022657 -0.006030 0.001553 0.000000 -0.021611 0.000000
# 2 -0.006030 0.012801 -0.006734 0.000000 0.003453 0.000000
# 3 0.001553 -0.006734 0.019743 0.000000 -0.016484 0.000000
# 4 0.000000 0.000000 0.000000 0.040395 0.000000 -0.006695
# 5 -0.021611 0.003453 -0.016484 0.000000 0.079927 0.000000
# 6 0.000000 0.000000 0.000000 -0.006695 0.000000 0.034009
#
#
# Mechanical properties :
#
#
# Convention : Reuss Voigt Hill
#
# Bulk Modulus (GPa) = 30.50799 61.39517 45.95158
# Shear Modulus (GPa) = 20.58631 26.41094 23.49863
#
# Velocity S-wave (km/s) = 3.47060 3.93104 3.70797
# Velocity P-wave (km/s) = 5.82325 7.51840 6.72446
#
# Compressibility (1/GPa) = 0.03277829
#
# Stress axis : x y z
#
# Youngs Moduli (GPa) = 44.13732 78.11780 50.65196
#
# Poissons Ratio (x) = 0.47102 -0.07865
# Poissons Ratio (y) = 0.26613 0.34109
# Poissons Ratio (z) = -0.06853 0.52605
#
# Static dielectric constant tensor:
#      x y z
#    x 3.140910 0.000000 0.316490 
#    y 0.000000 3.164060 0.000000 
#    z 0.316490 0.000000 3.212730 
# 
# 
# High freq. dielectric constant tensor:
#      x y z
#    x 1.644830 0.000000 0.033130 
#    y 0.000000 1.654310 0.000000 
#    z 0.033130 0.000000 1.656620 
# 
# From -- ./inp_files/143132.got.cif
#   From: 2010.06.25/outbox.cif.g09.slc.cpg/sg12_72_cif.got.tgz:143132.got - 2010.06.28 00:19:55.
