data_PCOD8089544
_publ_section_title
;
Structure prediction by ZEFSAII (Michael W. Deem and Ramdas Pophale) SiO2 
 PCOD8089544
Probable space group: C 2/M
;
_chemical_formula_sum "Si O2"
_cell_formula_units_Z 56
_cell_length_a 14.071482
_cell_length_b 23.800604
_cell_length_c 10.240764
_cell_angle_alpha 90.000000
_cell_angle_beta 109.151917
_cell_angle_gamma 90.000000
_cell_volume 3239.903206
_symmetry_space_group_name_H-M "C 2/M"
_symmetry_group_IT_number 12
_symmetry_cell_setting 'monoclinic'
loop_
_space_group_symop_operation_xyz
x,y,z
-x,y,-z
-x,-y,-z
x,-y,z
1/2+x,1/2+y,z
1/2-x,1/2+y,-z
1/2-x,1/2-y,-z
1/2+x,1/2-y,z
loop_
_atom_site_type_symbol
_atom_site_label
_atom_site_fract_x
_atom_site_fract_y
_atom_site_fract_z
Si Si1 0.171381 0.676423 0.043587
Si Si2 0.900177 0.191006 0.772684
Si Si3 0.905658 0.619532 0.228217
Si Si4 0.170397 0.500000 0.516545
Si Si5 0.231039 0.621492 0.579408
Si Si6 0.610453 0.180181 0.298007
Si Si7 0.473176 0.000000 0.301015
Si Si8 0.382141 0.293946 0.057099
O O1 0.135649 0.653805 0.167349
O O2 0.287494 0.695521 0.107955
O O3 0.161665 0.629033 0.930083
O O4 0.101131 0.727560 0.960506
O O5 0.842710 0.145006 0.659187
O O6 0.875246 0.252663 0.705058
O O7 0.020532 0.180905 0.825670
O O8 0.862936 0.180850 0.904332
O O9 0.841391 0.628581 0.329402
O O10 0.942930 0.556838 0.215383
O O11 0.998428 0.662294 0.286925
O O12 0.240591 0.555284 0.549324
O O13 0.088022 0.500000 0.592528
O O14 0.095181 0.500000 0.359566
O O15 0.187481 0.656298 0.438876
#
# Coordination Sequence:
#
# PCOD8089544 Si02
#       8
#     8   8   8   4   8   8   4   8
#     4  10  19  34  53  75 106 147 170 209 265 318
#     4  10  19  33  53  80 104 138 178 219 260 315
#     4  11  19  35  54  78 107 146 178 215 259 311
#     4   9  18  34  53  74 104 143 181 215 267 316
#     4  11  21  35  54  79 108 140 179 223 264 305
#     4  11  21  31  50  81 114 136 171 216 265 326
#     4   9  18  32  54  76 103 142 185 218 254 312
#     4   9  18  34  54  73 105 143 178 205 264 324
#
# _framework density 17.284466999999999
#
# number of rings (size 3 to 8) (size 9 to 14) (size 15 to 20)
#    0.000    1.857    4.286    1.286    0.000    0.000 
#    0.000    2.857    0.000    2.571    0.000    1.000 
#    0.000    0.000    0.000    0.000    0.000    0.000 
#
# Total GULP energy -347049.672054 kJ/mol
# GULP energy per Si atom -12394.631145 kJ/mol
# Density = 1.724513 g / cm^3
# Si number density = 17.284467 Si / 1000 Ang^3
#
#
#
# Elastic Constant Matrix: (Units=GPa)
#
#
# Indices 1 2 3 4 5 6 
#
# 1 70.4930 31.6186 31.4072 0.0000 13.1589 0.0000
# 2 31.6186 98.8887 53.9017 0.0000 16.5922 0.0000
# 3 31.4072 53.9017 107.1518 0.0000 12.8065 0.0000
# 4 0.0000 0.0000 0.0000 20.8205 0.0000 0.1307
# 5 13.1589 16.5922 12.8065 0.0000 27.1994 0.0000
# 6 0.0000 0.0000 0.0000 0.1307 0.0000 14.4023
#
#
#
# Elastic Compliance Matrix: (Units=1/GPa)
#
#
# Indices 1 2 3 4 5 6 
#
# 1 0.017960 -0.003207 -0.003016 0.000000 -0.005312 0.000000
# 2 -0.003207 0.015331 -0.006188 0.000000 -0.004887 0.000000
# 3 -0.003016 -0.006188 0.013461 0.000000 -0.001104 0.000000
# 4 0.000000 0.000000 0.000000 0.048032 0.000000 -0.000436
# 5 -0.005312 -0.004887 -0.001104 0.000000 0.042837 0.000000
# 6 0.000000 0.000000 0.000000 -0.000436 0.000000 0.069437
#
#
# Mechanical properties :
#
#
# Convention : Reuss Voigt Hill
#
# Bulk Modulus (GPa) = 45.60005 56.70983 51.15494
# Shear Modulus (GPa) = 20.90392 23.12484 22.01438
#
# Velocity S-wave (km/s) = 3.48142 3.66170 3.57270
# Velocity P-wave (km/s) = 6.52685 7.12449 6.83221
#
# Compressibility (1/GPa) = 0.02192980
#
# Stress axis : x y z
#
# Youngs Moduli (GPa) = 55.68024 65.22904 74.28744
#
# Poissons Ratio (x) = 0.20920 0.22404
# Poissons Ratio (y) = 0.17858 0.45967
# Poissons Ratio (z) = 0.16793 0.40362
#
# Static dielectric constant tensor:
#      x y z
#    x 3.065960 0.000000 0.021320 
#    y 0.000000 3.189550 0.000000 
#    z 0.021320 0.000000 3.231190 
# 
# 
# High freq. dielectric constant tensor:
#      x y z
#    x 1.655560 0.000000 0.008060 
#    y 0.000000 1.647350 0.000000 
#    z 0.008060 0.000000 1.665090 
# 
# From -- ./inp_files/67101.got.cif
#   From: 2010.06.25/outbox.cif.g09.slc.cpg/sg12_34_cif.got.tgz:67101.got - 2010.06.28 00:19:55.
