data_PCOD8089623
_publ_section_title
;
Structure prediction by ZEFSAII (Michael W. Deem and Ramdas Pophale) SiO2 
 PCOD8089623
Probable space group: C 2/M
;
_chemical_formula_sum "Si O2"
_cell_formula_units_Z 56
_cell_length_a 21.593734
_cell_length_b 9.172104
_cell_length_c 17.658541
_cell_angle_alpha 90.000000
_cell_angle_beta 119.332541
_cell_angle_gamma 90.000000
_cell_volume 3049.046241
_symmetry_space_group_name_H-M "C 2/M"
_symmetry_group_IT_number 12
_symmetry_cell_setting 'monoclinic'
loop_
_space_group_symop_operation_xyz
x,y,z
-x,y,-z
-x,-y,-z
x,-y,z
1/2+x,1/2+y,z
1/2-x,1/2+y,-z
1/2-x,1/2-y,-z
1/2+x,1/2-y,z
loop_
_atom_site_type_symbol
_atom_site_label
_atom_site_fract_x
_atom_site_fract_y
_atom_site_fract_z
Si Si1 0.091558 0.832299 0.756678
Si Si2 0.955362 0.163376 0.769587
Si Si3 0.434643 0.835477 0.411446
Si Si4 0.324945 0.171318 0.060965
Si Si5 0.807329 0.338191 0.449459
Si Si6 0.033752 0.663473 0.937485
Si Si7 0.327185 0.830614 0.630094
O O1 0.089190 0.765462 0.671757
O O2 0.142181 0.739667 0.842555
O O3 0.010363 0.825142 0.734088
O O4 0.118721 0.000000 0.770572
O O5 0.889515 0.266082 0.716657
O O6 0.992726 0.213403 0.868153
O O7 0.927683 0.000000 0.764256
O O8 0.500000 0.770954 0.500000
O O9 0.368748 0.839437 0.426704
O O10 0.453502 0.000000 0.394335
O O11 0.380928 0.193172 0.023869
O O12 0.310490 0.000000 0.065960
O O13 0.250000 0.250000 0.000000
O O14 0.774681 0.500000 0.440283
O O15 0.746888 0.230893 0.383068
O O16 0.837252 0.284819 0.548508
O O17 0.019143 0.500000 0.897379
O O18 0.000000 0.676719 0.000000
O O19 0.328262 0.000000 0.644859
#
# Coordination Sequence:
#
# PCOD8089623 Si02
#       7
#     8   8   8   8   8   8   8
#     4  10  21  36  55  81 111 143 184 227 268 325
#     4  10  20  34  54  79 107 139 175 218 266 318
#     4  10  20  35  55  79 109 144 181 224 274 324
#     4  10  20  37  61  85 112 148 186 229 283 340
#     4   9  19  34  51  74 106 139 176 221 267 316
#     4   9  19  37  59  83 109 138 179 228 274 325
#     4  10  19  33  54  76 101 139 180 219 265 317
#
# _framework density 18.366399999999999
#
# number of rings (size 3 to 8) (size 9 to 14) (size 15 to 20)
#    0.000    2.286    0.000    2.571    0.000    5.143 
#    2.571    0.000    0.000    0.000    0.000    0.000 
#    0.000    0.000    0.000    0.000    0.000    0.000 
#
# Total GULP energy -347066.592840 kJ/mol
# GULP energy per Si atom -12395.235459 kJ/mol
# Density = 1.832460 g / cm^3
# Si number density = 18.366400 Si / 1000 Ang^3
#
#
#
# Elastic Constant Matrix: (Units=GPa)
#
#
# Indices 1 2 3 4 5 6 
#
# 1 90.1590 53.3363 51.6200 0.0000 7.3405 0.0000
# 2 53.3363 109.8091 47.1606 0.0000 17.4684 0.0000
# 3 51.6200 47.1606 80.3132 0.0000 15.7489 0.0000
# 4 0.0000 0.0000 0.0000 36.7759 0.0000 1.2807
# 5 7.3405 17.4684 15.7489 0.0000 29.8300 0.0000
# 6 0.0000 0.0000 0.0000 1.2807 0.0000 34.2212
#
#
#
# Elastic Compliance Matrix: (Units=1/GPa)
#
#
# Indices 1 2 3 4 5 6 
#
# 1 0.020191 -0.006058 -0.010197 0.000000 0.003963 0.000000
# 2 -0.006058 0.014382 -0.003561 0.000000 -0.005051 0.000000
# 3 -0.010197 -0.003561 0.022528 0.000000 -0.007299 0.000000
# 4 0.000000 0.000000 0.000000 0.027227 0.000000 -0.001019
# 5 0.003963 -0.005051 -0.007299 0.000000 0.039360 0.000000
# 6 0.000000 0.000000 0.000000 -0.001019 0.000000 0.029260
#
#
# Mechanical properties :
#
#
# Convention : Reuss Voigt Hill
#
# Bulk Modulus (GPa) = 57.24660 64.94613 61.09637
# Shear Modulus (GPa) = 25.20120 28.70972 26.95546
#
# Velocity S-wave (km/s) = 3.70825 3.95798 3.83515
# Velocity P-wave (km/s) = 7.04072 7.50504 7.27658
#
# Compressibility (1/GPa) = 0.01746829
#
# Stress axis : x y z
#
# Youngs Moduli (GPa) = 49.52681 69.53032 44.38974
#
# Poissons Ratio (x) = 0.42122 0.45265
# Poissons Ratio (y) = 0.30004 0.15808
# Poissons Ratio (z) = 0.50503 0.24760
#
# Static dielectric constant tensor:
#      x y z
#    x 3.492840 0.000000 0.029120 
#    y 0.000000 3.681270 0.000000 
#    z 0.029120 0.000000 3.222930 
# 
# 
# High freq. dielectric constant tensor:
#      x y z
#    x 1.711820 0.000000 0.005880 
#    y 0.000000 1.724370 0.000000 
#    z 0.005880 0.000000 1.700510 
# 
# From -- ./inp_files/281660.got.cif
#   From: 2010.06.25/outbox.cif.g09.slc.cpg/sg12_141_cif.got.tgz:281660.got - 2010.06.28 00:19:55.
