data_PCOD8089776
_publ_section_title
;
Structure prediction by ZEFSAII (Michael W. Deem and Ramdas Pophale) SiO2 
 PCOD8089776
Probable space group: C 2/M
;
_chemical_formula_sum "Si O2"
_cell_formula_units_Z 64
_cell_length_a 27.279534
_cell_length_b 13.385392
_cell_length_c 9.465123
_cell_angle_alpha 90.000000
_cell_angle_beta 92.975933
_cell_angle_gamma 90.000000
_cell_volume 3451.502815
_symmetry_space_group_name_H-M "C 2/M"
_symmetry_group_IT_number 12
_symmetry_cell_setting 'monoclinic'
loop_
_space_group_symop_operation_xyz
x,y,z
-x,y,-z
-x,-y,-z
x,-y,z
1/2+x,1/2+y,z
1/2-x,1/2+y,-z
1/2-x,1/2-y,-z
1/2+x,1/2-y,z
loop_
_atom_site_type_symbol
_atom_site_label
_atom_site_fract_x
_atom_site_fract_y
_atom_site_fract_z
Si Si1 0.231307 0.221299 0.345406
Si Si2 0.630186 0.613928 0.328145
Si Si3 0.494596 0.891284 0.831986
Si Si4 0.309306 0.115702 0.862156
Si Si5 0.553026 0.384998 0.564888
Si Si6 0.186716 0.384440 0.814269
Si Si7 0.093003 0.732489 0.119835
Si Si8 0.085620 0.725406 0.794116
O O1 0.250000 0.250000 0.500000
O O2 0.180570 0.167739 0.370551
O O3 0.225492 0.318410 0.244020
O O4 0.268872 0.144395 0.280504
O O5 0.640870 0.500000 0.294874
O O6 0.593000 0.628572 0.450034
O O7 0.607605 0.661144 0.184146
O O8 0.452780 0.809337 0.796768
O O9 0.544888 0.859893 0.761869
O O10 0.479902 0.000000 0.768548
O O11 0.500000 0.900435 0.000000
O O12 0.365666 0.147919 0.855345
O O13 0.303585 0.000000 0.817183
O O14 0.294467 0.133149 0.023030
O O15 0.500000 0.348153 0.500000
O O16 0.549134 0.500000 0.613902
O O17 0.572358 0.321465 0.699631
O O18 0.172428 0.500000 0.789494
O O19 0.139469 0.317339 0.767547
O O20 0.081211 0.756754 0.956446
#
# Coordination Sequence:
#
# PCOD8089776 Si02
#       8
#     8   8   8   8   8   8   8   8
#     4  11  22  36  55  78 106 138 176 219 262 311
#     4  10  21  37  54  74 102 137 173 210 258 310
#     4   9  16  28  50  79 107 133 162 201 251 303
#     4   9  19  35  55  79 107 138 174 215 262 315
#     4  10  21  37  55  74 103 141 174 209 258 311
#     4  10  20  36  56  78 106 139 174 217 266 311
#     4   9  18  32  54  81 106 133 168 215 259 302
#     4  10  19  33  54  80 105 133 175 215 253 304
#
# _framework density 18.542646999999999
#
# number of rings (size 3 to 8) (size 9 to 14) (size 15 to 20)
#    0.000    2.250    0.000    3.000    0.000    4.500 
#    0.000    0.625    0.000   13.500    0.000    0.000 
#    0.000    0.000    0.000    0.000    0.000    0.000 
#
# Total GULP energy -396766.351901 kJ/mol
# GULP energy per Si atom -12398.948497 kJ/mol
# Density = 1.850044 g / cm^3
# Si number density = 18.542647 Si / 1000 Ang^3
#
#
#
# Elastic Constant Matrix: (Units=GPa)
#
#
# Indices 1 2 3 4 5 6 
#
# 1 96.5082 45.4960 44.7188 0.0000 3.5435 0.0000
# 2 45.4960 125.5477 62.8731 0.0000 13.4753 0.0000
# 3 44.7188 62.8731 88.5906 0.0000 12.1946 0.0000
# 4 0.0000 0.0000 0.0000 20.8545 0.0000 -3.8469
# 5 3.5435 13.4753 12.1946 0.0000 27.6768 0.0000
# 6 0.0000 0.0000 0.0000 -3.8469 0.0000 19.7374
#
#
#
# Elastic Compliance Matrix: (Units=1/GPa)
#
#
# Indices 1 2 3 4 5 6 
#
# 1 0.014057 -0.002502 -0.005579 0.000000 0.001876 0.000000
# 2 -0.002502 0.012940 -0.007556 0.000000 -0.002651 0.000000
# 3 -0.005579 -0.007556 0.020079 0.000000 -0.004454 0.000000
# 4 0.000000 0.000000 0.000000 0.049740 0.000000 0.009694
# 5 0.001876 -0.002651 -0.004454 0.000000 0.039144 0.000000
# 6 0.000000 0.000000 0.000000 0.009694 0.000000 0.052555
#
#
# Mechanical properties :
#
#
# Convention : Reuss Voigt Hill
#
# Bulk Modulus (GPa) = 63.27415 68.53582 65.90499
# Shear Modulus (GPa) = 22.21670 24.15765 23.18717
#
# Velocity S-wave (km/s) = 3.46517 3.61337 3.54005
# Velocity P-wave (km/s) = 7.08573 7.37902 7.23386
#
# Compressibility (1/GPa) = 0.01580424
#
# Stress axis : x y z
#
# Youngs Moduli (GPa) = 71.13776 77.27896 49.80225
#
# Poissons Ratio (x) = 0.19333 0.27783
# Poissons Ratio (y) = 0.17797 0.37630
# Poissons Ratio (z) = 0.39685 0.58391
#
# Static dielectric constant tensor:
#      x y z
#    x 3.608050 0.000000 -0.103160 
#    y 0.000000 3.455950 0.000000 
#    z -0.103160 0.000000 3.354530 
# 
# 
# High freq. dielectric constant tensor:
#      x y z
#    x 1.731350 0.000000 -0.004900 
#    y 0.000000 1.723120 0.000000 
#    z -0.004900 0.000000 1.704300 
# 
# From -- ./inp_files/110477.got.cif
#   From: 2010.06.25/outbox.cif.g09.slc.cpg/sg12_56_cif.got.tgz:110477.got - 2010.06.28 00:19:55.
