data_PCOD8089905
_publ_section_title
;
Structure prediction by ZEFSAII (Michael W. Deem and Ramdas Pophale) SiO2 
 PCOD8089905
Probable space group: C 2/M
;
_chemical_formula_sum "Si O2"
_cell_formula_units_Z 56
_cell_length_a 24.434381
_cell_length_b 8.930277
_cell_length_c 14.837764
_cell_angle_alpha 90.000000
_cell_angle_beta 120.345047
_cell_angle_gamma 90.000000
_cell_volume 2794.118555
_symmetry_space_group_name_H-M "C 2/M"
_symmetry_group_IT_number 12
_symmetry_cell_setting 'monoclinic'
loop_
_space_group_symop_operation_xyz
x,y,z
-x,y,-z
-x,-y,-z
x,-y,z
1/2+x,1/2+y,z
1/2-x,1/2+y,-z
1/2-x,1/2-y,-z
1/2+x,1/2-y,z
loop_
_atom_site_type_symbol
_atom_site_label
_atom_site_fract_x
_atom_site_fract_y
_atom_site_fract_z
Si Si1 0.516875 0.674519 0.910234
Si Si2 0.373340 0.834205 0.929157
Si Si3 0.579194 0.177640 0.307905
Si Si4 0.737411 0.664228 0.898617
Si Si5 0.189751 0.677092 0.692067
Si Si6 0.822817 0.823323 0.720635
Si Si7 0.439512 0.822449 0.504303
O O1 0.519961 0.500000 0.889537
O O2 0.470478 0.754279 0.802811
O O3 0.500000 0.707190 0.000000
O O4 0.585895 0.752305 0.958641
O O5 0.303309 0.855357 0.904802
O O6 0.371211 0.728564 0.839366
O O7 0.401009 0.000000 0.928560
O O8 0.650154 0.242307 0.346770
O O9 0.557669 0.228516 0.389590
O O10 0.581463 0.000000 0.301123
O O11 0.708114 0.500000 0.894324
O O12 0.691079 0.754215 0.793342
O O13 0.750000 0.750000 0.000000
O O14 0.189881 0.500000 0.703759
O O15 0.250406 0.725356 0.681324
O O16 0.126073 0.738417 0.592534
O O17 0.829270 0.000000 0.714764
O O18 0.500000 0.756362 0.500000
O O19 0.439783 0.000000 0.497316
#
# Coordination Sequence:
#
# PCOD8089905 Si02
#       7
#     8   8   8   8   8   8   8
#     4  11  22  35  54  82 118 155 186 227 289 347
#     4  10  20  34  54  80 112 149 189 234 279 335
#     4  11  22  35  57  86 115 152 197 241 283 341
#     4  10  21  36  56  85 116 149 191 236 285 340
#     4   9  19  37  61  84 112 150 189 237 292 342
#     4  10  19  33  54  83 116 147 182 229 290 348
#     4   9  20  40  62  84 112 148 193 241 288 339
#
# _framework density 20.042100000000001
#
# number of rings (size 3 to 8) (size 9 to 14) (size 15 to 20)
#    0.000    2.000    1.429    2.143    0.000    4.571 
#    0.000    4.286    0.000    3.000    0.000    0.000 
#    0.000    0.000    0.000    0.000    0.000    0.000 
#
# Total GULP energy -347100.506688 kJ/mol
# GULP energy per Si atom -12396.446667 kJ/mol
# Density = 1.999648 g / cm^3
# Si number density = 20.042100 Si / 1000 Ang^3
#
#
#
# Elastic Constant Matrix: (Units=GPa)
#
#
# Indices 1 2 3 4 5 6 
#
# 1 101.9332 40.3173 76.4467 0.0000 -1.1547 0.0000
# 2 40.3173 95.9144 49.1311 0.0000 -3.6282 0.0000
# 3 76.4467 49.1311 142.0568 0.0000 3.6138 0.0000
# 4 0.0000 0.0000 0.0000 22.3831 0.0000 -1.8681
# 5 -1.1547 -3.6282 3.6138 0.0000 36.0229 0.0000
# 6 0.0000 0.0000 0.0000 -1.8681 0.0000 27.3964
#
#
#
# Elastic Compliance Matrix: (Units=1/GPa)
#
#
# Indices 1 2 3 4 5 6 
#
# 1 0.017178 -0.002954 -0.008250 0.000000 0.001081 0.000000
# 2 -0.002954 0.013286 -0.003045 0.000000 0.001549 0.000000
# 3 -0.008250 -0.003045 0.012579 0.000000 -0.001833 0.000000
# 4 0.000000 0.000000 0.000000 0.044932 0.000000 0.003064
# 5 0.001081 0.001549 -0.001833 0.000000 0.028135 0.000000
# 6 0.000000 0.000000 0.000000 0.003064 0.000000 0.036710
#
#
# Mechanical properties :
#
#
# Convention : Reuss Voigt Hill
#
# Bulk Modulus (GPa) = 68.75073 74.63274 71.69174
# Shear Modulus (GPa) = 26.85768 28.76111 27.80939
#
# Velocity S-wave (km/s) = 3.66466 3.79229 3.72902
# Velocity P-wave (km/s) = 7.23076 7.51626 7.37489
#
# Compressibility (1/GPa) = 0.01454530
#
# Stress axis : x y z
#
# Youngs Moduli (GPa) = 58.21264 75.26799 79.49785
#
# Poissons Ratio (x) = 0.22233 0.65588
# Poissons Ratio (y) = 0.17195 0.24205
# Poissons Ratio (z) = 0.48027 0.22917
#
# Static dielectric constant tensor:
#      x y z
#    x 4.430070 0.000000 -0.437220 
#    y 0.000000 3.735540 0.000000 
#    z -0.437220 0.000000 4.106560 
# 
# 
# High freq. dielectric constant tensor:
#      x y z
#    x 1.780560 0.000000 0.006490 
#    y 0.000000 1.777510 0.000000 
#    z 0.006490 0.000000 1.774900 
# 
# From -- ./inp_files/238866.got.cif
#   From: 2010.06.25/outbox.cif.g09.slc.cpg/sg12_120_cif.got.tgz:238866.got - 2010.06.28 00:19:55.
