data_PCOD8089991
_publ_section_title
;
Structure prediction by ZEFSAII (Michael W. Deem and Ramdas Pophale) SiO2 
 PCOD8089991
Probable space group: C 2/M
;
_chemical_formula_sum "Si O2"
_cell_formula_units_Z 56
_cell_length_a 18.756885
_cell_length_b 8.814521
_cell_length_c 26.210218
_cell_angle_alpha 90.000000
_cell_angle_beta 42.799375
_cell_angle_gamma 90.000000
_cell_volume 2944.264987
_symmetry_space_group_name_H-M "C 2/M"
_symmetry_group_IT_number 12
_symmetry_cell_setting 'monoclinic'
loop_
_space_group_symop_operation_xyz
x,y,z
-x,y,-z
-x,-y,-z
x,-y,z
1/2+x,1/2+y,z
1/2-x,1/2+y,-z
1/2-x,1/2-y,-z
1/2+x,1/2-y,z
loop_
_atom_site_type_symbol
_atom_site_label
_atom_site_fract_x
_atom_site_fract_y
_atom_site_fract_z
Si Si1 0.326630 0.322194 0.500433
Si Si2 0.218364 0.821023 0.198783
Si Si3 0.514720 0.322229 0.663210
Si Si4 0.636182 0.177411 0.783017
Si Si5 0.690960 0.320597 0.648305
Si Si6 0.915981 0.175832 0.907271
Si Si7 0.756576 0.323891 0.918757
O O1 0.306074 0.500000 0.515671
O O2 0.250000 0.250000 0.500000
O O3 0.443282 0.288424 0.416634
O O4 0.301451 0.245734 0.568287
O O5 0.287308 0.779026 0.211230
O O6 0.268874 0.735408 0.124210
O O7 0.101338 0.753930 0.269409
O O8 0.218490 0.000000 0.188234
O O9 0.507760 0.500000 0.675515
O O10 0.593892 0.257383 0.664923
O O11 0.677005 0.267378 0.712920
O O12 0.520223 0.227355 0.859613
O O13 0.637770 0.000000 0.770093
O O14 0.697323 0.500000 0.642731
O O15 0.854793 0.230155 0.889067
O O16 0.944656 0.000000 0.884959
O O17 0.846617 0.206005 0.993622
O O18 0.786849 0.500000 0.902735
#
# Coordination Sequence:
#
# PCOD8089991 Si02
#       7
#     8   8   8   8   8   8   8
#     4   9  16  29  51  78 106 135 174 223 271 323
#     4  10  21  37  55  77 109 146 182 222 270 320
#     4   8  16  32  54  77 100 134 177 217 264 319
#     4  11  23  36  53  79 109 143 184 225 266 320
#     4  10  19  33  55  79 105 139 179 225 277 327
#     4  10  21  38  59  81 109 142 175 219 272 322
#     4  10  21  37  59  85 108 136 179 224 266 318
#
# _framework density 19.020029000000001
#
# number of rings (size 3 to 8) (size 9 to 14) (size 15 to 20)
#    0.000    2.286    0.000    3.857    0.000    4.571 
#    0.000    7.143    0.000    4.286    0.000    0.000 
#    0.000    0.000    0.000    0.000    0.000    0.000 
#
# Total GULP energy -347160.428370 kJ/mol
# GULP energy per Si atom -12398.586728 kJ/mol
# Density = 1.897674 g / cm^3
# Si number density = 19.020029 Si / 1000 Ang^3
#
#
#
# Elastic Constant Matrix: (Units=GPa)
#
#
# Indices 1 2 3 4 5 6 
#
# 1 80.0056 29.4143 56.2911 -0.0001 16.4246 -0.0001
# 2 29.4143 65.3863 42.1628 -0.0002 8.9437 -0.0007
# 3 56.2911 42.1628 123.0016 0.0000 16.2431 0.0001
# 4 -0.0001 -0.0002 0.0000 35.3957 0.0001 4.2546
# 5 16.4246 8.9437 16.2431 0.0001 11.4049 -0.0001
# 6 -0.0001 -0.0007 0.0001 4.2546 -0.0001 25.3404
#
#
#
# Elastic Compliance Matrix: (Units=1/GPa)
#
#
# Indices 1 2 3 4 5 6 
#
# 1 0.022435 -0.003088 -0.006481 0.000000 -0.020658 0.000000
# 2 -0.003088 0.020545 -0.005036 0.000000 -0.004492 0.000001
# 3 -0.006481 -0.005036 0.013632 0.000000 -0.006132 0.000000
# 4 0.000000 0.000000 0.000000 0.028834 0.000000 -0.004841
# 5 -0.020658 -0.004492 -0.006132 0.000000 0.129688 0.000000
# 6 0.000000 0.000001 0.000000 -0.004841 0.000000 0.040276
#
#
# Mechanical properties :
#
#
# Convention : Reuss Voigt Hill
#
# Bulk Modulus (GPa) = 36.49334 58.23665 47.36500
# Shear Modulus (GPa) = 17.02110 23.79656 20.40883
#
# Velocity S-wave (km/s) = 2.99474 3.54097 3.27925
# Velocity P-wave (km/s) = 5.58448 6.88499 6.26855
#
# Compressibility (1/GPa) = 0.02740226
#
# Stress axis : x y z
#
# Youngs Moduli (GPa) = 44.57279 48.67473 73.35681
#
# Poissons Ratio (x) = 0.15030 0.47542
# Poissons Ratio (y) = 0.13763 0.36943
# Poissons Ratio (z) = 0.28887 0.24513
#
# Static dielectric constant tensor:
#      x y z
#    x 3.350960 0.000000 -0.118270 
#    y 0.000000 3.481440 0.000000 
#    z -0.118270 0.000000 3.935720 
# 
# 
# High freq. dielectric constant tensor:
#      x y z
#    x 1.711150 0.000000 0.001920 
#    y 0.000000 1.736730 0.000000 
#    z 0.001920 0.000000 1.760100 
# 
# From -- ./inp_files/342233.got.cif
#   From: 2010.06.25/outbox.cif.g09.slc.cpg/sg12_172_cif.got.tgz:342233.got - 2010.06.28 00:19:55.
