data_PCOD8089815
_publ_section_title
;
Structure prediction by ZEFSAII (Michael W. Deem and Ramdas Pophale) SiO2 
 PCOD8089815
Probable space group: C 2/M
;
_chemical_formula_sum "Si O2"
_cell_formula_units_Z 48
_cell_length_a 13.230615
_cell_length_b 12.978550
_cell_length_c 13.905177
_cell_angle_alpha 90.000000
_cell_angle_beta 104.557709
_cell_angle_gamma 90.000000
_cell_volume 2311.058601
_symmetry_space_group_name_H-M "C 2/M"
_symmetry_group_IT_number 12
_symmetry_cell_setting 'monoclinic'
loop_
_space_group_symop_operation_xyz
x,y,z
-x,y,-z
-x,-y,-z
x,-y,z
1/2+x,1/2+y,z
1/2-x,1/2+y,-z
1/2-x,1/2-y,-z
1/2+x,1/2-y,z
loop_
_atom_site_type_symbol
_atom_site_label
_atom_site_fract_x
_atom_site_fract_y
_atom_site_fract_z
Si Si1 0.644132 0.683754 0.541313
Si Si2 0.201832 0.379834 0.909034
Si Si3 0.112208 0.728822 0.066812
Si Si4 0.367585 0.882556 0.562645
Si Si5 0.990261 0.686535 0.768117
Si Si6 0.485477 0.614627 0.658192
O O1 0.613307 0.805863 0.523685
O O2 0.764390 0.661477 0.589739
O O3 0.585773 0.635282 0.616523
O O4 0.615886 0.629045 0.433313
O O5 0.224162 0.500000 0.907524
O O6 0.308479 0.324065 0.901293
O O7 0.108128 0.348206 0.815971
O O8 0.168084 0.352294 0.009563
O O9 0.088335 0.668685 0.161010
O O10 0.000000 0.768725 0.000000
O O11 0.455786 0.876123 0.665468
O O12 0.359562 0.000000 0.523247
O O13 0.987007 0.809304 0.748694
O O14 0.488665 0.500000 0.701327
#
# Coordination Sequence:
#
# PCOD8089815 Si02
#       6
#     8   8   8   8   8   8
#     4   9  19  34  53  78 111 148 199 237 273 339
#     4  10  21  40  63  85 117 155 185 229 294 346
#     4   9  21  41  61  86 117 147 191 236 277 347
#     4  10  19  33  54  80 112 151 191 236 284 333
#     4  10  22  35  57  88 120 143 190 240 282 346
#     4  10  19  35  56  78 110 151 191 235 286 330
#
# _framework density 20.769701999999999
#
# number of rings (size 3 to 8) (size 9 to 14) (size 15 to 20)
#    0.000    2.333    0.000    2.500    2.333    4.667 
#    0.000   14.167    0.000    0.000    0.000    0.000 
#    0.000    0.000    0.000    0.000    0.000    0.000 
#
# Total GULP energy -297516.222539 kJ/mol
# GULP energy per Si atom -12396.509272 kJ/mol
# Density = 2.072243 g / cm^3
# Si number density = 20.769702 Si / 1000 Ang^3
#
#
#
# Elastic Constant Matrix: (Units=GPa)
#
#
# Indices 1 2 3 4 5 6 
#
# 1 86.7857 11.8725 9.7478 0.0000 20.5687 0.0000
# 2 11.8725 132.2887 11.2326 0.0000 5.7432 0.0000
# 3 9.7478 11.2326 44.2276 0.0000 11.8476 0.0000
# 4 0.0000 0.0000 0.0000 14.7167 0.0000 -4.7892
# 5 20.5687 5.7432 11.8476 0.0000 16.2921 0.0000
# 6 0.0000 0.0000 0.0000 -4.7892 0.0000 18.4621
#
#
#
# Elastic Compliance Matrix: (Units=1/GPa)
#
#
# Indices 1 2 3 4 5 6 
#
# 1 0.016720 -0.000734 0.002591 0.000000 -0.022735 0.000000
# 2 -0.000734 0.007792 -0.001651 0.000000 -0.000620 0.000000
# 3 0.002591 -0.001651 0.028787 0.000000 -0.023623 0.000000
# 4 0.000000 0.000000 0.000000 0.074215 0.000000 0.019252
# 5 -0.022735 -0.000620 -0.023623 0.000000 0.107479 0.000000
# 6 0.000000 0.000000 0.000000 0.019252 0.000000 0.059159
#
#
# Mechanical properties :
#
#
# Convention : Reuss Voigt Hill
#
# Bulk Modulus (GPa) = 18.61777 36.55644 27.58710
# Shear Modulus (GPa) = 16.04395 25.25744 20.65070
#
# Velocity S-wave (km/s) = 2.78235 3.49100 3.15663
# Velocity P-wave (km/s) = 4.39378 5.82139 5.15722
#
# Compressibility (1/GPa) = 0.05371214
#
# Stress axis : x y z
#
# Youngs Moduli (GPa) = 59.80773 128.33373 34.73828
#
# Poissons Ratio (x) = 0.09415 -0.09002
# Poissons Ratio (y) = 0.04387 0.05736
# Poissons Ratio (z) = -0.15498 0.21191
#
# Static dielectric constant tensor:
#      x y z
#    x 3.838030 0.000000 0.139980 
#    y 0.000000 3.717860 0.000000 
#    z 0.139980 0.000000 3.626190 
# 
# 
# High freq. dielectric constant tensor:
#      x y z
#    x 1.821240 0.000000 0.009370 
#    y 0.000000 1.806940 0.000000 
#    z 0.009370 0.000000 1.796260 
# 
# From -- ./inp_files/212934.got.cif
#   From: 2010.06.25/outbox.cif.g09.slc.cpg/sg12_107_cif.got.tgz:212934.got - 2010.06.28 00:19:55.
