data_PCOD8089953
_publ_section_title
;
Structure prediction by ZEFSAII (Michael W. Deem and Ramdas Pophale) SiO2 
 PCOD8089953
Probable space group: C 2/M
;
_chemical_formula_sum "Si O2"
_cell_formula_units_Z 64
_cell_length_a 30.135327
_cell_length_b 9.127059
_cell_length_c 14.769615
_cell_angle_alpha 90.000000
_cell_angle_beta 119.913911
_cell_angle_gamma 90.000000
_cell_volume 3521.134913
_symmetry_space_group_name_H-M "C 2/M"
_symmetry_group_IT_number 12
_symmetry_cell_setting 'monoclinic'
loop_
_space_group_symop_operation_xyz
x,y,z
-x,y,-z
-x,-y,-z
x,-y,z
1/2+x,1/2+y,z
1/2-x,1/2+y,-z
1/2-x,1/2-y,-z
1/2+x,1/2-y,z
loop_
_atom_site_type_symbol
_atom_site_label
_atom_site_fract_x
_atom_site_fract_y
_atom_site_fract_z
Si Si1 0.802437 0.333028 0.056099
Si Si2 0.463790 0.826188 0.214941
Si Si3 0.885566 0.324965 0.279006
Si Si4 0.357438 0.826486 0.445106
Si Si5 0.382996 0.168332 0.985385
Si Si6 0.579276 0.174855 0.318519
Si Si7 0.751039 0.171618 0.596629
Si Si8 0.361112 0.672569 0.780300
O O1 0.789561 0.500000 0.064165
O O2 0.837104 0.268188 0.172188
O O3 0.750000 0.250000 0.000000
O O4 0.831361 0.316512 0.990474
O O5 0.437194 0.768722 0.281069
O O6 0.521277 0.766172 0.267370
O O7 0.463635 0.000000 0.217728
O O8 0.431343 0.776802 0.094129
O O9 0.885392 0.500000 0.279599
O O10 0.880923 0.260883 0.375939
O O11 0.390530 0.767305 0.562700
O O12 0.298315 0.777420 0.395625
O O13 0.361415 0.000000 0.445734
O O14 0.378707 0.274328 0.896029
O O15 0.390709 0.000000 0.961807
O O16 0.604000 0.245931 0.256325
O O17 0.581895 0.000000 0.312058
O O18 0.750000 0.250000 0.500000
O O19 0.801720 0.214572 0.703884
O O20 0.748623 0.000000 0.574029
O O21 0.369878 0.500000 0.780980
#
# Coordination Sequence:
#
# PCOD8089953 Si02
#       8
#     8   8   8   8   8   8   8   8
#     4   9  18  31  50  73 101 136 169 206 250 300
#     4   8  16  32  53  77 102 132 169 212 258 298
#     4   8  15  29  49  75 106 131 159 206 257 301
#     4   9  17  29  49  77 104 131 163 202 254 303
#     4   9  19  36  53  73 103 137 174 213 256 301
#     4  10  19  33  55  78 102 133 172 213 252 304
#     4  10  20  34  51  73 103 136 168 207 255 303
#     4  11  23  35  51  77 105 136 173 212 258 307
#
# _framework density 18.175958999999999
#
# number of rings (size 3 to 8) (size 9 to 14) (size 15 to 20)
#    0.000    2.750    1.250    1.875    1.750    2.000 
#    0.000    5.625    0.000    1.500    0.000    0.875 
#    0.000    0.000    0.000    0.000    0.000    0.000 
#
# Total GULP energy -396695.320074 kJ/mol
# GULP energy per Si atom -12396.728752 kJ/mol
# Density = 1.813459 g / cm^3
# Si number density = 18.175959 Si / 1000 Ang^3
#
#
#
# Elastic Constant Matrix: (Units=GPa)
#
#
# Indices 1 2 3 4 5 6 
#
# 1 148.4738 30.2023 80.3551 0.0000 12.5646 0.0000
# 2 30.2023 26.9997 19.2150 0.0000 -1.0643 0.0000
# 3 80.3551 19.2150 100.3723 0.0000 -10.9498 0.0000
# 4 0.0000 0.0000 0.0000 16.5499 0.0000 3.4157
# 5 12.5646 -1.0643 -10.9498 0.0000 33.8836 0.0000
# 6 0.0000 0.0000 0.0000 3.4157 0.0000 20.9325
#
#
#
# Elastic Compliance Matrix: (Units=1/GPa)
#
#
# Indices 1 2 3 4 5 6 
#
# 1 0.016225 -0.009856 -0.012224 0.000000 -0.010276 0.000000
# 2 -0.009856 0.048926 -0.000943 0.000000 0.004887 0.000000
# 3 -0.012224 -0.000943 0.021167 0.000000 0.011343 0.000000
# 4 0.000000 0.000000 0.000000 0.062529 0.000000 -0.010203
# 5 -0.010276 0.004887 0.011343 0.000000 0.037143 0.000000
# 6 0.000000 0.000000 0.000000 -0.010203 0.000000 0.049438
#
#
# Mechanical properties :
#
#
# Convention : Reuss Voigt Hill
#
# Bulk Modulus (GPa) = 24.83047 59.48786 42.15917
# Shear Modulus (GPa) = 16.95510 24.01144 20.48327
#
# Velocity S-wave (km/s) = 3.05754 3.63857 3.36064
# Velocity P-wave (km/s) = 5.11425 7.10297 6.18901
#
# Compressibility (1/GPa) = 0.04027310
#
# Stress axis : x y z
#
# Youngs Moduli (GPa) = 61.63231 20.43914 47.24349
#
# Poissons Ratio (x) = 0.20144 0.57750
# Poissons Ratio (y) = 0.60742 0.04455
# Poissons Ratio (z) = 0.75338 0.01928
#
# Static dielectric constant tensor:
#      x y z
#    x 3.716190 0.000000 0.055870 
#    y 0.000000 2.933670 0.000000 
#    z 0.055870 0.000000 3.605950 
# 
# 
# High freq. dielectric constant tensor:
#      x y z
#    x 1.716110 0.000000 -0.000340 
#    y 0.000000 1.657070 0.000000 
#    z -0.000340 0.000000 1.711120 
# 
# From -- ./inp_files/249184.got.cif
#   From: 2010.06.25/outbox.cif.g09.slc.cpg/sg12_125_cif.got.tgz:249184.got - 2010.06.28 00:19:55.
