data_PCOD8089700
_publ_section_title
;
Structure prediction by ZEFSAII (Michael W. Deem and Ramdas Pophale) SiO2 
 PCOD8089700
Probable space group: C 2/M
;
_chemical_formula_sum "Si O2"
_cell_formula_units_Z 56
_cell_length_a 19.023070
_cell_length_b 8.787800
_cell_length_c 19.157695
_cell_angle_alpha 90.000000
_cell_angle_beta 110.316023
_cell_angle_gamma 90.000000
_cell_volume 3003.381431
_symmetry_space_group_name_H-M "C 2/M"
_symmetry_group_IT_number 12
_symmetry_cell_setting 'monoclinic'
loop_
_space_group_symop_operation_xyz
x,y,z
-x,y,-z
-x,-y,-z
x,-y,z
1/2+x,1/2+y,z
1/2-x,1/2+y,-z
1/2-x,1/2-y,-z
1/2+x,1/2-y,z
loop_
_atom_site_type_symbol
_atom_site_label
_atom_site_fract_x
_atom_site_fract_y
_atom_site_fract_z
Si Si1 0.453430 0.176329 0.415664
Si Si2 0.465131 0.177395 0.142585
Si Si3 0.068458 0.832490 0.076116
Si Si4 0.831098 0.819242 0.012239
Si Si5 0.172013 0.173256 0.401408
Si Si6 0.678396 0.325079 0.563060
Si Si7 0.489792 0.325245 0.702776
O O1 0.500000 0.222650 0.500000
O O2 0.367254 0.215959 0.401108
O O3 0.478686 0.280163 0.361006
O O4 0.463140 0.000000 0.399650
O O5 0.542748 0.222139 0.129696
O O6 0.391550 0.261753 0.088995
O O7 0.473681 0.218882 0.226313
O O8 0.451635 0.000000 0.128727
O O9 0.085877 0.000000 0.113693
O O10 0.140522 0.772526 0.056447
O O11 0.000000 0.846380 0.000000
O O12 0.826386 0.000000 0.016563
O O13 0.750000 0.750000 0.000000
O O14 0.234551 0.287674 0.394457
O O15 0.153741 0.213217 0.475450
O O16 0.099556 0.198230 0.328718
O O17 0.201516 0.000000 0.407458
O O18 0.663101 0.500000 0.576616
O O19 0.510351 0.500000 0.725432
#
# Coordination Sequence:
#
# PCOD8089700 Si02
#       7
#     8   8   8   8   8   8   8
#     4  11  22  35  54  80 110 144 186 236 286 340
#     4  11  22  36  56  84 116 149 188 231 279 335
#     4   8  16  33  56  81 110 145 183 221 265 319
#     4  10  20  36  60  89 119 151 189 231 275 327
#     4   9  19  34  53  77 103 136 177 226 279 330
#     4  10  19  33  54  78 104 135 178 228 277 333
#     4  11  22  38  58  79 110 148 188 233 284 338
#
# _framework density 18.64565
#
# number of rings (size 3 to 8) (size 9 to 14) (size 15 to 20)
#    0.000    2.000    1.429    3.857    0.000    5.429 
#    0.000    1.429    0.000    5.143    0.000    0.000 
#    0.000    0.000    0.000    0.000    0.000    0.000 
#
# Total GULP energy -347181.151432 kJ/mol
# GULP energy per Si atom -12399.326837 kJ/mol
# Density = 1.860321 g / cm^3
# Si number density = 18.645650 Si / 1000 Ang^3
#
#
#
# Elastic Constant Matrix: (Units=GPa)
#
#
# Indices 1 2 3 4 5 6 
#
# 1 116.7688 41.7078 35.7393 0.0000 -5.5725 0.0000
# 2 41.7078 73.7192 28.9780 0.0000 -1.6169 0.0000
# 3 35.7393 28.9780 72.4993 0.0000 -2.4632 0.0000
# 4 0.0000 0.0000 0.0000 28.2070 0.0000 -1.1509
# 5 -5.5725 -1.6169 -2.4632 0.0000 19.5772 0.0000
# 6 0.0000 0.0000 0.0000 -1.1509 0.0000 32.8341
#
#
#
# Elastic Compliance Matrix: (Units=1/GPa)
#
#
# Indices 1 2 3 4 5 6 
#
# 1 0.011602 -0.005095 -0.003600 0.000000 0.002429 0.000000
# 2 -0.005095 0.018337 -0.004836 0.000000 -0.000544 0.000000
# 3 -0.003600 -0.004836 0.017527 0.000000 0.000781 0.000000
# 4 0.000000 0.000000 0.000000 0.035503 0.000000 0.001244
# 5 0.002429 -0.000544 0.000781 0.000000 0.051824 0.000000
# 6 0.000000 0.000000 0.000000 0.001244 0.000000 0.030500
#
#
# Mechanical properties :
#
#
# Convention : Reuss Voigt Hill
#
# Bulk Modulus (GPa) = 49.01204 52.87087 50.94145
# Shear Modulus (GPa) = 25.10584 26.56112 25.83348
#
# Velocity S-wave (km/s) = 3.67341 3.77838 3.72626
# Velocity P-wave (km/s) = 6.65846 6.88854 6.77448
#
# Compressibility (1/GPa) = 0.02040315
#
# Stress axis : x y z
#
# Youngs Moduli (GPa) = 86.19431 54.53516 57.05375
#
# Poissons Ratio (x) = 0.27788 0.20539
# Poissons Ratio (y) = 0.43920 0.27590
# Poissons Ratio (z) = 0.31030 0.26372
#
# Static dielectric constant tensor:
#      x y z
#    x 3.605680 0.000000 -0.093150 
#    y 0.000000 3.416080 0.000000 
#    z -0.093150 0.000000 3.210470 
# 
# 
# High freq. dielectric constant tensor:
#      x y z
#    x 1.726270 0.000000 -0.008670 
#    y 0.000000 1.730680 0.000000 
#    z -0.008670 0.000000 1.695870 
# 
# From -- ./inp_files/275619.got.cif
#   From: 2010.06.25/outbox.cif.g09.slc.cpg/sg12_138_cif.got.tgz:275619.got - 2010.06.28 00:19:55.
