data_PCOD8089348
_publ_section_title
;
Structure prediction by ZEFSAII (Michael W. Deem and Ramdas Pophale) SiO2 
 PCOD8089348
Probable space group: C 2/M
;
_chemical_formula_sum "Si O2"
_cell_formula_units_Z 56
_cell_length_a 19.029609
_cell_length_b 9.253447
_cell_length_c 27.465214
_cell_angle_alpha 90.000000
_cell_angle_beta 37.754502
_cell_angle_gamma 90.000000
_cell_volume 2961.188448
_symmetry_space_group_name_H-M "C 2/M"
_symmetry_group_IT_number 12
_symmetry_cell_setting 'monoclinic'
loop_
_space_group_symop_operation_xyz
x,y,z
-x,y,-z
-x,-y,-z
x,-y,z
1/2+x,1/2+y,z
1/2-x,1/2+y,-z
1/2-x,1/2-y,-z
1/2+x,1/2-y,z
loop_
_atom_site_type_symbol
_atom_site_label
_atom_site_fract_x
_atom_site_fract_y
_atom_site_fract_z
Si Si1 0.631559 0.167002 0.562774
Si Si2 0.758907 0.661577 0.109306
Si Si3 0.905908 0.838498 0.093511
Si Si4 0.350169 0.163901 0.338933
Si Si5 0.530424 0.335879 0.183880
Si Si6 0.565745 0.831150 0.070477
Si Si7 0.916350 0.169018 0.501767
O O1 0.750000 0.250000 0.500000
O O2 0.586457 0.178902 0.643092
O O3 0.551132 0.243147 0.565744
O O4 0.650205 0.000000 0.537991
O O5 0.797564 0.500000 0.103371
O O6 0.789195 0.771206 0.136052
O O7 0.622954 0.669396 0.176525
O O8 0.825842 0.703197 0.023091
O O9 0.948873 0.738409 0.113685
O O10 0.880868 0.000000 0.126307
O O11 0.000000 0.839146 0.000000
O O12 0.411101 0.269184 0.267395
O O13 0.215546 0.205737 0.413054
O O14 0.363274 0.000000 0.313045
O O15 0.508278 0.500000 0.178845
O O16 0.588194 0.244445 0.109389
O O17 0.546094 0.000000 0.088994
O O18 0.000000 0.218002 0.500000
O O19 0.932457 0.000000 0.481792
#
# Coordination Sequence:
#
# PCOD8089348 Si02
#       7
#     8   8   8   8   8   8   8
#     4   9  17  31  53  78 103 132 166 202 241 293
#     4   9  19  34  51  73  99 132 175 217 259 308
#     4   9  17  30  50  74  97 122 159 209 258 305
#     4   9  19  35  52  73 103 138 172 206 253 306
#     4  11  22  34  50  74 104 136 173 215 256 302
#     4  10  19  33  53  73  99 135 173 216 264 309
#     4   9  18  34  57  83 108 134 167 207 249 297
#
# _framework density 18.911325999999999
#
# number of rings (size 3 to 8) (size 9 to 14) (size 15 to 20)
#    0.000    2.571    0.000    3.000    0.000    6.571 
#    0.000    1.429    0.000    5.143    0.000    0.000 
#    0.000    0.000    0.000    0.000    0.000    0.000 
#
# Total GULP energy -347084.869526 kJ/mol
# GULP energy per Si atom -12395.888197 kJ/mol
# Density = 1.886828 g / cm^3
# Si number density = 18.911326 Si / 1000 Ang^3
#
#
#
# Elastic Constant Matrix: (Units=GPa)
#
#
# Indices 1 2 3 4 5 6 
#
# 1 100.8655 40.7884 14.3393 0.0000 -5.9373 -0.0003
# 2 40.7884 110.8992 25.3891 0.0002 -1.1540 -0.0009
# 3 14.3393 25.3891 43.0577 -0.0001 -7.2645 -0.0001
# 4 0.0000 0.0002 -0.0001 25.0861 0.0001 5.2889
# 5 -5.9373 -1.1540 -7.2645 0.0001 15.0111 0.0000
# 6 -0.0003 -0.0009 -0.0001 5.2889 0.0000 36.8025
#
#
#
# Elastic Compliance Matrix: (Units=1/GPa)
#
#
# Indices 1 2 3 4 5 6 
#
# 1 0.011953 -0.004159 -0.000854 0.000000 0.003994 0.000000
# 2 -0.004159 0.011949 -0.006298 0.000000 -0.003774 0.000000
# 3 -0.000854 -0.006298 0.029492 0.000000 0.013450 0.000000
# 4 0.000000 0.000000 0.000000 0.041108 0.000000 -0.005908
# 5 0.003994 -0.003774 0.013450 0.000000 0.074416 0.000000
# 6 0.000000 0.000000 0.000000 -0.005908 0.000000 0.028021
#
#
# Mechanical properties :
#
#
# Convention : Reuss Voigt Hill
#
# Bulk Modulus (GPa) = 32.49706 46.20620 39.35163
# Shear Modulus (GPa) = 21.75632 27.00033 24.37833
#
# Velocity S-wave (km/s) = 3.39549 3.78264 3.59428
# Velocity P-wave (km/s) = 5.70909 6.60030 6.17080
#
# Compressibility (1/GPa) = 0.03077202
#
# Stress axis : x y z
#
# Youngs Moduli (GPa) = 83.66381 83.68648 33.90774
#
# Poissons Ratio (x) = 0.34805 0.02896
# Poissons Ratio (y) = 0.34796 0.21354
# Poissons Ratio (z) = 0.07147 0.52703
#
# Static dielectric constant tensor:
#      x y z
#    x 3.646360 0.000000 0.129780 
#    y 0.000000 3.625660 0.000000 
#    z 0.129780 0.000000 3.070510 
# 
# 
# High freq. dielectric constant tensor:
#      x y z
#    x 1.735160 0.000000 0.004980 
#    y 0.000000 1.745880 0.000000 
#    z 0.004980 0.000000 1.691090 
# 
# From -- ./inp_files/363028.got.cif
#   From: 2010.06.25/outbox.cif.g09.slc.cpg/sg12_182_cif.got.tgz:363028.got - 2010.06.28 00:19:55.
