data_PCOD8089808
_publ_section_title
;
Structure prediction by ZEFSAII (Michael W. Deem and Ramdas Pophale) SiO2 
 PCOD8089808
Probable space group: C 2/M
;
_chemical_formula_sum "Si O2"
_cell_formula_units_Z 64
_cell_length_a 28.032489
_cell_length_b 8.762766
_cell_length_c 18.056047
_cell_angle_alpha 90.000000
_cell_angle_beta 45.777984
_cell_angle_gamma 90.000000
_cell_volume 3178.543895
_symmetry_space_group_name_H-M "C 2/M"
_symmetry_group_IT_number 12
_symmetry_cell_setting 'monoclinic'
loop_
_space_group_symop_operation_xyz
x,y,z
-x,y,-z
-x,-y,-z
x,-y,z
1/2+x,1/2+y,z
1/2-x,1/2+y,-z
1/2-x,1/2-y,-z
1/2+x,1/2-y,z
loop_
_atom_site_type_symbol
_atom_site_label
_atom_site_fract_x
_atom_site_fract_y
_atom_site_fract_z
Si Si1 0.836979 0.819492 0.187550
Si Si2 0.799783 0.672869 0.723997
Si Si3 0.923310 0.172893 0.808829
Si Si4 0.936867 0.172873 0.958888
Si Si5 0.940718 0.322209 0.364980
Si Si6 0.299351 0.827651 0.890672
Si Si7 0.932267 0.820051 0.532617
Si Si8 0.418778 0.319822 0.239013
O O1 0.761461 0.757754 0.258279
O O2 0.860084 0.778434 0.245465
O O3 0.834644 0.000000 0.176289
O O4 0.889916 0.746148 0.071353
O O5 0.817663 0.500000 0.680016
O O6 0.771101 0.673823 0.838429
O O7 0.866474 0.773230 0.648913
O O8 0.899701 0.180859 0.919842
O O9 0.865673 0.227104 0.817564
O O10 0.982397 0.289761 0.731896
O O11 0.945004 0.000000 0.764290
O O12 0.011050 0.245308 0.870057
O O13 0.947699 0.000000 0.973721
O O14 0.926001 0.500000 0.386367
O O15 0.920164 0.246383 0.464200
O O16 0.900323 0.254957 0.338123
O O17 0.313892 0.000000 0.901605
O O18 0.250000 0.750000 0.000000
O O19 0.000000 0.758081 0.500000
O O20 0.937215 0.000000 0.521555
O O21 0.426440 0.500000 0.243897
#
# Coordination Sequence:
#
# PCOD8089808 Si02
#       8
#     8   8   8   8   8   8   8   8
#     4   9  16  30  53  80 111 147 188 231 273 320
#     4  10  22  38  56  82 114 148 187 230 279 335
#     4  10  19  33  54  80 111 145 186 233 279 332
#     4   8  14  26  49  81 112 145 186 229 269 315
#     4  11  22  37  58  83 112 142 177 224 279 338
#     4  11  22  35  53  79 115 155 191 227 271 328
#     4  11  24  42  64  86 107 136 179 232 285 336
#     4   9  17  31  55  84 112 146 190 233 269 314
#
# _framework density 20.135007000000002
#
# number of rings (size 3 to 8) (size 9 to 14) (size 15 to 20)
#    0.000    2.125    0.000    4.875    0.000    7.500 
#    0.000    1.250    0.000    7.500    0.000    0.000 
#    0.000    0.000    0.000    0.000    0.000    0.000 
#
# Total GULP energy -396647.246249 kJ/mol
# GULP energy per Si atom -12395.226445 kJ/mol
# Density = 2.008918 g / cm^3
# Si number density = 20.135007 Si / 1000 Ang^3
#
#
#
# Elastic Constant Matrix: (Units=GPa)
#
#
# Indices 1 2 3 4 5 6 
#
# 1 136.2711 34.3857 44.0430 0.0104 -2.4828 -0.0028
# 2 34.3857 65.1619 28.0225 -0.0073 4.2896 0.0077
# 3 44.0430 28.0225 91.7294 0.0065 7.6079 -0.0003
# 4 0.0104 -0.0073 0.0065 24.6428 -0.0049 1.0496
# 5 -2.4828 4.2896 7.6079 -0.0049 29.3380 0.0007
# 6 -0.0028 0.0077 -0.0003 1.0496 0.0007 21.3218
#
#
#
# Elastic Compliance Matrix: (Units=1/GPa)
#
#
# Indices 1 2 3 4 5 6 
#
# 1 0.009457 -0.003576 -0.003636 -0.000004 0.002266 0.000003
# 2 -0.003576 0.019062 -0.003935 0.000008 -0.002069 -0.000008
# 3 -0.003636 -0.003935 0.014131 -0.000004 -0.003397 0.000001
# 4 -0.000004 0.000008 -0.000004 0.040665 0.000006 -0.002002
# 5 0.002266 -0.002069 -0.003397 0.000006 0.035461 0.000000
# 6 0.000003 -0.000008 0.000001 -0.002002 0.000000 0.046999
#
#
# Mechanical properties :
#
#
# Convention : Reuss Voigt Hill
#
# Bulk Modulus (GPa) = 49.12436 56.22941 52.67688
# Shear Modulus (GPa) = 25.66022 27.50792 26.58407
#
# Velocity S-wave (km/s) = 3.57376 3.70019 3.63752
# Velocity P-wave (km/s) = 6.44045 6.80015 6.62274
#
# Compressibility (1/GPa) = 0.02035650
#
# Stress axis : x y z
#
# Youngs Moduli (GPa) = 105.73961 52.46128 70.76488
#
# Poissons Ratio (x) = 0.18760 0.25732
# Poissons Ratio (y) = 0.37812 0.27843
# Poissons Ratio (z) = 0.38450 0.20641
#
# Static dielectric constant tensor:
#      x y z
#    x 3.866020 -0.000010 0.133760 
#    y -0.000010 3.442050 0.000020 
#    z 0.133760 0.000020 3.563610 
# 
# 
# High freq. dielectric constant tensor:
#      x y z
#    x 1.793530 0.000000 0.010210 
#    y 0.000000 1.752060 0.000000 
#    z 0.010210 0.000000 1.775840 
# 
# From -- ./inp_files/295488.got.cif
#   From: 2010.06.25/outbox.cif.g09.slc.cpg/sg12_148_cif.got.tgz:295488.got - 2010.06.28 00:19:55.
