data_PCOD8089986
_publ_section_title
;
Structure prediction by ZEFSAII (Michael W. Deem and Ramdas Pophale) SiO2 
 PCOD8089986
Probable space group: C 2/M
;
_chemical_formula_sum "Si O2"
_cell_formula_units_Z 40
_cell_length_a 24.314784
_cell_length_b 13.541600
_cell_length_c 19.376108
_cell_angle_alpha 90.000000
_cell_angle_beta 19.368723
_cell_angle_gamma 90.000000
_cell_volume 2115.835774
_symmetry_space_group_name_H-M "C 2/M"
_symmetry_group_IT_number 12
_symmetry_cell_setting 'monoclinic'
loop_
_space_group_symop_operation_xyz
x,y,z
-x,y,-z
-x,-y,-z
x,-y,z
1/2+x,1/2+y,z
1/2-x,1/2+y,-z
1/2-x,1/2-y,-z
1/2+x,1/2-y,z
loop_
_atom_site_type_symbol
_atom_site_label
_atom_site_fract_x
_atom_site_fract_y
_atom_site_fract_z
Si Si1 0.306964 0.613285 0.740327
Si Si2 0.647875 0.791106 0.057459
Si Si3 0.282864 0.390599 0.095753
Si Si4 0.048805 0.612515 0.599727
Si Si5 0.186692 0.792658 0.801384
O O1 0.500000 0.633129 0.500000
O O2 0.259795 0.500000 0.781505
O O3 0.207001 0.680811 0.804577
O O4 0.259472 0.640532 0.875279
O O5 0.497748 0.854784 0.266757
O O6 0.750000 0.750000 0.000000
O O7 0.589517 0.692841 0.084324
O O8 0.354250 0.500000 0.997113
O O9 0.260479 0.372732 0.203449
O O10 0.105031 0.376673 0.270371
O O11 0.111720 0.500000 0.527970
O O12 0.195101 0.685499 0.403339
O O13 0.000000 0.810139 0.000000
#
# Coordination Sequence:
#
# PCOD8089986 Si02
#       5
#     8   8   8   8   8
#     4  10  20  36  58  80 104 136 173 211 254 308
#     4   9  17  31  53  81 108 130 166 215 262 308
#     4   9  18  33  53  77 105 135 170 215 260 306
#     4  10  19  33  55  79 104 135 173 218 263 304
#     4  11  22  35  52  75 105 139 176 216 256 304
#
# _framework density 18.905059000000001
#
# number of rings (size 3 to 8) (size 9 to 14) (size 15 to 20)
#    0.000    2.200    0.000    5.400    0.000    4.400 
#    0.000    5.000    0.000    2.400    0.000    0.000 
#    0.000    0.000    0.000    0.000    0.000    0.000 
#
# Total GULP energy -247901.008110 kJ/mol
# GULP energy per Si atom -12395.050406 kJ/mol
# Density = 1.886203 g / cm^3
# Si number density = 18.905059 Si / 1000 Ang^3
#
#
#
# Elastic Constant Matrix: (Units=GPa)
#
#
# Indices 1 2 3 4 5 6 
#
# 1 37.7362 37.8784 57.0985 0.0017 16.6488 0.0034
# 2 37.8784 141.7718 54.8158 0.0100 10.6506 -0.0147
# 3 57.0985 54.8158 120.2123 0.0097 28.5582 -0.0177
# 4 0.0017 0.0100 0.0097 22.2076 -0.0072 7.3168
# 5 16.6488 10.6506 28.5582 -0.0072 30.5237 0.0085
# 6 0.0034 -0.0147 -0.0177 7.3168 0.0085 19.8137
#
#
#
# Elastic Compliance Matrix: (Units=1/GPa)
#
#
# Indices 1 2 3 4 5 6 
#
# 1 0.111756 -0.011651 -0.044043 0.000035 -0.015683 -0.000073
# 2 -0.011651 0.009796 0.000475 -0.000007 0.002492 0.000011
# 3 -0.044043 0.000475 0.030028 -0.000027 -0.004238 0.000046
# 4 0.000035 -0.000007 -0.000027 0.051267 0.000025 -0.018932
# 5 -0.015683 0.002492 -0.004238 0.000025 0.044411 -0.000028
# 6 -0.000073 0.000011 0.000046 -0.018932 -0.000028 0.057461
#
#
# Mechanical properties :
#
#
# Convention : Reuss Voigt Hill
#
# Bulk Modulus (GPa) = 24.30647 66.58953 45.44800
# Shear Modulus (GPa) = 11.65853 24.50418 18.08136
#
# Velocity S-wave (km/s) = 2.48602 3.60414 3.09597
# Velocity P-wave (km/s) = 4.59624 7.25392 6.07226
#
# Compressibility (1/GPa) = 0.04114131
#
# Stress axis : x y z
#
# Youngs Moduli (GPa) = 8.94810 102.08730 33.30212
#
# Poissons Ratio (x) = 1.18946 1.46672
# Poissons Ratio (y) = 0.10426 -0.01583
# Poissons Ratio (z) = 0.39410 -0.04853
#
# Static dielectric constant tensor:
#      x y z
#    x 3.415790 0.000000 0.504990 
#    y 0.000000 3.869130 0.000000 
#    z 0.504990 0.000000 3.483400 
# 
# 
# High freq. dielectric constant tensor:
#      x y z
#    x 1.711630 0.000000 0.032950 
#    y 0.000000 1.752280 0.000000 
#    z 0.032950 0.000000 1.715720 
# 
# From -- ./inp_files/72337.got.cif
#   From: 2010.06.25/outbox.cif.g09.slc.cpg/sg12_37_cif.got.tgz:72337.got - 2010.06.28 00:19:55.
