data_PCOD8089887
_publ_section_title
;
Structure prediction by ZEFSAII (Michael W. Deem and Ramdas Pophale) SiO2 
 PCOD8089887
Probable space group: C 2/M
;
_chemical_formula_sum "Si O2"
_cell_formula_units_Z 56
_cell_length_a 15.840904
_cell_length_b 17.946972
_cell_length_c 10.909648
_cell_angle_alpha 90.000000
_cell_angle_beta 68.188298
_cell_angle_gamma 90.000000
_cell_volume 2879.530457
_symmetry_space_group_name_H-M "C 2/M"
_symmetry_group_IT_number 12
_symmetry_cell_setting 'monoclinic'
loop_
_space_group_symop_operation_xyz
x,y,z
-x,y,-z
-x,-y,-z
x,-y,z
1/2+x,1/2+y,z
1/2-x,1/2+y,-z
1/2-x,1/2-y,-z
1/2+x,1/2-y,z
loop_
_atom_site_type_symbol
_atom_site_label
_atom_site_fract_x
_atom_site_fract_y
_atom_site_fract_z
Si Si1 0.634379 0.272223 0.353118
Si Si2 0.099814 0.915654 0.988661
Si Si3 0.364562 0.873941 0.045577
Si Si4 0.668334 0.278460 0.817736
Si Si5 0.050394 0.731211 0.655638
Si Si6 0.331222 0.417825 0.791385
Si Si7 0.018067 0.583749 0.792611
O O1 0.727369 0.228713 0.279397
O O2 0.604073 0.254414 0.506009
O O3 0.555983 0.251821 0.297896
O O4 0.653540 0.360537 0.327973
O O5 0.166021 0.858131 0.884769
O O6 0.128473 0.000000 0.937170
O O7 0.097946 0.905688 0.136588
O O8 0.000000 0.895515 0.000000
O O9 0.359924 0.785094 0.069765
O O10 0.265281 0.908448 0.089106
O O11 0.414075 0.915644 0.129827
O O12 0.418143 0.889837 0.890917
O O13 0.598308 0.273925 0.741904
O O14 0.055201 0.641440 0.670506
O O15 0.340553 0.500000 0.728324
O O16 0.014440 0.500000 0.739570
#
# Coordination Sequence:
#
# PCOD8089887 Si02
#       7
#     8   8   8   8   8   8   8
#     4  10  22  39  57  81 109 150 199 229 268 336
#     4  10  22  36  53  83 118 147 181 229 286 336
#     4   9  19  31  55  87 112 138 180 225 282 343
#     4  10  21  36  60  82 112 147 187 229 287 333
#     4  10  22  39  56  79 113 150 191 238 267 325
#     4  10  20  35  57  82 111 141 180 239 284 324
#     4  10  19  33  54  82 115 145 175 221 283 336
#
# _framework density 19.447614999999999
#
# number of rings (size 3 to 8) (size 9 to 14) (size 15 to 20)
#    0.000    2.143    0.000    3.000    8.000    1.143 
#    0.000    4.286    0.000    0.000    0.000    0.000 
#    0.000    0.000    0.000    0.000    0.000    0.000 
#
# Total GULP energy -347160.341057 kJ/mol
# GULP energy per Si atom -12398.583609 kJ/mol
# Density = 1.940335 g / cm^3
# Si number density = 19.447615 Si / 1000 Ang^3
#
#
#
# Elastic Constant Matrix: (Units=GPa)
#
#
# Indices 1 2 3 4 5 6 
#
# 1 77.0140 22.0531 18.2913 0.0000 -8.2437 0.0000
# 2 22.0531 149.8113 67.3808 0.0000 -4.5740 0.0000
# 3 18.2913 67.3808 79.5521 0.0000 -2.1430 0.0000
# 4 0.0000 0.0000 0.0000 23.0520 0.0000 2.5652
# 5 -8.2437 -4.5740 -2.1430 0.0000 16.7387 0.0000
# 6 0.0000 0.0000 0.0000 2.5652 0.0000 16.5262
#
#
#
# Elastic Compliance Matrix: (Units=1/GPa)
#
#
# Indices 1 2 3 4 5 6 
#
# 1 0.014513 -0.000830 -0.002456 0.000000 0.006606 0.000000
# 2 -0.000830 0.010884 -0.008990 0.000000 0.001414 0.000000
# 3 -0.002456 -0.008990 0.020722 0.000000 -0.001013 0.000000
# 4 0.000000 0.000000 0.000000 0.044143 0.000000 -0.006852
# 5 0.006606 0.001414 -0.001013 0.000000 0.063252 0.000000
# 6 0.000000 0.000000 0.000000 -0.006852 0.000000 0.061574
#
#
# Mechanical properties :
#
#
# Convention : Reuss Voigt Hill
#
# Bulk Modulus (GPa) = 46.36625 57.98086 52.17355
# Shear Modulus (GPa) = 20.25710 24.50684 22.38197
#
# Velocity S-wave (km/s) = 3.23092 3.55371 3.39615
# Velocity P-wave (km/s) = 6.14913 6.83498 6.50111
#
# Compressibility (1/GPa) = 0.02156741
#
# Stress axis : x y z
#
# Youngs Moduli (GPa) = 68.90474 91.88071 48.25804
#
# Poissons Ratio (x) = 0.07627 0.11852
# Poissons Ratio (y) = 0.05720 0.43382
# Poissons Ratio (z) = 0.16922 0.82597
#
# Static dielectric constant tensor:
#      x y z
#    x 3.782140 0.000000 -0.035780 
#    y 0.000000 3.618650 0.000000 
#    z -0.035780 0.000000 3.182760 
# 
# 
# High freq. dielectric constant tensor:
#      x y z
#    x 1.773320 0.000000 -0.003230 
#    y 0.000000 1.763990 0.000000 
#    z -0.003230 0.000000 1.722900 
# 
# From -- ./inp_files/145461.got.cif
#   From: 2010.06.25/outbox.cif.g09.slc.cpg/sg12_73_cif.got.tgz:145461.got - 2010.06.28 00:19:55.
