data_PCOD8089541
_publ_section_title
;
Structure prediction by ZEFSAII (Michael W. Deem and Ramdas Pophale) SiO2 
 PCOD8089541
Probable space group: C 2/M
;
_chemical_formula_sum "Si O2"
_cell_formula_units_Z 64
_cell_length_a 21.626623
_cell_length_b 25.729768
_cell_length_c 18.182943
_cell_angle_alpha 90.000000
_cell_angle_beta 161.384260
_cell_angle_gamma 90.000000
_cell_volume 3229.820542
_symmetry_space_group_name_H-M "C 2/M"
_symmetry_group_IT_number 12
_symmetry_cell_setting 'monoclinic'
loop_
_space_group_symop_operation_xyz
x,y,z
-x,y,-z
-x,-y,-z
x,-y,z
1/2+x,1/2+y,z
1/2-x,1/2+y,-z
1/2-x,1/2-y,-z
1/2+x,1/2-y,z
loop_
_atom_site_type_symbol
_atom_site_label
_atom_site_fract_x
_atom_site_fract_y
_atom_site_fract_z
Si Si1 0.299626 0.861604 0.076982
Si Si2 0.762373 0.308275 0.626967
Si Si3 0.412699 0.884298 0.980177
Si Si4 0.457051 0.939679 0.734961
Si Si5 0.601922 0.671093 0.708601
Si Si6 0.445676 0.298977 0.857432
Si Si7 0.611439 0.631634 0.329766
Si Si8 0.373556 0.789217 0.289518
O O1 0.432724 0.910637 0.206777
O O2 0.414162 0.823129 0.261613
O O3 0.246887 0.832591 0.941487
O O4 0.108544 0.884178 0.900844
O O5 0.620033 0.343419 0.519172
O O6 0.787965 0.247744 0.677230
O O7 0.677765 0.316588 0.449901
O O8 0.974802 0.332210 0.871081
O O9 0.444226 0.930666 0.073907
O O10 0.500000 0.903154 0.000000
O O11 0.187511 0.863668 0.736619
O O12 0.238168 0.918585 0.491944
O O13 0.456250 0.000000 0.715654
O O14 0.560091 0.730571 0.643699
O O15 0.358799 0.350446 0.720942
O O16 0.500000 0.315069 0.000000
O O17 0.643480 0.285265 0.039369
O O18 0.500000 0.813304 0.500000
#
# Coordination Sequence:
#
# PCOD8089541 Si02
#       8
#     8   8   8   8   8   8   8   8
#     4   9  21  39  55  82 113 146 188 235 279 333
#     4  10  19  33  53  79 116 156 188 216 259 331
#     4  10  21  36  53  83 122 147 184 229 273 332
#     4  10  22  40  64  83 100 144 197 243 295 333
#     4  10  20  33  54  78 116 160 187 213 267 329
#     4  11  21  33  50  82 119 154 183 223 275 329
#     4   9  21  37  56  82 110 144 185 238 278 333
#     4  11  22  32  51  85 119 157 185 220 270 333
#
# _framework density 19.815342000000001
#
# number of rings (size 3 to 8) (size 9 to 14) (size 15 to 20)
#    0.000    2.000    1.250    1.875    5.250    0.750 
#    0.000    0.000    0.000    0.750    0.000    7.000 
#    0.000    0.000    0.000    0.000    0.000    0.000 
#
# Total GULP energy -396468.327074 kJ/mol
# GULP energy per Si atom -12389.635221 kJ/mol
# Density = 1.977024 g / cm^3
# Si number density = 19.815342 Si / 1000 Ang^3
#
#
#
# Elastic Constant Matrix: (Units=GPa)
#
#
# Indices 1 2 3 4 5 6 
#
# 1 114.4935 39.8374 28.2456 0.0004 -9.2979 0.0004
# 2 39.8374 86.0724 21.6395 0.0004 -5.2058 -0.0002
# 3 28.2456 21.6395 58.5857 -0.0024 12.6728 0.0005
# 4 0.0004 0.0004 -0.0024 12.4512 -0.0002 4.3631
# 5 -9.2979 -5.2058 12.6728 -0.0002 35.2409 0.0015
# 6 0.0004 -0.0002 0.0005 4.3631 0.0015 8.7547
#
#
#
# Elastic Compliance Matrix: (Units=1/GPa)
#
#
# Indices 1 2 3 4 5 6 
#
# 1 0.011705 -0.003854 -0.005167 -0.000001 0.004377 -0.000001
# 2 -0.003854 0.014589 -0.004096 -0.000001 0.002611 0.000001
# 3 -0.005167 -0.004096 0.023312 0.000005 -0.010351 -0.000002
# 4 -0.000001 -0.000001 0.000005 0.097306 0.000000 -0.048494
# 5 0.004377 0.002611 -0.010351 0.000000 0.033639 -0.000005
# 6 -0.000001 0.000001 -0.000002 -0.048494 -0.000005 0.138392
#
#
# Mechanical properties :
#
#
# Convention : Reuss Voigt Hill
#
# Bulk Modulus (GPa) = 42.78225 48.73296 45.75760
# Shear Modulus (GPa) = 14.16562 22.58465 18.37514
#
# Velocity S-wave (km/s) = 2.67663 3.37969 3.04849
# Velocity P-wave (km/s) = 5.58478 6.31480 5.96098
#
# Compressibility (1/GPa) = 0.02337418
#
# Stress axis : x y z
#
# Youngs Moduli (GPa) = 85.43283 68.54275 42.89675
#
# Poissons Ratio (x) = 0.26416 0.22163
# Poissons Ratio (y) = 0.32925 0.17569
# Poissons Ratio (z) = 0.44140 0.28072
#
# Static dielectric constant tensor:
#      x y z
#    x 3.921290 0.000000 0.135040 
#    y 0.000000 3.011280 0.000000 
#    z 0.135040 0.000000 3.850970 
# 
# 
# High freq. dielectric constant tensor:
#      x y z
#    x 1.787930 0.000000 0.012310 
#    y 0.000000 1.705660 0.000000 
#    z 0.012310 0.000000 1.788660 
# 
# From -- ./inp_files/286691.got.cif
#   From: 2010.06.25/outbox.cif.g09.slc.cpg/sg12_144_cif.got.tgz:286691.got - 2010.06.28 00:19:55.
