data_PCOD8089852
_publ_section_title
;
Structure prediction by ZEFSAII (Michael W. Deem and Ramdas Pophale) SiO2 
 PCOD8089852
Probable space group: C 2/M
;
_chemical_formula_sum "Si O2"
_cell_formula_units_Z 56
_cell_length_a 14.979301
_cell_length_b 17.295377
_cell_length_c 17.720914
_cell_angle_alpha 90.000000
_cell_angle_beta 140.961625
_cell_angle_gamma 90.000000
_cell_volume 2891.601628
_symmetry_space_group_name_H-M "C 2/M"
_symmetry_group_IT_number 12
_symmetry_cell_setting 'monoclinic'
loop_
_space_group_symop_operation_xyz
x,y,z
-x,y,-z
-x,-y,-z
x,-y,z
1/2+x,1/2+y,z
1/2-x,1/2+y,-z
1/2-x,1/2-y,-z
1/2+x,1/2-y,z
loop_
_atom_site_type_symbol
_atom_site_label
_atom_site_fract_x
_atom_site_fract_y
_atom_site_fract_z
Si Si1 0.377481 0.411680 0.070373
Si Si2 0.396693 0.325095 0.861811
Si Si3 0.334148 0.828549 0.178809
Si Si4 0.906682 0.588462 0.710394
Si Si5 0.398012 0.848945 0.862139
Si Si6 0.873397 0.850394 0.228221
Si Si7 0.583503 0.408689 0.479843
O O1 0.358157 0.500000 0.031010
O O2 0.538537 0.383403 0.157274
O O3 0.359583 0.406723 0.147994
O O4 0.260221 0.358668 0.952892
O O5 0.241355 0.350865 0.790842
O O6 0.392293 0.238493 0.826163
O O7 0.500000 0.325313 0.000000
O O8 0.490255 0.864624 0.277713
O O9 0.347494 0.736311 0.181928
O O10 0.924432 0.500000 0.699698
O O11 0.950267 0.598968 0.826814
O O12 0.746466 0.617284 0.593847
O O13 0.243521 0.876169 0.787430
O O14 0.500000 0.858805 0.000000
O O15 0.023448 0.862414 0.368161
O O16 0.500000 0.383115 0.500000
O O17 0.568137 0.500000 0.456142
#
# Coordination Sequence:
#
# PCOD8089852 Si02
#       7
#     8   8   8   8   8   8   8
#     4  11  21  34  57  86 116 150 186 225 273 332
#     4   8  18  35  53  76 109 150 184 220 268 324
#     4  10  21  36  55  83 116 145 185 230 280 329
#     4  11  22  35  55  80 112 148 182 233 284 328
#     4  10  19  33  54  81 113 145 179 225 284 337
#     4  11  21  36  59  82 112 151 187 228 274 331
#     4  10  21  39  58  80 111 147 189 230 275 333
#
# _framework density 19.366430000000001
#
# number of rings (size 3 to 8) (size 9 to 14) (size 15 to 20)
#    0.000    1.857    1.429    3.857    0.000    4.571 
#    0.000    0.000    0.000    0.000    0.000    3.000 
#    0.000    0.000    0.000    0.000    0.000    0.000 
#
# Total GULP energy -347193.338371 kJ/mol
# GULP energy per Si atom -12399.762085 kJ/mol
# Density = 1.932235 g / cm^3
# Si number density = 19.366430 Si / 1000 Ang^3
#
#
#
# Elastic Constant Matrix: (Units=GPa)
#
#
# Indices 1 2 3 4 5 6 
#
# 1 80.8947 31.1912 23.4331 0.0001 27.3822 0.0000
# 2 31.1912 58.7675 28.6388 0.0002 2.4316 -0.0001
# 3 23.4331 28.6388 88.5310 0.0002 9.5397 -0.0002
# 4 0.0001 0.0002 0.0002 24.8301 0.0002 7.0089
# 5 27.3822 2.4316 9.5397 0.0002 31.9669 0.0000
# 6 0.0000 -0.0001 -0.0002 7.0089 0.0000 18.5083
#
#
#
# Elastic Compliance Matrix: (Units=1/GPa)
#
#
# Indices 1 2 3 4 5 6 
#
# 1 0.023283 -0.011355 -0.000448 0.000000 -0.018946 0.000000
# 2 -0.011355 0.025745 -0.006364 0.000000 0.009668 0.000000
# 3 -0.000448 -0.006364 0.013824 0.000000 -0.003258 0.000000
# 4 0.000000 0.000000 0.000000 0.045094 0.000000 -0.017077
# 5 -0.018946 0.009668 -0.003258 0.000000 0.047748 0.000000
# 6 0.000000 0.000000 0.000000 -0.017077 0.000000 0.060497
#
#
# Mechanical properties :
#
#
# Convention : Reuss Voigt Hill
#
# Bulk Modulus (GPa) = 37.71233 43.85772 40.78502
# Shear Modulus (GPa) = 19.13040 24.72306 21.92673
#
# Velocity S-wave (km/s) = 3.14636 3.57682 3.36847
# Velocity P-wave (km/s) = 5.71968 6.30505 6.01948
#
# Compressibility (1/GPa) = 0.02651653
#
# Stress axis : x y z
#
# Youngs Moduli (GPa) = 42.94957 38.84308 72.33903
#
# Poissons Ratio (x) = 0.44108 0.03239
# Poissons Ratio (y) = 0.48771 0.46038
# Poissons Ratio (z) = 0.01923 0.24721
#
# Static dielectric constant tensor:
#      x y z
#    x 3.962460 0.000000 0.326520 
#    y 0.000000 3.423860 0.000000 
#    z 0.326520 0.000000 3.345160 
# 
# 
# High freq. dielectric constant tensor:
#      x y z
#    x 1.764150 0.000000 0.014920 
#    y 0.000000 1.745380 0.000000 
#    z 0.014920 0.000000 1.726960 
# 
# From -- ./inp_files/143754.got.cif
#   From: 2010.06.25/outbox.cif.g09.slc.cpg/sg12_72_cif.got.tgz:143754.got - 2010.06.28 00:19:55.
