data_PCOD8089630
_publ_section_title
;
Structure prediction by ZEFSAII (Michael W. Deem and Ramdas Pophale) SiO2 
 PCOD8089630
Probable space group: C 2/M
;
_chemical_formula_sum "Si O2"
_cell_formula_units_Z 56
_cell_length_a 18.202422
_cell_length_b 8.840715
_cell_length_c 29.162957
_cell_angle_alpha 90.000000
_cell_angle_beta 38.694920
_cell_angle_gamma 90.000000
_cell_volume 2933.922642
_symmetry_space_group_name_H-M "C 2/M"
_symmetry_group_IT_number 12
_symmetry_cell_setting 'monoclinic'
loop_
_space_group_symop_operation_xyz
x,y,z
-x,y,-z
-x,-y,-z
x,-y,z
1/2+x,1/2+y,z
1/2-x,1/2+y,-z
1/2-x,1/2-y,-z
1/2+x,1/2-y,z
loop_
_atom_site_type_symbol
_atom_site_label
_atom_site_fract_x
_atom_site_fract_y
_atom_site_fract_z
Si Si1 0.775761 0.678574 0.710473
Si Si2 0.205463 0.678336 0.568064
Si Si3 0.474969 0.179252 0.152247
Si Si4 0.635368 0.675709 0.424303
Si Si5 0.838247 0.822591 0.992645
Si Si6 0.141375 0.677187 0.152573
Si Si7 0.442561 0.820173 0.710337
O O1 0.756414 0.500000 0.722377
O O2 0.655499 0.761162 0.780266
O O3 0.823121 0.722864 0.637853
O O4 0.869490 0.736700 0.702241
O O5 0.204921 0.500000 0.561925
O O6 0.250000 0.750000 0.500000
O O7 0.290687 0.727425 0.567659
O O8 0.075317 0.740585 0.642028
O O9 0.534657 0.244593 0.076301
O O10 0.549536 0.240693 0.159538
O O11 0.474653 0.000000 0.149487
O O12 0.500000 0.709228 0.500000
O O13 0.657645 0.500000 0.401780
O O14 0.850382 0.000000 0.977693
O O15 0.750000 0.750000 0.000000
O O16 0.777778 0.790826 0.071838
O O17 0.118212 0.500000 0.166479
O O18 0.115096 0.749011 0.215158
O O19 0.441561 0.000000 0.712654
#
# Coordination Sequence:
#
# PCOD8089630 Si02
#       7
#     8   8   8   8   8   8   8
#     4  11  22  34  52  77 104 135 173 219 262 304
#     4  10  20  35  56  79 105 138 173 211 254 304
#     4  10  19  33  54  76 103 139 175 216 265 316
#     4  10  21  37  57  80 107 139 172 208 258 318
#     4   9  16  28  50  79 106 134 173 219 265 314
#     4   8  15  30  53  76  98 131 173 213 255 307
#     4   9  18  33  51  73 101 134 173 213 256 306
#
# _framework density 19.087074000000001
#
# number of rings (size 3 to 8) (size 9 to 14) (size 15 to 20)
#    0.000    2.429    0.000    3.857    0.000    3.143 
#    0.000    1.429    0.000   16.286    0.000    0.000 
#    0.000    0.000    0.000    0.000    0.000    0.000 
#
# Total GULP energy -347106.125855 kJ/mol
# GULP energy per Si atom -12396.647352 kJ/mol
# Density = 1.904363 g / cm^3
# Si number density = 19.087074 Si / 1000 Ang^3
#
#
#
# Elastic Constant Matrix: (Units=GPa)
#
#
# Indices 1 2 3 4 5 6 
#
# 1 128.8437 32.1144 79.8803 0.0002 2.7206 0.0003
# 2 32.1144 57.2924 45.4166 0.0004 -0.2437 -0.0006
# 3 79.8803 45.4166 176.0647 0.0001 6.2383 0.0003
# 4 0.0002 0.0004 0.0001 35.4786 0.0000 -0.3080
# 5 2.7206 -0.2437 6.2383 0.0000 31.3752 -0.0003
# 6 0.0003 -0.0006 0.0003 -0.3080 -0.0003 17.8747
#
#
#
# Elastic Compliance Matrix: (Units=1/GPa)
#
#
# Indices 1 2 3 4 5 6 
#
# 1 0.011149 -0.002821 -0.004326 0.000000 -0.000128 0.000000
# 2 -0.002821 0.022708 -0.004625 0.000000 0.001341 0.000001
# 3 -0.004326 -0.004625 0.008886 0.000000 -0.001428 0.000000
# 4 0.000000 0.000000 0.000000 0.028190 0.000000 0.000486
# 5 -0.000128 0.001341 -0.001428 0.000000 0.032178 0.000001
# 6 0.000000 0.000001 0.000000 0.000486 0.000001 0.055953
#
#
# Mechanical properties :
#
#
# Convention : Reuss Voigt Hill
#
# Bulk Modulus (GPa) = 52.08661 75.22480 63.65571
# Shear Modulus (GPa) = 26.45383 30.59834 28.52609
#
# Velocity S-wave (km/s) = 3.72688 4.00821 3.87010
# Velocity P-wave (km/s) = 6.77257 7.80499 7.30704
#
# Compressibility (1/GPa) = 0.01919879
#
# Stress axis : x y z
#
# Youngs Moduli (GPa) = 89.69175 44.03804 112.53322
#
# Poissons Ratio (x) = 0.12421 0.48685
# Poissons Ratio (y) = 0.25298 0.52050
# Poissons Ratio (z) = 0.38803 0.20369
#
# Static dielectric constant tensor:
#      x y z
#    x 3.554690 0.000000 0.043920 
#    y 0.000000 3.305870 0.000000 
#    z 0.043920 0.000000 4.048790 
# 
# 
# High freq. dielectric constant tensor:
#      x y z
#    x 1.727000 0.000000 -0.000980 
#    y 0.000000 1.717450 0.000000 
#    z -0.000980 0.000000 1.767500 
# 
# From -- ./inp_files/377664.got.cif
#   From: 2010.06.25/outbox.cif.g09.slc.cpg/sg12_189_cif.got.tgz:377664.got - 2010.06.28 00:19:55.
