data_PCOD8089452
_publ_section_title
;
Structure prediction by ZEFSAII (Michael W. Deem and Ramdas Pophale) SiO2 
 PCOD8089452
Probable space group: C 2/M
;
_chemical_formula_sum "Si O2"
_cell_formula_units_Z 64
_cell_length_a 30.225826
_cell_length_b 8.972435
_cell_length_c 14.959517
_cell_angle_alpha 90.000000
_cell_angle_beta 120.713539
_cell_angle_gamma 90.000000
_cell_volume 3487.939661
_symmetry_space_group_name_H-M "C 2/M"
_symmetry_group_IT_number 12
_symmetry_cell_setting 'monoclinic'
loop_
_space_group_symop_operation_xyz
x,y,z
-x,y,-z
-x,-y,-z
x,-y,z
1/2+x,1/2+y,z
1/2-x,1/2+y,-z
1/2-x,1/2-y,-z
1/2+x,1/2-y,z
loop_
_atom_site_type_symbol
_atom_site_label
_atom_site_fract_x
_atom_site_fract_y
_atom_site_fract_z
Si Si1 0.470240 0.176591 0.218183
Si Si2 0.114038 0.324754 0.001731
Si Si3 0.774278 0.673903 0.940917
Si Si4 0.629389 0.322740 0.555185
Si Si5 0.447789 0.824533 0.394296
Si Si6 0.913200 0.323210 0.665907
Si Si7 0.257931 0.676851 0.283113
Si Si8 0.851442 0.322339 0.773139
O O1 0.433636 0.245657 0.102923
O O2 0.453305 0.234181 0.298498
O O3 0.528209 0.224974 0.255470
O O4 0.465555 0.000000 0.214387
O O5 0.105842 0.500000 0.001251
O O6 0.165392 0.287916 0.999582
O O7 0.118921 0.260337 0.107867
O O8 0.764853 0.500000 0.940037
O O9 0.747029 0.736330 0.823353
O O10 0.750000 0.750000 0.000000
O O11 0.625773 0.500000 0.549800
O O12 0.599667 0.262725 0.611122
O O13 0.605095 0.256061 0.441800
O O14 0.688666 0.266449 0.619887
O O15 0.500000 0.784885 0.500000
O O16 0.436438 0.000000 0.387931
O O17 0.908122 0.500000 0.647396
O O18 0.879385 0.262250 0.713507
O O19 0.256405 0.500000 0.279162
O O20 0.208182 0.733107 0.288479
O O21 0.853285 0.500000 0.777147
#
# Coordination Sequence:
#
# PCOD8089452 Si02
#       8
#     8   8   8   8   8   8   8   8
#     4   9  17  29  47  74 105 129 154 198 252 294
#     4   8  15  28  47  74 101 126 157 196 245 298
#     4   9  17  30  48  69  96 127 161 198 239 288
#     4  11  22  34  50  72 100 135 172 204 239 294
#     4  10  19  34  52  70 102 136 160 203 255 289
#     4  10  19  33  53  76  99 127 165 208 251 292
#     4   8  17  33  48  69 102 133 160 201 249 287
#     4   8  15  30  52  73  98 130 163 202 249 297
#
# _framework density 18.348941
#
# number of rings (size 3 to 8) (size 9 to 14) (size 15 to 20)
#    0.000    2.875    1.250    1.875    1.750    1.250 
#    0.000    3.125    0.000    4.500    0.000    0.875 
#    0.000    0.000    0.000    0.000    0.000    0.000 
#
# Total GULP energy -396635.240468 kJ/mol
# GULP energy per Si atom -12394.851265 kJ/mol
# Density = 1.830718 g / cm^3
# Si number density = 18.348941 Si / 1000 Ang^3
#
#
#
# Elastic Constant Matrix: (Units=GPa)
#
#
# Indices 1 2 3 4 5 6 
#
# 1 135.6323 28.7546 40.7491 0.0000 -2.0019 0.0000
# 2 28.7546 21.8489 17.9714 0.0000 2.9765 0.0000
# 3 40.7491 17.9714 48.0075 0.0000 19.7035 0.0000
# 4 0.0000 0.0000 0.0000 13.8532 0.0000 -1.4696
# 5 -2.0019 2.9765 19.7035 0.0000 37.2708 0.0000
# 6 0.0000 0.0000 0.0000 -1.4696 0.0000 20.2962
#
#
#
# Elastic Compliance Matrix: (Units=1/GPa)
#
#
# Indices 1 2 3 4 5 6 
#
# 1 0.012324 -0.009101 -0.009736 0.000000 0.006536 0.000000
# 2 -0.009101 0.075886 -0.022981 0.000000 0.005600 0.000000
# 3 -0.009736 -0.022981 0.047455 0.000000 -0.023775 0.000000
# 4 0.000000 0.000000 0.000000 0.072744 0.000000 0.005267
# 5 0.006536 0.005600 -0.023775 0.000000 0.039303 0.000000
# 6 0.000000 0.000000 0.000000 0.005267 0.000000 0.049652
#
#
# Mechanical properties :
#
#
# Convention : Reuss Voigt Hill
#
# Bulk Modulus (GPa) = 19.22016 42.27096 30.74556
# Shear Modulus (GPa) = 12.55201 22.15163 17.35182
#
# Velocity S-wave (km/s) = 2.61832 3.47831 3.07849
# Velocity P-wave (km/s) = 4.43151 6.26249 5.42481
#
# Compressibility (1/GPa) = 0.05202871
#
# Stress axis : x y z
#
# Youngs Moduli (GPa) = 81.14292 13.17768 21.07273
#
# Poissons Ratio (x) = 0.11993 0.20517
# Poissons Ratio (y) = 0.73850 0.48426
# Poissons Ratio (z) = 0.79002 0.30283
#
# Static dielectric constant tensor:
#      x y z
#    x 3.747650 0.000000 0.112230 
#    y 0.000000 2.843660 0.000000 
#    z 0.112230 0.000000 3.518010 
# 
# 
# High freq. dielectric constant tensor:
#      x y z
#    x 1.722350 0.000000 0.001970 
#    y 0.000000 1.652820 0.000000 
#    z 0.001970 0.000000 1.721470 
# 
# From -- ./inp_files/249239.got.cif
#   From: 2010.06.25/outbox.cif.g09.slc.cpg/sg12_125_cif.got.tgz:249239.got - 2010.06.28 00:19:55.
