data_PCOD8089744
_publ_section_title
;
Structure prediction by ZEFSAII (Michael W. Deem and Ramdas Pophale) SiO2 
 PCOD8089744
Probable space group: C 2/M
;
_chemical_formula_sum "Si O2"
_cell_formula_units_Z 48
_cell_length_a 19.676766
_cell_length_b 14.530905
_cell_length_c 16.376927
_cell_angle_alpha 90.000000
_cell_angle_beta 34.196829
_cell_angle_gamma 90.000000
_cell_volume 2631.747204
_symmetry_space_group_name_H-M "C 2/M"
_symmetry_group_IT_number 12
_symmetry_cell_setting 'monoclinic'
loop_
_space_group_symop_operation_xyz
x,y,z
-x,y,-z
-x,-y,-z
x,-y,z
1/2+x,1/2+y,z
1/2-x,1/2+y,-z
1/2-x,1/2-y,-z
1/2+x,1/2-y,z
loop_
_atom_site_type_symbol
_atom_site_label
_atom_site_fract_x
_atom_site_fract_y
_atom_site_fract_z
Si Si1 0.450425 0.102742 0.468352
Si Si2 0.650195 0.392164 0.143070
Si Si3 0.063910 0.227152 0.707172
Si Si4 0.639901 0.606760 0.341975
Si Si5 0.224500 0.242186 0.396106
Si Si6 0.912529 0.397607 0.825265
O O1 0.500000 0.150837 0.500000
O O2 0.335321 0.159655 0.557244
O O3 0.564283 0.102521 0.294353
O O4 0.402909 0.000000 0.532097
O O5 0.623435 0.500000 0.164505
O O6 0.547476 0.343010 0.190932
O O7 0.656184 0.360499 0.231927
O O8 0.776903 0.363828 0.976519
O O9 0.155065 0.199074 0.543161
O O10 0.137856 0.228249 0.718844
O O11 0.012598 0.330408 0.761922
O O12 0.500000 0.618823 0.500000
O O13 0.680870 0.500000 0.312698
O O14 0.717719 0.671607 0.326050
O O15 0.932249 0.500000 0.843035
#
# Coordination Sequence:
#
# PCOD8089744 Si02
#       6
#     8   8   8   8   8   8
#     4   9  18  33  55  78  99 133 176 217 260 303
#     4  10  20  35  57  79 103 138 179 218 259 310
#     4  10  20  33  51  78 105 139 172 210 266 311
#     4  10  19  33  54  79 105 139 177 216 259 306
#     4  10  20  32  51  77 109 136 168 218 261 307
#     4   9  19  35  54  77 103 134 175 217 256 309
#
# _framework density 18.238833
#
# number of rings (size 3 to 8) (size 9 to 14) (size 15 to 20)
#    0.000    2.333    1.667    1.000    2.333    1.333 
#    0.000    4.167    0.000    3.000    0.000    4.667 
#    0.000    0.000    0.000    0.000    0.000    0.000 
#
# Total GULP energy -297365.439177 kJ/mol
# GULP energy per Si atom -12390.226632 kJ/mol
# Density = 1.819732 g / cm^3
# Si number density = 18.238833 Si / 1000 Ang^3
#
#
#
# Elastic Constant Matrix: (Units=GPa)
#
#
# Indices 1 2 3 4 5 6 
#
# 1 126.1674 50.3993 58.3536 0.0000 -20.1204 0.0000
# 2 50.3993 68.4567 39.8261 0.0000 -4.6760 0.0000
# 3 58.3536 39.8261 91.6641 0.0000 -11.8047 0.0000
# 4 0.0000 0.0000 0.0000 19.9494 0.0000 1.8266
# 5 -20.1204 -4.6760 -11.8047 0.0000 19.5435 0.0000
# 6 0.0000 0.0000 0.0000 1.8266 0.0000 19.3559
#
#
#
# Elastic Compliance Matrix: (Units=1/GPa)
#
#
# Indices 1 2 3 4 5 6 
#
# 1 0.014787 -0.007334 -0.004872 0.000000 0.010527 0.000000
# 2 -0.007334 0.023190 -0.006143 0.000000 -0.005712 0.000000
# 3 -0.004872 -0.006143 0.017181 0.000000 0.003892 0.000000
# 4 0.000000 0.000000 0.000000 0.050564 0.000000 -0.004772
# 5 0.010527 -0.005712 0.003892 0.000000 0.062990 0.000000
# 6 0.000000 0.000000 0.000000 -0.004772 0.000000 0.052114
#
#
# Mechanical properties :
#
#
# Convention : Reuss Voigt Hill
#
# Bulk Modulus (GPa) = 54.16358 64.82736 59.49547
# Shear Modulus (GPa) = 18.96258 20.95035 19.95647
#
# Velocity S-wave (km/s) = 3.22791 3.39288 3.31142
# Velocity P-wave (km/s) = 6.60710 7.13930 6.87835
#
# Compressibility (1/GPa) = 0.01846259
#
# Stress axis : x y z
#
# Youngs Moduli (GPa) = 67.62492 43.12124 58.20383
#
# Poissons Ratio (x) = 0.31623 0.28356
# Poissons Ratio (y) = 0.49593 0.35753
# Poissons Ratio (z) = 0.32946 0.26489
#
# Static dielectric constant tensor:
#      x y z
#    x 3.446420 0.000000 0.083360 
#    y 0.000000 3.530440 0.000000 
#    z 0.083360 0.000000 3.313330 
# 
# 
# High freq. dielectric constant tensor:
#      x y z
#    x 1.694110 0.000000 0.000080 
#    y 0.000000 1.716140 0.000000 
#    z 0.000080 0.000000 1.692460 
# 
# From -- ./inp_files/166522.got.cif
#   From: 2010.06.25/outbox.cif.g09.slc.cpg/sg12_84_cif.got.tgz:166522.got - 2010.06.28 00:19:55.
