data_PCOD8089119
_publ_section_title
;
Structure prediction by ZEFSAII (Michael W. Deem and Ramdas Pophale) SiO2 
 PCOD8089119
Probable space group: C 2/M
;
_chemical_formula_sum "Si O2"
_cell_formula_units_Z 48
_cell_length_a 24.282502
_cell_length_b 8.524702
_cell_length_c 19.021804
_cell_angle_alpha 90.000000
_cell_angle_beta 140.912641
_cell_angle_gamma 90.000000
_cell_volume 2482.633344
_symmetry_space_group_name_H-M "C 2/M"
_symmetry_group_IT_number 12
_symmetry_cell_setting 'monoclinic'
loop_
_space_group_symop_operation_xyz
x,y,z
-x,y,-z
-x,-y,-z
x,-y,z
1/2+x,1/2+y,z
1/2-x,1/2+y,-z
1/2-x,1/2-y,-z
1/2+x,1/2-y,z
loop_
_atom_site_type_symbol
_atom_site_label
_atom_site_fract_x
_atom_site_fract_y
_atom_site_fract_z
Si Si1 0.742447 0.186213 0.163204
Si Si2 0.905860 0.315530 0.566899
Si Si3 0.407896 0.684606 0.239375
Si Si4 0.896624 0.315086 0.715344
Si Si5 0.907676 0.685426 0.088143
Si Si6 0.749402 0.314414 0.671640
O O1 0.829714 0.245467 0.211255
O O2 0.739353 0.255656 0.238957
O O3 0.742132 0.000000 0.164868
O O4 0.657082 0.245445 0.036738
O O5 0.891957 0.500000 0.546906
O O6 0.881875 0.252674 0.621361
O O7 0.845450 0.229322 0.450984
O O8 0.005853 0.274260 0.649234
O O9 0.423210 0.500000 0.261735
O O10 0.382539 0.726324 0.134634
O O11 0.885394 0.500000 0.703535
O O12 0.824922 0.240082 0.696592
O O13 0.993831 0.269906 0.837674
O O14 0.899484 0.500000 0.094002
O O15 0.758682 0.500000 0.683328
#
# Coordination Sequence:
#
# PCOD8089119 Si02
#       6
#     8   8   8   8   8   8
#     4   9  19  32  50  75 104 132 163 200 243 290
#     4  10  20  35  52  74  99 128 165 209 250 289
#     4  10  19  33  52  75  98 129 168 206 243 288
#     4   8  16  30  52  76  98 125 163 203 244 288
#     4   9  17  33  53  76 102 129 161 203 244 288
#     4  10  19  33  51  74 101 133 165 199 243 295
#
# _framework density 19.334309000000001
#
# number of rings (size 3 to 8) (size 9 to 14) (size 15 to 20)
#    0.000    2.667    0.000    3.000    0.000    1.333 
#    0.000   13.333    0.000    0.000    0.000    5.833 
#    0.000    0.000    0.000    0.000    0.000    0.000 
#
# Total GULP energy -297581.239040 kJ/mol
# GULP energy per Si atom -12399.218293 kJ/mol
# Density = 1.929030 g / cm^3
# Si number density = 19.334309 Si / 1000 Ang^3
#
#
#
# Elastic Constant Matrix: (Units=GPa)
#
#
# Indices 1 2 3 4 5 6 
#
# 1 101.2712 13.1211 76.7702 0.0000 -3.0045 0.0000
# 2 13.1211 13.9119 2.0250 0.0000 -0.7212 0.0000
# 3 76.7702 2.0250 144.9345 0.0000 -5.8386 0.0000
# 4 0.0000 0.0000 0.0000 23.4855 0.0000 -0.7433
# 5 -3.0045 -0.7212 -5.8386 0.0000 24.2897 0.0000
# 6 0.0000 0.0000 0.0000 -0.7433 0.0000 19.4211
#
#
#
# Elastic Compliance Matrix: (Units=1/GPa)
#
#
# Indices 1 2 3 4 5 6 
#
# 1 0.019947 -0.017335 -0.010345 0.000000 -0.000534 0.000000
# 2 -0.017335 0.087181 0.008060 0.000000 0.002382 0.000000
# 3 -0.010345 0.008060 0.012344 0.000000 0.001927 0.000000
# 4 0.000000 0.000000 0.000000 0.042631 0.000000 0.001632
# 5 -0.000534 0.002382 0.001927 0.000000 0.041638 0.000000
# 6 0.000000 0.000000 0.000000 0.001632 0.000000 0.051553
#
#
# Mechanical properties :
#
#
# Convention : Reuss Voigt Hill
#
# Bulk Modulus (GPa) = 12.46382 49.32779 30.89580
# Shear Modulus (GPa) = 15.56291 24.65266 20.10779
#
# Velocity S-wave (km/s) = 2.84022 3.57469 3.22841
# Velocity P-wave (km/s) = 4.14925 6.52735 5.46912
#
# Compressibility (1/GPa) = 0.08023222
#
# Stress axis : x y z
#
# Youngs Moduli (GPa) = 50.13370 11.47043 81.00946
#
# Poissons Ratio (x) = 0.19884 0.83803
# Poissons Ratio (y) = 0.86905 -0.65293
# Poissons Ratio (z) = 0.51863 -0.09245
#
# Static dielectric constant tensor:
#      x y z
#    x 3.869720 0.000000 0.007620 
#    y 0.000000 3.133260 0.000000 
#    z 0.007620 0.000000 3.653460 
# 
# 
# High freq. dielectric constant tensor:
#      x y z
#    x 1.753540 0.000000 0.007040 
#    y 0.000000 1.716350 0.000000 
#    z 0.007040 0.000000 1.761810 
# 
# From -- ./inp_files/239404.got.cif
#   From: 2010.06.25/outbox.cif.g09.slc.cpg/sg12_120_cif.got.tgz:239404.got - 2010.06.28 00:19:55.
