data_PCOD8089546
_publ_section_title
;
Structure prediction by ZEFSAII (Michael W. Deem and Ramdas Pophale) SiO2 
 PCOD8089546
Probable space group: C 2/M
;
_chemical_formula_sum "Si O2"
_cell_formula_units_Z 64
_cell_length_a 20.777491
_cell_length_b 23.620792
_cell_length_c 8.493799
_cell_angle_alpha 90.000000
_cell_angle_beta 127.401199
_cell_angle_gamma 90.000000
_cell_volume 3311.538568
_symmetry_space_group_name_H-M "C 2/M"
_symmetry_group_IT_number 12
_symmetry_cell_setting 'monoclinic'
loop_
_space_group_symop_operation_xyz
x,y,z
-x,y,-z
-x,-y,-z
x,-y,z
1/2+x,1/2+y,z
1/2-x,1/2+y,-z
1/2-x,1/2-y,-z
1/2+x,1/2-y,z
loop_
_atom_site_type_symbol
_atom_site_label
_atom_site_fract_x
_atom_site_fract_y
_atom_site_fract_z
Si Si1 0.999210 0.437838 0.311972
Si Si2 0.214294 0.159865 0.800069
Si Si3 0.162794 0.612781 0.581627
Si Si4 0.420494 0.641455 0.968041
Si Si5 0.194771 0.064705 0.016179
Si Si6 0.888581 0.662615 0.178654
Si Si7 0.278905 0.685004 0.546399
Si Si8 0.934975 0.782773 0.276778
O O1 0.976683 0.500000 0.208781
O O2 0.089517 0.421039 0.388750
O O3 0.000000 0.440697 0.500000
O O4 0.932392 0.391406 0.161523
O O5 0.198516 0.098602 0.856497
O O6 0.199365 0.159645 0.591849
O O7 0.156020 0.205665 0.795927
O O8 0.306729 0.177491 0.965276
O O9 0.126882 0.655109 0.658604
O O10 0.206876 0.648156 0.512628
O O11 0.221892 0.569798 0.762218
O O12 0.359591 0.677737 0.769239
O O13 0.500000 0.617821 0.000000
O O14 0.376986 0.587554 0.980483
O O15 0.454211 0.683480 0.148784
O O16 0.178036 0.000000 0.947993
O O17 0.946625 0.716822 0.252603
O O18 0.250000 0.750000 0.500000
O O19 0.000000 0.803499 0.500000
#
# Coordination Sequence:
#
# PCOD8089546 Si02
#       8
#     8   8   8   8   8   8   8   8
#     4   9  17  30  51  78 106 138 181 227 264 310
#     4  10  21  35  54  80 112 143 182 226 273 331
#     4   9  18  32  54  81 109 144 189 229 270 321
#     4  10  22  37  56  84 112 141 181 230 282 332
#     4   9  19  37  59  79 106 146 187 230 278 331
#     4  10  19  33  53  80 107 145 187 221 269 325
#     4  11  21  36  56  81 115 150 181 224 278 334
#     4  11  20  34  56  80 110 144 180 226 276 333
#
# _framework density 19.326363000000001
#
# number of rings (size 3 to 8) (size 9 to 14) (size 15 to 20)
#    0.000    2.125    0.000    4.875    0.000    4.250 
#    0.000    3.750    0.000   13.500    0.000    0.000 
#    0.000    0.000    0.000    0.000    0.000    0.000 
#
# Total GULP energy -396782.621047 kJ/mol
# GULP energy per Si atom -12399.456908 kJ/mol
# Density = 1.928238 g / cm^3
# Si number density = 19.326363 Si / 1000 Ang^3
#
#
#
# Elastic Constant Matrix: (Units=GPa)
#
#
# Indices 1 2 3 4 5 6 
#
# 1 105.0948 43.0412 34.9454 0.0000 5.8318 0.0000
# 2 43.0412 129.2779 39.5441 0.0000 0.3418 0.0000
# 3 34.9454 39.5441 91.6889 0.0000 2.6702 0.0000
# 4 0.0000 0.0000 0.0000 19.0144 0.0000 3.5494
# 5 5.8318 0.3418 2.6702 0.0000 36.2627 0.0000
# 6 0.0000 0.0000 0.0000 3.5494 0.0000 16.9654
#
#
#
# Elastic Compliance Matrix: (Units=1/GPa)
#
#
# Indices 1 2 3 4 5 6 
#
# 1 0.011889 -0.002975 -0.003200 0.000000 -0.001648 0.000000
# 2 -0.002975 0.009657 -0.003049 0.000000 0.000612 0.000000
# 3 -0.003200 -0.003049 0.013454 0.000000 -0.000447 0.000000
# 4 0.000000 0.000000 0.000000 0.054729 0.000000 -0.011450
# 5 -0.001648 0.000612 -0.000447 0.000000 0.027869 0.000000
# 6 0.000000 0.000000 0.000000 -0.011450 0.000000 0.061339
#
#
# Mechanical properties :
#
#
# Convention : Reuss Voigt Hill
#
# Bulk Modulus (GPa) = 60.41597 62.34700 61.38148
# Shear Modulus (GPa) = 24.64238 28.35055 26.49646
#
# Velocity S-wave (km/s) = 3.57468 3.83422 3.70672
# Velocity P-wave (km/s) = 6.95461 7.20637 7.08161
#
# Compressibility (1/GPa) = 0.01655192
#
# Stress axis : x y z
#
# Youngs Moduli (GPa) = 84.10961 103.55468 74.32707
#
# Poissons Ratio (x) = 0.30809 0.23786
# Poissons Ratio (y) = 0.25023 0.22660
# Poissons Ratio (z) = 0.26917 0.31571
#
# Static dielectric constant tensor:
#      x y z
#    x 3.576890 0.000000 0.147820 
#    y 0.000000 3.487420 0.000000 
#    z 0.147820 0.000000 3.452930 
# 
# 
# High freq. dielectric constant tensor:
#      x y z
#    x 1.753010 0.000000 0.015100 
#    y 0.000000 1.744450 0.000000 
#    z 0.015100 0.000000 1.740280 
# 
# From -- ./inp_files/90680.got.cif
#   From: 2010.06.25/outbox.cif.g09.slc.cpg/sg12_46_cif.got.tgz:90680.got - 2010.06.28 00:19:55.
