data_PCOD8089275
_publ_section_title
;
Structure prediction by ZEFSAII (Michael W. Deem and Ramdas Pophale) SiO2 
 PCOD8089275
Probable space group: C 2/M
;
_chemical_formula_sum "Si O2"
_cell_formula_units_Z 56
_cell_length_a 12.890425
_cell_length_b 27.903476
_cell_length_c 9.573860
_cell_angle_alpha 90.000000
_cell_angle_beta 68.793597
_cell_angle_gamma 90.000000
_cell_volume 3210.410445
_symmetry_space_group_name_H-M "C 2/M"
_symmetry_group_IT_number 12
_symmetry_cell_setting 'monoclinic'
loop_
_space_group_symop_operation_xyz
x,y,z
-x,y,-z
-x,-y,-z
x,-y,z
1/2+x,1/2+y,z
1/2-x,1/2+y,-z
1/2-x,1/2-y,-z
1/2+x,1/2-y,z
loop_
_atom_site_type_symbol
_atom_site_label
_atom_site_fract_x
_atom_site_fract_y
_atom_site_fract_z
Si Si1 0.130666 0.000000 0.591799
Si Si2 0.633777 0.786405 0.665290
Si Si3 0.866579 0.000000 0.727404
Si Si4 0.133539 0.089808 0.091253
Si Si5 0.244264 0.811646 0.658292
Si Si6 0.117999 0.278980 0.158581
Si Si7 0.735362 0.686531 0.146735
Si Si8 0.872300 0.909220 0.229850
O O1 0.179595 0.000000 0.409625
O O2 0.171902 0.046770 0.655188
O O3 0.998516 0.000000 0.655513
O O4 0.654499 0.805183 0.499207
O O5 0.653295 0.729527 0.672866
O O6 0.506723 0.797434 0.763668
O O7 0.722139 0.816331 0.715084
O O8 0.823914 0.045868 0.834725
O O9 0.203508 0.135008 0.106757
O O10 0.003726 0.098779 0.179752
O O11 0.158814 0.080080 0.916033
O O12 0.296908 0.807804 0.785122
O O13 0.185295 0.862666 0.677522
O O14 0.129015 0.222008 0.184135
O O15 0.158052 0.290501 0.983266
#
# Coordination Sequence:
#
# PCOD8089275 Si02
#       8
#     4   8   4   8   8   8   8   8
#     4   9  19  33  51  77 104 133 162 204 260 314
#     4  10  21  33  50  73 108 140 170 214 251 291
#     4   9  19  33  51  77 106 129 162 208 262 308
#     4  10  19  33  52  77 105 135 167 210 253 305
#     4  10  20  34  50  76 103 139 177 203 252 308
#     4  10  19  35  50  73 106 139 173 212 246 295
#     4  10  20  32  52  78 102 135 177 206 252 301
#     4  10  19  33  53  75 105 137 169 205 253 309
#
# _framework density 17.443252000000001
#
# number of rings (size 3 to 8) (size 9 to 14) (size 15 to 20)
#    0.000    2.143    1.429    2.143    2.000    1.714 
#    0.000    1.429    0.000    0.000    0.000    6.000 
#    0.000    0.000    0.000    0.000    0.000    0.000 
#
# Total GULP energy -347192.788649 kJ/mol
# GULP energy per Si atom -12399.742452 kJ/mol
# Density = 1.740355 g / cm^3
# Si number density = 17.443252 Si / 1000 Ang^3
#
#
#
# Elastic Constant Matrix: (Units=GPa)
#
#
# Indices 1 2 3 4 5 6 
#
# 1 34.6669 40.4815 21.9345 0.0000 -5.2708 0.0000
# 2 40.4815 127.3100 41.0571 0.0000 15.0421 0.0000
# 3 21.9345 41.0571 76.5831 0.0000 9.8112 0.0000
# 4 0.0000 0.0000 0.0000 23.7431 0.0000 3.8978
# 5 -5.2708 15.0421 9.8112 0.0000 21.6807 0.0000
# 6 0.0000 0.0000 0.0000 3.8978 0.0000 22.2191
#
#
#
# Elastic Compliance Matrix: (Units=1/GPa)
#
#
# Indices 1 2 3 4 5 6 
#
# 1 0.068356 -0.022143 -0.012531 0.000000 0.037651 0.000000
# 2 -0.022143 0.017112 -0.000659 0.000000 -0.016957 0.000000
# 3 -0.012531 -0.000659 0.018399 0.000000 -0.010915 0.000000
# 4 0.000000 0.000000 0.000000 0.043366 0.000000 -0.007608
# 5 0.037651 -0.016957 -0.010915 0.000000 0.071982 0.000000
# 6 0.000000 0.000000 0.000000 -0.007608 0.000000 0.046341
#
#
# Mechanical properties :
#
#
# Convention : Reuss Voigt Hill
#
# Bulk Modulus (GPa) = 30.12020 49.50070 39.81045
# Shear Modulus (GPa) = 14.39723 22.53435 18.46579
#
# Velocity S-wave (km/s) = 2.87605 3.59815 3.25718
# Velocity P-wave (km/s) = 5.32296 6.76033 6.08424
#
# Compressibility (1/GPa) = 0.03320031
#
# Stress axis : x y z
#
# Youngs Moduli (GPa) = 14.62925 58.43835 54.35225
#
# Poissons Ratio (x) = 1.29401 0.68107
# Poissons Ratio (y) = 0.32394 0.03584
# Poissons Ratio (z) = 0.18331 0.03854
#
# Static dielectric constant tensor:
#      x y z
#    x 2.905450 0.000000 0.214600 
#    y 0.000000 3.161100 0.000000 
#    z 0.214600 0.000000 3.392110 
# 
# 
# High freq. dielectric constant tensor:
#      x y z
#    x 1.645200 0.000000 0.019600 
#    y 0.000000 1.664620 0.000000 
#    z 0.019600 0.000000 1.687360 
# 
# From -- ./inp_files/66878.got.cif
#   From: 2010.06.25/outbox.cif.g09.slc.cpg/sg12_34_cif.got.tgz:66878.got - 2010.06.28 00:19:55.
