data_PCOD8089654
_publ_section_title
;
Structure prediction by ZEFSAII (Michael W. Deem and Ramdas Pophale) SiO2 
 PCOD8089654
Probable space group: C 2/M
;
_chemical_formula_sum "Si O2"
_cell_formula_units_Z 56
_cell_length_a 19.060293
_cell_length_b 8.870098
_cell_length_c 28.217779
_cell_angle_alpha 90.000000
_cell_angle_beta 39.888007
_cell_angle_gamma 90.000000
_cell_volume 3059.388526
_symmetry_space_group_name_H-M "C 2/M"
_symmetry_group_IT_number 12
_symmetry_cell_setting 'monoclinic'
loop_
_space_group_symop_operation_xyz
x,y,z
-x,y,-z
-x,-y,-z
x,-y,z
1/2+x,1/2+y,z
1/2-x,1/2+y,-z
1/2-x,1/2-y,-z
1/2+x,1/2-y,z
loop_
_atom_site_type_symbol
_atom_site_label
_atom_site_fract_x
_atom_site_fract_y
_atom_site_fract_z
Si Si1 0.065784 0.322831 0.010776
Si Si2 0.182268 0.171180 0.597681
Si Si3 0.999012 0.321969 0.851283
Si Si4 0.414742 0.826629 0.436780
Si Si5 0.576696 0.675315 0.416481
Si Si6 0.691732 0.673436 0.700300
Si Si7 0.208830 0.822532 0.069245
O O1 0.046070 0.500000 0.019891
O O2 0.019180 0.262550 0.085326
O O3 0.197254 0.287170 0.939661
O O4 0.000000 0.249775 0.000000
O O5 0.310123 0.208541 0.523997
O O6 0.110200 0.286460 0.604703
O O7 0.148571 0.195219 0.669314
O O8 0.159839 0.000000 0.592486
O O9 0.986197 0.500000 0.855241
O O10 0.119283 0.272708 0.773196
O O11 0.910687 0.249849 0.859893
O O12 0.512782 0.718801 0.401975
O O13 0.450683 0.000000 0.421847
O O14 0.500000 0.720962 0.500000
O O15 0.607455 0.500000 0.400906
O O16 0.684586 0.773722 0.361445
O O17 0.684873 0.500000 0.719469
O O18 0.195079 0.000000 0.070185
O O19 0.250000 0.750000 0.000000
#
# Coordination Sequence:
#
# PCOD8089654 Si02
#       7
#     8   8   8   8   8   8   8
#     4   8  15  30  54  82 108 137 175 215 258 309
#     4   9  19  34  52  75 101 133 173 219 272 326
#     4  10  20  34  53  78 108 141 179 223 269 323
#     4  10  19  33  54  77 102 131 172 224 272 322
#     4  11  22  35  54  79 107 141 183 229 276 329
#     4  11  22  37  56  77 107 144 183 227 278 333
#     4   9  16  29  52  78 104 136 174 214 257 311
#
# _framework density 18.304310999999998
#
# number of rings (size 3 to 8) (size 9 to 14) (size 15 to 20)
#    0.000    2.286    1.429    3.000    0.000    2.286 
#    0.000    1.429    0.000   22.286    0.000    0.000 
#    0.000    0.000    0.000    0.000    0.000    0.000 
#
# Total GULP energy -347090.943403 kJ/mol
# GULP energy per Si atom -12396.105122 kJ/mol
# Density = 1.826265 g / cm^3
# Si number density = 18.304311 Si / 1000 Ang^3
#
#
#
# Elastic Constant Matrix: (Units=GPa)
#
#
# Indices 1 2 3 4 5 6 
#
# 1 112.6565 38.5870 38.7739 -0.0006 -7.8908 0.0054
# 2 38.5870 64.0039 27.5529 -0.0009 -2.8693 0.0088
# 3 38.7739 27.5529 76.8126 0.0001 -5.0440 -0.0008
# 4 -0.0006 -0.0009 0.0001 29.2229 -0.0002 -6.1499
# 5 -7.8908 -2.8693 -5.0440 -0.0002 19.5876 -0.0009
# 6 0.0054 0.0088 -0.0008 -6.1499 -0.0009 28.7099
#
#
#
# Elastic Compliance Matrix: (Units=1/GPa)
#
#
# Indices 1 2 3 4 5 6 
#
# 1 0.012407 -0.005596 -0.004050 0.000000 0.003135 -0.000001
# 2 -0.005596 0.021021 -0.004742 -0.000001 -0.000396 -0.000006
# 3 -0.004050 -0.004742 0.016897 0.000000 0.002025 0.000003
# 4 0.000000 -0.000001 0.000000 0.035835 0.000001 0.007676
# 5 0.003135 -0.000396 0.002025 0.000001 0.052779 0.000001
# 6 -0.000001 -0.000006 0.000003 0.007676 0.000001 0.036475
#
#
# Mechanical properties :
#
#
# Convention : Reuss Voigt Hill
#
# Bulk Modulus (GPa) = 46.40296 51.47783 48.94040
# Shear Modulus (GPa) = 23.65497 25.40803 24.53150
#
# Velocity S-wave (km/s) = 3.59878 3.72975 3.66485
# Velocity P-wave (km/s) = 6.53255 6.83611 6.68605
#
# Compressibility (1/GPa) = 0.02155035
#
# Stress axis : x y z
#
# Youngs Moduli (GPa) = 80.60205 47.57094 59.18327
#
# Poissons Ratio (x) = 0.26620 0.23966
# Poissons Ratio (y) = 0.45105 0.28062
# Poissons Ratio (z) = 0.32640 0.22556
#
# Static dielectric constant tensor:
#      x y z
#    x 3.679940 0.000000 -0.101330 
#    y 0.000000 3.334940 0.000000 
#    z -0.101330 0.000000 3.277140 
# 
# 
# High freq. dielectric constant tensor:
#      x y z
#    x 1.711610 0.000000 -0.012970 
#    y 0.000000 1.707930 0.000000 
#    z -0.012970 0.000000 1.682790 
# 
# From -- ./inp_files/313273.got.cif
#   From: 2010.06.25/outbox.cif.g09.slc.cpg/sg12_157_cif.got.tgz:313273.got - 2010.06.28 00:19:55.
