data_PCOD8089056
_publ_section_title
;
Structure prediction by ZEFSAII (Michael W. Deem and Ramdas Pophale) SiO2 
 PCOD8089056
Probable space group: C 2/M
;
_chemical_formula_sum "Si O2"
_cell_formula_units_Z 64
_cell_length_a 20.200059
_cell_length_b 11.469856
_cell_length_c 16.427136
_cell_angle_alpha 90.000000
_cell_angle_beta 69.998264
_cell_angle_gamma 90.000000
_cell_volume 3576.460913
_symmetry_space_group_name_H-M "C 2/M"
_symmetry_group_IT_number 12
_symmetry_cell_setting 'monoclinic'
loop_
_space_group_symop_operation_xyz
x,y,z
-x,y,-z
-x,-y,-z
x,-y,z
1/2+x,1/2+y,z
1/2-x,1/2+y,-z
1/2-x,1/2-y,-z
1/2+x,1/2-y,z
loop_
_atom_site_type_symbol
_atom_site_label
_atom_site_fract_x
_atom_site_fract_y
_atom_site_fract_z
Si Si1 0.306411 0.133061 0.680841
Si Si2 0.702184 0.134906 0.502665
Si Si3 0.350388 0.214394 0.922221
Si Si4 0.421433 0.635141 0.028204
Si Si5 0.737463 0.874060 0.903327
Si Si6 0.429496 0.134335 0.739946
Si Si7 0.163870 0.751824 0.798627
Si Si8 0.414970 0.134506 0.314756
O O1 0.323899 0.143999 0.578560
O O2 0.371696 0.191568 0.703158
O O3 0.233022 0.194772 0.729401
O O4 0.297465 0.000000 0.712836
O O5 0.750000 0.250000 0.500000
O O6 0.633912 0.149770 0.586668
O O7 0.734268 0.000000 0.503247
O O8 0.296652 0.275260 0.881811
O O9 0.408453 0.150629 0.843344
O O10 0.383021 0.310252 0.967330
O O11 0.308079 0.121860 0.994338
O O12 0.425167 0.500000 0.007937
O O13 0.379409 0.654859 0.129830
O O14 0.500000 0.688655 0.000000
O O15 0.686250 0.853193 0.848435
O O16 0.773189 0.000000 0.877579
O O17 0.507887 0.186835 0.695029
O O18 0.433387 0.000000 0.715523
O O19 0.114206 0.706286 0.748644
O O20 0.421032 0.000000 0.285452
#
# Coordination Sequence:
#
# PCOD8089056 Si02
#       8
#     8   8   8   8   8   8   8   8
#     4  10  20  34  56  83 109 140 182 226 274 328
#     4  10  20  37  60  88 116 147 184 232 287 338
#     4  10  19  33  50  71 102 143 175 221 270 320
#     4  10  21  34  49  72 105 142 181 227 272 321
#     4  10  20  31  48  74 101 134 179 223 267 318
#     4  10  20  35  54  81 112 142 180 226 277 329
#     4  11  19  34  54  77 104 140 183 224 272 321
#     4  10  21  35  56  83 112 142 177 226 279 336
#
# _framework density 17.894787000000001
#
# number of rings (size 3 to 8) (size 9 to 14) (size 15 to 20)
#    0.000    1.875    2.500    2.250    0.000    0.500 
#    0.000    2.500    0.000    6.750    0.000    0.875 
#    0.000    0.000    0.000    0.000    0.000    0.000 
#
# Total GULP energy -396611.396867 kJ/mol
# GULP energy per Si atom -12394.106152 kJ/mol
# Density = 1.785406 g / cm^3
# Si number density = 17.894787 Si / 1000 Ang^3
#
#
#
# Elastic Constant Matrix: (Units=GPa)
#
#
# Indices 1 2 3 4 5 6 
#
# 1 120.1803 28.4740 39.7720 0.0000 -0.6944 0.0000
# 2 28.4740 57.7977 11.1030 0.0000 4.2011 0.0000
# 3 39.7720 11.1030 82.8655 0.0000 4.3764 0.0000
# 4 0.0000 0.0000 0.0000 15.2456 0.0000 -6.3029
# 5 -0.6944 4.2011 4.3764 0.0000 27.6619 0.0000
# 6 0.0000 0.0000 0.0000 -6.3029 0.0000 19.2329
#
#
#
# Elastic Compliance Matrix: (Units=1/GPa)
#
#
# Indices 1 2 3 4 5 6 
#
# 1 0.011001 -0.004633 -0.004751 0.000000 0.001731 0.000000
# 2 -0.004633 0.019861 -0.000275 0.000000 -0.003089 0.000000
# 3 -0.004751 -0.000275 0.014510 0.000000 -0.002373 0.000000
# 4 0.000000 0.000000 0.000000 0.075872 0.000000 0.024864
# 5 0.001731 -0.003089 -0.002373 0.000000 0.037039 0.000000
# 6 0.000000 0.000000 0.000000 0.024864 0.000000 0.060143
#
#
# Mechanical properties :
#
#
# Convention : Reuss Voigt Hill
#
# Bulk Modulus (GPa) = 38.37843 46.61572 42.49708
# Shear Modulus (GPa) = 20.29004 24.52773 22.40888
#
# Velocity S-wave (km/s) = 3.37092 3.70626 3.54256
# Velocity P-wave (km/s) = 6.05344 6.66496 6.36654
#
# Compressibility (1/GPa) = 0.02605630
#
# Stress axis : x y z
#
# Youngs Moduli (GPa) = 90.90441 50.34920 68.91835
#
# Poissons Ratio (x) = 0.23325 0.32740
# Poissons Ratio (y) = 0.42113 0.01892
# Poissons Ratio (z) = 0.43184 0.01382
#
# Static dielectric constant tensor:
#      x y z
#    x 3.547240 0.000000 -0.026680 
#    y 0.000000 3.208080 0.000000 
#    z -0.026680 0.000000 3.326380 
# 
# 
# High freq. dielectric constant tensor:
#      x y z
#    x 1.696230 0.000000 0.001960 
#    y 0.000000 1.676560 0.000000 
#    z 0.001960 0.000000 1.699180 
# 
# From -- ./inp_files/232442.got.cif
#   From: 2010.06.25/outbox.cif.g09.slc.cpg/sg12_117_cif.got.tgz:232442.got - 2010.06.28 00:19:55.
