data_PCOD8089429
_publ_section_title
;
Structure prediction by ZEFSAII (Michael W. Deem and Ramdas Pophale) SiO2 
 PCOD8089429
Probable space group: C 2/M
;
_chemical_formula_sum "Si O2"
_cell_formula_units_Z 40
_cell_length_a 27.567745
_cell_length_b 8.648118
_cell_length_c 9.035130
_cell_angle_alpha 90.000000
_cell_angle_beta 70.866068
_cell_angle_gamma 90.000000
_cell_volume 2035.056335
_symmetry_space_group_name_H-M "C 2/M"
_symmetry_group_IT_number 12
_symmetry_cell_setting 'monoclinic'
loop_
_space_group_symop_operation_xyz
x,y,z
-x,y,-z
-x,-y,-z
x,-y,z
1/2+x,1/2+y,z
1/2-x,1/2+y,-z
1/2-x,1/2-y,-z
1/2+x,1/2-y,z
loop_
_atom_site_type_symbol
_atom_site_label
_atom_site_fract_x
_atom_site_fract_y
_atom_site_fract_z
Si Si1 0.249311 0.817199 0.663375
Si Si2 0.050610 0.315473 0.531685
Si Si3 0.450139 0.816135 0.133536
Si Si4 0.150914 0.316278 0.265001
Si Si5 0.847372 0.683508 0.073601
O O1 0.250000 0.750000 0.500000
O O2 0.298794 0.753068 0.701949
O O3 0.198991 0.765036 0.798312
O O4 0.251223 0.000000 0.651182
O O5 0.051038 0.500000 0.531276
O O6 0.051046 0.251144 0.698425
O O7 0.100512 0.250143 0.397093
O O8 0.000000 0.252790 0.500000
O O9 0.399662 0.760251 0.098169
O O10 0.452720 0.000000 0.133436
O O11 0.500000 0.748877 0.000000
O O12 0.149491 0.500000 0.269183
O O13 0.151591 0.257499 0.095945
O O14 0.840497 0.500000 0.091881
#
# Coordination Sequence:
#
# PCOD8089429 Si02
#       5
#     8   8   8   8   8
#     4  11  22  36  53  74 102 134 170 209 253 303
#     4   9  15  24  40  65  99 133 164 202 249 297
#     4   9  16  26  44  72 103 134 168 207 250 295
#     4   9  18  31  48  72 101 133 167 207 253 300
#     4  10  19  33  53  76 103 133 169 211 254 300
#
# _framework density 19.655476
#
# number of rings (size 3 to 8) (size 9 to 14) (size 15 to 20)
#    0.000    2.400    0.000    3.600    0.000    8.000 
#    0.000    1.000    0.000    0.600    0.000    0.000 
#    0.000    9.600    0.000    0.000    0.000    0.000 
#
# Total GULP energy -248020.947585 kJ/mol
# GULP energy per Si atom -12401.047379 kJ/mol
# Density = 1.961074 g / cm^3
# Si number density = 19.655476 Si / 1000 Ang^3
#
#
#
# Elastic Constant Matrix: (Units=GPa)
#
#
# Indices 1 2 3 4 5 6 
#
# 1 219.2813 23.3055 123.1816 0.0000 3.0343 0.0000
# 2 23.3055 20.4283 20.7036 0.0000 0.3958 0.0000
# 3 123.1816 20.7036 224.0388 0.0000 3.3525 0.0000
# 4 0.0000 0.0000 0.0000 19.9817 0.0000 -4.0329
# 5 3.0343 0.3958 3.3525 0.0000 50.2359 0.0000
# 6 0.0000 0.0000 0.0000 -4.0329 0.0000 19.4375
#
#
#
# Elastic Compliance Matrix: (Units=1/GPa)
#
#
# Indices 1 2 3 4 5 6 
#
# 1 0.006952 -0.004476 -0.003406 0.000000 -0.000157 0.000000
# 2 -0.004476 0.056892 -0.002797 0.000000 0.000009 0.000000
# 3 -0.003406 -0.002797 0.006598 0.000000 -0.000213 0.000000
# 4 0.000000 0.000000 0.000000 0.052233 0.000000 0.010837
# 5 -0.000157 0.000009 -0.000213 0.000000 0.019930 0.000000
# 6 0.000000 0.000000 0.000000 0.010837 0.000000 0.053696
#
#
# Mechanical properties :
#
#
# Convention : Reuss Voigt Hill
#
# Bulk Modulus (GPa) = 20.37304 88.68107 54.52706
# Shear Modulus (GPa) = 21.36582 37.70152 29.53367
#
# Velocity S-wave (km/s) = 3.30057 4.38438 3.88050
# Velocity P-wave (km/s) = 4.99125 8.41701 6.91949
#
# Compressibility (1/GPa) = 0.04908447
#
# Stress axis : x y z
#
# Youngs Moduli (GPa) = 143.85059 17.57715 151.56184
#
# Poissons Ratio (x) = 0.07867 0.51625
# Poissons Ratio (y) = 0.64382 0.42388
# Poissons Ratio (z) = 0.48999 0.04916
#
# Static dielectric constant tensor:
#      x y z
#    x 3.897130 0.000000 0.087430 
#    y 0.000000 2.948590 0.000000 
#    z 0.087430 0.000000 3.871280 
# 
# 
# High freq. dielectric constant tensor:
#      x y z
#    x 1.788070 0.000000 0.000490 
#    y 0.000000 1.696300 0.000000 
#    z 0.000490 0.000000 1.788830 
# 
# From -- ./inp_files/92817.got.cif
#   From: 2010.06.25/outbox.cif.g09.slc.cpg/sg12_47_cif.got.tgz:92817.got - 2010.06.28 00:19:55.
