data_PCOD8089773
_publ_section_title
;
Structure prediction by ZEFSAII (Michael W. Deem and Ramdas Pophale) SiO2 
 PCOD8089773
Probable space group: C 2/M
;
_chemical_formula_sum "Si O2"
_cell_formula_units_Z 64
_cell_length_a 19.502092
_cell_length_b 19.255230
_cell_length_c 19.865711
_cell_angle_alpha 90.000000
_cell_angle_beta 28.578347
_cell_angle_gamma 90.000000
_cell_volume 3568.526283
_symmetry_space_group_name_H-M "C 2/M"
_symmetry_group_IT_number 12
_symmetry_cell_setting 'monoclinic'
loop_
_space_group_symop_operation_xyz
x,y,z
-x,y,-z
-x,-y,-z
x,-y,z
1/2+x,1/2+y,z
1/2-x,1/2+y,-z
1/2-x,1/2-y,-z
1/2+x,1/2-y,z
loop_
_atom_site_type_symbol
_atom_site_label
_atom_site_fract_x
_atom_site_fract_y
_atom_site_fract_z
Si Si1 0.219397 0.302462 0.844285
Si Si2 0.061124 0.579142 0.144678
Si Si3 0.334699 0.577904 0.440378
Si Si4 0.226290 0.217371 0.447647
Si Si5 0.029837 0.704540 0.396380
Si Si6 0.934211 0.313737 0.159738
Si Si7 0.158127 0.920948 0.170153
Si Si8 0.051299 0.579247 0.616510
O O1 0.312865 0.232902 0.756799
O O2 0.170086 0.327961 0.813108
O O3 0.308123 0.366546 0.799516
O O4 0.082942 0.278884 0.006896
O O5 0.013063 0.500000 0.185355
O O6 0.974170 0.613150 0.158709
O O7 0.016896 0.609734 0.255410
O O8 0.231471 0.589721 0.986755
O O9 0.317102 0.500000 0.485755
O O10 0.289416 0.633713 0.535730
O O11 0.499142 0.591494 0.276681
O O12 0.225404 0.586038 0.471152
O O13 0.250000 0.250000 0.500000
O O14 0.355631 0.234318 0.283897
O O15 0.079086 0.247037 0.548574
O O16 0.000000 0.709512 0.500000
O O17 0.011693 0.624751 0.389604
O O18 0.172249 0.000000 0.186363
O O19 0.004227 0.500000 0.643629
#
# Coordination Sequence:
#
# PCOD8089773 Si02
#       8
#     8   8   8   8   8   8   8   8
#     4  10  21  35  52  78 112 151 184 219 268 329
#     4   9  17  33  55  78 108 144 183 226 269 316
#     4  10  19  33  54  79 111 142 178 224 269 323
#     4  12  21  36  57  83 109 143 189 231 281 328
#     4  12  23  38  58  80 109 145 182 230 282 330
#     4  10  20  35  52  77 112 145 185 224 268 327
#     4   9  18  32  51  80 116 149 180 220 264 318
#     4  10  21  38  58  81 104 135 182 230 281 330
#
# _framework density 17.934574000000001
#
# number of rings (size 3 to 8) (size 9 to 14) (size 15 to 20)
#    0.000    1.750    5.000    0.000    0.000    0.750 
#    2.250    4.375    0.000    2.250    0.000    1.750 
#    0.000    0.000    0.000    0.000    0.000    0.000 
#
# Total GULP energy -396626.008818 kJ/mol
# GULP energy per Si atom -12394.562776 kJ/mol
# Density = 1.789375 g / cm^3
# Si number density = 17.934574 Si / 1000 Ang^3
#
#
#
# Elastic Constant Matrix: (Units=GPa)
#
#
# Indices 1 2 3 4 5 6 
#
# 1 78.2395 29.2049 40.1508 0.0044 -3.9955 0.0035
# 2 29.2049 76.7300 27.5012 0.0296 -6.3055 -0.0059
# 3 40.1508 27.5012 120.7869 0.0366 -9.0271 -0.0108
# 4 0.0044 0.0296 0.0366 22.0502 0.0034 -0.8686
# 5 -3.9955 -6.3055 -9.0271 0.0034 25.7783 -0.0044
# 6 0.0035 -0.0059 -0.0108 -0.8686 -0.0044 20.6430
#
#
#
# Elastic Compliance Matrix: (Units=1/GPa)
#
#
# Indices 1 2 3 4 5 6 
#
# 1 0.016898 -0.004820 -0.004531 0.000010 -0.000146 -0.000006
# 2 -0.004820 0.015712 -0.001791 -0.000017 0.002469 0.000004
# 3 -0.004531 -0.001791 0.010379 -0.000014 0.002494 0.000006
# 4 0.000010 -0.000017 -0.000014 0.045426 -0.000013 0.001911
# 5 -0.000146 0.002469 0.002494 -0.000013 0.040247 0.000010
# 6 -0.000006 0.000004 0.000006 0.001911 0.000010 0.048523
#
#
# Mechanical properties :
#
#
# Convention : Reuss Voigt Hill
#
# Bulk Modulus (GPa) = 48.29317 52.16336 50.22827
# Shear Modulus (GPa) = 24.22833 25.62094 24.92463
#
# Velocity S-wave (km/s) = 3.67949 3.78375 3.73198
# Velocity P-wave (km/s) = 6.71099 6.94533 6.82916
#
# Compressibility (1/GPa) = 0.02070686
#
# Stress axis : x y z
#
# Youngs Moduli (GPa) = 59.17886 63.64579 96.34674
#
# Poissons Ratio (x) = 0.30676 0.43651
# Poissons Ratio (y) = 0.28523 0.17252
# Poissons Ratio (z) = 0.26811 0.11397
#
# Static dielectric constant tensor:
#      x y z
#    x 2.958180 0.000050 -0.158040 
#    y 0.000050 3.304240 0.000040 
#    z -0.158040 0.000040 3.653680 
# 
# 
# High freq. dielectric constant tensor:
#      x y z
#    x 1.674450 0.000000 -0.013650 
#    y 0.000000 1.684390 0.000000 
#    z -0.013650 0.000000 1.707600 
# 
# From -- ./inp_files/279102.got.cif
#   From: 2010.06.25/outbox.cif.g09.slc.cpg/sg12_140_cif.got.tgz:279102.got - 2010.06.28 00:19:55.
