data_PCOD8089723
_publ_section_title
;
Structure prediction by ZEFSAII (Michael W. Deem and Ramdas Pophale) SiO2 
 PCOD8089723
Probable space group: C 2/M
;
_chemical_formula_sum "Si O2"
_cell_formula_units_Z 56
_cell_length_a 10.637135
_cell_length_b 17.958730
_cell_length_c 18.004596
_cell_angle_alpha 90.000000
_cell_angle_beta 124.096254
_cell_angle_gamma 90.000000
_cell_volume 2848.163245
_symmetry_space_group_name_H-M "C 2/M"
_symmetry_group_IT_number 12
_symmetry_cell_setting 'monoclinic'
loop_
_space_group_symop_operation_xyz
x,y,z
-x,y,-z
-x,-y,-z
x,-y,z
1/2+x,1/2+y,z
1/2-x,1/2+y,-z
1/2-x,1/2-y,-z
1/2+x,1/2-y,z
loop_
_atom_site_type_symbol
_atom_site_label
_atom_site_fract_x
_atom_site_fract_y
_atom_site_fract_z
Si Si1 0.770778 0.297011 0.849565
Si Si2 0.055721 0.913839 0.601671
Si Si3 0.256970 0.086063 0.961242
Si Si4 0.567468 0.674288 0.310353
Si Si5 0.636680 0.824979 0.278000
Si Si6 0.584730 0.417361 0.179887
Si Si7 0.687948 0.135942 0.859604
O O1 0.836951 0.360557 0.926521
O O2 0.607131 0.321368 0.768213
O O3 0.872483 0.291372 0.808945
O O4 0.763227 0.218016 0.888504
O O5 0.931700 0.869376 0.610800
O O6 0.225409 0.881038 0.663448
O O7 0.000000 0.905564 0.500000
O O8 0.061463 0.000000 0.628832
O O9 0.079219 0.108207 0.905181
O O10 0.284905 0.000000 0.948357
O O11 0.330295 0.102062 0.065006
O O12 0.646222 0.755823 0.339853
O O13 0.648814 0.629796 0.270644
O O14 0.475604 0.865826 0.235515
O O15 0.569159 0.500000 0.205875
O O16 0.702535 0.416213 0.151643
#
# Coordination Sequence:
#
# PCOD8089723 Si02
#       7
#     8   8   8   8   8   8   8
#     4   9  19  35  52  76 106 145 187 229 274 320
#     4  10  22  40  63  89 115 144 179 224 281 343
#     4  10  21  35  50  74 108 148 194 233 272 321
#     4   9  18  36  60  82 109 143 185 223 270 332
#     4  10  21  37  59  83 108 144 187 230 277 333
#     4  10  19  33  54  78 108 147 187 227 272 325
#     4  11  20  33  52  79 110 144 185 235 278 321
#
# _framework density 19.661795000000001
#
# number of rings (size 3 to 8) (size 9 to 14) (size 15 to 20)
#    0.000    2.143    1.429    1.714    0.000    6.857 
#    2.571    0.714    0.000    0.000    0.000    3.000 
#    0.000    0.000    0.000    0.000    0.000    0.000 
#
# Total GULP energy -347132.830066 kJ/mol
# GULP energy per Si atom -12397.601074 kJ/mol
# Density = 1.961704 g / cm^3
# Si number density = 19.661795 Si / 1000 Ang^3
#
#
#
# Elastic Constant Matrix: (Units=GPa)
#
#
# Indices 1 2 3 4 5 6 
#
# 1 56.4497 30.5560 22.6665 0.0000 -6.9498 0.0000
# 2 30.5560 106.1925 41.6500 0.0000 -7.4207 0.0000
# 3 22.6665 41.6500 72.7621 0.0000 -14.0377 0.0000
# 4 0.0000 0.0000 0.0000 30.9803 0.0000 -6.9301
# 5 -6.9498 -7.4207 -14.0377 0.0000 24.4688 0.0000
# 6 0.0000 0.0000 0.0000 -6.9301 0.0000 27.7125
#
#
#
# Elastic Compliance Matrix: (Units=1/GPa)
#
#
# Indices 1 2 3 4 5 6 
#
# 1 0.022076 -0.004734 -0.003637 0.000000 0.002748 0.000000
# 2 -0.004734 0.013161 -0.006239 0.000000 -0.000932 0.000000
# 3 -0.003637 -0.006239 0.020109 0.000000 0.008611 0.000000
# 4 0.000000 0.000000 0.000000 0.034191 0.000000 0.008550
# 5 0.002748 -0.000932 0.008611 0.000000 0.046306 0.000000
# 6 0.000000 0.000000 0.000000 0.008550 0.000000 0.038223
#
#
# Mechanical properties :
#
#
# Convention : Reuss Voigt Hill
#
# Bulk Modulus (GPa) = 38.27520 47.23880 42.75700
# Shear Modulus (GPa) = 23.58559 26.00111 24.79335
#
# Velocity S-wave (km/s) = 3.46723 3.64045 3.55490
# Velocity P-wave (km/s) = 5.96137 6.46130 6.21636
#
# Compressibility (1/GPa) = 0.02612658
#
# Stress axis : x y z
#
# Youngs Moduli (GPa) = 45.29816 75.98436 49.72922
#
# Poissons Ratio (x) = 0.35968 0.18088
# Poissons Ratio (y) = 0.21442 0.31024
# Poissons Ratio (z) = 0.16476 0.47404
#
# Static dielectric constant tensor:
#      x y z
#    x 3.543960 0.000000 -0.302650 
#    y 0.000000 3.737230 0.000000 
#    z -0.302650 0.000000 3.366640 
# 
# 
# High freq. dielectric constant tensor:
#      x y z
#    x 1.760260 0.000000 -0.021410 
#    y 0.000000 1.776470 0.000000 
#    z -0.021410 0.000000 1.735890 
# 
# From -- ./inp_files/206239.got.cif
#   From: 2010.06.25/outbox.cif.g09.slc.cpg/sg12_104_cif.got.tgz:206239.got - 2010.06.28 00:19:55.
