data_PCOD8089391
_publ_section_title
;
Structure prediction by ZEFSAII (Michael W. Deem and Ramdas Pophale) SiO2 
 PCOD8089391
Probable space group: C 2/M
;
_chemical_formula_sum "Si O2"
_cell_formula_units_Z 64
_cell_length_a 20.482133
_cell_length_b 9.475808
_cell_length_c 19.432236
_cell_angle_alpha 90.000000
_cell_angle_beta 77.426779
_cell_angle_gamma 90.000000
_cell_volume 3681.055028
_symmetry_space_group_name_H-M "C 2/M"
_symmetry_group_IT_number 12
_symmetry_cell_setting 'monoclinic'
loop_
_space_group_symop_operation_xyz
x,y,z
-x,y,-z
-x,-y,-z
x,-y,z
1/2+x,1/2+y,z
1/2-x,1/2+y,-z
1/2-x,1/2-y,-z
1/2+x,1/2-y,z
loop_
_atom_site_type_symbol
_atom_site_label
_atom_site_fract_x
_atom_site_fract_y
_atom_site_fract_z
Si Si1 0.091762 0.835773 0.642012
Si Si2 0.281938 0.840356 0.153394
Si Si3 0.183222 0.663473 0.002400
Si Si4 0.292513 0.666217 0.282677
Si Si5 0.054036 0.837763 0.276870
Si Si6 0.071431 0.662586 0.511307
Si Si7 0.363217 0.663018 0.871666
Si Si8 0.854925 0.662208 0.643381
O O1 0.152840 0.783235 0.674865
O O2 0.094729 0.752078 0.570585
O O3 0.024128 0.803441 0.699378
O O4 0.098298 0.000000 0.622389
O O5 0.331505 0.825498 0.075948
O O6 0.308615 0.738136 0.206276
O O7 0.206186 0.798973 0.150418
O O8 0.283057 0.000000 0.181093
O O9 0.192014 0.500000 0.022054
O O10 0.250000 0.750000 0.000000
O O11 0.126824 0.738008 0.062986
O O12 0.296467 0.500000 0.270144
O O13 0.220364 0.715543 0.327078
O O14 0.076478 0.801651 0.194062
O O15 0.093532 0.747587 0.322902
O O16 0.070087 0.000000 0.289904
O O17 0.064620 0.500000 0.535444
O O18 0.127761 0.683799 0.440477
O O19 0.000000 0.718017 0.500000
O O20 0.363243 0.500000 0.895203
O O21 0.862545 0.500000 0.663342
#
# Coordination Sequence:
#
# PCOD8089391 Si02
#       8
#     8   8   8   8   8   8   8   8
#     4  10  22  37  53  76 104 134 170 210 256 308
#     4   9  17  30  48  72 102 133 167 205 249 300
#     4   9  17  28  44  71 105 135 166 207 253 298
#     4  10  21  35  51  75 105 135 169 210 254 304
#     4  10  19  33  53  75 102 133 169 213 255 299
#     4  10  20  35  54  76 103 133 168 211 257 306
#     4   9  17  29  47  74 102 128 167 213 253 296
#     4  10  20  34  53  76 102 132 169 212 255 302
#
# _framework density 17.386319
#
# number of rings (size 3 to 8) (size 9 to 14) (size 15 to 20)
#    0.000    2.375    2.500    1.125    0.000    4.750 
#    0.000    0.000    0.000    0.750    0.000    5.250 
#    0.000    0.000    0.000    0.000    0.000    0.000 
#
# Total GULP energy -396778.870509 kJ/mol
# GULP energy per Si atom -12399.339703 kJ/mol
# Density = 1.734675 g / cm^3
# Si number density = 17.386319 Si / 1000 Ang^3
#
#
#
# Elastic Constant Matrix: (Units=GPa)
#
#
# Indices 1 2 3 4 5 6 
#
# 1 64.6566 25.0238 35.8986 0.0000 5.3053 0.0000
# 2 25.0238 62.0798 50.6771 0.0000 2.3185 0.0000
# 3 35.8986 50.6771 110.3937 0.0000 -2.7294 0.0000
# 4 0.0000 0.0000 0.0000 37.6455 0.0000 1.6792
# 5 5.3053 2.3185 -2.7294 0.0000 24.2716 0.0000
# 6 0.0000 0.0000 0.0000 1.6792 0.0000 17.7477
#
#
#
# Elastic Compliance Matrix: (Units=1/GPa)
#
#
# Indices 1 2 3 4 5 6 
#
# 1 0.020049 -0.003996 -0.004798 0.000000 -0.004540 0.000000
# 2 -0.003996 0.026913 -0.011128 0.000000 -0.002949 0.000000
# 3 -0.004798 -0.011128 0.015823 0.000000 0.003891 0.000000
# 4 0.000000 0.000000 0.000000 0.026676 0.000000 -0.002524
# 5 -0.004540 -0.002949 0.003891 0.000000 0.042912 0.000000
# 6 0.000000 0.000000 0.000000 -0.002524 0.000000 0.056584
#
#
# Mechanical properties :
#
#
# Convention : Reuss Voigt Hill
#
# Bulk Modulus (GPa) = 43.58728 51.14768 47.36748
# Shear Modulus (GPa) = 21.14621 24.30167 22.72394
#
# Velocity S-wave (km/s) = 3.49127 3.74270 3.61917
# Velocity P-wave (km/s) = 6.43244 6.93969 6.69087
#
# Compressibility (1/GPa) = 0.02294247
#
# Stress axis : x y z
#
# Youngs Moduli (GPa) = 49.87772 37.15623 63.19728
#
# Poissons Ratio (x) = 0.14846 0.30321
# Poissons Ratio (y) = 0.19929 0.70329
# Poissons Ratio (z) = 0.23930 0.41349
#
# Static dielectric constant tensor:
#      x y z
#    x 3.131270 0.000000 -0.279250 
#    y 0.000000 3.292650 0.000000 
#    z -0.279250 0.000000 3.487480 
# 
# 
# High freq. dielectric constant tensor:
#      x y z
#    x 1.641550 0.000000 -0.019190 
#    y 0.000000 1.673040 0.000000 
#    z -0.019190 0.000000 1.679510 
# 
# From -- ./inp_files/281283.got.cif
#   From: 2010.06.25/outbox.cif.g09.slc.cpg/sg12_141_cif.got.tgz:281283.got - 2010.06.28 00:19:55.
