data_PCOD8089538
_publ_section_title
;
Structure prediction by ZEFSAII (Michael W. Deem and Ramdas Pophale) SiO2 
 PCOD8089538
Probable space group: C 2/M
;
_chemical_formula_sum "Si O2"
_cell_formula_units_Z 56
_cell_length_a 19.705096
_cell_length_b 8.844830
_cell_length_c 17.239407
_cell_angle_alpha 90.000000
_cell_angle_beta 113.740212
_cell_angle_gamma 90.000000
_cell_volume 2750.375018
_symmetry_space_group_name_H-M "C 2/M"
_symmetry_group_IT_number 12
_symmetry_cell_setting 'monoclinic'
loop_
_space_group_symop_operation_xyz
x,y,z
-x,y,-z
-x,-y,-z
x,-y,z
1/2+x,1/2+y,z
1/2-x,1/2+y,-z
1/2-x,1/2-y,-z
1/2+x,1/2-y,z
loop_
_atom_site_type_symbol
_atom_site_label
_atom_site_fract_x
_atom_site_fract_y
_atom_site_fract_z
Si Si1 0.799225 0.678089 0.088714
Si Si2 0.346685 0.322279 0.407199
Si Si3 0.247290 0.173479 0.234299
Si Si4 0.610321 0.327187 0.266379
Si Si5 0.637631 0.173149 0.433656
Si Si6 0.555677 0.321676 0.800134
Si Si7 0.035391 0.674348 0.631787
O O1 0.800595 0.500000 0.078663
O O2 0.763309 0.726500 0.154423
O O3 0.882782 0.741436 0.118278
O O4 0.750000 0.750000 0.000000
O O5 0.357734 0.500000 0.415494
O O6 0.289265 0.279162 0.314099
O O7 0.318129 0.264046 0.478683
O O8 0.425494 0.240717 0.426707
O O9 0.159158 0.190425 0.211028
O O10 0.272730 0.000000 0.258521
O O11 0.604971 0.500000 0.292030
O O12 0.651648 0.236842 0.354230
O O13 0.526789 0.268443 0.210903
O O14 0.551607 0.195160 0.414028
O O15 0.663359 0.000000 0.446940
O O16 0.566156 0.500000 0.811641
O O17 0.569576 0.267918 0.718926
O O18 0.057567 0.500000 0.652748
#
# Coordination Sequence:
#
# PCOD8089538 Si02
#       7
#     8   8   8   8   8   8   8
#     4  11  23  40  65  92 119 150 188 236 291 349
#     4  12  23  33  52  81 115 154 199 248 293 336
#     4  10  22  41  62  84 115 155 194 236 291 349
#     4   9  20  39  61  85 116 155 198 240 283 340
#     4  10  21  35  53  79 114 157 200 242 288 340
#     4  10  19  35  61  90 118 149 189 237 289 345
#     4  10  19  33  53  79 113 153 196 240 289 344
#
# _framework density 20.360859999999999
#
# number of rings (size 3 to 8) (size 9 to 14) (size 15 to 20)
#    0.000    1.714    1.429    3.429    0.000    5.714 
#    0.000    0.714    0.000    4.286    0.000    0.000 
#    0.000    0.000    0.000    0.000    0.000    0.000 
#
# Total GULP energy -347234.924329 kJ/mol
# GULP energy per Si atom -12401.247297 kJ/mol
# Density = 2.031452 g / cm^3
# Si number density = 20.360860 Si / 1000 Ang^3
#
#
#
# Elastic Constant Matrix: (Units=GPa)
#
#
# Indices 1 2 3 4 5 6 
#
# 1 70.3433 30.4678 36.2056 0.0000 -12.0663 0.0000
# 2 30.4678 94.9654 44.6725 0.0000 3.4701 0.0000
# 3 36.2056 44.6725 117.6801 0.0000 5.9041 0.0000
# 4 0.0000 0.0000 0.0000 34.4843 0.0000 1.5805
# 5 -12.0663 3.4701 5.9041 0.0000 17.6665 0.0000
# 6 0.0000 0.0000 0.0000 1.5805 0.0000 24.2394
#
#
#
# Elastic Compliance Matrix: (Units=1/GPa)
#
#
# Indices 1 2 3 4 5 6 
#
# 1 0.022683 -0.005154 -0.005950 0.000000 0.018494 0.000000
# 2 -0.005154 0.014005 -0.003474 0.000000 -0.005110 0.000000
# 3 -0.005950 -0.003474 0.012018 0.000000 -0.007398 0.000000
# 4 0.000000 0.000000 0.000000 0.029086 0.000000 -0.001896
# 5 0.018494 -0.005110 -0.007398 0.000000 0.072711 0.000000
# 6 0.000000 0.000000 0.000000 -0.001896 0.000000 0.041379
#
#
# Mechanical properties :
#
#
# Convention : Reuss Voigt Hill
#
# Bulk Modulus (GPa) = 51.15280 56.18674 53.66977
# Shear Modulus (GPa) = 21.97265 26.72090 24.34678
#
# Velocity S-wave (km/s) = 3.28862 3.62659 3.46173
# Velocity P-wave (km/s) = 6.29267 6.72247 6.51112
#
# Compressibility (1/GPa) = 0.01954927
#
# Stress axis : x y z
#
# Youngs Moduli (GPa) = 44.08547 71.40393 83.20734
#
# Poissons Ratio (x) = 0.36804 0.49508
# Poissons Ratio (y) = 0.22723 0.28908
# Poissons Ratio (z) = 0.26231 0.24807
#
# Static dielectric constant tensor:
#      x y z
#    x 3.920770 0.000000 0.046940 
#    y 0.000000 3.668000 0.000000 
#    z 0.046940 0.000000 3.517140 
# 
# 
# High freq. dielectric constant tensor:
#      x y z
#    x 1.805730 0.000000 0.007080 
#    y 0.000000 1.798050 0.000000 
#    z 0.007080 0.000000 1.771660 
# 
# From -- ./inp_files/281701.got.cif
#   From: 2010.06.25/outbox.cif.g09.slc.cpg/sg12_141_cif.got.tgz:281701.got - 2010.06.28 00:19:55.
