data_PCOD8089883
_publ_section_title
;
Structure prediction by ZEFSAII (Michael W. Deem and Ramdas Pophale) SiO2 
 PCOD8089883
Probable space group: C 2/M
;
_chemical_formula_sum "Si O2"
_cell_formula_units_Z 48
_cell_length_a 21.917630
_cell_length_b 9.257330
_cell_length_c 12.339151
_cell_angle_alpha 90.000000
_cell_angle_beta 78.671765
_cell_angle_gamma 90.000000
_cell_volume 2454.822961
_symmetry_space_group_name_H-M "C 2/M"
_symmetry_group_IT_number 12
_symmetry_cell_setting 'monoclinic'
loop_
_space_group_symop_operation_xyz
x,y,z
-x,y,-z
-x,-y,-z
x,-y,z
1/2+x,1/2+y,z
1/2-x,1/2+y,-z
1/2-x,1/2-y,-z
1/2+x,1/2-y,z
loop_
_atom_site_type_symbol
_atom_site_label
_atom_site_fract_x
_atom_site_fract_y
_atom_site_fract_z
Si Si1 0.065880 0.828080 0.430480
Si Si2 0.740475 0.339507 0.110855
Si Si3 0.817586 0.173273 0.460756
Si Si4 0.572137 0.158082 0.986075
Si Si5 0.155482 0.329795 0.763889
Si Si6 0.099642 0.838122 0.186941
O O1 0.129215 0.779177 0.470647
O O2 0.068242 0.770275 0.305416
O O3 0.000000 0.767124 0.500000
O O4 0.064711 0.000000 0.432258
O O5 0.760657 0.500000 0.070730
O O6 0.782309 0.284694 0.194728
O O7 0.672475 0.334388 0.184014
O O8 0.750000 0.250000 0.000000
O O9 0.750000 0.250000 0.500000
O O10 0.847882 0.227779 0.338726
O O11 0.807678 0.000000 0.464231
O O12 0.599025 0.216328 0.863030
O O13 0.601703 0.000000 0.997282
O O14 0.500000 0.146718 0.000000
O O15 0.587152 0.255550 0.081867
O O16 0.153762 0.500000 0.732185
O O17 0.074945 0.000000 0.177715
#
# Coordination Sequence:
#
# PCOD8089883 Si02
#       6
#     8   8   8   8   8   8
#     4   9  20  39  61  86 116 153 196 245 298 346
#     4  10  19  33  54  82 113 148 186 230 286 341
#     4  11  23  40  64  90 120 157 200 246 297 354
#     4  10  22  38  56  82 118 158 189 228 292 352
#     4  10  21  38  59  84 120 156 190 237 290 346
#     4  10  20  35  59  85 111 144 190 243 286 339
#
# _framework density 19.553343999999999
#
# number of rings (size 3 to 8) (size 9 to 14) (size 15 to 20)
#    0.000    2.000    1.667    1.500    2.333    4.333 
#    0.000    3.333    0.000    2.500    0.000    0.000 
#    0.000    0.000    0.000    0.000    0.000    0.000 
#
# Total GULP energy -297410.532612 kJ/mol
# GULP energy per Si atom -12392.105525 kJ/mol
# Density = 1.950884 g / cm^3
# Si number density = 19.553344 Si / 1000 Ang^3
#
#
#
# Elastic Constant Matrix: (Units=GPa)
#
#
# Indices 1 2 3 4 5 6 
#
# 1 99.1329 25.8549 37.9773 0.0000 -12.9534 0.0000
# 2 25.8549 61.7274 47.7019 0.0000 0.0345 0.0000
# 3 37.9773 47.7019 144.3150 0.0000 -15.8392 0.0000
# 4 0.0000 0.0000 0.0000 34.3064 0.0000 0.0957
# 5 -12.9534 0.0345 -15.8392 0.0000 31.1256 0.0000
# 6 0.0000 0.0000 0.0000 0.0957 0.0000 22.1923
#
#
#
# Elastic Compliance Matrix: (Units=1/GPa)
#
#
# Indices 1 2 3 4 5 6 
#
# 1 0.012256 -0.004050 -0.001404 0.000000 0.004390 0.000000
# 2 -0.004050 0.023554 -0.007316 0.000000 -0.005435 0.000000
# 3 -0.001404 -0.007316 0.010225 0.000000 0.004627 0.000000
# 4 0.000000 0.000000 0.000000 0.029149 0.000000 -0.000126
# 5 0.004390 -0.005435 0.004627 0.000000 0.036316 0.000000
# 6 0.000000 0.000000 0.000000 -0.000126 0.000000 0.045061
#
#
# Mechanical properties :
#
#
# Convention : Reuss Voigt Hill
#
# Bulk Modulus (GPa) = 48.79892 58.69374 53.74633
# Shear Modulus (GPa) = 26.46447 30.43427 28.44937
#
# Velocity S-wave (km/s) = 3.68292 3.94950 3.81853
# Velocity P-wave (km/s) = 6.56477 7.13305 6.85480
#
# Compressibility (1/GPa) = 0.02049226
#
# Stress axis : x y z
#
# Youngs Moduli (GPa) = 81.59564 42.45652 97.80029
#
# Poissons Ratio (x) = 0.17197 0.13735
# Poissons Ratio (y) = 0.33050 0.71550
# Poissons Ratio (z) = 0.11460 0.31061
#
# Static dielectric constant tensor:
#      x y z
#    x 3.444050 0.000000 -0.434170 
#    y 0.000000 1.723440 0.000000 
#    z -0.434170 0.000000 3.450180 
# 
# 
# High freq. dielectric constant tensor:
#      x y z
#    x 1.774380 0.000000 -0.009250 
#    y 0.000000 1.735130 0.000000 
#    z -0.009250 0.000000 1.774990 
# 
# From -- ./inp_files/172162.got.cif
#   From: 2010.06.25/outbox.cif.g09.slc.cpg/sg12_87_cif.got.tgz:172162.got - 2010.06.28 00:19:55.
