data_PCOD8089917
_publ_section_title
;
Structure prediction by ZEFSAII (Michael W. Deem and Ramdas Pophale) SiO2 
 PCOD8089917
Probable space group: C 2/M
;
_chemical_formula_sum "Si O2"
_cell_formula_units_Z 44
_cell_length_a 9.074672
_cell_length_b 20.215691
_cell_length_c 12.016334
_cell_angle_alpha 90.000000
_cell_angle_beta 80.065128
_cell_angle_gamma 90.000000
_cell_volume 2171.349506
_symmetry_space_group_name_H-M "C 2/M"
_symmetry_group_IT_number 12
_symmetry_cell_setting 'monoclinic'
loop_
_space_group_symop_operation_xyz
x,y,z
-x,y,-z
-x,-y,-z
x,-y,z
1/2+x,1/2+y,z
1/2-x,1/2+y,-z
1/2-x,1/2-y,-z
1/2+x,1/2-y,z
loop_
_atom_site_type_symbol
_atom_site_label
_atom_site_fract_x
_atom_site_fract_y
_atom_site_fract_z
Si Si1 0.000000 0.252179 0.500000
Si Si2 0.805143 0.878743 0.796380
Si Si3 0.160108 0.128660 0.739708
Si Si4 0.670021 0.500000 0.604151
Si Si5 0.214007 0.273921 0.653426
Si Si6 0.184843 0.000000 0.353161
Si Si7 0.322513 0.425696 0.031921
O O1 0.927414 0.293680 0.406658
O O2 0.866027 0.206671 0.566228
O O3 0.712328 0.814383 0.768478
O O4 0.754006 0.936820 0.720677
O O5 0.754599 0.893767 0.928885
O O6 0.981516 0.866856 0.765924
O O7 0.220686 0.066450 0.661003
O O8 0.221409 0.195869 0.678422
O O9 0.223128 0.119335 0.856862
O O10 0.744390 0.500000 0.472017
O O11 0.492640 0.500000 0.622577
O O12 0.258942 0.500000 0.055066
O O13 0.500000 0.430241 0.000000
#
# Coordination Sequence:
#
# PCOD8089917 Si02
#       7
#     4   8   8   4   8   4   8
#     4  10  24  38  56  78 122 160 184 224 290 344
#     4  10  19  33  54  84 114 149 190 236 285 332
#     4  10  19  33  54  84 114 149 190 236 285 332
#     4   9  18  27  47  79 111 139 188 241 278 318
#     4  11  22  37  58  84 116 153 191 232 282 342
#     4   9  18  27  47  79 111 139 188 241 278 318
#     4   9  16  31  54  83 117 146 185 244 292 320
#
# _framework density 20.263897
#
# number of rings (size 3 to 8) (size 9 to 14) (size 15 to 20)
#    0.000    2.182    3.636    0.000    5.091    0.727 
#    0.000    0.000    0.000    2.182    0.000    1.273 
#    0.000    0.000    0.000    0.000    0.000    0.000 
#
# Total GULP energy -272673.885393 kJ/mol
# GULP energy per Si atom -12394.267518 kJ/mol
# Density = 2.021778 g / cm^3
# Si number density = 20.263897 Si / 1000 Ang^3
#
#
#
# Elastic Constant Matrix: (Units=GPa)
#
#
# Indices 1 2 3 4 5 6 
#
# 1 43.8104 14.1743 26.0613 0.0000 13.0531 0.0000
# 2 14.1743 137.2869 76.9600 0.0000 15.7333 0.0000
# 3 26.0613 76.9600 197.5744 0.0000 27.7312 0.0000
# 4 0.0000 0.0000 0.0000 35.5931 0.0000 10.7910
# 5 13.0531 15.7333 27.7312 0.0000 23.6084 0.0000
# 6 0.0000 0.0000 0.0000 10.7910 0.0000 15.3754
#
#
#
# Elastic Compliance Matrix: (Units=1/GPa)
#
#
# Indices 1 2 3 4 5 6 
#
# 1 0.027879 -0.000440 -0.001657 0.000000 -0.013175 0.000000
# 2 -0.000440 0.009434 -0.003315 0.000000 -0.002150 0.000000
# 3 -0.001657 -0.003315 0.007343 0.000000 -0.005500 0.000000
# 4 0.000000 0.000000 0.000000 0.035689 0.000000 -0.025048
# 5 -0.013175 -0.002150 -0.005500 0.000000 0.057536 0.000000
# 6 0.000000 0.000000 0.000000 -0.025048 0.000000 0.082618
#
#
# Mechanical properties :
#
#
# Convention : Reuss Voigt Hill
#
# Bulk Modulus (GPa) = 29.55692 68.11812 48.83752
# Shear Modulus (GPa) = 20.60999 32.34712 26.47855
#
# Velocity S-wave (km/s) = 3.19263 3.99970 3.61873
# Velocity P-wave (km/s) = 5.31114 7.41745 6.45084
#
# Compressibility (1/GPa) = 0.03383302
#
# Stress axis : x y z
#
# Youngs Moduli (GPa) = 35.86938 105.99771 136.17967
#
# Poissons Ratio (x) = 0.04660 0.22564
# Poissons Ratio (y) = 0.01577 0.45144
# Poissons Ratio (z) = 0.05943 0.35139
#
# Static dielectric constant tensor:
#      x y z
#    x 3.136790 0.000000 0.193310 
#    y 0.000000 3.534620 0.000000 
#    z 0.193310 0.000000 4.116930 
# 
# 
# High freq. dielectric constant tensor:
#      x y z
#    x 1.730460 0.000000 0.013200 
#    y 0.000000 1.778550 0.000000 
#    z 0.013200 0.000000 1.813820 
# 
# From -- ./inp_files/120871.got.cif
#   From: 2010.06.25/outbox.cif.g09.slc.cpg/sg12_61_cif.got.tgz:120871.got - 2010.06.28 00:19:55.
