data_PCOD8089635
_publ_section_title
;
Structure prediction by ZEFSAII (Michael W. Deem and Ramdas Pophale) SiO2 
 PCOD8089635
Probable space group: C 2/M
;
_chemical_formula_sum "Si O2"
_cell_formula_units_Z 56
_cell_length_a 20.496806
_cell_length_b 9.097711
_cell_length_c 30.159368
_cell_angle_alpha 90.000000
_cell_angle_beta 146.408144
_cell_angle_gamma 90.000000
_cell_volume 3111.574191
_symmetry_space_group_name_H-M "C 2/M"
_symmetry_group_IT_number 12
_symmetry_cell_setting 'monoclinic'
loop_
_space_group_symop_operation_xyz
x,y,z
-x,y,-z
-x,-y,-z
x,-y,z
1/2+x,1/2+y,z
1/2-x,1/2+y,-z
1/2-x,1/2-y,-z
1/2+x,1/2-y,z
loop_
_atom_site_type_symbol
_atom_site_label
_atom_site_fract_x
_atom_site_fract_y
_atom_site_fract_z
Si Si1 0.793875 0.172172 0.321959
Si Si2 0.060383 0.337655 0.986503
Si Si3 0.356124 0.326039 0.831936
Si Si4 0.247714 0.828332 0.600166
Si Si5 0.460838 0.674617 0.579398
Si Si6 0.228280 0.828436 0.839501
Si Si7 0.037978 0.171729 0.319467
O O1 0.687171 0.261357 0.239259
O O2 0.794033 0.206059 0.373994
O O3 0.917073 0.232442 0.372206
O O4 0.776662 0.000000 0.302244
O O5 0.055313 0.500000 0.961817
O O6 0.992208 0.223834 0.916333
O O7 0.000000 0.341312 0.000000
O O8 0.196323 0.290326 0.073292
O O9 0.351678 0.500000 0.828575
O O10 0.271128 0.266355 0.822208
O O11 0.148754 0.763289 0.510965
O O12 0.372088 0.752267 0.661830
O O13 0.264695 0.000000 0.601772
O O14 0.462461 0.500000 0.578087
O O15 0.448623 0.731468 0.622748
O O16 0.092558 0.792395 0.772519
O O17 0.244872 0.000000 0.835918
O O18 0.064995 0.000000 0.333300
#
# Coordination Sequence:
#
# PCOD8089635 Si02
#       7
#     8   8   8   8   8   8   8
#     4  10  19  35  55  72 100 139 178 212 247 303
#     4   8  15  28  48  72 100 132 168 206 245 301
#     4  11  20  29  47  77 107 131 163 212 263 301
#     4  10  21  34  52  78 103 133 173 217 257 298
#     4   9  17  33  56  77  97 131 178 216 251 298
#     4   9  17  32  52  74 100 137 176 203 243 304
#     4  10  19  33  54  76 105 139 167 206 254 307
#
# _framework density 17.997320999999999
#
# number of rings (size 3 to 8) (size 9 to 14) (size 15 to 20)
#    0.000    2.429    1.429    3.000    0.000    5.429 
#    0.000    0.714    0.000    2.571    0.000    0.000 
#    0.000    0.000    0.000    0.000    0.000    0.000 
#
# Total GULP energy -347163.305853 kJ/mol
# GULP energy per Si atom -12398.689495 kJ/mol
# Density = 1.795636 g / cm^3
# Si number density = 17.997321 Si / 1000 Ang^3
#
#
#
# Elastic Constant Matrix: (Units=GPa)
#
#
# Indices 1 2 3 4 5 6 
#
# 1 57.6436 23.3008 24.0152 0.0001 11.8981 -0.0001
# 2 23.3008 62.8799 41.0801 0.0000 2.2936 0.0001
# 3 24.0152 41.0801 133.9201 0.0000 15.5032 0.0000
# 4 0.0001 0.0000 0.0000 17.2947 0.0000 4.9220
# 5 11.8981 2.2936 15.5032 0.0000 14.3700 0.0000
# 6 -0.0001 0.0001 0.0000 4.9220 0.0000 21.5495
#
#
#
# Elastic Compliance Matrix: (Units=1/GPa)
#
#
# Indices 1 2 3 4 5 6 
#
# 1 0.024740 -0.008803 0.000540 0.000000 -0.019662 0.000000
# 2 -0.008803 0.023214 -0.006807 0.000000 0.010928 0.000000
# 3 0.000540 -0.006807 0.010724 0.000000 -0.010930 0.000000
# 4 0.000000 0.000000 0.000000 0.061841 0.000000 -0.014125
# 5 -0.019662 0.010928 -0.010930 0.000000 0.095917 0.000000
# 6 0.000000 0.000000 0.000000 -0.014125 0.000000 0.049631
#
#
# Mechanical properties :
#
#
# Convention : Reuss Voigt Hill
#
# Bulk Modulus (GPa) = 35.04268 47.91507 41.47888
# Shear Modulus (GPa) = 16.35486 21.71268 19.03377
#
# Velocity S-wave (km/s) = 3.01780 3.47715 3.25559
# Velocity P-wave (km/s) = 5.62638 6.54233 6.10156
#
# Compressibility (1/GPa) = 0.02853663
#
# Stress axis : x y z
#
# Youngs Moduli (GPa) = 40.42079 43.07711 93.25067
#
# Poissons Ratio (x) = 0.37922 -0.05036
# Poissons Ratio (y) = 0.35583 0.63479
# Poissons Ratio (z) = -0.02183 0.29324
#
# Static dielectric constant tensor:
#      x y z
#    x 2.992630 0.000000 0.067810 
#    y 0.000000 3.051510 0.000000 
#    z 0.067810 0.000000 3.865730 
# 
# 
# High freq. dielectric constant tensor:
#      x y z
#    x 1.660220 0.000000 0.004640 
#    y 0.000000 1.670940 0.000000 
#    z 0.004640 0.000000 1.719430 
# 
# From -- ./inp_files/280444.got.cif
#   From: 2010.06.25/outbox.cif.g09.slc.cpg/sg12_141_cif.got.tgz:280444.got - 2010.06.28 00:19:55.
