data_PCOD8089931
_publ_section_title
;
Structure prediction by ZEFSAII (Michael W. Deem and Ramdas Pophale) SiO2 
 PCOD8089931
Probable space group: C 2/M
;
_chemical_formula_sum "Si O2"
_cell_formula_units_Z 56
_cell_length_a 22.921013
_cell_length_b 16.651566
_cell_length_c 18.095270
_cell_angle_alpha 90.000000
_cell_angle_beta 151.205253
_cell_angle_gamma 90.000000
_cell_volume 3326.645773
_symmetry_space_group_name_H-M "C 2/M"
_symmetry_group_IT_number 12
_symmetry_cell_setting 'monoclinic'
loop_
_space_group_symop_operation_xyz
x,y,z
-x,y,-z
-x,-y,-z
x,-y,z
1/2+x,1/2+y,z
1/2-x,1/2+y,-z
1/2-x,1/2-y,-z
1/2+x,1/2-y,z
loop_
_atom_site_type_symbol
_atom_site_label
_atom_site_fract_x
_atom_site_fract_y
_atom_site_fract_z
Si Si1 0.453551 0.178327 0.193035
Si Si2 0.832812 0.906491 0.432052
Si Si3 0.069041 0.181815 0.723606
Si Si4 0.217175 0.767309 0.108281
Si Si5 0.691455 0.814540 0.382766
Si Si6 0.636774 0.200177 0.163721
Si Si7 0.259671 0.407059 0.974185
O O1 0.487199 0.248977 0.287336
O O2 0.578008 0.143202 0.297932
O O3 0.376548 0.108661 0.147377
O O4 0.376624 0.214188 0.041080
O O5 0.785606 0.884597 0.463010
O O6 0.731741 0.874664 0.261172
O O7 0.962117 0.864234 0.562425
O O8 0.850261 0.000000 0.440784
O O9 0.152471 0.224506 0.754829
O O10 0.144652 0.119656 0.857630
O O11 0.175153 0.768686 0.147254
O O12 0.220300 0.857463 0.079416
O O13 0.750000 0.750000 0.500000
O O14 0.648290 0.766552 0.260424
O O15 0.500000 0.169325 0.000000
O O16 0.277108 0.500000 0.974828
#
# Coordination Sequence:
#
# PCOD8089931 Si02
#       7
#     8   8   8   8   8   8   8
#     4   9  15  31  51  76  98 135 179 209 247 318
#     4  10  21  32  48  75 104 130 166 216 265 302
#     4   9  17  31  51  74 106 134 173 208 258 316
#     4   9  17  32  52  73 100 141 177 207 251 325
#     4  10  19  33  55  74  99 136 181 212 253 308
#     4  10  20  34  53  74 102 142 177 209 260 311
#     4   9  18  29  52  81 107 133 170 222 265 299
#
# _framework density 16.833772
#
# number of rings (size 3 to 8) (size 9 to 14) (size 15 to 20)
#    0.857    1.714    2.857    2.143    0.000    1.429 
#    0.000    4.286    0.000    1.286    0.000   13.000 
#    0.000    0.000    0.000    0.000    0.000    0.000 
#
# Total GULP energy -346908.476982 kJ/mol
# GULP energy per Si atom -12389.588464 kJ/mol
# Density = 1.679546 g / cm^3
# Si number density = 16.833772 Si / 1000 Ang^3
#
#
#
# Elastic Constant Matrix: (Units=GPa)
#
#
# Indices 1 2 3 4 5 6 
#
# 1 68.9594 18.9172 29.9258 0.0000 3.6331 0.0000
# 2 18.9172 88.2520 34.3240 0.0000 3.7356 0.0000
# 3 29.9258 34.3240 94.4401 0.0000 7.9706 0.0000
# 4 0.0000 0.0000 0.0000 18.9987 0.0000 0.5333
# 5 3.6331 3.7356 7.9706 0.0000 31.5568 0.0000
# 6 0.0000 0.0000 0.0000 0.5333 0.0000 16.2988
#
#
#
# Elastic Compliance Matrix: (Units=1/GPa)
#
#
# Indices 1 2 3 4 5 6 
#
# 1 0.017068 -0.001805 -0.004705 0.000000 -0.000563 0.000000
# 2 -0.001805 0.013391 -0.004270 0.000000 -0.000299 0.000000
# 3 -0.004705 -0.004270 0.013838 0.000000 -0.002448 0.000000
# 4 0.000000 0.000000 0.000000 0.052684 0.000000 -0.001724
# 5 -0.000563 -0.000299 -0.002448 0.000000 0.032407 0.000000
# 6 0.000000 0.000000 0.000000 -0.001724 0.000000 0.061411
#
#
# Mechanical properties :
#
#
# Convention : Reuss Voigt Hill
#
# Bulk Modulus (GPa) = 43.97927 46.44283 45.21105
# Shear Modulus (GPa) = 22.73372 24.60317 23.66844
#
# Velocity S-wave (km/s) = 3.67888 3.82715 3.75375
# Velocity P-wave (km/s) = 6.65040 6.86866 6.76041
#
# Compressibility (1/GPa) = 0.02273799
#
# Stress axis : x y z
#
# Youngs Moduli (GPa) = 58.58982 74.67464 72.26422
#
# Poissons Ratio (x) = 0.13478 0.34000
# Poissons Ratio (y) = 0.10575 0.30856
# Poissons Ratio (z) = 0.27566 0.31886
#
# Static dielectric constant tensor:
#      x y z
#    x 3.360500 0.000000 0.215030 
#    y 0.000000 2.734750 0.000000 
#    z 0.215030 0.000000 3.140600 
# 
# 
# High freq. dielectric constant tensor:
#      x y z
#    x 1.653080 0.000000 0.018480 
#    y 0.000000 1.606070 0.000000 
#    z 0.018480 0.000000 1.648510 
# 
# From -- ./inp_files/290342.got.cif
#   From: 2010.06.25/outbox.cif.g09.slc.cpg/sg12_146_cif.got.tgz:290342.got - 2010.06.28 00:19:55.
