data_PCOD8089489
_publ_section_title
;
Structure prediction by ZEFSAII (Michael W. Deem and Ramdas Pophale) SiO2 
 PCOD8089489
Probable space group: C 2/M
;
_chemical_formula_sum "Si O2"
_cell_formula_units_Z 64
_cell_length_a 29.274702
_cell_length_b 9.194516
_cell_length_c 18.921096
_cell_angle_alpha 90.000000
_cell_angle_beta 40.859425
_cell_angle_gamma 90.000000
_cell_volume 3331.821724
_symmetry_space_group_name_H-M "C 2/M"
_symmetry_group_IT_number 12
_symmetry_cell_setting 'monoclinic'
loop_
_space_group_symop_operation_xyz
x,y,z
-x,y,-z
-x,-y,-z
x,-y,z
1/2+x,1/2+y,z
1/2-x,1/2+y,-z
1/2-x,1/2-y,-z
1/2+x,1/2-y,z
loop_
_atom_site_type_symbol
_atom_site_label
_atom_site_fract_x
_atom_site_fract_y
_atom_site_fract_z
Si Si1 0.621342 0.663644 0.474419
Si Si2 0.052074 0.329312 0.677296
Si Si3 0.827828 0.665478 0.835603
Si Si4 0.895542 0.326340 0.897920
Si Si5 0.421843 0.165124 0.600104
Si Si6 0.222201 0.664238 0.719099
Si Si7 0.701515 0.674214 0.888123
Si Si8 0.684711 0.829674 0.611667
O O1 0.593132 0.500000 0.505441
O O2 0.568139 0.754832 0.583983
O O3 0.625540 0.729826 0.391063
O O4 0.701041 0.672397 0.406360
O O5 0.053013 0.500000 0.662615
O O6 0.111429 0.279560 0.663093
O O7 0.975945 0.279974 0.793250
O O8 0.806716 0.500000 0.872895
O O9 0.846606 0.733074 0.890133
O O10 0.899196 0.679134 0.707712
O O11 0.764186 0.735850 0.865304
O O12 0.889157 0.500000 0.913793
O O13 0.869577 0.243979 0.998491
O O14 0.500000 0.219974 0.500000
O O15 0.412363 0.000000 0.584236
O O16 0.207121 0.500000 0.764002
O O17 0.210810 0.774764 0.796642
O O18 0.174796 0.706058 0.706905
O O19 0.698566 0.500000 0.891069
O O20 0.750000 0.750000 0.500000
O O21 0.697490 0.000000 0.584901
#
# Coordination Sequence:
#
# PCOD8089489 Si02
#       8
#     8   8   8   8   8   8   8   8
#     4  11  21  33  53  82 117 150 181 227 284 334
#     4  10  21  37  60  85 112 149 190 229 280 344
#     4   9  18  33  54  80 109 142 186 231 272 326
#     4  10  21  39  59  81 110 146 187 233 282 331
#     4  10  19  33  53  77 111 153 191 229 276 335
#     4  10  21  37  56  82 114 147 182 227 282 333
#     4  11  22  37  58  83 110 147 192 235 277 326
#     4  10  20  36  59  87 115 145 185 230 279 338
#
# _framework density 19.208711000000001
#
# number of rings (size 3 to 8) (size 9 to 14) (size 15 to 20)
#    0.000    1.875    2.500    1.875    0.000    3.750 
#    0.000    1.875    0.000    3.750    0.000    0.000 
#    0.000    0.000    0.000    0.000    0.000    0.000 
#
# Total GULP energy -396689.704811 kJ/mol
# GULP energy per Si atom -12396.553275 kJ/mol
# Density = 1.916499 g / cm^3
# Si number density = 19.208711 Si / 1000 Ang^3
#
#
#
# Elastic Constant Matrix: (Units=GPa)
#
#
# Indices 1 2 3 4 5 6 
#
# 1 85.8867 29.1786 34.7246 -0.0004 8.0630 -0.0025
# 2 29.1786 53.3606 37.4429 -0.0029 3.8073 0.0041
# 3 34.7246 37.4429 110.4321 -0.0057 5.8648 0.0016
# 4 -0.0004 -0.0029 -0.0057 30.5961 -0.0005 2.4610
# 5 8.0630 3.8073 5.8648 -0.0005 20.8328 0.0013
# 6 -0.0025 0.0041 0.0016 2.4610 0.0013 22.2674
#
#
#
# Elastic Compliance Matrix: (Units=1/GPa)
#
#
# Indices 1 2 3 4 5 6 
#
# 1 0.015135 -0.006298 -0.002410 -0.000001 -0.004029 0.000003
# 2 -0.006298 0.027309 -0.007252 0.000002 -0.000512 -0.000005
# 3 -0.002410 -0.007252 0.012336 0.000002 -0.001215 0.000000
# 4 -0.000001 0.000002 0.000002 0.032977 0.000001 -0.003645
# 5 -0.004029 -0.000512 -0.001215 0.000001 0.049996 -0.000003
# 6 0.000003 -0.000005 0.000000 -0.003645 -0.000003 0.045311
#
#
# Mechanical properties :
#
#
# Convention : Reuss Voigt Hill
#
# Bulk Modulus (GPa) = 43.74117 50.26352 47.00235
# Shear Modulus (GPa) = 22.46123 24.62816 23.54469
#
# Velocity S-wave (km/s) = 3.42325 3.58458 3.50484
# Velocity P-wave (km/s) = 6.20047 6.58453 6.39539
#
# Compressibility (1/GPa) = 0.02286176
#
# Stress axis : x y z
#
# Youngs Moduli (GPa) = 66.07028 36.61743 81.06043
#
# Poissons Ratio (x) = 0.23061 0.19535
# Poissons Ratio (y) = 0.41610 0.58785
# Poissons Ratio (z) = 0.15922 0.26555
#
# Static dielectric constant tensor:
#      x y z
#    x 3.701190 -0.000010 -0.064100 
#    y -0.000010 3.308010 0.000020 
#    z -0.064100 0.000020 3.428340 
# 
# 
# High freq. dielectric constant tensor:
#      x y z
#    x 1.746990 0.000000 0.004030 
#    y 0.000000 1.728710 0.000000 
#    z 0.004030 0.000000 1.745180 
# 
# From -- ./inp_files/295633.got.cif
#   From: 2010.06.25/outbox.cif.g09.slc.cpg/sg12_148_cif.got.tgz:295633.got - 2010.06.28 00:19:55.
