data_PCOD8089345
_publ_section_title
;
Structure prediction by ZEFSAII (Michael W. Deem and Ramdas Pophale) SiO2 
 PCOD8089345
Probable space group: C 2/M
;
_chemical_formula_sum "Si O2"
_cell_formula_units_Z 56
_cell_length_a 19.113026
_cell_length_b 9.266222
_cell_length_c 28.317638
_cell_angle_alpha 90.000000
_cell_angle_beta 36.049065
_cell_angle_gamma 90.000000
_cell_volume 2951.340291
_symmetry_space_group_name_H-M "C 2/M"
_symmetry_group_IT_number 12
_symmetry_cell_setting 'monoclinic'
loop_
_space_group_symop_operation_xyz
x,y,z
-x,y,-z
-x,-y,-z
x,-y,z
1/2+x,1/2+y,z
1/2-x,1/2+y,-z
1/2-x,1/2-y,-z
1/2+x,1/2-y,z
loop_
_atom_site_type_symbol
_atom_site_label
_atom_site_fract_x
_atom_site_fract_y
_atom_site_fract_z
Si Si1 0.818795 0.166747 0.503343
Si Si2 0.749343 0.662139 0.112716
Si Si3 0.900232 0.161738 0.094305
Si Si4 0.287258 0.166049 0.334812
Si Si5 0.521084 0.665400 0.182902
Si Si6 0.563051 0.831505 0.069268
Si Si7 0.954039 0.169881 0.573336
O O1 0.750000 0.250000 0.500000
O O2 0.759626 0.193222 0.586737
O O3 0.958624 0.220982 0.431246
O O4 0.812741 0.000000 0.492313
O O5 0.783732 0.500000 0.109775
O O6 0.780158 0.770637 0.138290
O O7 0.609482 0.675484 0.179278
O O8 0.823402 0.700699 0.025187
O O9 0.943050 0.260771 0.113898
O O10 0.873617 0.000000 0.126725
O O11 0.000000 0.162263 0.000000
O O12 0.395688 0.271378 0.266476
O O13 0.187525 0.202960 0.348484
O O14 0.327712 0.000000 0.307033
O O15 0.505423 0.500000 0.175118
O O16 0.585098 0.756058 0.107082
O O17 0.540274 0.000000 0.089057
O O18 0.000000 0.242835 0.500000
O O19 0.975626 0.000000 0.557968
#
# Coordination Sequence:
#
# PCOD8089345 Si02
#       7
#     8   8   8   8   8   8   8
#     4   9  17  31  54  81 104 126 158 201 245 293
#     4   9  19  34  51  72  99 134 174 214 257 305
#     4   9  17  30  50  74  97 121 156 207 259 303
#     4   9  18  34  53  72  97 133 172 203 241 296
#     4  11  22  34  49  73 105 135 168 214 260 300
#     4  10  19  33  53  73  96 131 175 216 256 307
#     4   7  12  27  51  73  93 123 162 196 226 274
#
# _framework density 18.974430000000002
#
# number of rings (size 3 to 8) (size 9 to 14) (size 15 to 20)
#    0.000    2.857    0.000    3.429    0.000    4.000 
#    0.000    2.143    0.000    7.714    0.000    0.000 
#    0.000    0.000    0.000    0.000    0.000    0.000 
#
# Total GULP energy -346931.387823 kJ/mol
# GULP energy per Si atom -12390.406708 kJ/mol
# Density = 1.893124 g / cm^3
# Si number density = 18.974430 Si / 1000 Ang^3
#
#
#
# Elastic Constant Matrix: (Units=GPa)
#
#
# Indices 1 2 3 4 5 6 
#
# 1 132.7662 53.4167 27.2400 0.0000 -29.2592 -0.0004
# 2 53.4167 101.4326 26.3681 0.0002 -16.2051 -0.0012
# 3 27.2400 26.3681 39.2799 0.0000 -21.0002 -0.0002
# 4 0.0000 0.0002 0.0000 25.4439 0.0001 -0.6485
# 5 -29.2592 -16.2051 -21.0002 0.0001 24.6819 0.0001
# 6 -0.0004 -0.0012 -0.0002 -0.6485 0.0001 35.4459
#
#
#
# Elastic Compliance Matrix: (Units=1/GPa)
#
#
# Indices 1 2 3 4 5 6 
#
# 1 0.011778 -0.004636 0.001434 0.000000 0.012139 0.000000
# 2 -0.004636 0.013815 -0.007609 0.000000 -0.002899 0.000000
# 3 0.001434 -0.007609 0.051016 0.000000 0.040110 0.000000
# 4 0.000000 0.000000 0.000000 0.039321 0.000000 0.000719
# 5 0.012139 -0.002899 0.040110 0.000000 0.087128 0.000000
# 6 0.000000 0.000000 0.000000 0.000719 0.000000 0.028225
#
#
# Mechanical properties :
#
#
# Convention : Reuss Voigt Hill
#
# Bulk Modulus (GPa) = 18.18624 54.16981 36.17803
# Shear Modulus (GPa) = 18.43422 28.21127 23.32275
#
# Velocity S-wave (km/s) = 3.12032 3.86009 3.50975
# Velocity P-wave (km/s) = 4.75261 6.96261 5.96092
#
# Compressibility (1/GPa) = 0.05498661
#
# Stress axis : x y z
#
# Youngs Moduli (GPa) = 84.90212 72.38507 19.60175
#
# Poissons Ratio (x) = 0.33559 -0.02810
# Poissons Ratio (y) = 0.39362 0.14915
# Poissons Ratio (z) = -0.12173 0.55077
#
# Static dielectric constant tensor:
#      x y z
#    x 3.686660 0.000000 -0.221040 
#    y 0.000000 3.391190 0.000000 
#    z -0.221040 0.000000 3.099290 
# 
# 
# High freq. dielectric constant tensor:
#      x y z
#    x 1.749640 0.000000 -0.019120 
#    y 0.000000 1.725850 0.000000 
#    z -0.019120 0.000000 1.697770 
# 
# From -- ./inp_files/363027.got.cif
#   From: 2010.06.25/outbox.cif.g09.slc.cpg/sg12_182_cif.got.tgz:363027.got - 2010.06.28 00:19:55.
