data_PCOD8089142
_publ_section_title
;
Structure prediction by ZEFSAII (Michael W. Deem and Ramdas Pophale) SiO2 
 PCOD8089142
Probable space group: C 2/M
;
_chemical_formula_sum "Si O2"
_cell_formula_units_Z 56
_cell_length_a 29.131050
_cell_length_b 9.028534
_cell_length_c 11.067304
_cell_angle_alpha 90.000000
_cell_angle_beta 109.565818
_cell_angle_gamma 90.000000
_cell_volume 2742.740871
_symmetry_space_group_name_H-M "C 2/M"
_symmetry_group_IT_number 12
_symmetry_cell_setting 'monoclinic'
loop_
_space_group_symop_operation_xyz
x,y,z
-x,y,-z
-x,-y,-z
x,-y,z
1/2+x,1/2+y,z
1/2-x,1/2+y,-z
1/2-x,1/2-y,-z
1/2+x,1/2-y,z
loop_
_atom_site_type_symbol
_atom_site_label
_atom_site_fract_x
_atom_site_fract_y
_atom_site_fract_z
Si Si1 0.128119 0.326554 0.983575
Si Si2 0.323114 0.831612 0.737259
Si Si3 0.226431 0.325702 0.632887
Si Si4 0.026389 0.824767 0.396922
Si Si5 0.123636 0.668372 0.442644
Si Si6 0.980845 0.323715 0.116794
Si Si7 0.710621 0.171953 0.886777
O O1 0.123232 0.500000 0.006884
O O2 0.160355 0.257284 0.121525
O O3 0.074150 0.261072 0.926536
O O4 0.155873 0.291342 0.883543
O O5 0.276535 0.751212 0.633575
O O6 0.372475 0.824746 0.699567
O O7 0.305885 0.000000 0.739145
O O8 0.233857 0.500000 0.625907
O O9 0.177470 0.274434 0.523931
O O10 0.216671 0.269307 0.758764
O O11 0.082524 0.775032 0.460246
O O12 0.000000 0.776728 0.500000
O O13 0.007084 0.748014 0.256737
O O14 0.022696 0.000000 0.376381
O O15 0.113859 0.500000 0.479931
O O16 0.985336 0.500000 0.137440
O O17 0.000000 0.276413 0.000000
O O18 0.720888 0.000000 0.906026
O O19 0.750000 0.250000 0.000000
#
# Coordination Sequence:
#
# PCOD8089142 Si02
#       7
#     8   8   8   8   8   8   8
#     4   9  18  32  55  83 112 146 186 235 287 343
#     4  10  19  35  58  85 117 151 187 231 287 352
#     4  10  21  34  53  84 117 148 191 237 282 346
#     4  11  26  45  62  88 125 162 204 256 314 371
#     4  10  22  39  61  85 111 151 201 245 291 353
#     4  10  21  40  68  96 120 154 205 257 307 366
#     4  10  19  33  51  76 111 149 189 232 281 340
#
# _framework density 20.417531
#
# number of rings (size 3 to 8) (size 9 to 14) (size 15 to 20)
#    0.000    2.000    1.429    1.714    2.000    4.857 
#    0.000    1.429    0.000    0.000    0.000    0.000 
#    0.000    0.000    0.000    0.000    0.000    0.000 
#
# Total GULP energy -346960.721300 kJ/mol
# GULP energy per Si atom -12391.454332 kJ/mol
# Density = 2.037106 g / cm^3
# Si number density = 20.417531 Si / 1000 Ang^3
#
#
#
# Elastic Constant Matrix: (Units=GPa)
#
#
# Indices 1 2 3 4 5 6 
#
# 1 145.6226 40.4346 43.0346 0.0000 -0.5621 0.0000
# 2 40.4346 45.1202 31.4362 0.0000 -0.4445 0.0000
# 3 43.0346 31.4362 90.2821 0.0000 -4.5608 0.0000
# 4 0.0000 0.0000 0.0000 26.4660 0.0000 3.7839
# 5 -0.5621 -0.4445 -4.5608 0.0000 32.8072 0.0000
# 6 0.0000 0.0000 0.0000 3.7839 0.0000 29.4540
#
#
#
# Elastic Compliance Matrix: (Units=1/GPa)
#
#
# Indices 1 2 3 4 5 6 
#
# 1 0.009422 -0.007009 -0.002062 0.000000 -0.000220 0.000000
# 2 -0.007009 0.034511 -0.008719 0.000000 -0.000865 0.000000
# 3 -0.002062 -0.008719 0.015194 0.000000 0.001959 0.000000
# 4 0.000000 0.000000 0.000000 0.038491 0.000000 -0.004945
# 5 -0.000220 -0.000865 0.001959 0.000000 0.030738 0.000000
# 6 0.000000 0.000000 0.000000 -0.004945 0.000000 0.034586
#
#
# Mechanical properties :
#
#
# Convention : Reuss Voigt Hill
#
# Bulk Modulus (GPa) = 42.46910 56.75953 49.61432
# Shear Modulus (GPa) = 24.22825 28.82008 26.52416
#
# Velocity S-wave (km/s) = 3.44850 3.76112 3.60820
# Velocity P-wave (km/s) = 6.05819 6.83528 6.45844
#
# Compressibility (1/GPa) = 0.02354653
#
# Stress axis : x y z
#
# Youngs Moduli (GPa) = 106.13868 28.97661 65.81515
#
# Poissons Ratio (x) = 0.20310 0.13568
# Poissons Ratio (y) = 0.74393 0.57386
# Poissons Ratio (z) = 0.21881 0.25265
#
# Static dielectric constant tensor:
#      x y z
#    x 3.616590 0.000000 0.034550 
#    y 0.000000 3.345970 0.000000 
#    z 0.034550 0.000000 3.858020 
# 
# 
# High freq. dielectric constant tensor:
#      x y z
#    x 1.814020 0.000000 -0.007860 
#    y 0.000000 1.760330 0.000000 
#    z -0.007860 0.000000 1.811140 
# 
# From -- ./inp_files/181134.got.cif
#   From: 2010.06.25/outbox.cif.g09.slc.cpg/sg12_91_cif.got.tgz:181134.got - 2010.06.28 00:19:55.
