data_PCOD8089560
_publ_section_title
;
Structure prediction by ZEFSAII (Michael W. Deem and Ramdas Pophale) SiO2 
 PCOD8089560
Probable space group: C 2/M
;
_chemical_formula_sum "Si O2"
_cell_formula_units_Z 64
_cell_length_a 15.309876
_cell_length_b 9.173255
_cell_length_c 23.951201
_cell_angle_alpha 90.000000
_cell_angle_beta 89.871076
_cell_angle_gamma 90.000000
_cell_volume 3363.731602
_symmetry_space_group_name_H-M "C 2/M"
_symmetry_group_IT_number 12
_symmetry_cell_setting 'monoclinic'
loop_
_space_group_symop_operation_xyz
x,y,z
-x,y,-z
-x,-y,-z
x,-y,z
1/2+x,1/2+y,z
1/2-x,1/2+y,-z
1/2-x,1/2-y,-z
1/2+x,1/2-y,z
loop_
_atom_site_type_symbol
_atom_site_label
_atom_site_fract_x
_atom_site_fract_y
_atom_site_fract_z
Si Si1 0.463657 0.829436 0.939578
Si Si2 0.784097 0.171669 0.944933
Si Si3 0.626456 0.168455 0.862338
Si Si4 0.961182 0.826226 0.675486
Si Si5 0.125732 0.827688 0.746257
Si Si6 0.789298 0.673021 0.673662
Si Si7 0.272260 0.335059 0.444671
Si Si8 0.025389 0.166527 0.558716
O O1 0.377101 0.737074 0.925655
O O2 0.539068 0.787779 0.895819
O O3 0.439408 0.000000 0.937489
O O4 0.500000 0.786386 0.000000
O O5 0.713158 0.202705 0.897368
O O6 0.793802 0.000000 0.956588
O O7 0.750000 0.250000 0.000000
O O8 0.630822 0.263182 0.807342
O O9 0.622911 0.000000 0.845747
O O10 0.873612 0.752657 0.698843
O O11 0.038428 0.773395 0.715668
O O12 0.977553 0.764789 0.612539
O O13 0.953413 0.000000 0.675741
O O14 0.207758 0.772956 0.710093
O O15 0.126498 0.000000 0.751216
O O16 0.799834 0.500000 0.677120
O O17 0.778438 0.724983 0.609362
O O18 0.245215 0.500000 0.456593
O O19 0.250000 0.250000 0.500000
O O20 0.373033 0.321397 0.429460
O O21 0.000000 0.245933 0.500000
O O22 0.994173 0.000000 0.554195
#
# Coordination Sequence:
#
# PCOD8089560 Si02
#       8
#     8   8   8   8   8   8   8   8
#     4  10  20  39  62  87 123 161 194 239 296 349
#     4  11  22  38  61  91 124 159 199 243 293 349
#     4  10  23  41  61  87 122 158 195 241 292 344
#     4  10  20  37  60  84 109 147 197 239 280 343
#     4  10  22  41  61  82 115 156 199 240 283 343
#     4  10  21  38  58  82 115 152 188 238 297 345
#     4  10  19  33  53  80 113 146 185 235 288 346
#     4   9  16  29  52  79 107 141 183 228 278 338
#
# _framework density 19.026489999999999
#
# number of rings (size 3 to 8) (size 9 to 14) (size 15 to 20)
#    0.000    2.000    2.500    1.125    0.000    5.250 
#    0.000    5.625    0.000    2.250    0.000    0.000 
#    0.000    0.000    0.000    0.000    0.000    0.000 
#
# Total GULP energy -396797.666960 kJ/mol
# GULP energy per Si atom -12399.927093 kJ/mol
# Density = 1.898318 g / cm^3
# Si number density = 19.026490 Si / 1000 Ang^3
#
#
#
# Elastic Constant Matrix: (Units=GPa)
#
#
# Indices 1 2 3 4 5 6 
#
# 1 151.5325 50.9442 72.2137 0.0000 3.1877 0.0000
# 2 50.9442 45.5334 45.1264 0.0000 -0.3946 0.0000
# 3 72.2137 45.1264 127.5635 0.0000 -1.2457 0.0000
# 4 0.0000 0.0000 0.0000 30.8074 0.0000 0.5207
# 5 3.1877 -0.3946 -1.2457 0.0000 27.9568 0.0000
# 6 0.0000 0.0000 0.0000 0.5207 0.0000 33.4441
#
#
#
# Elastic Compliance Matrix: (Units=1/GPa)
#
#
# Indices 1 2 3 4 5 6 
#
# 1 0.011324 -0.009724 -0.002986 0.000000 -0.001562 0.000000
# 2 -0.009724 0.042169 -0.009400 0.000000 0.001285 0.000000
# 3 -0.002986 -0.009400 0.012863 0.000000 0.000781 0.000000
# 4 0.000000 0.000000 0.000000 0.032468 0.000000 -0.000505
# 5 -0.001562 0.001285 0.000781 0.000000 0.036000 0.000000
# 6 0.000000 0.000000 0.000000 -0.000505 0.000000 0.029909
#
#
# Mechanical properties :
#
#
# Convention : Reuss Voigt Hill
#
# Bulk Modulus (GPa) = 45.17684 73.46645 59.32165
# Shear Modulus (GPa) = 23.11263 28.86465 25.98864
#
# Velocity S-wave (km/s) = 3.48912 3.89919 3.69984
# Velocity P-wave (km/s) = 6.32674 7.67907 7.03548
#
# Compressibility (1/GPa) = 0.02213524
#
# Stress axis : x y z
#
# Youngs Moduli (GPa) = 88.30577 23.71414 77.74538
#
# Poissons Ratio (x) = 0.23060 0.23214
# Poissons Ratio (y) = 0.85871 0.73081
# Poissons Ratio (z) = 0.26367 0.22291
#
# Static dielectric constant tensor:
#      x y z
#    x 3.884100 0.000000 0.080450 
#    y 0.000000 3.265990 0.000000 
#    z 0.080450 0.000000 3.469680 
# 
# 
# High freq. dielectric constant tensor:
#      x y z
#    x 1.755280 0.000000 0.001050 
#    y 0.000000 1.715920 0.000000 
#    z 0.001050 0.000000 1.743920 
# 
# From -- ./inp_files/338910.got.cif
#   From: 2010.06.25/outbox.cif.g09.slc.cpg/sg12_170_cif.got.tgz:338910.got - 2010.06.28 00:19:55.
