data_PCOD8089223
_publ_section_title
;
Structure prediction by ZEFSAII (Michael W. Deem and Ramdas Pophale) SiO2 
 PCOD8089223
Probable space group: C 2/M
;
_chemical_formula_sum "Si O2"
_cell_formula_units_Z 48
_cell_length_a 14.226213
_cell_length_b 8.790664
_cell_length_c 21.323052
_cell_angle_alpha 90.000000
_cell_angle_beta 89.001597
_cell_angle_gamma 90.000000
_cell_volume 2666.210377
_symmetry_space_group_name_H-M "C 2/M"
_symmetry_group_IT_number 12
_symmetry_cell_setting 'monoclinic'
loop_
_space_group_symop_operation_xyz
x,y,z
-x,y,-z
-x,-y,-z
x,-y,z
1/2+x,1/2+y,z
1/2-x,1/2+y,-z
1/2-x,1/2-y,-z
1/2+x,1/2-y,z
loop_
_atom_site_type_symbol
_atom_site_label
_atom_site_fract_x
_atom_site_fract_y
_atom_site_fract_z
Si Si1 0.893670 0.321169 0.666456
Si Si2 0.262856 0.680445 0.237602
Si Si3 0.394864 0.320339 0.992905
Si Si4 0.755829 0.679192 0.904173
Si Si5 0.744326 0.319526 0.568255
Si Si6 0.104283 0.318709 0.665726
O O1 0.903526 0.500000 0.667320
O O2 0.834350 0.268714 0.728042
O O3 0.838528 0.270231 0.604388
O O4 0.998075 0.252287 0.666608
O O5 0.278388 0.500000 0.243251
O O6 0.259899 0.736980 0.166166
O O7 0.349332 0.763765 0.270116
O O8 0.396191 0.500000 0.985804
O O9 0.333675 0.268535 0.053658
O O10 0.500000 0.255686 0.000000
O O11 0.350817 0.252440 0.930104
O O12 0.769220 0.500000 0.905739
O O13 0.733934 0.500000 0.564991
O O14 0.750000 0.250000 0.500000
O O15 0.654316 0.252327 0.604709
O O16 0.108515 0.500000 0.661215
#
# Coordination Sequence:
#
# PCOD8089223 Si02
#       6
#     8   8   8   8   8   8
#     4   8  17  33  51  69  96 130 159 193 242 293
#     4   9  18  34  51  70  98 130 162 200 246 291
#     4   9  18  32  48  69  99 130 161 203 252 293
#     4   9  18  32  50  70  95 129 166 201 241 294
#     4  10  20  36  54  74 101 132 163 199 241 285
#     4  10  19  33  52  74  97 126 163 199 239 289
#
# _framework density 18.003079
#
# number of rings (size 3 to 8) (size 9 to 14) (size 15 to 20)
#    0.000    2.833    0.000    2.000    0.000    3.000 
#    0.000   11.667    0.000    0.000    0.000    0.000 
#    0.000    0.000    0.000    0.000    0.000    0.000 
#
# Total GULP energy -297572.873646 kJ/mol
# GULP energy per Si atom -12398.869735 kJ/mol
# Density = 1.796210 g / cm^3
# Si number density = 18.003079 Si / 1000 Ang^3
#
#
#
# Elastic Constant Matrix: (Units=GPa)
#
#
# Indices 1 2 3 4 5 6 
#
# 1 166.3553 33.4796 83.9477 0.0000 17.6173 0.0000
# 2 33.4796 42.0143 36.1496 0.0000 0.4201 0.0000
# 3 83.9477 36.1496 170.5071 0.0000 -2.7923 0.0000
# 4 0.0000 0.0000 0.0000 30.9291 0.0000 3.5348
# 5 17.6173 0.4201 -2.7923 0.0000 17.3652 0.0000
# 6 0.0000 0.0000 0.0000 3.5348 0.0000 24.2342
#
#
#
# Elastic Compliance Matrix: (Units=1/GPa)
#
#
# Indices 1 2 3 4 5 6 
#
# 1 0.010203 -0.004336 -0.004283 0.000000 -0.010935 0.000000
# 2 -0.004336 0.031005 -0.004390 0.000000 0.002943 0.000000
# 3 -0.004283 -0.004390 0.009001 0.000000 0.005899 0.000000
# 4 0.000000 0.000000 0.000000 0.032880 0.000000 -0.004796
# 5 -0.010935 0.002943 0.005899 0.000000 0.069558 0.000000
# 6 0.000000 0.000000 0.000000 -0.004796 0.000000 0.041964
#
#
# Mechanical properties :
#
#
# Convention : Reuss Voigt Hill
#
# Bulk Modulus (GPa) = 41.33963 76.22562 58.78263
# Shear Modulus (GPa) = 21.86329 29.52569 25.69449
#
# Velocity S-wave (km/s) = 3.48863 4.05413 3.78196
# Velocity P-wave (km/s) = 6.26417 8.02165 7.19676
#
# Compressibility (1/GPa) = 0.02418986
#
# Stress axis : x y z
#
# Youngs Moduli (GPa) = 98.00593 32.25311 111.09646
#
# Poissons Ratio (x) = 0.13985 0.47587
# Poissons Ratio (y) = 0.42495 0.48776
# Poissons Ratio (z) = 0.41980 0.14161
#
# Static dielectric constant tensor:
#      x y z
#    x 3.636140 0.000000 0.031620 
#    y 0.000000 3.140160 0.000000 
#    z 0.031620 0.000000 3.385570 
# 
# 
# High freq. dielectric constant tensor:
#      x y z
#    x 1.701180 0.000000 0.001550 
#    y 0.000000 1.682250 0.000000 
#    z 0.001550 0.000000 1.701600 
# 
# From -- ./inp_files/307996.got.cif
#   From: 2010.06.25/outbox.cif.g09.slc.cpg/sg12_154_cif.got.tgz:307996.got - 2010.06.28 00:19:55.
