data_PCOD8089709
_publ_section_title
;
Structure prediction by ZEFSAII (Michael W. Deem and Ramdas Pophale) SiO2 
 PCOD8089709
Probable space group: C 2/M
;
_chemical_formula_sum "Si O2"
_cell_formula_units_Z 64
_cell_length_a 18.688697
_cell_length_b 9.276979
_cell_length_c 29.443145
_cell_angle_alpha 90.000000
_cell_angle_beta 137.070299
_cell_angle_gamma 90.000000
_cell_volume 3476.810349
_symmetry_space_group_name_H-M "C 2/M"
_symmetry_group_IT_number 12
_symmetry_cell_setting 'monoclinic'
loop_
_space_group_symop_operation_xyz
x,y,z
-x,y,-z
-x,-y,-z
x,-y,z
1/2+x,1/2+y,z
1/2-x,1/2+y,-z
1/2-x,1/2-y,-z
1/2+x,1/2-y,z
loop_
_atom_site_type_symbol
_atom_site_label
_atom_site_fract_x
_atom_site_fract_y
_atom_site_fract_z
Si Si1 0.654099 0.663654 0.220645
Si Si2 0.945855 0.329707 0.099384
Si Si3 0.193226 0.162687 0.344939
Si Si4 0.406097 0.666615 0.990098
Si Si5 0.169567 0.664975 0.862756
Si Si6 0.353331 0.335305 0.306226
Si Si7 0.973195 0.833711 0.273069
Si Si8 0.605106 0.668495 0.572295
O O1 0.640973 0.500000 0.196791
O O2 0.557314 0.758817 0.160546
O O3 0.664818 0.670198 0.279198
O O4 0.758219 0.732193 0.247152
O O5 0.959988 0.500000 0.100534
O O6 0.902011 0.265299 0.032511
O O7 0.865554 0.290301 0.102659
O O8 0.294263 0.257572 0.404167
O O9 0.091425 0.227323 0.323263
O O10 0.217876 0.000000 0.371819
O O11 0.421173 0.500000 0.011521
O O12 0.500000 0.714915 0.000000
O O13 0.293992 0.689456 0.913539
O O14 0.138575 0.500000 0.839862
O O15 0.109613 0.757080 0.797706
O O16 0.312430 0.500000 0.287937
O O17 0.444835 0.312730 0.312388
O O18 0.400439 0.292832 0.377021
O O19 0.972616 0.000000 0.257727
O O20 0.500000 0.729458 0.500000
O O21 0.616459 0.500000 0.568619
#
# Coordination Sequence:
#
# PCOD8089709 Si02
#       8
#     8   8   8   8   8   8   8   8
#     4  10  19  33  54  78 105 139 178 220 268 322
#     4  11  22  36  56  80 106 138 181 225 269 324
#     4   9  18  33  53  79 107 139 178 218 264 315
#     4  10  23  41  57  77 107 141 180 227 279 327
#     4  10  22  38  56  79 107 143 182 222 271 327
#     4   9  19  34  53  79 111 143 180 223 267 317
#     4  10  20  35  55  80 110 142 177 224 275 321
#     4   9  18  34  56  80 109 147 185 220 263 316
#
# _framework density 18.407677
#
# number of rings (size 3 to 8) (size 9 to 14) (size 15 to 20)
#    0.000    2.250    1.250    1.125    1.750    3.000 
#    0.000    0.625    0.000    0.000    0.000    0.000 
#    0.000    0.000    0.000    0.000    0.000    0.000 
#
# Total GULP energy -396832.640051 kJ/mol
# GULP energy per Si atom -12401.020002 kJ/mol
# Density = 1.836578 g / cm^3
# Si number density = 18.407677 Si / 1000 Ang^3
#
#
#
# Elastic Constant Matrix: (Units=GPa)
#
#
# Indices 1 2 3 4 5 6 
#
# 1 121.2776 41.2595 56.3240 0.0000 19.4176 0.0000
# 2 41.2595 65.9781 47.3170 0.0000 5.8581 0.0000
# 3 56.3240 47.3170 107.2698 0.0000 24.5182 0.0000
# 4 0.0000 0.0000 0.0000 29.0543 0.0000 4.2528
# 5 19.4176 5.8581 24.5182 0.0000 24.4786 0.0000
# 6 0.0000 0.0000 0.0000 4.2528 0.0000 23.2599
#
#
#
# Elastic Compliance Matrix: (Units=1/GPa)
#
#
# Indices 1 2 3 4 5 6 
#
# 1 0.012206 -0.005053 -0.002910 0.000000 -0.005559 0.000000
# 2 -0.005053 0.024920 -0.010236 0.000000 0.008297 0.000000
# 3 -0.002910 -0.010236 0.018517 0.000000 -0.013789 0.000000
# 4 0.000000 0.000000 0.000000 0.035365 0.000000 -0.006466
# 5 -0.005559 0.008297 -0.013789 0.000000 0.057087 0.000000
# 6 0.000000 0.000000 0.000000 -0.006466 0.000000 0.044175
#
#
# Mechanical properties :
#
#
# Convention : Reuss Voigt Hill
#
# Bulk Modulus (GPa) = 51.95657 64.92517 58.44087
# Shear Modulus (GPa) = 21.26926 25.33356 23.30141
#
# Velocity S-wave (km/s) = 3.40289 3.71381 3.56174
# Velocity P-wave (km/s) = 6.61259 7.33056 6.98081
#
# Compressibility (1/GPa) = 0.01924684
#
# Stress axis : x y z
#
# Youngs Moduli (GPa) = 81.92837 40.12796 54.00529
#
# Poissons Ratio (x) = 0.20276 0.15713
# Poissons Ratio (y) = 0.41396 0.55278
# Poissons Ratio (z) = 0.23838 0.41074
#
# Static dielectric constant tensor:
#      x y z
#    x 3.523380 0.000000 0.142860 
#    y 0.000000 3.482820 0.000000 
#    z 0.142860 0.000000 3.331180 
# 
# 
# High freq. dielectric constant tensor:
#      x y z
#    x 1.719140 0.000000 0.012060 
#    y 0.000000 1.712140 0.000000 
#    z 0.012060 0.000000 1.703210 
# 
# From -- ./inp_files/346209.got.cif
#   From: 2010.06.25/outbox.cif.g09.slc.cpg/sg12_174_cif.got.tgz:346209.got - 2010.06.28 00:19:55.
