data_PCOD8089647
_publ_section_title
;
Structure prediction by ZEFSAII (Michael W. Deem and Ramdas Pophale) SiO2 
 PCOD8089647
Probable space group: C 2/M
;
_chemical_formula_sum "Si O2"
_cell_formula_units_Z 48
_cell_length_a 15.422605
_cell_length_b 32.649388
_cell_length_c 5.069077
_cell_angle_alpha 90.000000
_cell_angle_beta 77.204558
_cell_angle_gamma 90.000000
_cell_volume 2489.090312
_symmetry_space_group_name_H-M "C 2/M"
_symmetry_group_IT_number 12
_symmetry_cell_setting 'monoclinic'
loop_
_space_group_symop_operation_xyz
x,y,z
-x,y,-z
-x,-y,-z
x,-y,z
1/2+x,1/2+y,z
1/2-x,1/2+y,-z
1/2-x,1/2-y,-z
1/2+x,1/2-y,z
loop_
_atom_site_type_symbol
_atom_site_label
_atom_site_fract_x
_atom_site_fract_y
_atom_site_fract_z
Si Si1 0.113277 0.180806 0.516644
Si Si2 0.308381 0.162083 0.372885
Si Si3 0.552661 0.768861 0.698851
Si Si4 0.789397 0.610191 0.902426
Si Si5 0.090032 0.129533 0.038817
Si Si6 0.441536 0.952274 0.792796
O O1 0.214109 0.180248 0.356187
O O2 0.082951 0.227397 0.533239
O O3 0.063301 0.152706 0.329359
O O4 0.106094 0.164687 0.816193
O O5 0.369567 0.200709 0.280092
O O6 0.312269 0.142987 0.661063
O O7 0.329210 0.126646 0.149192
O O8 0.500000 0.792113 0.500000
O O9 0.500000 0.758771 0.000000
O O10 0.844352 0.568477 0.823410
O O11 0.681034 0.602073 0.993766
O O12 0.000000 0.104786 0.000000
O O13 0.500000 0.942078 0.500000
O O14 0.420417 0.000000 0.837726
O O15 0.500000 0.936277 0.000000
#
# Coordination Sequence:
#
# PCOD8089647 Si02
#       6
#     8   8   8   8   8   8
#     4  10  20  35  51  68  96 134 177 218 255 300
#     4  10  22  36  50  72 101 135 169 211 264 308
#     4  12  23  33  48  70  97 132 175 218 263 307
#     4  10  21  36  55  78 105 135 168 212 260 306
#     4  10  19  33  54  77 100 131 174 217 259 303
#     4  10  21  37  59  84 109 140 173 204 244 301
#
# _framework density 19.284151999999999
#
# number of rings (size 3 to 8) (size 9 to 14) (size 15 to 20)
#    0.000    1.667    0.000    5.500    0.000    4.000 
#    0.000    6.667    0.000    0.500    0.000    0.000 
#    0.000   12.000    0.000    0.000    0.000    2.667 
#
# Total GULP energy -297406.201288 kJ/mol
# GULP energy per Si atom -12391.925054 kJ/mol
# Density = 1.924026 g / cm^3
# Si number density = 19.284152 Si / 1000 Ang^3
#
#
#
# Elastic Constant Matrix: (Units=GPa)
#
#
# Indices 1 2 3 4 5 6 
#
# 1 117.5212 55.3557 35.8448 0.0000 3.2571 0.0000
# 2 55.3557 57.8513 22.0133 0.0000 -10.3890 0.0000
# 3 35.8448 22.0133 110.6357 0.0000 1.9194 0.0000
# 4 0.0000 0.0000 0.0000 17.5670 0.0000 0.8795
# 5 3.2571 -10.3890 1.9194 0.0000 26.5409 0.0000
# 6 0.0000 0.0000 0.0000 0.8795 0.0000 4.8563
#
#
#
# Elastic Compliance Matrix: (Units=1/GPa)
#
#
# Indices 1 2 3 4 5 6 
#
# 1 0.017809 -0.017882 -0.002055 0.000000 -0.009036 0.000000
# 2 -0.017882 0.038323 -0.002133 0.000000 0.017350 0.000000
# 3 -0.002055 -0.002133 0.010152 0.000000 -0.001317 0.000000
# 4 0.000000 0.000000 0.000000 0.057446 0.000000 -0.010404
# 5 -0.009036 0.017350 -0.001317 0.000000 0.045673 0.000000
# 6 0.000000 0.000000 0.000000 -0.010404 0.000000 0.207802
#
#
# Mechanical properties :
#
#
# Convention : Reuss Voigt Hill
#
# Bulk Modulus (GPa) = 45.15736 56.93732 51.04734
# Shear Modulus (GPa) = 11.66245 21.31246 16.48746
#
# Velocity S-wave (km/s) = 2.46187 3.32803 2.92717
# Velocity P-wave (km/s) = 5.61683 6.66013 6.16060
#
# Compressibility (1/GPa) = 0.02214478
#
# Stress axis : x y z
#
# Youngs Moduli (GPa) = 56.15088 26.09390 98.50505
#
# Poissons Ratio (x) = 0.46660 0.20246
# Poissons Ratio (y) = 1.00407 0.21009
# Poissons Ratio (z) = 0.11541 0.05565
#
# Static dielectric constant tensor:
#      x y z
#    x 3.978220 0.000000 -0.050240 
#    y 0.000000 3.033380 0.000000 
#    z -0.050240 0.000000 3.657740 
# 
# 
# High freq. dielectric constant tensor:
#      x y z
#    x 1.773830 0.000000 0.002480 
#    y 0.000000 1.694400 0.000000 
#    z 0.002480 0.000000 1.777460 
# 
# From -- ./inp_files/12831.got.cif
#   From: 2010.06.25/outbox.cif.g09.slc.cpg/sg12_7_cif.got.tgz:12831.got - 2010.06.28 00:19:55.
