data_PCOD8089300
_publ_section_title
;
Structure prediction by ZEFSAII (Michael W. Deem and Ramdas Pophale) SiO2 
 PCOD8089300
Probable space group: C 2/M
;
_chemical_formula_sum "Si O2"
_cell_formula_units_Z 56
_cell_length_a 27.767363
_cell_length_b 9.094144
_cell_length_c 20.857457
_cell_angle_alpha 90.000000
_cell_angle_beta 32.114720
_cell_angle_gamma 90.000000
_cell_volume 2799.987076
_symmetry_space_group_name_H-M "C 2/M"
_symmetry_group_IT_number 12
_symmetry_cell_setting 'monoclinic'
loop_
_space_group_symop_operation_xyz
x,y,z
-x,y,-z
-x,-y,-z
x,-y,z
1/2+x,1/2+y,z
1/2-x,1/2+y,-z
1/2-x,1/2-y,-z
1/2+x,1/2-y,z
loop_
_atom_site_type_symbol
_atom_site_label
_atom_site_fract_x
_atom_site_fract_y
_atom_site_fract_z
Si Si1 0.749202 0.327541 0.186195
Si Si2 0.425107 0.662292 0.957780
Si Si3 0.437018 0.161532 0.132102
Si Si4 0.823279 0.324735 0.465139
Si Si5 0.007074 0.164927 0.253634
Si Si6 0.819149 0.173827 0.873044
Si Si7 0.269647 0.670201 0.652839
O O1 0.763898 0.500000 0.167507
O O2 0.696678 0.270909 0.182367
O O3 0.697240 0.287834 0.311852
O O4 0.849623 0.263026 0.074243
O O5 0.412023 0.500000 0.000985
O O6 0.526016 0.719651 0.859745
O O7 0.421424 0.662571 0.885374
O O8 0.336332 0.203269 0.226822
O O9 0.439140 0.000000 0.161857
O O10 0.500000 0.166828 0.000000
O O11 0.812928 0.500000 0.470938
O O12 0.750000 0.250000 0.500000
O O13 0.925325 0.277300 0.332317
O O14 0.813394 0.273711 0.549957
O O15 0.074776 0.214065 0.234525
O O16 0.967472 0.000000 0.309828
O O17 0.803140 0.000000 0.897281
O O18 0.750000 0.250000 0.000000
O O19 0.292196 0.500000 0.611530
#
# Coordination Sequence:
#
# PCOD8089300 Si02
#       7
#     8   8   8   8   8   8   8
#     4  10  20  36  59  87 120 159 198 238 295 360
#     4  11  21  32  52  84 120 154 191 244 299 349
#     4  10  19  33  52  78 112 151 193 236 290 361
#     4  12  26  44  66  90 117 158 205 253 305 362
#     4  10  22  40  60  88 123 160 204 251 299 357
#     4  10  20  36  61  92 126 162 202 249 300 356
#     4  10  21  39  61  85 118 159 201 250 300 355
#
# _framework density 20.000091999999999
#
# number of rings (size 3 to 8) (size 9 to 14) (size 15 to 20)
#    0.000    1.571    2.857    2.571    0.000    5.429 
#    0.000    0.714    0.000    4.286    0.000    0.000 
#    0.000    0.000    0.000    0.000    0.000    0.000 
#
# Total GULP energy -347022.994023 kJ/mol
# GULP energy per Si atom -12393.678358 kJ/mol
# Density = 1.995457 g / cm^3
# Si number density = 20.000092 Si / 1000 Ang^3
#
#
#
# Elastic Constant Matrix: (Units=GPa)
#
#
# Indices 1 2 3 4 5 6 
#
# 1 122.0886 49.1077 30.6360 -0.0012 9.9999 0.0010
# 2 49.1077 76.0836 29.9047 -0.0075 4.0223 0.0051
# 3 30.6360 29.9047 70.7245 -0.0040 7.2635 0.0022
# 4 -0.0012 -0.0075 -0.0040 29.1250 0.0029 3.8582
# 5 9.9999 4.0223 7.2635 0.0029 32.2433 -0.0016
# 6 0.0010 0.0051 0.0022 3.8582 -0.0016 20.7543
#
#
#
# Elastic Compliance Matrix: (Units=1/GPa)
#
#
# Indices 1 2 3 4 5 6 
#
# 1 0.011501 -0.006520 -0.001988 -0.000001 -0.002306 0.000001
# 2 -0.006520 0.019466 -0.005492 0.000005 0.000831 -0.000005
# 3 -0.001988 -0.005492 0.017596 0.000001 -0.002662 -0.000001
# 4 -0.000001 0.000005 0.000001 0.035202 -0.000004 -0.006544
# 5 -0.002306 0.000831 -0.002662 -0.000004 0.032225 0.000003
# 6 0.000001 -0.000005 -0.000001 -0.006544 0.000003 0.049399
#
#
# Mechanical properties :
#
#
# Convention : Reuss Voigt Hill
#
# Bulk Modulus (GPa) = 48.63084 54.24372 51.43728
# Shear Modulus (GPa) = 24.96941 27.04109 26.00525
#
# Velocity S-wave (km/s) = 3.53720 3.68101 3.60982
# Velocity P-wave (km/s) = 6.40706 6.72659 6.56877
#
# Compressibility (1/GPa) = 0.02056308
#
# Stress axis : x y z
#
# Youngs Moduli (GPa) = 86.94854 51.37058 56.83005
#
# Poissons Ratio (x) = 0.33493 0.11300
# Poissons Ratio (y) = 0.56689 0.31212
# Poissons Ratio (z) = 0.17288 0.28213
#
# Static dielectric constant tensor:
#      x y z
#    x 4.143010 -0.000010 0.218530 
#    y -0.000010 3.615520 0.000010 
#    z 0.218530 0.000010 3.540270 
# 
# 
# High freq. dielectric constant tensor:
#      x y z
#    x 1.791870 0.000000 0.011130 
#    y 0.000000 1.769750 0.000000 
#    z 0.011130 0.000000 1.762960 
# 
# From -- ./inp_files/329500.got.cif
#   From: 2010.06.25/outbox.cif.g09.slc.cpg/sg12_165_cif.got.tgz:329500.got - 2010.06.28 00:19:55.
