data_PCOD8089096
_publ_section_title
;
Structure prediction by ZEFSAII (Michael W. Deem and Ramdas Pophale) SiO2 
 PCOD8089096
Probable space group: C 2/M
;
_chemical_formula_sum "Si O2"
_cell_formula_units_Z 56
_cell_length_a 19.261879
_cell_length_b 8.776610
_cell_length_c 28.710658
_cell_angle_alpha 90.000000
_cell_angle_beta 141.731905
_cell_angle_gamma 90.000000
_cell_volume 3006.069958
_symmetry_space_group_name_H-M "C 2/M"
_symmetry_group_IT_number 12
_symmetry_cell_setting 'monoclinic'
loop_
_space_group_symop_operation_xyz
x,y,z
-x,y,-z
-x,-y,-z
x,-y,z
1/2+x,1/2+y,z
1/2-x,1/2+y,-z
1/2-x,1/2-y,-z
1/2+x,1/2-y,z
loop_
_atom_site_type_symbol
_atom_site_label
_atom_site_fract_x
_atom_site_fract_y
_atom_site_fract_z
Si Si1 0.349241 0.678738 0.949900
Si Si2 0.426072 0.325664 0.313700
Si Si3 0.155471 0.678677 0.418508
Si Si4 0.126431 0.825889 0.819147
Si Si5 0.875502 0.178701 0.695661
Si Si6 0.560248 0.179254 0.095443
Si Si7 0.714700 0.822737 0.261964
O O1 0.367209 0.500000 0.965176
O O2 0.220582 0.722070 0.893266
O O3 0.377441 0.729798 0.912454
O O4 0.430892 0.766398 0.029069
O O5 0.465768 0.500000 0.339964
O O6 0.534217 0.219797 0.375832
O O7 0.366579 0.303500 0.232701
O O8 0.336303 0.280532 0.305620
O O9 0.170379 0.500000 0.426181
O O10 0.250000 0.750000 0.500000
O O11 0.171022 0.738596 0.374384
O O12 0.004498 0.772932 0.773057
O O13 0.150572 0.000000 0.845473
O O14 0.800130 0.223973 0.699654
O O15 0.868722 0.000000 0.682407
O O16 0.617674 0.221023 0.174409
O O17 0.569430 0.000000 0.089511
O O18 0.707618 0.000000 0.271017
#
# Coordination Sequence:
#
# PCOD8089096 Si02
#       7
#     8   8   8   8   8   8   8
#     4  11  20  29  47  78 107 136 185 242 280 315
#     4   9  18  35  58  84 112 144 184 226 270 325
#     4  11  22  39  63  89 115 145 181 221 266 320
#     4   9  17  34  54  74 104 146 187 224 275 332
#     4  10  22  38  58  83 114 147 181 225 275 327
#     4  10  19  33  51  72 105 148 184 223 280 335
#     4  10  20  36  57  82 112 147 185 225 276 333
#
# _framework density 18.628973999999999
#
# number of rings (size 3 to 8) (size 9 to 14) (size 15 to 20)
#    0.000    2.000    1.429    5.143    0.000    4.571 
#    0.000    1.429    0.000    4.286    0.000    0.000 
#    0.000    0.000    0.000    0.000    0.000    0.000 
#
# Total GULP energy -347248.937763 kJ/mol
# GULP energy per Si atom -12401.747777 kJ/mol
# Density = 1.858657 g / cm^3
# Si number density = 18.628974 Si / 1000 Ang^3
#
#
#
# Elastic Constant Matrix: (Units=GPa)
#
#
# Indices 1 2 3 4 5 6 
#
# 1 102.6445 33.2159 38.9467 -0.0001 -1.7989 0.0000
# 2 33.2159 89.7525 43.2148 -0.0003 -4.4604 0.0004
# 3 38.9467 43.2148 108.8663 -0.0001 -1.7698 0.0002
# 4 -0.0001 -0.0003 -0.0001 27.1040 0.0000 3.4345
# 5 -1.7989 -4.4604 -1.7698 0.0000 14.5779 0.0000
# 6 0.0000 0.0004 0.0002 3.4345 0.0000 29.0147
#
#
#
# Elastic Compliance Matrix: (Units=1/GPa)
#
#
# Indices 1 2 3 4 5 6 
#
# 1 0.011853 -0.002889 -0.003091 0.000000 0.000204 0.000000
# 2 -0.002889 0.014665 -0.004730 0.000000 0.003556 0.000000
# 3 -0.003091 -0.004730 0.012163 0.000000 -0.000352 0.000000
# 4 0.000000 0.000000 0.000000 0.037457 0.000000 -0.004434
# 5 0.000204 0.003556 -0.000352 0.000000 0.069667 0.000000
# 6 0.000000 0.000000 0.000000 -0.004434 0.000000 0.034990
#
#
# Mechanical properties :
#
#
# Convention : Reuss Voigt Hill
#
# Bulk Modulus (GPa) = 57.92740 59.11312 58.52026
# Shear Modulus (GPa) = 24.04211 26.53173 25.28692
#
# Velocity S-wave (km/s) = 3.59636 3.77798 3.68828
# Velocity P-wave (km/s) = 6.95758 7.12962 7.04412
#
# Compressibility (1/GPa) = 0.01726299
#
# Stress axis : x y z
#
# Youngs Moduli (GPa) = 84.36444 68.18968 82.21558
#
# Poissons Ratio (x) = 0.19697 0.25410
# Poissons Ratio (y) = 0.24369 0.38889
# Poissons Ratio (z) = 0.26074 0.32255
#
# Static dielectric constant tensor:
#      x y z
#    x 3.103570 0.000000 0.227290 
#    y 0.000000 3.386180 0.000000 
#    z 0.227290 0.000000 3.495170 
# 
# 
# High freq. dielectric constant tensor:
#      x y z
#    x 1.704820 0.000000 0.014530 
#    y 0.000000 1.725540 0.000000 
#    z 0.014530 0.000000 1.719430 
# 
# From -- ./inp_files/377766.got.cif
#   From: 2010.06.25/outbox.cif.g09.slc.cpg/sg12_189_cif.got.tgz:377766.got - 2010.06.28 00:19:55.
