data_PCOD8089294
_publ_section_title
;
Structure prediction by ZEFSAII (Michael W. Deem and Ramdas Pophale) SiO2 
 PCOD8089294
Probable space group: C 2/M
;
_chemical_formula_sum "Si O2"
_cell_formula_units_Z 64
_cell_length_a 15.324380
_cell_length_b 8.939728
_cell_length_c 28.557067
_cell_angle_alpha 90.000000
_cell_angle_beta 57.825501
_cell_angle_gamma 90.000000
_cell_volume 3311.402679
_symmetry_space_group_name_H-M "C 2/M"
_symmetry_group_IT_number 12
_symmetry_cell_setting 'monoclinic'
loop_
_space_group_symop_operation_xyz
x,y,z
-x,y,-z
-x,-y,-z
x,-y,z
1/2+x,1/2+y,z
1/2-x,1/2+y,-z
1/2-x,1/2-y,-z
1/2+x,1/2-y,z
loop_
_atom_site_type_symbol
_atom_site_label
_atom_site_fract_x
_atom_site_fract_y
_atom_site_fract_z
Si Si1 0.888745 0.821998 0.241548
Si Si2 0.172785 0.832258 0.055843
Si Si3 0.025922 0.324258 0.439146
Si Si4 0.464524 0.330596 0.060423
Si Si5 0.686709 0.173468 0.830315
Si Si6 0.617920 0.325235 0.170518
Si Si7 0.240779 0.822692 0.634379
Si Si8 0.662158 0.677800 0.556488
O O1 0.840256 0.769898 0.206895
O O2 0.821744 0.756683 0.303592
O O3 0.005012 0.757996 0.213760
O O4 0.887121 0.000000 0.242868
O O5 0.167123 0.755243 0.108896
O O6 0.057874 0.827359 0.069526
O O7 0.215131 0.000000 0.047280
O O8 0.250000 0.750000 0.000000
O O9 0.013372 0.500000 0.432827
O O10 0.141544 0.265160 0.396590
O O11 0.000000 0.286462 0.500000
O O12 0.950127 0.235496 0.426356
O O13 0.422038 0.500000 0.066716
O O14 0.376058 0.224583 0.105996
O O15 0.500000 0.266877 0.000000
O O16 0.807354 0.202686 0.806871
O O17 0.664126 0.000000 0.827022
O O18 0.603884 0.500000 0.163951
O O19 0.183798 0.769843 0.603437
O O20 0.242568 0.000000 0.635018
O O21 0.667558 0.500000 0.549658
O O22 0.750000 0.750000 0.500000
#
# Coordination Sequence:
#
# PCOD8089294 Si02
#       8
#     8   8   8   8   8   8   8   8
#     4  10  20  41  64  79 108 156 199 231 275 348
#     4  10  19  33  52  78 108 142 180 222 277 336
#     4  10  19  36  58  84 121 158 192 240 292 344
#     4  10  20  35  56  82 112 147 189 232 278 343
#     4  11  22  36  57  85 114 145 186 240 295 336
#     4   9  19  36  57  78 108 148 184 224 283 340
#     4   9  20  37  60  85 112 154 198 232 284 347
#     4  11  21  36  58  89 120 156 198 239 290 348
#
# _framework density 19.327158000000001
#
# number of rings (size 3 to 8) (size 9 to 14) (size 15 to 20)
#    0.000    2.000    2.500    1.500    0.000    2.000 
#    0.000    5.000    0.000    0.000    0.000    0.000 
#    0.000    0.000    0.000    0.000    0.000    0.000 
#
# Total GULP energy -396793.407732 kJ/mol
# GULP energy per Si atom -12399.793992 kJ/mol
# Density = 1.928317 g / cm^3
# Si number density = 19.327158 Si / 1000 Ang^3
#
#
#
# Elastic Constant Matrix: (Units=GPa)
#
#
# Indices 1 2 3 4 5 6 
#
# 1 139.3632 28.9962 68.0491 0.0000 -5.6340 0.0000
# 2 28.9962 38.6989 27.4744 0.0000 -4.4588 0.0000
# 3 68.0491 27.4744 155.9763 0.0000 -9.9594 0.0000
# 4 0.0000 0.0000 0.0000 17.5862 0.0000 3.2959
# 5 -5.6340 -4.4588 -9.9594 0.0000 32.5626 0.0000
# 6 0.0000 0.0000 0.0000 3.2959 0.0000 27.7442
#
#
#
# Elastic Compliance Matrix: (Units=1/GPa)
#
#
# Indices 1 2 3 4 5 6 
#
# 1 0.009888 -0.004969 -0.003440 0.000000 -0.000022 0.000000
# 2 -0.004969 0.032232 -0.003348 0.000000 0.002530 0.000000
# 3 -0.003440 -0.003348 0.008603 0.000000 0.001577 0.000000
# 4 0.000000 0.000000 0.000000 0.058158 0.000000 -0.006909
# 5 -0.000022 0.002530 0.001577 0.000000 0.031535 0.000000
# 6 0.000000 0.000000 0.000000 -0.006909 0.000000 0.036864
#
#
# Mechanical properties :
#
#
# Convention : Reuss Voigt Hill
#
# Bulk Modulus (GPa) = 36.75347 64.78642 50.76995
# Shear Modulus (GPa) = 23.82486 29.54649 26.68568
#
# Velocity S-wave (km/s) = 3.51481 3.91417 3.71986
# Velocity P-wave (km/s) = 5.96068 7.34992 6.69145
#
# Compressibility (1/GPa) = 0.02720831
#
# Stress axis : x y z
#
# Youngs Moduli (GPa) = 101.12963 31.02477 116.24461
#
# Poissons Ratio (x) = 0.15417 0.39990
# Poissons Ratio (y) = 0.50254 0.38919
# Poissons Ratio (z) = 0.34790 0.10387
#
# Static dielectric constant tensor:
#      x y z
#    x 3.928710 0.000000 -0.185340 
#    y 0.000000 3.282090 0.000000 
#    z -0.185340 0.000000 3.820390 
# 
# 
# High freq. dielectric constant tensor:
#      x y z
#    x 1.766540 0.000000 0.000090 
#    y 0.000000 1.720150 0.000000 
#    z 0.000090 0.000000 1.755750 
# 
# From -- ./inp_files/374981.got.cif
#   From: 2010.06.25/outbox.cif.g09.slc.cpg/sg12_188_cif.got.tgz:374981.got - 2010.06.28 00:19:55.
