data_PCOD8089283
_publ_section_title
;
Structure prediction by ZEFSAII (Michael W. Deem and Ramdas Pophale) SiO2 
 PCOD8089283
Probable space group: C 2/M
;
_chemical_formula_sum "Si O2"
_cell_formula_units_Z 64
_cell_length_a 9.292056
_cell_length_b 27.876496
_cell_length_c 13.573298
_cell_angle_alpha 90.000000
_cell_angle_beta 107.416295
_cell_angle_gamma 90.000000
_cell_volume 3354.705699
_symmetry_space_group_name_H-M "C 2/M"
_symmetry_group_IT_number 12
_symmetry_cell_setting 'monoclinic'
loop_
_space_group_symop_operation_xyz
x,y,z
-x,y,-z
-x,-y,-z
x,-y,z
1/2+x,1/2+y,z
1/2-x,1/2+y,-z
1/2-x,1/2-y,-z
1/2+x,1/2-y,z
loop_
_atom_site_type_symbol
_atom_site_label
_atom_site_fract_x
_atom_site_fract_y
_atom_site_fract_z
Si Si1 0.172805 0.771392 0.756837
Si Si2 0.934661 0.319246 0.383689
Si Si3 0.538549 0.268634 0.114866
Si Si4 0.413159 0.376122 0.289192
Si Si5 0.870813 0.600621 0.656035
Si Si6 0.927492 0.121897 0.881698
Si Si7 0.680359 0.946386 0.750937
Si Si8 0.726819 0.401766 0.417083
O O1 0.116797 0.727859 0.680677
O O2 0.352571 0.767799 0.804636
O O3 0.116916 0.820136 0.695320
O O4 0.115706 0.769584 0.857060
O O5 0.795848 0.354996 0.376438
O O6 0.000000 0.301422 0.500000
O O7 0.061402 0.345972 0.343876
O O8 0.614444 0.321671 0.123299
O O9 0.500000 0.248071 0.000000
O O10 0.258975 0.402895 0.287776
O O11 0.454969 0.387639 0.184120
O O12 0.547616 0.392943 0.389329
O O13 0.801077 0.585395 0.536218
O O14 0.002080 0.564957 0.717730
O O15 0.774943 0.091345 0.836270
O O16 0.000000 0.105648 0.000000
O O17 0.737993 0.945500 0.649569
O O18 0.705358 0.000000 0.797389
#
# Coordination Sequence:
#
# PCOD8089283 Si02
#       8
#     8   8   8   8   8   8   8   8
#     4  11  19  31  49  72 102 136 178 220 250 289
#     4   9  18  31  48  71 102 143 180 208 245 299
#     4  10  20  33  50  73 101 134 173 216 261 302
#     4  10  20  33  51  77 105 139 176 214 257 298
#     4  10  19  33  52  77 109 137 166 214 263 301
#     4   9  20  39  58  75 102 139 174 211 259 316
#     4  10  20  36  60  83 100 129 172 209 254 321
#     4   9  19  35  52  73 107 144 174 204 251 311
#
# _framework density 19.077679
#
# number of rings (size 3 to 8) (size 9 to 14) (size 15 to 20)
#    0.000    2.250    0.000    5.625    0.000    2.250 
#    0.000    6.250    0.000    4.500    0.000    0.000 
#    0.000    0.000    0.000    0.000    0.000    0.000 
#
# Total GULP energy -396707.861566 kJ/mol
# GULP energy per Si atom -12397.120674 kJ/mol
# Density = 1.903426 g / cm^3
# Si number density = 19.077679 Si / 1000 Ang^3
#
#
#
# Elastic Constant Matrix: (Units=GPa)
#
#
# Indices 1 2 3 4 5 6 
#
# 1 108.3989 18.1379 27.7605 0.0000 14.9404 0.0000
# 2 18.1379 58.9585 28.7218 0.0000 8.6104 0.0000
# 3 27.7605 28.7218 89.6357 0.0000 11.6469 0.0000
# 4 0.0000 0.0000 0.0000 -13.9675 0.0000 3.4451
# 5 14.9404 8.6104 11.6469 0.0000 27.4569 0.0000
# 6 0.0000 0.0000 0.0000 3.4451 0.0000 11.4427
#
#
#
# Elastic Compliance Matrix: (Units=1/GPa)
#
#
# Indices 1 2 3 4 5 6 
#
# 1 0.010659 -0.001552 -0.002237 0.000000 -0.004365 0.000000
# 2 -0.001552 0.020702 -0.005735 0.000000 -0.003215 0.000000
# 3 -0.002237 -0.005735 0.014070 0.000000 -0.002953 0.000000
# 4 0.000000 0.000000 0.000000 -0.066646 0.000000 0.020065
# 5 -0.004365 -0.003215 -0.002953 0.000000 0.041056 0.000000
# 6 0.000000 0.000000 0.000000 0.020065 0.000000 0.081351
#
#
# Mechanical properties :
#
#
# Convention : Reuss Voigt Hill
#
# Bulk Modulus (GPa) = 37.90226 45.13704 41.51965
# Shear Modulus (GPa) = 38.74893 17.14460 27.94676
#
# Velocity S-wave (km/s) = 4.51168 3.00104 3.83154
# Velocity P-wave (km/s) = 6.85936 5.97656 6.43312
#
# Compressibility (1/GPa) = 0.02638365
#
# Stress axis : x y z
#
# Youngs Moduli (GPa) = 93.81490 48.30475 71.07137
#
# Poissons Ratio (x) = 0.07498 0.15897
# Poissons Ratio (y) = 0.14561 0.40760
# Poissons Ratio (z) = 0.20984 0.27703
#
# Static dielectric constant tensor:
#      x y z
#    x 3.665560 0.000000 0.038590 
#    y 0.000000 3.195390 0.000000 
#    z 0.038590 0.000000 3.533210 
# 
# 
# High freq. dielectric constant tensor:
#      x y z
#    x 1.742810 0.000000 0.008370 
#    y 0.000000 1.712080 0.000000 
#    z 0.008370 0.000000 1.739850 
# 
# From -- ./inp_files/199753.got.cif
#   From: 2010.06.25/outbox.cif.g09.slc.cpg/sg12_100_cif.got.tgz:199753.got - 2010.06.28 00:19:55.
