data_PCOD8089256
_publ_section_title
;
Structure prediction by ZEFSAII (Michael W. Deem and Ramdas Pophale) SiO2 
 PCOD8089256
Probable space group: C 2/M
;
_chemical_formula_sum "Si O2"
_cell_formula_units_Z 48
_cell_length_a 18.039465
_cell_length_b 12.165074
_cell_length_c 22.177733
_cell_angle_alpha 90.000000
_cell_angle_beta 145.520181
_cell_angle_gamma 90.000000
_cell_volume 2755.249488
_symmetry_space_group_name_H-M "C 2/M"
_symmetry_group_IT_number 12
_symmetry_cell_setting 'monoclinic'
loop_
_space_group_symop_operation_xyz
x,y,z
-x,y,-z
-x,-y,-z
x,-y,z
1/2+x,1/2+y,z
1/2-x,1/2+y,-z
1/2-x,1/2-y,-z
1/2+x,1/2-y,z
loop_
_atom_site_type_symbol
_atom_site_label
_atom_site_fract_x
_atom_site_fract_y
_atom_site_fract_z
Si Si1 0.464578 0.500000 0.073076
Si Si2 0.519073 0.129946 0.220276
Si Si3 0.674943 0.789705 0.806563
Si Si4 0.072323 0.130112 0.640612
Si Si5 0.710732 0.500000 0.162837
Si Si6 0.130850 0.229991 0.963759
Si Si7 0.188002 0.129417 0.593880
O O1 0.618721 0.500000 0.160062
O O2 0.429923 0.608618 0.088076
O O3 0.376405 0.500000 0.954996
O O4 0.431804 0.178189 0.215105
O O5 0.478267 0.180004 0.127581
O O6 0.669014 0.165552 0.333036
O O7 0.500626 0.000000 0.204333
O O8 0.622986 0.686187 0.735188
O O9 0.697872 0.891868 0.776560
O O10 0.814269 0.756970 0.931257
O O11 0.160087 0.171421 0.643071
O O12 0.922783 0.169829 0.527395
O O13 0.081516 0.000000 0.657111
O O14 0.250000 0.250000 0.000000
O O15 0.175814 0.000000 0.589492
#
# Coordination Sequence:
#
# PCOD8089256 Si02
#       7
#     4   8   8   8   4   8   8
#     4   9  18  34  50  73 102 141 175 201 246 304
#     4  10  19  34  52  75 102 138 175 210 255 305
#     4  10  19  33  52  76 103 136 170 212 254 305
#     4   9  18  34  54  77 100 129 171 218 261 302
#     4   9  18  32  52  72 103 136 173 205 244 312
#     4   9  20  32  51  75 105 139 169 207 250 300
#     4   8  17  34  55  73  97 133 173 212 257 310
#
# _framework density 17.421289999999999
#
# number of rings (size 3 to 8) (size 9 to 14) (size 15 to 20)
#    0.000    2.833    0.833    1.000    5.833    1.333 
#    4.500    0.000    0.000    6.000    0.000    0.000 
#    0.000    0.000    0.000    0.000    0.000    0.000 
#
# Total GULP energy -297433.733155 kJ/mol
# GULP energy per Si atom -12393.072215 kJ/mol
# Density = 1.738164 g / cm^3
# Si number density = 17.421290 Si / 1000 Ang^3
#
#
#
# Elastic Constant Matrix: (Units=GPa)
#
#
# Indices 1 2 3 4 5 6 
#
# 1 80.5444 45.7312 39.4456 0.0000 13.5198 0.0000
# 2 45.7312 84.1437 50.9621 -0.0001 -5.3547 -0.0001
# 3 39.4456 50.9621 91.8323 -0.0002 0.4690 -0.0003
# 4 0.0000 -0.0001 -0.0002 25.3000 0.0000 -7.0376
# 5 13.5198 -5.3547 0.4690 0.0000 25.7409 -0.0001
# 6 0.0000 -0.0001 -0.0003 -7.0376 -0.0001 18.3374
#
#
#
# Elastic Compliance Matrix: (Units=1/GPa)
#
#
# Indices 1 2 3 4 5 6 
#
# 1 0.022927 -0.011223 -0.003547 0.000000 -0.014312 0.000000
# 2 -0.011223 0.023797 -0.008441 0.000000 0.010999 0.000000
# 3 -0.003547 -0.008441 0.017098 0.000000 -0.000205 0.000000
# 4 0.000000 0.000000 0.000000 0.044250 0.000000 0.016982
# 5 -0.014312 0.010999 -0.000205 0.000000 0.048657 0.000000
# 6 0.000000 0.000000 0.000000 0.016982 0.000000 0.061051
#
#
# Mechanical properties :
#
#
# Convention : Reuss Voigt Hill
#
# Bulk Modulus (GPa) = 57.47232 58.75535 58.11384
# Shear Modulus (GPa) = 18.51837 21.90109 20.20973
#
# Velocity S-wave (km/s) = 3.26386 3.54947 3.40966
# Velocity P-wave (km/s) = 6.87496 7.11321 6.99510
#
# Compressibility (1/GPa) = 0.01739968
#
# Stress axis : x y z
#
# Youngs Moduli (GPa) = 43.61641 42.02282 58.48548
#
# Poissons Ratio (x) = 0.47164 0.20743
# Poissons Ratio (y) = 0.48952 0.49368
# Poissons Ratio (z) = 0.15469 0.35472
#
# Static dielectric constant tensor:
#      x y z
#    x 3.265150 0.000000 0.317770 
#    y 0.000000 3.236000 0.000000 
#    z 0.317770 0.000000 3.743010 
# 
# 
# High freq. dielectric constant tensor:
#      x y z
#    x 1.664580 0.000000 0.017060 
#    y 0.000000 1.660110 0.000000 
#    z 0.017060 0.000000 1.664380 
# 
# From -- ./inp_files/346900.got.cif
#   From: 2010.06.25/outbox.cif.g09.slc.cpg/sg12_174_cif.got.tgz:346900.got - 2010.06.28 00:19:55.
