data_PCOD8089279
_publ_section_title
;
Structure prediction by ZEFSAII (Michael W. Deem and Ramdas Pophale) SiO2 
 PCOD8089279
Probable space group: C 2/M
;
_chemical_formula_sum "Si O2"
_cell_formula_units_Z 60
_cell_length_a 23.984134
_cell_length_b 12.012170
_cell_length_c 12.663909
_cell_angle_alpha 90.000000
_cell_angle_beta 113.058555
_cell_angle_gamma 90.000000
_cell_volume 3356.995115
_symmetry_space_group_name_H-M "C 2/M"
_symmetry_group_IT_number 12
_symmetry_cell_setting 'monoclinic'
loop_
_space_group_symop_operation_xyz
x,y,z
-x,y,-z
-x,-y,-z
x,-y,z
1/2+x,1/2+y,z
1/2-x,1/2+y,-z
1/2-x,1/2-y,-z
1/2+x,1/2-y,z
loop_
_atom_site_type_symbol
_atom_site_label
_atom_site_fract_x
_atom_site_fract_y
_atom_site_fract_z
Si Si1 0.038112 0.628108 0.314179
Si Si2 0.843358 0.751757 0.569117
Si Si3 0.958219 0.368688 0.062044
Si Si4 0.714180 0.254203 0.812568
Si Si5 0.500000 0.226828 0.500000
Si Si6 0.823650 0.632513 0.004900
Si Si7 0.748479 0.871517 0.634467
Si Si8 0.883109 0.128816 0.397104
O O1 0.055224 0.500000 0.308760
O O2 0.096573 0.702719 0.333940
O O3 0.986014 0.666918 0.195129
O O4 0.015839 0.645301 0.416349
O O5 0.805474 0.800514 0.637478
O O6 0.808544 0.651755 0.483918
O O7 0.856829 0.848671 0.494374
O O8 0.958338 0.500000 0.048896
O O9 0.888567 0.327498 0.006113
O O10 0.000000 0.315743 0.000000
O O11 0.685350 0.189863 0.889055
O O12 0.733634 0.161400 0.742868
O O13 0.665012 0.337704 0.727628
O O14 0.772024 0.328204 0.886335
O O15 0.555743 0.303007 0.575990
O O16 0.821025 0.500000 0.017617
O O17 0.765235 0.000000 0.642875
O O18 0.898459 0.000000 0.396574
#
# Coordination Sequence:
#
# PCOD8089279 Si02
#       8
#     8   8   8   8   4   8   8   8
#     4  10  19  33  52  77 107 136 173 221 268 317
#     4   9  20  32  50  77 103 136 174 209 263 325
#     4   9  19  33  51  74 101 137 173 213 266 311
#     4  10  21  33  54  79 102 140 181 216 269 324
#     4  10  20  32  52  78 106 142 180 212 268 326
#     4  10  20  36  53  77 108 136 176 226 269 315
#     4  10  19  34  51  74 106 138 171 215 263 316
#     4  10  19  34  51  75 107 139 176 219 261 315
#
# _framework density 17.873127
#
# number of rings (size 3 to 8) (size 9 to 14) (size 15 to 20)
#    0.000    2.267    0.000    2.800    1.867    0.000 
#    0.000    5.333    0.000    0.000    0.000    0.933 
#    0.000    0.000    0.000    0.000    0.000    0.000 
#
# Total GULP energy -372054.714064 kJ/mol
# GULP energy per Si atom -12401.823802 kJ/mol
# Density = 1.783245 g / cm^3
# Si number density = 17.873127 Si / 1000 Ang^3
#
#
#
# Elastic Constant Matrix: (Units=GPa)
#
#
# Indices 1 2 3 4 5 6 
#
# 1 119.1687 20.3961 47.3415 0.0000 9.9882 0.0000
# 2 20.3961 65.5598 30.8705 0.0000 4.0256 0.0000
# 3 47.3415 30.8705 88.8081 0.0000 13.8711 0.0000
# 4 0.0000 0.0000 0.0000 13.4831 0.0000 5.3240
# 5 9.9882 4.0256 13.8711 0.0000 32.0809 0.0000
# 6 0.0000 0.0000 0.0000 5.3240 0.0000 17.7365
#
#
#
# Elastic Compliance Matrix: (Units=1/GPa)
#
#
# Indices 1 2 3 4 5 6 
#
# 1 0.010705 -0.000783 -0.005286 0.000000 -0.000949 0.000000
# 2 -0.000783 0.018303 -0.006032 0.000000 0.000555 0.000000
# 3 -0.005286 -0.006032 0.016944 0.000000 -0.004923 0.000000
# 4 0.000000 0.000000 0.000000 0.084140 0.000000 -0.025256
# 5 -0.000949 0.000555 -0.004923 0.000000 0.033526 0.000000
# 6 0.000000 0.000000 0.000000 -0.025256 0.000000 0.063962
#
#
# Mechanical properties :
#
#
# Convention : Reuss Voigt Hill
#
# Bulk Modulus (GPa) = 45.97646 52.30587 49.14117
# Shear Modulus (GPa) = 19.30272 24.32200 21.81236
#
# Velocity S-wave (km/s) = 3.28988 3.69292 3.49721
# Velocity P-wave (km/s) = 6.34119 6.89291 6.62280
#
# Compressibility (1/GPa) = 0.02175026
#
# Stress axis : x y z
#
# Youngs Moduli (GPa) = 93.41401 54.63621 59.01860
#
# Poissons Ratio (x) = 0.04278 0.31198
# Poissons Ratio (y) = 0.07314 0.35597
# Poissons Ratio (z) = 0.49380 0.32954
#
# Static dielectric constant tensor:
#      x y z
#    x 3.501500 0.000000 0.058540 
#    y 0.000000 3.031750 0.000000 
#    z 0.058540 0.000000 3.338570 
# 
# 
# High freq. dielectric constant tensor:
#      x y z
#    x 1.706300 0.000000 0.002910 
#    y 0.000000 1.673580 0.000000 
#    z 0.002910 0.000000 1.695460 
# 
# From -- ./inp_files/182546.got.cif
#   From: 2010.06.25/outbox.cif.g09.slc.cpg/sg12_92_cif.got.tgz:182546.got - 2010.06.28 00:19:55.
