data_PCOD8089182
_publ_section_title
;
Structure prediction by ZEFSAII (Michael W. Deem and Ramdas Pophale) SiO2 
 PCOD8089182
Probable space group: C 2/M
;
_chemical_formula_sum "Si O2"
_cell_formula_units_Z 56
_cell_length_a 17.980176
_cell_length_b 13.014211
_cell_length_c 16.789574
_cell_angle_alpha 90.000000
_cell_angle_beta 131.930459
_cell_angle_gamma 90.000000
_cell_volume 2922.799013
_symmetry_space_group_name_H-M "C 2/M"
_symmetry_group_IT_number 12
_symmetry_cell_setting 'monoclinic'
loop_
_space_group_symop_operation_xyz
x,y,z
-x,y,-z
-x,-y,-z
x,-y,z
1/2+x,1/2+y,z
1/2-x,1/2+y,-z
1/2-x,1/2-y,-z
1/2+x,1/2-y,z
loop_
_atom_site_type_symbol
_atom_site_label
_atom_site_fract_x
_atom_site_fract_y
_atom_site_fract_z
Si Si1 0.823827 0.879865 0.441612
Si Si2 0.463629 0.717389 0.658809
Si Si3 0.200913 0.757955 0.139087
Si Si4 0.130115 0.886939 0.699322
Si Si5 0.872922 0.383897 0.203608
Si Si6 0.119730 0.291167 0.243609
Si Si7 0.420679 0.884086 0.058463
O O1 0.863893 0.795838 0.534192
O O2 0.883374 0.853787 0.402558
O O3 0.706280 0.857708 0.346839
O O4 0.837269 0.000000 0.476640
O O5 0.527953 0.618838 0.676799
O O6 0.536386 0.815773 0.693120
O O7 0.431621 0.715529 0.728353
O O8 0.286244 0.673652 0.194506
O O9 0.259317 0.859841 0.151904
O O10 0.160472 0.777476 0.199515
O O11 0.114009 0.711233 0.021484
O O12 0.172723 0.000000 0.729452
O O13 0.898657 0.500000 0.246623
O O14 0.867501 0.369927 0.105092
O O15 0.039895 0.372802 0.153396
O O16 0.400441 0.000000 0.010193
#
# Coordination Sequence:
#
# PCOD8089182 Si02
#       7
#     8   8   8   8   8   8   8
#     4  10  19  33  55  79 104 136 172 216 267 306
#     4  10  19  33  52  73 102 137 173 212 255 305
#     4  10  19  33  55  78 106 137 169 209 256 311
#     4   9  18  32  53  81 106 129 166 218 269 309
#     4   9  20  37  55  76 102 136 177 215 252 301
#     4  10  21  33  48  76 113 143 169 206 254 308
#     4  10  19  33  56  82 105 132 169 214 262 307
#
# _framework density 19.159716
#
# number of rings (size 3 to 8) (size 9 to 14) (size 15 to 20)
#    0.000    2.286    0.000    3.000    0.000    4.000 
#    0.000    1.429    0.000   20.571    0.000    0.000 
#    0.000    0.000    0.000    0.000    0.000    0.000 
#
# Total GULP energy -346894.502252 kJ/mol
# GULP energy per Si atom -12389.089366 kJ/mol
# Density = 1.911611 g / cm^3
# Si number density = 19.159716 Si / 1000 Ang^3
#
#
#
# Elastic Constant Matrix: (Units=GPa)
#
#
# Indices 1 2 3 4 5 6 
#
# 1 129.5365 26.7353 34.3521 0.0000 -4.8592 0.0000
# 2 26.7353 63.0920 40.1074 0.0000 -3.5408 0.0000
# 3 34.3521 40.1074 94.8083 0.0000 10.8385 0.0000
# 4 0.0000 0.0000 0.0000 22.5300 0.0000 0.8027
# 5 -4.8592 -3.5408 10.8385 0.0000 28.6238 0.0000
# 6 0.0000 0.0000 0.0000 0.8027 0.0000 20.7970
#
#
#
# Elastic Compliance Matrix: (Units=1/GPa)
#
#
# Indices 1 2 3 4 5 6 
#
# 1 0.008916 -0.001957 -0.002663 0.000000 0.002280 0.000000
# 2 -0.001957 0.023306 -0.009869 0.000000 0.006288 0.000000
# 3 -0.002663 -0.009869 0.016597 0.000000 -0.007957 0.000000
# 4 0.000000 0.000000 0.000000 0.044446 0.000000 -0.001715
# 5 0.002280 0.006288 -0.007957 0.000000 0.039114 0.000000
# 6 0.000000 0.000000 0.000000 -0.001715 0.000000 0.048150
#
#
# Mechanical properties :
#
#
# Convention : Reuss Voigt Hill
#
# Bulk Modulus (GPa) = 50.40260 54.42514 52.41387
# Shear Modulus (GPa) = 23.13528 26.80628 24.97078
#
# Velocity S-wave (km/s) = 3.47867 3.74451 3.61404
# Velocity P-wave (km/s) = 6.51909 6.86752 6.69557
#
# Compressibility (1/GPa) = 0.01984025
#
# Stress axis : x y z
#
# Youngs Moduli (GPa) = 112.16414 42.90806 60.25150
#
# Poissons Ratio (x) = 0.08398 0.16045
# Poissons Ratio (y) = 0.21952 0.59461
# Poissons Ratio (z) = 0.29870 0.42345
#
# Static dielectric constant tensor:
#      x y z
#    x 3.946280 0.000000 0.054230 
#    y 0.000000 3.332290 0.000000 
#    z 0.054230 0.000000 3.514430 
# 
# 
# High freq. dielectric constant tensor:
#      x y z
#    x 1.759110 0.000000 0.007440 
#    y 0.000000 1.714560 0.000000 
#    z 0.007440 0.000000 1.740610 
# 
# From -- ./inp_files/223170.got.cif
#   From: 2010.06.25/outbox.cif.g09.slc.cpg/sg12_112_cif.got.tgz:223170.got - 2010.06.28 00:19:55.
