data_PCOD8089105
_publ_section_title
;
Structure prediction by ZEFSAII (Michael W. Deem and Ramdas Pophale) SiO2 
 PCOD8089105
Probable space group: C 2/M
;
_chemical_formula_sum "Si O2"
_cell_formula_units_Z 48
_cell_length_a 30.843189
_cell_length_b 8.502003
_cell_length_c 9.885355
_cell_angle_alpha 90.000000
_cell_angle_beta 86.926357
_cell_angle_gamma 90.000000
_cell_volume 2588.496556
_symmetry_space_group_name_H-M "C 2/M"
_symmetry_group_IT_number 12
_symmetry_cell_setting 'monoclinic'
loop_
_space_group_symop_operation_xyz
x,y,z
-x,y,-z
-x,-y,-z
x,-y,z
1/2+x,1/2+y,z
1/2-x,1/2+y,-z
1/2-x,1/2-y,-z
1/2+x,1/2-y,z
loop_
_atom_site_type_symbol
_atom_site_label
_atom_site_fract_x
_atom_site_fract_y
_atom_site_fract_z
Si Si1 0.879828 0.682624 0.180918
Si Si2 0.305401 0.322038 0.853725
Si Si3 0.961650 0.182459 0.667157
Si Si4 0.946451 0.314740 0.386908
Si Si5 0.607338 0.182534 0.126943
Si Si6 0.787325 0.317424 0.138285
O O1 0.890718 0.500000 0.176726
O O2 0.911242 0.758615 0.288074
O O3 0.829062 0.714276 0.228426
O O4 0.889720 0.745770 0.027788
O O5 0.320522 0.500000 0.825189
O O6 0.345948 0.211480 0.807067
O O7 0.259644 0.285976 0.781185
O O8 0.292414 0.299697 0.011991
O O9 0.938479 0.229764 0.530986
O O10 0.930134 0.218151 0.796449
O O11 0.005698 0.281040 0.678765
O O12 0.973707 0.000000 0.662655
O O13 0.940433 0.500000 0.409813
O O14 0.595786 0.000000 0.139422
O O15 0.789528 0.500000 0.087876
#
# Coordination Sequence:
#
# PCOD8089105 Si02
#       6
#     8   8   8   8   8   8
#     4   8  16  30  51  76  99 125 161 201 237 280
#     4   9  15  24  42  69  99 129 160 195 235 279
#     4  11  22  36  51  71  98 127 161 200 243 289
#     4  10  19  35  56  74  93 125 165 198 237 290
#     4  10  19  33  51  73 100 129 162 200 242 285
#     4   8  14  26  43  66  98 132 161 191 232 282
#
# _framework density 18.543583999999999
#
# number of rings (size 3 to 8) (size 9 to 14) (size 15 to 20)
#    0.000    2.667    0.000    5.000    0.000    1.333 
#    0.000   11.667    0.000    1.000    0.000    0.000 
#    0.000    0.000    0.000    0.000    0.000    0.000 
#
# Total GULP energy -297358.621020 kJ/mol
# GULP energy per Si atom -12389.942542 kJ/mol
# Density = 1.850138 g / cm^3
# Si number density = 18.543584 Si / 1000 Ang^3
#
#
#
# Elastic Constant Matrix: (Units=GPa)
#
#
# Indices 1 2 3 4 5 6 
#
# 1 95.1004 4.3817 38.7213 0.0000 33.6764 0.0000
# 2 4.3817 44.2006 8.6962 0.0000 3.5125 0.0000
# 3 38.7213 8.6962 48.9953 0.0000 21.9089 0.0000
# 4 0.0000 0.0000 0.0000 15.7991 0.0000 -5.1672
# 5 33.6764 3.5125 21.9089 0.0000 20.5668 0.0000
# 6 0.0000 0.0000 0.0000 -5.1672 0.0000 25.7975
#
#
#
# Elastic Compliance Matrix: (Units=1/GPa)
#
#
# Indices 1 2 3 4 5 6 
#
# 1 0.025281 0.001138 -0.003025 0.000000 -0.038367 0.000000
# 2 0.001138 0.023501 -0.004664 0.000000 -0.000908 0.000000
# 3 -0.003025 -0.004664 0.040213 0.000000 -0.037086 0.000000
# 4 0.000000 0.000000 0.000000 0.067732 0.000000 0.013567
# 5 -0.038367 -0.000908 -0.037086 0.000000 0.151106 0.000000
# 6 0.000000 0.000000 0.000000 0.013567 0.000000 0.041481
#
#
# Mechanical properties :
#
#
# Convention : Reuss Voigt Hill
#
# Bulk Modulus (GPa) = 13.17677 32.43273 22.80475
# Shear Modulus (GPa) = 12.89610 21.53249 17.21429
#
# Velocity S-wave (km/s) = 2.64000 3.41131 3.05013
# Velocity P-wave (km/s) = 4.05142 5.74839 4.97283
#
# Compressibility (1/GPa) = 0.07589115
#
# Stress axis : x y z
#
# Youngs Moduli (GPa) = 39.55559 42.55104 24.86779
#
# Poissons Ratio (x) = -0.04842 0.07523
# Poissons Ratio (y) = -0.04501 0.11600
# Poissons Ratio (z) = 0.11967 0.19848
#
# Static dielectric constant tensor:
#      x y z
#    x 3.892900 0.000000 0.243060 
#    y 0.000000 3.271400 0.000000 
#    z 0.243060 0.000000 3.117640 
# 
# 
# High freq. dielectric constant tensor:
#      x y z
#    x 1.741670 0.000000 0.007140 
#    y 0.000000 1.711400 0.000000 
#    z 0.007140 0.000000 1.661950 
# 
# From -- ./inp_files/185499.got.cif
#   From: 2010.06.25/outbox.cif.g09.slc.cpg/sg12_93_cif.got.tgz:185499.got - 2010.06.28 00:19:55.
