data_PCOD8089835
_publ_section_title
;
Structure prediction by ZEFSAII (Michael W. Deem and Ramdas Pophale) SiO2 
 PCOD8089835
Probable space group: C 2/M
;
_chemical_formula_sum "Si O2"
_cell_formula_units_Z 56
_cell_length_a 29.697185
_cell_length_b 8.951305
_cell_length_c 21.727078
_cell_angle_alpha 90.000000
_cell_angle_beta 33.521418
_cell_angle_gamma 90.000000
_cell_volume 3189.610396
_symmetry_space_group_name_H-M "C 2/M"
_symmetry_group_IT_number 12
_symmetry_cell_setting 'monoclinic'
loop_
_space_group_symop_operation_xyz
x,y,z
-x,y,-z
-x,-y,-z
x,-y,z
1/2+x,1/2+y,z
1/2-x,1/2+y,-z
1/2-x,1/2-y,-z
1/2+x,1/2-y,z
loop_
_atom_site_type_symbol
_atom_site_label
_atom_site_fract_x
_atom_site_fract_y
_atom_site_fract_z
Si Si1 0.848568 0.324309 0.100829
Si Si2 0.324387 0.672249 0.252304
Si Si3 0.490661 0.675732 0.127429
Si Si4 0.255764 0.826662 0.085608
Si Si5 0.798747 0.325970 0.499298
Si Si6 0.030968 0.176980 0.707936
Si Si7 0.623903 0.826228 0.162121
O O1 0.860203 0.500000 0.087862
O O2 0.808917 0.269718 0.209354
O O3 0.787750 0.275444 0.115619
O O4 0.937112 0.253174 0.991716
O O5 0.332205 0.500000 0.224147
O O6 0.406328 0.726318 0.192768
O O7 0.248611 0.699211 0.383273
O O8 0.503595 0.500000 0.108242
O O9 0.489131 0.728697 0.199799
O O10 0.175936 0.729736 0.161241
O O11 0.231396 0.000000 0.111223
O O12 0.327022 0.791364 0.956022
O O13 0.807870 0.500000 0.473243
O O14 0.750000 0.250000 0.500000
O O15 0.885967 0.251344 0.409005
O O16 0.959982 0.234734 0.744073
O O17 0.039853 0.000000 0.693071
O O18 0.604265 0.000000 0.192245
#
# Coordination Sequence:
#
# PCOD8089835 Si02
#       7
#     8   8   8   8   8   8   8
#     4  11  22  35  53  81 112 144 182 224 270 319
#     4  10  22  39  54  75 108 148 187 221 266 324
#     4  10  20  35  53  76 110 149 182 216 266 325
#     4   9  19  34  51  77 112 142 176 221 270 326
#     4  11  22  38  58  80 108 143 186 231 271 317
#     4  11  21  35  56  82 112 145 181 222 275 323
#     4  10  19  33  54  81 109 141 180 222 272 324
#
# _framework density 17.557003000000002
#
# number of rings (size 3 to 8) (size 9 to 14) (size 15 to 20)
#    0.000    1.714    2.857    2.143    0.000    5.714 
#    0.000    0.000    0.000    0.857    0.000    6.000 
#    0.000    0.000    0.000    0.000    0.000    0.000 
#
# Total GULP energy -347344.079180 kJ/mol
# GULP energy per Si atom -12405.145685 kJ/mol
# Density = 1.751704 g / cm^3
# Si number density = 17.557003 Si / 1000 Ang^3
#
#
#
# Elastic Constant Matrix: (Units=GPa)
#
#
# Indices 1 2 3 4 5 6 
#
# 1 107.9286 48.9272 49.4513 -0.0010 -15.2662 -0.0015
# 2 48.9272 71.2416 44.1711 -0.0053 -7.1461 0.0090
# 3 49.4513 44.1711 88.4390 -0.0055 -12.7396 0.0000
# 4 -0.0010 -0.0053 -0.0055 31.3140 0.0011 -2.8840
# 5 -15.2662 -7.1461 -12.7396 0.0011 25.2693 -0.0019
# 6 -0.0015 0.0090 0.0000 -2.8840 -0.0019 32.0425
#
#
#
# Elastic Compliance Matrix: (Units=1/GPa)
#
#
# Indices 1 2 3 4 5 6 
#
# 1 0.015204 -0.007410 -0.004075 -0.000001 0.005035 0.000003
# 2 -0.007410 0.023956 -0.008077 0.000002 -0.001774 -0.000007
# 3 -0.004075 -0.008077 0.018263 0.000002 0.004461 0.000003
# 4 -0.000001 0.000002 0.000002 0.032202 -0.000001 0.002898
# 5 0.005035 -0.001774 0.004461 -0.000001 0.044363 0.000003
# 6 0.000003 -0.000007 0.000003 0.002898 0.000003 0.031469
#
#
# Mechanical properties :
#
#
# Convention : Reuss Voigt Hill
#
# Bulk Modulus (GPa) = 54.65068 61.41204 58.03136
# Shear Modulus (GPa) = 23.73272 26.06245 24.89758
#
# Velocity S-wave (km/s) = 3.68061 3.85703 3.76985
# Velocity P-wave (km/s) = 7.01838 7.40879 7.21623
#
# Compressibility (1/GPa) = 0.01829803
#
# Stress axis : x y z
#
# Youngs Moduli (GPa) = 65.77240 41.74381 54.75698
#
# Poissons Ratio (x) = 0.30932 0.22314
# Poissons Ratio (y) = 0.48737 0.44227
# Poissons Ratio (z) = 0.26803 0.33716
#
# Static dielectric constant tensor:
#      x y z
#    x 3.368730 -0.000030 -0.107300 
#    y -0.000030 3.293880 0.000050 
#    z -0.107300 0.000050 3.257390 
# 
# 
# High freq. dielectric constant tensor:
#      x y z
#    x 1.679450 0.000000 -0.009010 
#    y 0.000000 1.686550 0.000000 
#    z -0.009010 0.000000 1.662830 
# 
# From -- ./inp_files/237796.got.cif
#   From: 2010.06.25/outbox.cif.g09.slc.cpg/sg12_119_cif.got.tgz:237796.got - 2010.06.28 00:19:55.
