data_PCOD8089169
_publ_section_title
;
Structure prediction by ZEFSAII (Michael W. Deem and Ramdas Pophale) SiO2 
 PCOD8089169
Probable space group: C 2/M
;
_chemical_formula_sum "Si O2"
_cell_formula_units_Z 48
_cell_length_a 19.032326
_cell_length_b 25.981125
_cell_length_c 8.276748
_cell_angle_alpha 90.000000
_cell_angle_beta 143.430627
_cell_angle_gamma 90.000000
_cell_volume 2438.410844
_symmetry_space_group_name_H-M "C 2/M"
_symmetry_group_IT_number 12
_symmetry_cell_setting 'monoclinic'
loop_
_space_group_symop_operation_xyz
x,y,z
-x,y,-z
-x,-y,-z
x,-y,z
1/2+x,1/2+y,z
1/2-x,1/2+y,-z
1/2-x,1/2-y,-z
1/2+x,1/2-y,z
loop_
_atom_site_type_symbol
_atom_site_label
_atom_site_fract_x
_atom_site_fract_y
_atom_site_fract_z
Si Si1 0.500000 0.712430 0.500000
Si Si2 0.337434 0.556486 0.838677
Si Si3 0.339385 0.754743 0.960372
Si Si4 0.234755 0.338816 0.582308
Si Si5 0.000000 0.699384 0.000000
Si Si6 0.593898 0.555150 0.405178
Si Si7 0.336358 0.338800 0.428958
O O1 0.539042 0.680234 0.414016
O O2 0.611187 0.745468 0.767948
O O3 0.281301 0.500000 0.782168
O O4 0.250221 0.605695 0.699880
O O5 0.374214 0.553108 0.722245
O O6 0.453763 0.566111 0.162558
O O7 0.256320 0.708136 0.745648
O O8 0.269258 0.808106 0.849015
O O9 0.447509 0.762994 0.038059
O O10 0.329261 0.331998 0.610145
O O11 0.101903 0.336293 0.266941
O O12 0.625176 0.500000 0.544541
O O13 0.669729 0.600517 0.628723
#
# Coordination Sequence:
#
# PCOD8089169 Si02
#       7
#     4   8   8   8   4   8   8
#     4  12  22  32  47  72 101 130 160 198 244 292
#     4   8  14  25  45  72  98 123 154 195 241 283
#     4  11  21  34  50  72  99 130 163 200 242 288
#     4  10  19  33  52  72  97 129 165 200 237 286
#     4  10  20  34  51  72  95 128 166 200 238 286
#     4   8  14  27  47  70  95 124 157 195 240 286
#     4  10  20  32  49  73  99 128 161 197 242 289
#
# _framework density 19.684951000000002
#
# number of rings (size 3 to 8) (size 9 to 14) (size 15 to 20)
#    0.000    2.333    0.000    6.500    0.000    2.667 
#    0.000    0.833    0.000    2.000    0.000    0.583 
#    0.000    0.000    0.000    2.167    0.000    2.500 
#
# Total GULP energy -297337.362611 kJ/mol
# GULP energy per Si atom -12389.056775 kJ/mol
# Density = 1.964015 g / cm^3
# Si number density = 19.684951 Si / 1000 Ang^3
#
#
#
# Elastic Constant Matrix: (Units=GPa)
#
#
# Indices 1 2 3 4 5 6 
#
# 1 39.4484 23.1626 14.6846 0.0000 5.0196 0.0000
# 2 23.1626 194.5672 86.5485 0.0000 3.8321 0.0000
# 3 14.6846 86.5485 100.2507 0.0000 1.5990 0.0000
# 4 0.0000 0.0000 0.0000 31.2217 0.0000 8.7771
# 5 5.0196 3.8321 1.5990 0.0000 17.7727 0.0000
# 6 0.0000 0.0000 0.0000 8.7771 0.0000 6.1416
#
#
#
# Elastic Compliance Matrix: (Units=1/GPa)
#
#
# Indices 1 2 3 4 5 6 
#
# 1 0.028409 -0.002335 -0.002028 0.000000 -0.007338 0.000000
# 2 -0.002335 0.008560 -0.007039 0.000000 -0.000553 0.000000
# 3 -0.002028 -0.007039 0.016339 0.000000 0.000621 0.000000
# 4 0.000000 0.000000 0.000000 0.053539 0.000000 -0.076515
# 5 -0.007338 -0.000553 0.000621 0.000000 0.058402 0.000000
# 6 0.000000 0.000000 0.000000 -0.076515 0.000000 0.272175
#
#
# Mechanical properties :
#
#
# Convention : Reuss Voigt Hill
#
# Bulk Modulus (GPa) = 32.78334 64.78419 48.78376
# Shear Modulus (GPa) = 10.62935 25.01856 17.82396
#
# Velocity S-wave (km/s) = 2.32625 3.56890 3.01235
# Velocity P-wave (km/s) = 4.88932 7.06857 6.07742
#
# Compressibility (1/GPa) = 0.03050330
#
# Stress axis : x y z
#
# Youngs Moduli (GPa) = 35.19955 116.82919 61.20383
#
# Poissons Ratio (x) = 0.27283 0.12414
# Poissons Ratio (y) = 0.08220 0.43080
# Poissons Ratio (z) = 0.07139 0.82233
#
# Static dielectric constant tensor:
#      x y z
#    x 3.375820 0.000000 0.062050 
#    y 0.000000 4.194770 0.000000 
#    z 0.062050 0.000000 3.329390 
# 
# 
# High freq. dielectric constant tensor:
#      x y z
#    x 1.739360 0.000000 -0.000860 
#    y 0.000000 1.775730 0.000000 
#    z -0.000860 0.000000 1.737270 
# 
# From -- ./inp_files/91464.got.cif
#   From: 2010.06.25/outbox.cif.g09.slc.cpg/sg12_46_cif.got.tgz:91464.got - 2010.06.28 00:19:55.
