data_PCOD8089227
_publ_section_title
;
Structure prediction by ZEFSAII (Michael W. Deem and Ramdas Pophale) SiO2 
 PCOD8089227
Probable space group: C 2/M
;
_chemical_formula_sum "Si O2"
_cell_formula_units_Z 40
_cell_length_a 18.711221
_cell_length_b 31.681040
_cell_length_c 12.935534
_cell_angle_alpha 90.000000
_cell_angle_beta 162.832530
_cell_angle_gamma 90.000000
_cell_volume 2263.349996
_symmetry_space_group_name_H-M "C 2/M"
_symmetry_group_IT_number 12
_symmetry_cell_setting 'monoclinic'
loop_
_space_group_symop_operation_xyz
x,y,z
-x,y,-z
-x,-y,-z
x,-y,z
1/2+x,1/2+y,z
1/2-x,1/2+y,-z
1/2-x,1/2-y,-z
1/2+x,1/2-y,z
loop_
_atom_site_type_symbol
_atom_site_label
_atom_site_fract_x
_atom_site_fract_y
_atom_site_fract_z
Si Si1 0.193720 0.566329 0.357998
Si Si2 0.741017 0.717365 0.174971
Si Si3 0.388071 0.226273 0.600164
Si Si4 0.373359 0.647597 0.720637
Si Si5 0.012135 0.000000 0.349032
Si Si6 0.602549 0.000000 0.938058
O O1 0.295707 0.610022 0.539907
O O2 0.426280 0.541005 0.635096
O O3 0.065492 0.541170 0.275507
O O4 0.000000 0.574501 0.000000
O O5 0.757828 0.737385 0.312505
O O6 0.000000 0.699606 0.500000
O O7 0.661063 0.755455 0.986399
O O8 0.559807 0.677863 0.917806
O O9 0.250000 0.250000 0.500000
O O10 0.366999 0.175467 0.585015
O O11 0.500000 0.630191 0.000000
O O12 0.188223 0.000000 0.689094
O O13 0.731845 0.000000 0.002943
#
# Coordination Sequence:
#
# PCOD8089227 Si02
#       6
#     8   8   8   8   4   4
#     4   9  17  31  54  78  98 131 170 204 249 300
#     4  10  19  33  52  74  99 132 172 213 253 291
#     4   9  18  33  52  69  95 137 171 199 251 303
#     4   9  19  34  48  70 104 137 160 200 256 303
#     4   8  15  31  52  76 102 126 166 206 254 294
#     4   8  15  31  54  74 101 133 158 211 253 296
#
# _framework density 17.672917999999999
#
# number of rings (size 3 to 8) (size 9 to 14) (size 15 to 20)
#    0.000    3.000    0.000    3.600    0.000    3.200 
#    7.200    2.000    4.400    1.200    0.000    0.000 
#    0.000    0.000    0.000    0.000    0.000    0.000 
#
# Total GULP energy -247767.303788 kJ/mol
# GULP energy per Si atom -12388.365189 kJ/mol
# Density = 1.763269 g / cm^3
# Si number density = 17.672918 Si / 1000 Ang^3
#
#
#
# Elastic Constant Matrix: (Units=GPa)
#
#
# Indices 1 2 3 4 5 6 
#
# 1 88.6961 51.2077 42.7792 -0.0001 11.3844 0.0010
# 2 51.2077 126.5260 70.2245 -0.0020 -9.6432 -0.0005
# 3 42.7792 70.2245 82.8766 -0.0027 5.6765 0.0034
# 4 -0.0001 -0.0020 -0.0027 32.3338 -0.0025 -10.7745
# 5 11.3844 -9.6432 5.6765 -0.0025 31.6186 0.0006
# 6 0.0010 -0.0005 0.0034 -10.7745 0.0006 20.6096
#
#
#
# Elastic Compliance Matrix: (Units=1/GPa)
#
#
# Indices 1 2 3 4 5 6 
#
# 1 0.017117 -0.005354 -0.003812 -0.000001 -0.007112 -0.000001
# 2 -0.005354 0.018249 -0.013377 0.000002 0.009895 0.000004
# 3 -0.003812 -0.013377 0.025872 -0.000001 -0.007352 -0.000005
# 4 -0.000001 0.000002 -0.000001 0.037452 0.000004 0.019579
# 5 -0.007112 0.009895 -0.007352 0.000004 0.038525 0.000003
# 6 -0.000001 0.000004 -0.000005 0.019579 0.000003 0.058757
#
#
# Mechanical properties :
#
#
# Convention : Reuss Voigt Hill
#
# Bulk Modulus (GPa) = 61.91041 69.61352 65.76196
# Shear Modulus (GPa) = 20.28870 25.83821 23.06345
#
# Velocity S-wave (km/s) = 3.39191 3.82779 3.61642
# Velocity P-wave (km/s) = 7.10263 7.68189 7.39793
#
# Compressibility (1/GPa) = 0.01615237
#
# Stress axis : x y z
#
# Youngs Moduli (GPa) = 58.42261 54.79663 38.65129
#
# Poissons Ratio (x) = 0.29338 0.14732
# Poissons Ratio (y) = 0.31279 0.51706
# Poissons Ratio (z) = 0.22268 0.73304
#
# Static dielectric constant tensor:
#      x y z
#    x 3.519420 -0.000030 0.095820 
#    y -0.000030 3.195480 0.000070 
#    z 0.095820 0.000070 3.883400 
# 
# 
# High freq. dielectric constant tensor:
#      x y z
#    x 1.683290 0.000000 0.004050 
#    y 0.000000 1.666230 0.000000 
#    z 0.004050 0.000000 1.671050 
# 
# From -- ./inp_files/91323.got.cif
#   From: 2010.06.25/outbox.cif.g09.slc.cpg/sg12_46_cif.got.tgz:91323.got - 2010.06.28 00:19:55.
