data_PCOD8089127
_publ_section_title
;
Structure prediction by ZEFSAII (Michael W. Deem and Ramdas Pophale) SiO2 
 PCOD8089127
Probable space group: C 2/M
;
_chemical_formula_sum "Si O2"
_cell_formula_units_Z 48
_cell_length_a 9.950295
_cell_length_b 20.646828
_cell_length_c 15.699827
_cell_angle_alpha 90.000000
_cell_angle_beta 119.828316
_cell_angle_gamma 90.000000
_cell_volume 2798.101915
_symmetry_space_group_name_H-M "C 2/M"
_symmetry_group_IT_number 12
_symmetry_cell_setting 'monoclinic'
loop_
_space_group_symop_operation_xyz
x,y,z
-x,y,-z
-x,-y,-z
x,-y,z
1/2+x,1/2+y,z
1/2-x,1/2+y,-z
1/2-x,1/2-y,-z
1/2+x,1/2-y,z
loop_
_atom_site_type_symbol
_atom_site_label
_atom_site_fract_x
_atom_site_fract_y
_atom_site_fract_z
Si Si1 0.766953 0.194343 0.393053
Si Si2 0.095412 0.364947 0.194971
Si Si3 0.901421 0.870883 0.187925
Si Si4 0.017298 0.500000 0.883606
Si Si5 0.220382 0.000000 0.911687
Si Si6 0.927991 0.243219 0.069681
Si Si7 0.931504 0.812423 0.610724
O O1 0.669398 0.140941 0.311835
O O2 0.821257 0.161568 0.499492
O O3 0.659090 0.256305 0.369819
O O4 0.913546 0.217336 0.382864
O O5 0.225887 0.358919 0.163188
O O6 0.005248 0.433006 0.174128
O O7 0.979269 0.307417 0.135804
O O8 0.962310 0.818503 0.139795
O O9 0.019609 0.868508 0.306486
O O10 0.896444 0.940475 0.141137
O O11 0.876781 0.500000 0.905988
O O12 0.198025 0.500000 0.970133
O O13 0.750000 0.250000 0.000000
O O14 0.000000 0.233141 0.000000
#
# Coordination Sequence:
#
# PCOD8089127 Si02
#       7
#     8   8   8   4   4   8   8
#     4   9  17  30  49  76 103 127 161 207 254 299
#     4  10  19  33  51  75 102 133 170 208 251 295
#     4  10  19  34  51  74 101 135 168 206 253 299
#     4   9  18  30  49  71 101 139 171 206 241 298
#     4   9  18  32  50  69 101 139 174 199 246 305
#     4  12  22  32  49  77 102 128 167 215 250 292
#     4   9  17  30  50  75 102 129 161 205 255 299
#
# _framework density 17.154485999999999
#
# number of rings (size 3 to 8) (size 9 to 14) (size 15 to 20)
#    0.000    2.167    3.333    1.000    2.333    0.000 
#    0.000    1.250    0.000    5.000    0.000    0.000 
#    0.000    5.333    0.000    0.000    0.000    0.000 
#
# Total GULP energy -297339.492587 kJ/mol
# GULP energy per Si atom -12389.145524 kJ/mol
# Density = 1.711544 g / cm^3
# Si number density = 17.154486 Si / 1000 Ang^3
#
#
#
# Elastic Constant Matrix: (Units=GPa)
#
#
# Indices 1 2 3 4 5 6 
#
# 1 54.9956 35.4581 44.4126 0.0000 5.3978 0.0000
# 2 35.4581 140.3009 79.2594 0.0000 10.3479 0.0000
# 3 44.4126 79.2594 141.1208 0.0000 13.4013 0.0000
# 4 0.0000 0.0000 0.0000 28.1356 0.0000 4.2843
# 5 5.3978 10.3479 13.4013 0.0000 24.7968 0.0000
# 6 0.0000 0.0000 0.0000 4.2843 0.0000 19.2554
#
#
#
# Elastic Compliance Matrix: (Units=1/GPa)
#
#
# Indices 1 2 3 4 5 6 
#
# 1 0.025105 -0.002728 -0.006280 0.000000 -0.000932 0.000000
# 2 -0.002728 0.010773 -0.005083 0.000000 -0.001155 0.000000
# 3 -0.006280 -0.005083 0.012213 0.000000 -0.003112 0.000000
# 4 0.000000 0.000000 0.000000 0.036789 0.000000 -0.008185
# 5 -0.000932 -0.001155 -0.003112 0.000000 0.042695 0.000000
# 6 0.000000 0.000000 0.000000 -0.008185 0.000000 0.053755
#
#
# Mechanical properties :
#
#
# Convention : Reuss Voigt Hill
#
# Bulk Modulus (GPa) = 50.22676 72.74193 61.48435
# Shear Modulus (GPa) = 23.13227 26.25672 24.69450
#
# Velocity S-wave (km/s) = 3.67613 3.91654 3.79824
# Velocity P-wave (km/s) = 6.88195 7.93401 7.42663
#
# Compressibility (1/GPa) = 0.01990971
#
# Stress axis : x y z
#
# Youngs Moduli (GPa) = 39.83191 92.82042 81.88204
#
# Poissons Ratio (x) = 0.25324 0.51423
# Poissons Ratio (y) = 0.10867 0.41617
# Poissons Ratio (z) = 0.25015 0.47176
#
# Static dielectric constant tensor:
#      x y z
#    x 3.067960 0.000000 0.104980 
#    y 0.000000 -0.066080 0.000000 
#    z 0.104980 0.000000 3.562980 
# 
# 
# High freq. dielectric constant tensor:
#      x y z
#    x 1.641980 0.000000 0.013460 
#    y 0.000000 1.637460 0.000000 
#    z 0.013460 0.000000 1.681220 
# 
# From -- ./inp_files/197220.got.cif
#   From: 2010.06.25/outbox.cif.g09.slc.cpg/sg12_99_cif.got.tgz:197220.got - 2010.06.28 00:19:55.
