data_PCOD8089028
_publ_section_title
;
Structure prediction by ZEFSAII (Michael W. Deem and Ramdas Pophale) SiO2 
 PCOD8089028
Probable space group: C 2/M
;
_chemical_formula_sum "Si O2"
_cell_formula_units_Z 64
_cell_length_a 26.325690
_cell_length_b 9.053181
_cell_length_c 15.218174
_cell_angle_alpha 90.000000
_cell_angle_beta 107.305502
_cell_angle_gamma 90.000000
_cell_volume 3462.781586
_symmetry_space_group_name_H-M "C 2/M"
_symmetry_group_IT_number 12
_symmetry_cell_setting 'monoclinic'
loop_
_space_group_symop_operation_xyz
x,y,z
-x,y,-z
-x,-y,-z
x,-y,z
1/2+x,1/2+y,z
1/2-x,1/2+y,-z
1/2-x,1/2-y,-z
1/2+x,1/2-y,z
loop_
_atom_site_type_symbol
_atom_site_label
_atom_site_fract_x
_atom_site_fract_y
_atom_site_fract_z
Si Si1 0.864316 0.171138 0.286171
Si Si2 0.062689 0.323553 0.024895
Si Si3 0.101933 0.337590 0.857742
Si Si4 0.179569 0.672653 0.389797
Si Si5 0.516570 0.838317 0.265629
Si Si6 0.982419 0.838442 0.393148
Si Si7 0.100910 0.824875 0.211584
Si Si8 0.802442 0.827792 0.423472
O O1 0.858705 0.245554 0.186259
O O2 0.921274 0.208664 0.356716
O O3 0.822943 0.230222 0.338802
O O4 0.854202 0.000000 0.264294
O O5 0.065852 0.500000 0.037730
O O6 0.101635 0.243766 0.114530
O O7 0.089853 0.269980 0.947634
O O8 0.000000 0.276340 0.000000
O O9 0.127446 0.500000 0.880651
O O10 0.045315 0.348718 0.782875
O O11 0.165332 0.500000 0.385527
O O12 0.143800 0.752889 0.298637
O O13 0.169717 0.740611 0.481696
O O14 0.239798 0.700878 0.391687
O O15 0.522096 0.777330 0.367244
O O16 0.542401 0.720291 0.214202
O O17 0.543677 0.000000 0.270235
O O18 0.000000 0.845971 0.500000
O O19 0.988999 0.000000 0.351812
O O20 0.108924 0.000000 0.212671
O O21 0.816840 0.000000 0.443236
#
# Coordination Sequence:
#
# PCOD8089028 Si02
#       8
#     8   8   8   8   8   8   8   8
#     4   9  18  32  51  75 106 140 174 214 261 316
#     4  10  19  36  57  77 108 146 180 218 266 319
#     4   9  18  33  53  76 105 140 177 215 255 310
#     4  10  21  37  57  81 108 140 182 227 273 324
#     4  10  19  33  49  70 102 140 180 216 258 308
#     4   9  18  30  44  69 104 142 175 208 258 312
#     4  12  24  35  52  79 109 141 179 225 275 321
#     4   9  19  37  59  82 108 142 180 223 274 323
#
# _framework density 18.482250000000001
#
# number of rings (size 3 to 8) (size 9 to 14) (size 15 to 20)
#    0.000    2.250    1.250    1.875    1.750    2.500 
#    0.000    0.000    0.000    0.750    0.000    0.000 
#    0.000    0.000    0.000    0.000    0.000    0.000 
#
# Total GULP energy -396484.857656 kJ/mol
# GULP energy per Si atom -12390.151802 kJ/mol
# Density = 1.844018 g / cm^3
# Si number density = 18.482250 Si / 1000 Ang^3
#
#
#
# Elastic Constant Matrix: (Units=GPa)
#
#
# Indices 1 2 3 4 5 6 
#
# 1 56.5133 37.1815 51.2844 0.0000 -31.6998 0.0000
# 2 37.1815 88.5497 60.0581 0.0000 -12.4349 0.0000
# 3 51.2844 60.0581 124.6524 0.0000 -29.8327 0.0000
# 4 0.0000 0.0000 0.0000 31.6347 0.0000 -4.6909
# 5 -31.6998 -12.4349 -29.8327 0.0000 36.0643 0.0000
# 6 0.0000 0.0000 0.0000 -4.6909 0.0000 22.9246
#
#
#
# Elastic Compliance Matrix: (Units=1/GPa)
#
#
# Indices 1 2 3 4 5 6 
#
# 1 0.052145 -0.012075 -0.007060 0.000000 0.035830 0.000000
# 2 -0.012075 0.019608 -0.006735 0.000000 -0.009424 0.000000
# 3 -0.007060 -0.006735 0.015125 0.000000 0.003984 0.000000
# 4 0.000000 0.000000 0.000000 0.032600 0.000000 0.006671
# 5 0.035830 -0.009424 0.003984 0.000000 0.059268 0.000000
# 6 0.000000 0.000000 0.000000 0.006671 0.000000 0.044986
#
#
# Mechanical properties :
#
#
# Convention : Reuss Voigt Hill
#
# Bulk Modulus (GPa) = 28.45955 62.97371 45.71663
# Shear Modulus (GPa) = 17.41044 26.20414 21.80729
#
# Velocity S-wave (km/s) = 3.07255 3.76945 3.43870
# Velocity P-wave (km/s) = 5.29331 7.28639 6.36831
#
# Compressibility (1/GPa) = 0.03513759
#
# Stress axis : x y z
#
# Youngs Moduli (GPa) = 19.17748 51.00079 66.11481
#
# Poissons Ratio (x) = 0.61583 0.46679
# Poissons Ratio (y) = 0.23157 0.44525
# Poissons Ratio (z) = 0.13540 0.34347
#
# Static dielectric constant tensor:
#      x y z
#    x 3.309040 0.000000 -0.289960 
#    y 0.000000 3.858010 0.000000 
#    z -0.289960 0.000000 3.507510 
# 
# 
# High freq. dielectric constant tensor:
#      x y z
#    x 1.693130 0.000000 -0.022410 
#    y 0.000000 1.714910 0.000000 
#    z -0.022410 0.000000 1.716850 
# 
# From -- ./inp_files/244212.got.cif
#   From: 2010.06.25/outbox.cif.g09.slc.cpg/sg12_123_cif.got.tgz:244212.got - 2010.06.28 00:19:55.
