data_PCOD8089401
_publ_section_title
;
Structure prediction by ZEFSAII (Michael W. Deem and Ramdas Pophale) SiO2 
 PCOD8089401
Probable space group: C 2/M
;
_chemical_formula_sum "Si O2"
_cell_formula_units_Z 56
_cell_length_a 18.742100
_cell_length_b 8.995235
_cell_length_c 16.672291
_cell_angle_alpha 90.000000
_cell_angle_beta 78.818543
_cell_angle_gamma 90.000000
_cell_volume 2757.420545
_symmetry_space_group_name_H-M "C 2/M"
_symmetry_group_IT_number 12
_symmetry_cell_setting 'monoclinic'
loop_
_space_group_symop_operation_xyz
x,y,z
-x,y,-z
-x,-y,-z
x,-y,z
1/2+x,1/2+y,z
1/2-x,1/2+y,-z
1/2-x,1/2-y,-z
1/2+x,1/2-y,z
loop_
_atom_site_type_symbol
_atom_site_label
_atom_site_fract_x
_atom_site_fract_y
_atom_site_fract_z
Si Si1 0.866692 0.833384 0.440817
Si Si2 0.827485 0.675168 0.001375
Si Si3 0.785187 0.831493 0.302013
Si Si4 0.967801 0.831139 0.918605
Si Si5 0.495296 0.834169 0.596272
Si Si6 0.892537 0.673979 0.160923
Si Si7 0.852422 0.825995 0.625255
O O1 0.799925 0.827264 0.394227
O O2 0.929125 0.730965 0.388202
O O3 0.841465 0.780083 0.534319
O O4 0.898410 0.000000 0.442372
O O5 0.822621 0.500000 0.984473
O O6 0.890156 0.746823 0.931383
O O7 0.750000 0.750000 0.000000
O O8 0.849553 0.707600 0.088165
O O9 0.846222 0.741165 0.242632
O O10 0.707410 0.754790 0.306929
O O11 0.782900 0.000000 0.270058
O O12 0.027476 0.747576 0.851317
O O13 0.956817 0.000000 0.890485
O O14 0.000000 0.828790 0.000000
O O15 0.500000 0.832261 0.500000
O O16 0.429830 0.730657 0.640599
O O17 0.483997 0.000000 0.632325
O O18 0.903257 0.500000 0.171413
O O19 0.845119 0.000000 0.641098
#
# Coordination Sequence:
#
# PCOD8089401 Si02
#       7
#     8   8   8   8   8   8   8
#     4   9  19  34  52  75 102 136 178 222 268 318
#     4  10  20  35  58  86 113 140 173 214 257 307
#     4  11  22  35  52  76 107 140 177 222 267 312
#     4   9  17  32  56  82 107 137 171 206 248 302
#     4   9  17  30  50  74  98 126 165 214 263 312
#     4  10  21  37  55  78 109 143 177 213 260 314
#     4  10  19  33  53  75 103 139 178 221 270 320
#
# _framework density 20.308834999999998
#
# number of rings (size 3 to 8) (size 9 to 14) (size 15 to 20)
#    0.000    2.286    0.000    3.000    0.000    6.857 
#    0.000    1.429    0.000    8.571    0.000    0.000 
#    0.000    0.000    0.000    0.000    0.000    0.000 
#
# Total GULP energy -347183.266886 kJ/mol
# GULP energy per Si atom -12399.402389 kJ/mol
# Density = 2.026261 g / cm^3
# Si number density = 20.308835 Si / 1000 Ang^3
#
#
#
# Elastic Constant Matrix: (Units=GPa)
#
#
# Indices 1 2 3 4 5 6 
#
# 1 115.7474 63.4791 25.3887 0.0000 -36.7748 0.0000
# 2 63.4791 126.8797 34.4197 0.0000 -21.7011 0.0000
# 3 25.3887 34.4197 50.5430 0.0000 -27.7866 0.0000
# 4 0.0000 0.0000 0.0000 28.3586 0.0000 -11.0598
# 5 -36.7748 -21.7011 -27.7866 0.0000 33.9047 0.0000
# 6 0.0000 0.0000 0.0000 -11.0598 0.0000 41.0612
#
#
#
# Elastic Compliance Matrix: (Units=1/GPa)
#
#
# Indices 1 2 3 4 5 6 
#
# 1 0.017459 -0.007251 0.007329 0.000000 0.020303 0.000000
# 2 -0.007251 0.012717 -0.008858 0.000000 -0.006984 0.000000
# 3 0.007329 -0.008858 0.042569 0.000000 0.037167 0.000000
# 4 0.000000 0.000000 0.000000 0.039402 0.000000 0.010613
# 5 0.020303 -0.006984 0.037167 0.000000 0.077506 0.000000
# 6 0.000000 0.000000 0.000000 0.010613 0.000000 0.027212
#
#
# Mechanical properties :
#
#
# Convention : Reuss Voigt Hill
#
# Bulk Modulus (GPa) = 18.12028 59.97165 39.04597
# Shear Modulus (GPa) = 19.77697 31.99039 25.88368
#
# Velocity S-wave (km/s) = 3.12398 3.97318 3.57389
# Velocity P-wave (km/s) = 4.68552 7.11633 6.02479
#
# Compressibility (1/GPa) = 0.05518678
#
# Stress axis : x y z
#
# Youngs Moduli (GPa) = 57.27809 78.63203 23.49130
#
# Poissons Ratio (x) = 0.57012 -0.17218
# Poissons Ratio (y) = 0.41530 0.20808
# Poissons Ratio (z) = -0.41981 0.69652
#
# Static dielectric constant tensor:
#      x y z
#    x 3.638680 0.000000 -0.192510 
#    y 0.000000 3.841450 0.000000 
#    z -0.192510 0.000000 3.347670 
# 
# 
# High freq. dielectric constant tensor:
#      x y z
#    x 1.792380 0.000000 -0.022260 
#    y 0.000000 1.807730 0.000000 
#    z -0.022260 0.000000 1.760400 
# 
# From -- ./inp_files/275282.got.cif
#   From: 2010.06.25/outbox.cif.g09.slc.cpg/sg12_138_cif.got.tgz:275282.got - 2010.06.28 00:19:55.
