data_PCOD8089188
_publ_section_title
;
Structure prediction by ZEFSAII (Michael W. Deem and Ramdas Pophale) SiO2 
 PCOD8089188
Probable space group: C 2/M
;
_chemical_formula_sum "Si O2"
_cell_formula_units_Z 56
_cell_length_a 24.312292
_cell_length_b 19.270099
_cell_length_c 21.944362
_cell_angle_alpha 90.000000
_cell_angle_beta 16.433934
_cell_angle_gamma 90.000000
_cell_volume 2908.576209
_symmetry_space_group_name_H-M "C 2/M"
_symmetry_group_IT_number 12
_symmetry_cell_setting 'monoclinic'
loop_
_space_group_symop_operation_xyz
x,y,z
-x,y,-z
-x,-y,-z
x,-y,z
1/2+x,1/2+y,z
1/2-x,1/2+y,-z
1/2-x,1/2-y,-z
1/2+x,1/2-y,z
loop_
_atom_site_type_symbol
_atom_site_label
_atom_site_fract_x
_atom_site_fract_y
_atom_site_fract_z
Si Si1 0.124531 0.755136 0.311293
Si Si2 0.048844 0.851751 0.014179
Si Si3 0.960307 0.076072 0.856542
Si Si4 0.292440 0.821540 0.028578
Si Si5 0.952752 0.421434 0.769274
Si Si6 0.463800 0.295079 0.289717
Si Si7 0.329486 0.804616 0.526672
O O1 0.251853 0.817595 0.144919
O O2 0.000000 0.785354 0.500000
O O3 0.996035 0.724191 0.393365
O O4 0.258776 0.694540 0.195623
O O5 0.074625 0.914628 0.034122
O O6 0.871255 0.803098 0.224303
O O7 0.000000 0.883678 0.000000
O O8 0.106201 0.137670 0.676421
O O9 0.052364 0.000000 0.746709
O O10 0.753694 0.082352 0.044239
O O11 0.085426 0.828823 0.215509
O O12 0.430225 0.885040 0.860129
O O13 0.390193 0.748292 0.907520
O O14 0.025321 0.500000 0.701159
O O15 0.107104 0.381473 0.562745
O O16 0.300579 0.245922 0.496741
#
# Coordination Sequence:
#
# PCOD8089188 Si02
#       7
#     8   8   8   8   8   8   8
#     4  11  19  35  54  74 103 137 173 215 256 293
#     4  12  23  34  51  76 102 138 182 213 243 299
#     4  10  19  33  52  73 106 141 169 205 255 305
#     4   8  14  28  53  77  98 129 167 212 257 303
#     4   9  17  33  56  79 105 135 165 208 266 314
#     4   8  14  30  51  76  99 126 166 214 263 303
#     4  10  20  33  56  78 101 131 172 216 259 303
#
# _framework density 19.253405999999998
#
# number of rings (size 3 to 8) (size 9 to 14) (size 15 to 20)
#    0.000    2.286    4.286    1.714    0.000    1.429 
#    0.000    0.000    0.000    3.000    0.000    0.000 
#    0.000    1.143    0.000    0.000    0.000    0.000 
#
# Total GULP energy -347001.910244 kJ/mol
# GULP energy per Si atom -12392.925366 kJ/mol
# Density = 1.920958 g / cm^3
# Si number density = 19.253406 Si / 1000 Ang^3
#
#
#
# Elastic Constant Matrix: (Units=GPa)
#
#
# Indices 1 2 3 4 5 6 
#
# 1 83.6100 51.3310 21.8871 0.0247 24.4287 -0.0303
# 2 51.3310 99.1766 18.5245 -0.0283 17.9066 0.0128
# 3 21.8871 18.5245 72.6862 0.0408 20.4160 -0.0486
# 4 0.0247 -0.0283 0.0408 14.9850 -0.0337 6.8335
# 5 24.4287 17.9066 20.4160 -0.0337 32.4163 0.0239
# 6 -0.0303 0.0128 -0.0486 6.8335 0.0239 15.7579
#
#
#
# Elastic Compliance Matrix: (Units=1/GPa)
#
#
# Indices 1 2 3 4 5 6 
#
# 1 0.020422 -0.008558 -0.001182 -0.000119 -0.009918 0.000109
# 2 -0.008558 0.014898 -0.000875 0.000069 -0.001229 -0.000059
# 3 -0.001182 -0.000875 0.016949 -0.000120 -0.009301 0.000117
# 4 -0.000119 0.000069 -0.000120 0.083186 0.000240 -0.036075
# 5 -0.009918 -0.001229 -0.009301 0.000240 0.044860 -0.000219
# 6 0.000109 -0.000059 0.000117 -0.036075 -0.000219 0.079105
#
#
# Mechanical properties :
#
#
# Convention : Reuss Voigt Hill
#
# Bulk Modulus (GPa) = 32.21828 48.77312 40.49570
# Shear Modulus (GPa) = 17.18236 23.54719 20.36477
#
# Velocity S-wave (km/s) = 2.99060 3.50096 3.25579
# Velocity P-wave (km/s) = 5.35678 6.45983 5.93399
#
# Compressibility (1/GPa) = 0.03103828
#
# Stress axis : x y z
#
# Youngs Moduli (GPa) = 48.96729 67.12379 58.99966
#
# Poissons Ratio (x) = 0.57446 0.06976
# Poissons Ratio (y) = 0.41908 0.05160
# Poissons Ratio (z) = 0.05790 0.05871
#
# Static dielectric constant tensor:
#      x y z
#    x 3.787870 -0.000090 -0.000470 
#    y -0.000090 3.538990 0.000170 
#    z -0.000470 0.000170 3.523160 
# 
# 
# High freq. dielectric constant tensor:
#      x y z
#    x 1.753810 -0.000010 -0.013950 
#    y -0.000010 1.711190 0.000020 
#    z -0.013950 0.000020 1.755340 
# 
# From -- ./inp_files/325988.got.cif
#   From: 2010.06.25/outbox.cif.g09.slc.cpg/sg12_163_cif.got.tgz:325988.got - 2010.06.28 00:19:55.
