data_PCOD8089916
_publ_section_title
;
Structure prediction by ZEFSAII (Michael W. Deem and Ramdas Pophale) SiO2 
 PCOD8089916
Probable space group: C 2/M
;
_chemical_formula_sum "Si O2"
_cell_formula_units_Z 56
_cell_length_a 33.665467
_cell_length_b 14.064006
_cell_length_c 6.431103
_cell_angle_alpha 90.000000
_cell_angle_beta 76.553283
_cell_angle_gamma 90.000000
_cell_volume 2961.470639
_symmetry_space_group_name_H-M "C 2/M"
_symmetry_group_IT_number 12
_symmetry_cell_setting 'monoclinic'
loop_
_space_group_symop_operation_xyz
x,y,z
-x,y,-z
-x,-y,-z
x,-y,z
1/2+x,1/2+y,z
1/2-x,1/2+y,-z
1/2-x,1/2-y,-z
1/2+x,1/2-y,z
loop_
_atom_site_type_symbol
_atom_site_label
_atom_site_fract_x
_atom_site_fract_y
_atom_site_fract_z
Si Si1 0.319753 0.604505 0.806895
Si Si2 0.043829 0.610384 0.048916
Si Si3 0.809489 0.732087 0.494204
Si Si4 0.955186 0.766851 0.624011
Si Si5 0.899438 0.734032 0.299726
Si Si6 0.237480 0.813522 0.823947
Si Si7 0.100088 0.888208 0.041310
O O1 0.321835 0.500000 0.706698
O O2 0.307504 0.672342 0.633841
O O3 0.363447 0.634820 0.844857
O O4 0.287627 0.600786 0.039898
O O5 0.052816 0.500000 0.078218
O O6 0.078887 0.651875 0.858231
O O7 0.044489 0.663369 0.268660
O O8 0.000000 0.627341 0.000000
O O9 0.855436 0.692165 0.424133
O O10 0.792925 0.753603 0.285560
O O11 0.778490 0.656591 0.644803
O O12 0.925765 0.761772 0.464790
O O13 0.941002 0.848168 0.802370
O O14 0.000000 0.797447 0.500000
O O15 0.892340 0.831575 0.181581
O O16 0.250000 0.750000 0.000000
O O17 0.095753 0.000000 0.996812
#
# Coordination Sequence:
#
# PCOD8089916 Si02
#       7
#     8   8   8   8   8   8   8
#     4  10  19  33  54  84 114 145 189 235 272 322
#     4  10  22  39  60  86 112 141 186 243 292 339
#     4  10  19  34  56  82 107 148 187 225 278 337
#     4  11  22  38  59  85 114 151 191 232 284 339
#     4  11  21  37  60  84 117 152 190 231 282 341
#     4   9  19  34  54  79 108 143 182 228 277 325
#     4  10  22  36  55  85 120 155 192 233 275 325
#
# _framework density 18.909524000000001
#
# number of rings (size 3 to 8) (size 9 to 14) (size 15 to 20)
#    0.000    1.857    4.286    0.000    0.000    2.857 
#    0.000    1.429    0.000    8.571    0.000    0.000 
#    0.000    0.000    0.000    0.000    0.000    0.000 
#
# Total GULP energy -347094.029038 kJ/mol
# GULP energy per Si atom -12396.215323 kJ/mol
# Density = 1.886648 g / cm^3
# Si number density = 18.909524 Si / 1000 Ang^3
#
#
#
# Elastic Constant Matrix: (Units=GPa)
#
#
# Indices 1 2 3 4 5 6 
#
# 1 129.3157 23.6422 35.9381 0.0000 -18.6107 0.0000
# 2 23.6422 81.9222 23.3588 0.0000 -0.3009 0.0000
# 3 35.9381 23.3588 82.1851 0.0000 1.8476 0.0000
# 4 0.0000 0.0000 0.0000 20.6108 0.0000 1.9563
# 5 -18.6107 -0.3009 1.8476 0.0000 45.9994 0.0000
# 6 0.0000 0.0000 0.0000 1.9563 0.0000 20.4521
#
#
#
# Elastic Compliance Matrix: (Units=1/GPa)
#
#
# Indices 1 2 3 4 5 6 
#
# 1 0.009697 -0.001685 -0.003853 0.000000 0.004067 0.000000
# 2 -0.001685 0.013579 -0.003112 0.000000 -0.000468 0.000000
# 3 -0.003853 -0.003112 0.014786 0.000000 -0.002173 0.000000
# 4 0.000000 0.000000 0.000000 0.048963 0.000000 -0.004683
# 5 0.004067 -0.000468 -0.002173 0.000000 0.023469 0.000000
# 6 0.000000 0.000000 0.000000 -0.004683 0.000000 0.049343
#
#
# Mechanical properties :
#
#
# Convention : Reuss Voigt Hill
#
# Bulk Modulus (GPa) = 48.16548 51.03347 49.59947
# Shear Modulus (GPa) = 27.16557 31.44472 29.30515
#
# Velocity S-wave (km/s) = 3.79437 4.08230 3.94096
# Velocity P-wave (km/s) = 6.68754 7.01905 6.85530
#
# Compressibility (1/GPa) = 0.02076176
#
# Stress axis : x y z
#
# Youngs Moduli (GPa) = 103.12311 73.64534 67.63243
#
# Poissons Ratio (x) = 0.12409 0.26058
# Poissons Ratio (y) = 0.17376 0.21047
# Poissons Ratio (z) = 0.39732 0.22918
#
# Static dielectric constant tensor:
#      x y z
#    x 3.870950 0.000000 -0.324510 
#    y 0.000000 3.184990 0.000000 
#    z -0.324510 0.000000 3.820030 
# 
# 
# High freq. dielectric constant tensor:
#      x y z
#    x 1.751920 0.000000 -0.005150 
#    y 0.000000 1.698270 0.000000 
#    z -0.005150 0.000000 1.752700 
# 
# From -- ./inp_files/31524.got.cif
#   From: 2010.06.25/outbox.cif.g09.slc.cpg/sg12_16_cif.got.tgz:31524.got - 2010.06.28 00:19:55.
