data_PCOD8089728
_publ_section_title
;
Structure prediction by ZEFSAII (Michael W. Deem and Ramdas Pophale) SiO2 
 PCOD8089728
Probable space group: C 2/M
;
_chemical_formula_sum "Si O2"
_cell_formula_units_Z 48
_cell_length_a 29.973871
_cell_length_b 9.328339
_cell_length_c 9.362585
_cell_angle_alpha 90.000000
_cell_angle_beta 99.505445
_cell_angle_gamma 90.000000
_cell_volume 2581.895807
_symmetry_space_group_name_H-M "C 2/M"
_symmetry_group_IT_number 12
_symmetry_cell_setting 'monoclinic'
loop_
_space_group_symop_operation_xyz
x,y,z
-x,y,-z
-x,-y,-z
x,-y,z
1/2+x,1/2+y,z
1/2-x,1/2+y,-z
1/2-x,1/2-y,-z
1/2+x,1/2-y,z
loop_
_atom_site_type_symbol
_atom_site_label
_atom_site_fract_x
_atom_site_fract_y
_atom_site_fract_z
Si Si1 0.541650 0.669449 0.612521
Si Si2 0.543639 0.328957 0.936567
Si Si3 0.774563 0.840629 0.895243
Si Si4 0.217665 0.661029 0.583213
Si Si5 0.370002 0.330861 0.516022
Si Si6 0.129378 0.170235 0.157563
O O1 0.500000 0.734876 0.500000
O O2 0.536048 0.500000 0.619079
O O3 0.542060 0.731881 0.773985
O O4 0.586970 0.712339 0.554691
O O5 0.544450 0.500000 0.936275
O O6 0.500000 0.272802 0.000000
O O7 0.588620 0.269381 0.038690
O O8 0.740683 0.848125 0.747104
O O9 0.822678 0.770102 0.875455
O O10 0.783474 0.000000 0.960539
O O11 0.750000 0.750000 0.000000
O O12 0.210252 0.500000 0.518538
O O13 0.250000 0.750000 0.500000
O O14 0.170699 0.743464 0.574774
O O15 0.359367 0.500000 0.502440
O O16 0.378010 0.280461 0.683104
O O17 0.130247 0.000000 0.153915
#
# Coordination Sequence:
#
# PCOD8089728 Si02
#       6
#     8   8   8   8   8   8
#     4   9  17  28  46  76 107 138 176 218 266 318
#     4   9  16  26  43  69 103 139 171 211 264 317
#     4  10  22  37  53  76 108 142 180 221 266 318
#     4  11  22  38  57  80 109 143 185 225 270 324
#     4  10  19  33  54  78 109 142 177 224 271 317
#     4   9  17  31  47  69 103 138 171 213 264 314
#
# _framework density 18.590990999999999
#
# number of rings (size 3 to 8) (size 9 to 14) (size 15 to 20)
#    0.000    2.333    1.667    1.500    2.333    5.333 
#    0.000    0.000    0.000    0.500    0.000    0.000 
#    0.000    3.333    0.000    0.000    0.000    0.000 
#
# Total GULP energy -297557.029072 kJ/mol
# GULP energy per Si atom -12398.209545 kJ/mol
# Density = 1.854868 g / cm^3
# Si number density = 18.590991 Si / 1000 Ang^3
#
#
#
# Elastic Constant Matrix: (Units=GPa)
#
#
# Indices 1 2 3 4 5 6 
#
# 1 182.6626 39.9026 89.5492 0.0000 -2.8652 0.0000
# 2 39.9026 46.9448 25.2017 0.0000 -7.1660 0.0000
# 3 89.5492 25.2017 134.5010 0.0000 -15.3059 0.0000
# 4 0.0000 0.0000 0.0000 18.0600 0.0000 -0.8292
# 5 -2.8652 -7.1660 -15.3059 0.0000 42.0687 0.0000
# 6 0.0000 0.0000 0.0000 -0.8292 0.0000 22.0834
#
#
#
# Elastic Compliance Matrix: (Units=1/GPa)
#
#
# Indices 1 2 3 4 5 6 
#
# 1 0.009257 -0.005298 -0.005426 0.000000 -0.002246 0.000000
# 2 -0.005298 0.026976 -0.001090 0.000000 0.003838 0.000000
# 3 -0.005426 -0.001090 0.011672 0.000000 0.003691 0.000000
# 4 0.000000 0.000000 0.000000 0.055467 0.000000 0.002083
# 5 -0.002246 0.003838 0.003691 0.000000 0.025614 0.000000
# 6 0.000000 0.000000 0.000000 0.002083 0.000000 0.045361
#
#
# Mechanical properties :
#
#
# Convention : Reuss Voigt Hill
#
# Bulk Modulus (GPa) = 41.19346 74.82393 58.00870
# Shear Modulus (GPa) = 24.26389 30.40610 27.33499
#
# Velocity S-wave (km/s) = 3.61659 4.04855 3.83866
# Velocity P-wave (km/s) = 6.29647 7.88601 7.13564
#
# Compressibility (1/GPa) = 0.02427570
#
# Stress axis : x y z
#
# Youngs Moduli (GPa) = 108.02933 37.06977 85.67688
#
# Poissons Ratio (x) = 0.19640 0.46488
# Poissons Ratio (y) = 0.57236 0.09342
# Poissons Ratio (z) = 0.58616 0.04042
#
# Static dielectric constant tensor:
#      x y z
#    x 3.732450 0.000000 0.041780 
#    y 0.000000 3.031890 0.000000 
#    z 0.041780 0.000000 3.503990 
# 
# 
# High freq. dielectric constant tensor:
#      x y z
#    x 1.740150 0.000000 0.000570 
#    y 0.000000 1.658090 0.000000 
#    z 0.000570 0.000000 1.732590 
# 
# From -- ./inp_files/108729.got.cif
#   From: 2010.06.25/outbox.cif.g09.slc.cpg/sg12_55_cif.got.tgz:108729.got - 2010.06.28 00:19:55.
