data_PCOD8089017
_publ_section_title
;
Structure prediction by ZEFSAII (Michael W. Deem and Ramdas Pophale) SiO2 
 PCOD8089017
Probable space group: C 2/M
;
_chemical_formula_sum "Si O2"
_cell_formula_units_Z 64
_cell_length_a 24.682093
_cell_length_b 8.788009
_cell_length_c 22.183825
_cell_angle_alpha 90.000000
_cell_angle_beta 43.872733
_cell_angle_gamma 90.000000
_cell_volume 3334.870818
_symmetry_space_group_name_H-M "C 2/M"
_symmetry_group_IT_number 12
_symmetry_cell_setting 'monoclinic'
loop_
_space_group_symop_operation_xyz
x,y,z
-x,y,-z
-x,-y,-z
x,-y,z
1/2+x,1/2+y,z
1/2-x,1/2+y,-z
1/2-x,1/2-y,-z
1/2+x,1/2-y,z
loop_
_atom_site_type_symbol
_atom_site_label
_atom_site_fract_x
_atom_site_fract_y
_atom_site_fract_z
Si Si1 0.106134 0.319299 0.759795
Si Si2 0.100726 0.819267 0.478031
Si Si3 0.824368 0.319070 0.047242
Si Si4 0.572643 0.680646 0.368618
Si Si5 0.752554 0.818451 0.564246
Si Si6 0.415511 0.181237 0.088584
Si Si7 0.062015 0.680545 0.147735
Si Si8 0.350238 0.680713 0.813855
O O1 0.108510 0.500000 0.760335
O O2 0.178608 0.258241 0.662310
O O3 0.108875 0.254849 0.826104
O O4 0.025997 0.262921 0.793294
O O5 0.109618 0.760129 0.401861
O O6 0.169882 0.754744 0.464543
O O7 0.016523 0.761562 0.569517
O O8 0.105712 0.000000 0.475011
O O9 0.825802 0.500000 0.045569
O O10 0.851983 0.261627 0.090825
O O11 0.737261 0.258758 0.103439
O O12 0.882282 0.254807 0.949805
O O13 0.570584 0.500000 0.372270
O O14 0.625835 0.739679 0.271517
O O15 0.750000 0.750000 0.500000
O O16 0.752193 0.000000 0.559920
O O17 0.419117 0.000000 0.088360
O O18 0.500000 0.243815 0.000000
O O19 0.066742 0.500000 0.146207
O O20 0.089040 0.748019 0.188917
O O21 0.354978 0.500000 0.814675
#
# Coordination Sequence:
#
# PCOD8089017 Si02
#       8
#     8   8   8   8   8   8   8   8
#     4   9  18  30  47  73  99 126 163 203 243 288
#     4   8  15  29  47  67  94 122 150 191 243 284
#     4   9  17  28  45  71  99 124 156 200 244 280
#     4   8  15  28  46  69  93 118 152 198 241 275
#     4  10  21  34  51  75 101 129 161 199 244 293
#     4   9  14  25  46  72 100 127 157 201 251 289
#     4  10  19  33  48  66  99 134 158 187 236 294
#     4  10  20  30  47  74  97 121 161 204 236 275
#
# _framework density 19.191147000000001
#
# number of rings (size 3 to 8) (size 9 to 14) (size 15 to 20)
#    0.000    2.875    1.250    1.125    3.500    0.000 
#    0.000    0.000    0.000    0.750    0.000    5.250 
#    0.000    0.000    0.000    0.000    0.000    0.000 
#
# Total GULP energy -396651.326680 kJ/mol
# GULP energy per Si atom -12395.353959 kJ/mol
# Density = 1.914747 g / cm^3
# Si number density = 19.191147 Si / 1000 Ang^3
#
#
#
# Elastic Constant Matrix: (Units=GPa)
#
#
# Indices 1 2 3 4 5 6 
#
# 1 158.4139 11.8543 67.0761 0.0026 4.4510 0.0008
# 2 11.8543 7.0402 11.9796 0.0018 0.7141 0.0034
# 3 67.0761 11.9796 143.0396 0.0048 3.0220 -0.0006
# 4 0.0026 0.0018 0.0048 12.1702 -0.0006 6.0602
# 5 4.4510 0.7141 3.0220 -0.0006 34.1415 -0.0001
# 6 0.0008 0.0034 -0.0006 6.0602 -0.0001 20.5589
#
#
#
# Elastic Compliance Matrix: (Units=1/GPa)
#
#
# Indices 1 2 3 4 5 6 
#
# 1 0.008311 -0.008538 -0.003169 0.000000 -0.000624 0.000001
# 2 -0.008538 0.174592 -0.010584 -0.000007 -0.001602 -0.000027
# 3 -0.003169 -0.010584 0.009368 -0.000003 -0.000195 0.000003
# 4 0.000000 -0.000007 -0.000003 0.096303 0.000002 -0.028387
# 5 -0.000624 -0.001602 -0.000195 0.000002 0.029422 0.000000
# 6 0.000001 -0.000027 0.000003 -0.028387 0.000000 0.057009
#
#
# Mechanical properties :
#
#
# Convention : Reuss Voigt Hill
#
# Bulk Modulus (GPa) = 6.77107 54.47930 30.62519
# Shear Modulus (GPa) = 10.66515 27.87970 19.27243
#
# Velocity S-wave (km/s) = 2.35996 3.81561 3.17241
# Velocity P-wave (km/s) = 3.31085 6.91818 5.42324
#
# Compressibility (1/GPa) = 0.14768717
#
# Stress axis : x y z
#
# Youngs Moduli (GPa) = 120.32442 5.72764 106.75023
#
# Poissons Ratio (x) = 0.04890 0.33829
# Poissons Ratio (y) = 1.02736 1.12988
# Poissons Ratio (z) = 0.38130 0.06062
#
# Static dielectric constant tensor:
#      x y z
#    x 3.774810 -0.000010 -0.044860 
#    y -0.000010 2.759040 0.000000 
#    z -0.044860 0.000000 3.838680 
# 
# 
# High freq. dielectric constant tensor:
#      x y z
#    x 1.762830 0.000000 0.001590 
#    y 0.000000 1.666380 0.000000 
#    z 0.001590 0.000000 1.759150 
# 
# From -- ./inp_files/289109.got.cif
#   From: 2010.06.25/outbox.cif.g09.slc.cpg/sg12_145_cif.got.tgz:289109.got - 2010.06.28 00:19:55.
