data_PCOD8089921
_publ_section_title
;
Structure prediction by ZEFSAII (Michael W. Deem and Ramdas Pophale) SiO2 
 PCOD8089921
Probable space group: C 2/M
;
_chemical_formula_sum "Si O2"
_cell_formula_units_Z 56
_cell_length_a 27.447668
_cell_length_b 11.565327
_cell_length_c 15.186352
_cell_angle_alpha 90.000000
_cell_angle_beta 38.288490
_cell_angle_gamma 90.000000
_cell_volume 2987.054982
_symmetry_space_group_name_H-M "C 2/M"
_symmetry_group_IT_number 12
_symmetry_cell_setting 'monoclinic'
loop_
_space_group_symop_operation_xyz
x,y,z
-x,y,-z
-x,-y,-z
x,-y,z
1/2+x,1/2+y,z
1/2-x,1/2+y,-z
1/2-x,1/2-y,-z
1/2+x,1/2-y,z
loop_
_atom_site_type_symbol
_atom_site_label
_atom_site_fract_x
_atom_site_fract_y
_atom_site_fract_z
Si Si1 0.046592 0.368162 0.854440
Si Si2 0.774167 0.367232 0.913038
Si Si3 0.501366 0.727860 0.238189
Si Si4 0.836480 0.872245 0.440092
Si Si5 0.809093 0.760622 0.302928
Si Si6 0.541360 0.131446 0.351516
Si Si7 0.153799 0.129652 0.932775
O O1 0.026573 0.500000 0.888298
O O2 0.139158 0.346357 0.734526
O O3 0.014165 0.330721 0.806863
O O4 0.000000 0.303046 0.000000
O O5 0.755692 0.500000 0.979189
O O6 0.866070 0.358041 0.766262
O O7 0.732178 0.358093 0.878863
O O8 0.750000 0.250000 0.000000
O O9 0.426563 0.643290 0.342184
O O10 0.511954 0.780649 0.319312
O O11 0.579788 0.661492 0.098275
O O12 0.825638 0.863202 0.349332
O O13 0.781838 0.778290 0.567134
O O14 0.810827 0.000000 0.505360
O O15 0.836122 0.791013 0.166789
O O16 0.500000 0.170363 0.500000
O O17 0.517614 0.000000 0.360199
O O18 0.142493 0.000000 0.914435
#
# Coordination Sequence:
#
# PCOD8089921 Si02
#       7
#     8   8   8   8   8   8   8
#     4  10  19  33  54  84 118 151 188 234 284 344
#     4  10  21  40  64  89 120 152 197 249 301 356
#     4  11  21  37  60  85 119 151 195 242 294 354
#     4  10  22  38  57  84 119 157 191 235 292 352
#     4  10  21  38  57  83 116 155 194 237 283 353
#     4  10  22  40  62  86 116 156 200 249 296 353
#     4  11  22  37  61  88 114 151 196 244 296 352
#
# _framework density 18.747561999999999
#
# number of rings (size 3 to 8) (size 9 to 14) (size 15 to 20)
#    0.000    1.714    2.857    1.714    2.000    0.000 
#    0.000    5.000    0.000    2.143    0.000    0.000 
#    0.000    0.000    0.000    0.000    0.000    0.000 
#
# Total GULP energy -347006.072938 kJ/mol
# GULP energy per Si atom -12393.074034 kJ/mol
# Density = 1.870489 g / cm^3
# Si number density = 18.747562 Si / 1000 Ang^3
#
#
#
# Elastic Constant Matrix: (Units=GPa)
#
#
# Indices 1 2 3 4 5 6 
#
# 1 110.1840 44.3619 46.3733 0.0000 -1.2609 0.0000
# 2 44.3619 93.1660 34.0761 0.0001 1.4463 0.0000
# 3 46.3733 34.0761 97.6797 0.0000 1.8324 0.0000
# 4 0.0000 0.0001 0.0000 23.0248 0.0000 7.1976
# 5 -1.2609 1.4463 1.8324 0.0000 28.6036 0.0000
# 6 0.0000 0.0000 0.0000 7.1976 0.0000 0.0833
#
#
#
# Elastic Compliance Matrix: (Units=1/GPa)
#
#
# Indices 1 2 3 4 5 6 
#
# 1 0.012789 -0.004446 -0.004541 0.000000 0.001079 0.000000
# 2 -0.004446 0.013852 -0.002708 0.000000 -0.000723 0.000000
# 3 -0.004541 -0.002708 0.013355 0.000000 -0.000919 0.000000
# 4 0.000000 0.000000 0.000000 -0.001669 0.000000 0.144274
# 5 0.001079 -0.000723 -0.000919 0.000000 0.035104 0.000000
# 6 0.000000 0.000000 0.000000 0.144274 0.000000 -0.461522
#
#
# Mechanical properties :
#
#
# Convention : Reuss Voigt Hill
#
# Bulk Modulus (GPa) = 60.21577 61.18359 60.69968
# Shear Modulus (GPa) = -13.92114 22.09022 4.08454
#
# Velocity S-wave (km/s) = -2.72795 3.43636 1.47764
# Velocity P-wave (km/s) = 4.71876 6.96068 5.94634
#
# Compressibility (1/GPa) = 0.01660695
#
# Stress axis : x y z
#
# Youngs Moduli (GPa) = 78.19157 72.19118 74.87585
#
# Poissons Ratio (x) = 0.32093 0.34001
# Poissons Ratio (y) = 0.34760 0.20279
# Poissons Ratio (z) = 0.35507 0.19552
#
# Static dielectric constant tensor:
#      x y z
#    x 3.434350 0.000000 -0.092510 
#    y 0.000000 3.486720 0.000000 
#    z -0.092510 0.000000 3.497570 
# 
# 
# High freq. dielectric constant tensor:
#      x y z
#    x 1.730280 0.000000 -0.013710 
#    y 0.000000 1.725410 0.000000 
#    z -0.013710 0.000000 1.730910 
# 
# From -- ./inp_files/223354.got.cif
#   From: 2010.06.25/outbox.cif.g09.slc.cpg/sg12_112_cif.got.tgz:223354.got - 2010.06.28 00:19:55.
