data_PCOD8089155
_publ_section_title
;
Structure prediction by ZEFSAII (Michael W. Deem and Ramdas Pophale) SiO2 
 PCOD8089155
Probable space group: C 2/M
;
_chemical_formula_sum "Si O2"
_cell_formula_units_Z 44
_cell_length_a 5.039227
_cell_length_b 29.451542
_cell_length_c 17.400991
_cell_angle_alpha 90.000000
_cell_angle_beta 61.178156
_cell_angle_gamma 90.000000
_cell_volume 2262.616754
_symmetry_space_group_name_H-M "C 2/M"
_symmetry_group_IT_number 12
_symmetry_cell_setting 'monoclinic'
loop_
_space_group_symop_operation_xyz
x,y,z
-x,y,-z
-x,-y,-z
x,-y,z
1/2+x,1/2+y,z
1/2-x,1/2+y,-z
1/2-x,1/2-y,-z
1/2+x,1/2-y,z
loop_
_atom_site_type_symbol
_atom_site_label
_atom_site_fract_x
_atom_site_fract_y
_atom_site_fract_z
Si Si1 0.671763 0.779033 0.399634
Si Si2 0.422389 0.921873 0.311352
Si Si3 0.271831 0.050278 0.878532
Si Si4 0.464602 0.364463 0.284592
Si Si5 0.844617 0.500000 0.439896
Si Si6 0.784591 0.392307 0.091770
O O1 0.500000 0.797500 0.500000
O O2 0.397700 0.763154 0.383324
O O3 0.894628 0.816107 0.331501
O O4 0.559450 0.953107 0.226109
O O5 0.641394 0.880754 0.300679
O O6 0.411161 0.953563 0.386699
O O7 0.105877 0.899163 0.327900
O O8 0.515900 0.065411 0.907196
O O9 0.001003 0.086703 0.913298
O O10 0.151388 0.000000 0.915965
O O11 0.686843 0.360903 0.178339
O O12 0.500000 0.500000 0.500000
O O13 0.000000 0.500000 0.500000
O O14 0.000000 0.365155 0.000000
#
# Coordination Sequence:
#
# PCOD8089155 Si02
#       6
#     8   8   8   8   4   8
#     4  10  21  38  61  88 111 133 172 229 282 337
#     4  10  21  37  52  76 108 149 192 223 265 329
#     4  10  19  33  52  70 103 147 186 234 275 311
#     4  10  21  37  60  79 109 150 178 222 283 332
#     4  12  24  36  52  76 109 148 191 238 272 304
#     4  10  21  33  50  79 108 141 185 227 273 324
#
# _framework density 19.446511000000001
#
# number of rings (size 3 to 8) (size 9 to 14) (size 15 to 20)
#    0.000    1.818    0.909    3.273    0.000    4.364 
#    0.000    0.000    0.000    1.091    0.000    0.000 
#    0.000    0.000    0.000    0.000    0.000    0.000 
#
# Total GULP energy -272623.583208 kJ/mol
# GULP energy per Si atom -12391.981055 kJ/mol
# Density = 1.940225 g / cm^3
# Si number density = 19.446511 Si / 1000 Ang^3
#
#
#
# Elastic Constant Matrix: (Units=GPa)
#
#
# Indices 1 2 3 4 5 6 
#
# 1 99.8434 11.0336 24.9885 0.0000 -0.1685 0.0000
# 2 11.0336 69.7784 49.2025 0.0000 -7.7907 0.0000
# 3 24.9885 49.2025 130.5436 0.0000 -11.6029 0.0000
# 4 0.0000 0.0000 0.0000 -22.9690 0.0000 3.6276
# 5 -0.1685 -7.7907 -11.6029 0.0000 26.6125 0.0000
# 6 0.0000 0.0000 0.0000 3.6276 0.0000 13.0782
#
#
#
# Elastic Compliance Matrix: (Units=1/GPa)
#
#
# Indices 1 2 3 4 5 6 
#
# 1 0.010546 -0.000392 -0.001951 0.000000 -0.000899 0.000000
# 2 -0.000392 0.019708 -0.007116 0.000000 0.002664 0.000000
# 3 -0.001951 -0.007116 0.010954 0.000000 0.002680 0.000000
# 4 0.000000 0.000000 0.000000 -0.041710 0.000000 0.011569
# 5 -0.000899 0.002664 0.002680 0.000000 0.039519 0.000000
# 6 0.000000 0.000000 0.000000 0.011569 0.000000 0.073254
#
#
# Mechanical properties :
#
#
# Convention : Reuss Voigt Hill
#
# Bulk Modulus (GPa) = 44.86394 52.29052 48.57723
# Shear Modulus (GPa) = 36.06985 17.67374 26.87180
#
# Velocity S-wave (km/s) = 4.31144 3.01797 3.72133
# Velocity P-wave (km/s) = 6.92136 6.25236 6.59534
#
# Compressibility (1/GPa) = 0.02228961
#
# Stress axis : x y z
#
# Youngs Moduli (GPa) = 94.82514 50.73959 91.29053
#
# Poissons Ratio (x) = 0.01991 0.17807
# Poissons Ratio (y) = 0.03721 0.64965
# Poissons Ratio (z) = 0.18497 0.36108
#
# Static dielectric constant tensor:
#      x y z
#    x 3.701680 0.000000 -0.029100 
#    y 0.000000 3.026040 0.000000 
#    z -0.029100 0.000000 4.031660 
# 
# 
# High freq. dielectric constant tensor:
#      x y z
#    x 1.781230 0.000000 0.000120 
#    y 0.000000 1.708130 0.000000 
#    z 0.000120 0.000000 1.770210 
# 
# From -- ./inp_files/253206.got.cif
#   From: 2010.06.25/outbox.cif.g09.slc.cpg/sg12_127_cif.got.tgz:253206.got - 2010.06.28 00:19:55.
