data_PCOD8089851
_publ_section_title
;
Structure prediction by ZEFSAII (Michael W. Deem and Ramdas Pophale) SiO2 
 PCOD8089851
Probable space group: C 2/M
;
_chemical_formula_sum "Si O2"
_cell_formula_units_Z 64
_cell_length_a 31.468804
_cell_length_b 13.620299
_cell_length_c 22.427396
_cell_angle_alpha 90.000000
_cell_angle_beta 160.436940
_cell_angle_gamma 90.000000
_cell_volume 3218.758724
_symmetry_space_group_name_H-M "C 2/M"
_symmetry_group_IT_number 12
_symmetry_cell_setting 'monoclinic'
loop_
_space_group_symop_operation_xyz
x,y,z
-x,y,-z
-x,-y,-z
x,-y,z
1/2+x,1/2+y,z
1/2-x,1/2+y,-z
1/2-x,1/2-y,-z
1/2+x,1/2-y,z
loop_
_atom_site_type_symbol
_atom_site_label
_atom_site_fract_x
_atom_site_fract_y
_atom_site_fract_z
Si Si1 0.254076 0.882812 0.411363
Si Si2 0.369795 0.723264 0.298828
Si Si3 0.690712 0.385522 0.021416
Si Si4 0.222855 0.883921 0.927650
Si Si5 0.130648 0.781563 0.140457
Si Si6 0.027924 0.615352 0.811921
Si Si7 0.500200 0.614004 0.135724
Si Si8 0.682309 0.886245 0.128127
O O1 0.230767 0.835789 0.315542
O O2 0.389203 0.841120 0.613273
O O3 0.143199 0.847415 0.311006
O O4 0.255993 0.000000 0.406970
O O5 0.500000 0.755937 0.500000
O O6 0.290276 0.823637 0.191342
O O7 0.383462 0.673035 0.251683
O O8 0.309227 0.639283 0.260263
O O9 0.725540 0.500000 0.073940
O O10 0.699703 0.351768 0.964855
O O11 0.549019 0.364056 0.861572
O O12 0.207221 0.000000 0.898670
O O13 0.361355 0.846612 0.086627
O O14 0.180348 0.674454 0.186824
O O15 0.000000 0.764059 0.000000
O O16 0.107178 0.844766 0.050342
O O17 0.021906 0.500000 0.796419
O O18 0.063251 0.642466 0.927132
O O19 0.502842 0.500000 0.126103
O O20 0.680857 0.000000 0.143358
#
# Coordination Sequence:
#
# PCOD8089851 Si02
#       8
#     8   8   8   8   8   8   8   8
#     4   9  17  31  58  89 112 141 185 229 274 332
#     4  11  22  37  60  83 109 146 188 231 272 331
#     4  10  20  36  58  83 117 149 177 224 285 339
#     4   9  19  36  58  83 110 146 187 230 278 323
#     4  10  19  33  54  81 112 145 185 226 273 329
#     4   8  16  33  56  81 108 141 184 229 269 321
#     4   9  17  32  54  81 117 152 178 218 280 340
#     4  10  21  38  58  76 106 149 189 229 274 325
#
# _framework density 19.883441000000001
#
# number of rings (size 3 to 8) (size 9 to 14) (size 15 to 20)
#    0.000    2.500    1.250    1.875    0.000    4.000 
#    0.000    2.500    2.750    0.000    0.000    0.875 
#    0.000    0.000    0.000    0.000    0.000    0.000 
#
# Total GULP energy -396608.458256 kJ/mol
# GULP energy per Si atom -12394.014321 kJ/mol
# Density = 1.983819 g / cm^3
# Si number density = 19.883441 Si / 1000 Ang^3
#
#
#
# Elastic Constant Matrix: (Units=GPa)
#
#
# Indices 1 2 3 4 5 6 
#
# 1 105.0931 36.0643 47.3588 0.0000 -0.6769 0.0000
# 2 36.0643 42.3356 39.9200 0.0000 0.2710 0.0000
# 3 47.3588 39.9200 107.9923 0.0000 -2.3007 0.0000
# 4 0.0000 0.0000 0.0000 22.3343 0.0000 -1.3756
# 5 -0.6769 0.2710 -2.3007 0.0000 9.2928 0.0000
# 6 0.0000 0.0000 0.0000 -1.3756 0.0000 32.3569
#
#
#
# Elastic Compliance Matrix: (Units=1/GPa)
#
#
# Indices 1 2 3 4 5 6 
#
# 1 0.013924 -0.009396 -0.002620 0.000000 0.000640 0.000000
# 2 -0.009396 0.042779 -0.011797 0.000000 -0.004853 0.000000
# 3 -0.002620 -0.011797 0.014851 0.000000 0.003830 0.000000
# 4 0.000000 0.000000 0.000000 0.044892 0.000000 0.001908
# 5 0.000640 -0.004853 0.003830 0.000000 0.108747 0.000000
# 6 0.000000 0.000000 0.000000 0.001908 0.000000 0.030986
#
#
# Mechanical properties :
#
#
# Convention : Reuss Voigt Hill
#
# Bulk Modulus (GPa) = 41.78708 55.78968 48.78838
# Shear Modulus (GPa) = 16.03696 21.60199 18.81948
#
# Velocity S-wave (km/s) = 2.84306 3.29968 3.07985
# Velocity P-wave (km/s) = 5.64260 6.52966 6.10227
#
# Compressibility (1/GPa) = 0.02393084
#
# Stress axis : x y z
#
# Youngs Moduli (GPa) = 71.81745 23.37589 67.33568
#
# Poissons Ratio (x) = 0.21963 0.17639
# Poissons Ratio (y) = 0.67477 0.79433
# Poissons Ratio (z) = 0.18813 0.27576
#
# Static dielectric constant tensor:
#      x y z
#    x 3.840960 0.000000 0.063220 
#    y 0.000000 3.581410 0.000000 
#    z 0.063220 0.000000 3.642970 
# 
# 
# High freq. dielectric constant tensor:
#      x y z
#    x 1.776310 0.000000 0.004070 
#    y 0.000000 1.783310 0.000000 
#    z 0.004070 0.000000 1.747600 
# 
# From -- ./inp_files/330399.got.cif
#   From: 2010.06.25/outbox.cif.g09.slc.cpg/sg12_166_cif.got.tgz:330399.got - 2010.06.28 00:19:55.
