data_PCOD8089102
_publ_section_title
;
Structure prediction by ZEFSAII (Michael W. Deem and Ramdas Pophale) SiO2 
 PCOD8089102
Probable space group: C 2/M
;
_chemical_formula_sum "Si O2"
_cell_formula_units_Z 64
_cell_length_a 14.726034
_cell_length_b 8.400182
_cell_length_c 27.495839
_cell_angle_alpha 90.000000
_cell_angle_beta 107.131225
_cell_angle_gamma 90.000000
_cell_volume 3250.367296
_symmetry_space_group_name_H-M "C 2/M"
_symmetry_group_IT_number 12
_symmetry_cell_setting 'monoclinic'
loop_
_space_group_symop_operation_xyz
x,y,z
-x,y,-z
-x,-y,-z
x,-y,z
1/2+x,1/2+y,z
1/2-x,1/2+y,-z
1/2-x,1/2-y,-z
1/2+x,1/2-y,z
loop_
_atom_site_type_symbol
_atom_site_label
_atom_site_fract_x
_atom_site_fract_y
_atom_site_fract_z
Si Si1 0.398678 0.188565 0.003616
Si Si2 0.293744 0.688999 0.076592
Si Si3 0.480230 0.685449 0.729463
Si Si4 0.519144 0.188036 0.556168
Si Si5 0.390558 0.815267 0.623367
Si Si6 0.667582 0.311802 0.810265
Si Si7 0.706319 0.185460 0.637052
Si Si8 0.204157 0.684997 0.256785
O O1 0.377625 0.248311 0.054853
O O2 0.403450 0.000000 0.004726
O O3 0.500000 0.257040 0.000000
O O4 0.311054 0.249356 0.956255
O O5 0.296321 0.500000 0.076687
O O6 0.313501 0.759966 0.133327
O O7 0.493332 0.500000 0.719607
O O8 0.469224 0.780223 0.677171
O O9 0.570275 0.756965 0.772411
O O10 0.388409 0.708905 0.748922
O O11 0.500000 0.263872 0.500000
O O12 0.431614 0.232029 0.577348
O O13 0.616077 0.257152 0.594266
O O14 0.531012 0.000000 0.553250
O O15 0.298134 0.708501 0.617482
O O16 0.362583 0.000000 0.621467
O O17 0.657965 0.500000 0.812618
O O18 0.754678 0.265136 0.788989
O O19 0.717507 0.280844 0.689242
O O20 0.693313 0.000000 0.647043
O O21 0.176468 0.500000 0.254190
#
# Coordination Sequence:
#
# PCOD8089102 Si02
#       8
#     8   8   8   8   8   8   8   8
#     4   9  18  33  53  75  99 129 165 206 247 286
#     4   9  18  34  52  72 100 131 166 202 242 292
#     4  10  19  33  51  72  99 129 164 200 239 288
#     4   9  19  34  51  72  98 128 162 201 246 294
#     4  10  19  33  53  74  97 127 163 200 242 291
#     4   9  19  33  50  72 101 135 162 197 246 290
#     4  10  19  33  53  74  98 129 164 201 243 289
#     4  10  19  33  52  74 100 130 165 199 240 292
#
# _framework density 19.690082
#
# number of rings (size 3 to 8) (size 9 to 14) (size 15 to 20)
#    0.000    2.500    0.000    3.750    0.000    1.750 
#    0.000    7.500    0.000    5.250    0.000    0.000 
#    0.000    0.000    0.000    0.000    0.000    0.000 
#
# Total GULP energy -396773.701858 kJ/mol
# GULP energy per Si atom -12399.178183 kJ/mol
# Density = 1.964527 g / cm^3
# Si number density = 19.690082 Si / 1000 Ang^3
#
#
#
# Elastic Constant Matrix: (Units=GPa)
#
#
# Indices 1 2 3 4 5 6 
#
# 1 71.1662 4.8249 41.6995 0.0000 -14.8876 0.0000
# 2 4.8249 24.5491 6.1184 0.0000 -2.5782 0.0000
# 3 41.6995 6.1184 124.8239 0.0000 -25.2762 0.0000
# 4 0.0000 0.0000 0.0000 22.9138 0.0000 -3.9017
# 5 -14.8876 -2.5782 -25.2762 0.0000 30.0743 0.0000
# 6 0.0000 0.0000 0.0000 -3.9017 0.0000 17.7911
#
#
#
# Elastic Compliance Matrix: (Units=1/GPa)
#
#
# Indices 1 2 3 4 5 6 
#
# 1 0.018074 -0.001820 -0.005024 0.000000 0.004569 0.000000
# 2 -0.001820 0.041544 -0.001072 0.000000 0.001759 0.000000
# 3 -0.005024 -0.001072 0.011111 0.000000 0.006759 0.000000
# 4 0.000000 0.000000 0.000000 0.045335 0.000000 0.009942
# 5 0.004569 0.001759 0.006759 0.000000 0.041345 0.000000
# 6 0.000000 0.000000 0.000000 0.009942 0.000000 0.058388
#
#
# Mechanical properties :
#
#
# Convention : Reuss Voigt Hill
#
# Bulk Modulus (GPa) = 18.21568 36.20275 27.20922
# Shear Modulus (GPa) = 20.00569 25.34892 22.67731
#
# Velocity S-wave (km/s) = 3.19098 3.59192 3.39737
# Velocity P-wave (km/s) = 4.77993 5.96898 5.40724
#
# Compressibility (1/GPa) = 0.05489775
#
# Stress axis : x y z
#
# Youngs Moduli (GPa) = 55.32676 24.07059 90.00250
#
# Poissons Ratio (x) = 0.04382 0.45214
# Poissons Ratio (y) = 0.10072 0.09647
# Poissons Ratio (z) = 0.27794 0.02580
#
# Static dielectric constant tensor:
#      x y z
#    x 3.685850 0.000000 0.063250 
#    y 0.000000 3.252400 0.000000 
#    z 0.063250 0.000000 3.846360 
# 
# 
# High freq. dielectric constant tensor:
#      x y z
#    x 1.772610 0.000000 -0.005190 
#    y 0.000000 1.741920 0.000000 
#    z -0.005190 0.000000 1.766160 
# 
# From -- ./inp_files/359925.got.cif
#   From: 2010.06.25/outbox.cif.g09.slc.cpg/sg12_180_cif.got.tgz:359925.got - 2010.06.28 00:19:55.
