data_PCOD8089472
_publ_section_title
;
Structure prediction by ZEFSAII (Michael W. Deem and Ramdas Pophale) SiO2 
 PCOD8089472
Probable space group: C 2/M
;
_chemical_formula_sum "Si O2"
_cell_formula_units_Z 48
_cell_length_a 28.986805
_cell_length_b 17.000155
_cell_length_c 12.335495
_cell_angle_alpha 90.000000
_cell_angle_beta 154.673971
_cell_angle_gamma 90.000000
_cell_volume 2600.271222
_symmetry_space_group_name_H-M "C 2/M"
_symmetry_group_IT_number 12
_symmetry_cell_setting 'monoclinic'
loop_
_space_group_symop_operation_xyz
x,y,z
-x,y,-z
-x,-y,-z
x,-y,z
1/2+x,1/2+y,z
1/2-x,1/2+y,-z
1/2-x,1/2-y,-z
1/2+x,1/2-y,z
loop_
_atom_site_type_symbol
_atom_site_label
_atom_site_fract_x
_atom_site_fract_y
_atom_site_fract_z
Si Si1 0.580916 0.414489 0.572225
Si Si2 0.183957 0.500000 0.370893
Si Si3 0.492779 0.000000 0.817707
Si Si4 0.744077 0.670353 0.412968
Si Si5 0.727195 0.677368 0.023514
Si Si6 0.559545 0.303745 0.855201
Si Si7 0.411928 0.841342 0.579365
O O1 0.500000 0.415170 0.500000
O O2 0.596484 0.500000 0.553984
O O3 0.538756 0.362623 0.381836
O O4 0.693421 0.388559 0.864730
O O5 0.251014 0.583516 0.517825
O O6 0.096763 0.500000 0.279761
O O7 0.117033 0.500000 0.118082
O O8 0.474911 0.922816 0.709894
O O9 0.750000 0.750000 0.500000
O O10 0.845204 0.676851 0.546710
O O11 0.630125 0.668453 0.107799
O O12 0.834282 0.651760 0.311944
O O13 0.750000 0.750000 0.000000
O O14 0.633900 0.701966 0.908092
O O15 0.506347 0.221288 0.769030
#
# Coordination Sequence:
#
# PCOD8089472 Si02
#       7
#     8   4   4   8   8   8   8
#     4   9  18  31  51  77 103 136 174 212 254 303
#     4   9  18  34  54  78 103 135 176 218 262 308
#     4   9  18  32  54  78 101 135 174 220 256 306
#     4  10  21  35  56  80 106 138 175 220 263 310
#     4  10  19  33  53  77 106 139 173 212 256 310
#     4  10  20  33  55  78 103 141 173 213 259 311
#     4  10  20  34  55  80 106 136 177 213 261 311
#
# _framework density 18.459613999999998
#
# number of rings (size 3 to 8) (size 9 to 14) (size 15 to 20)
#    0.000    2.333    1.667    1.000    2.333    2.000 
#    0.000    0.000    3.667    2.000    0.000    0.000 
#    0.000    0.000    0.000    0.000    0.000    0.000 
#
# Total GULP energy -297330.136996 kJ/mol
# GULP energy per Si atom -12388.755708 kJ/mol
# Density = 1.841760 g / cm^3
# Si number density = 18.459614 Si / 1000 Ang^3
#
#
#
# Elastic Constant Matrix: (Units=GPa)
#
#
# Indices 1 2 3 4 5 6 
#
# 1 29.3179 37.5064 36.1725 0.0000 -18.4489 0.0000
# 2 37.5064 186.9098 87.1006 0.0000 -19.1896 0.0000
# 3 36.1725 87.1006 157.6687 0.0000 -24.1006 0.0000
# 4 0.0000 0.0000 0.0000 35.6104 0.0000 -3.8327
# 5 -18.4489 -19.1896 -24.1006 0.0000 22.8504 0.0000
# 6 0.0000 0.0000 0.0000 -3.8327 0.0000 25.6418
#
#
#
# Elastic Compliance Matrix: (Units=1/GPa)
#
#
# Indices 1 2 3 4 5 6 
#
# 1 0.091179 -0.009027 -0.006960 0.000000 0.058695 0.000000
# 2 -0.009027 0.008193 -0.003001 0.000000 -0.003573 0.000000
# 3 -0.006960 -0.003001 0.009958 0.000000 0.002364 0.000000
# 4 0.000000 0.000000 0.000000 0.028541 0.000000 0.004266
# 5 0.058695 -0.003573 0.002364 0.000000 0.090644 0.000000
# 6 0.000000 0.000000 0.000000 0.004266 0.000000 0.039636
#
#
# Mechanical properties :
#
#
# Convention : Reuss Voigt Hill
#
# Bulk Modulus (GPa) = 14.01457 77.27283 45.64370
# Shear Modulus (GPa) = 15.15547 31.02831 23.09189
#
# Velocity S-wave (km/s) = 2.86843 4.10430 3.54070
# Velocity P-wave (km/s) = 4.31034 8.02569 6.44169
#
# Compressibility (1/GPa) = 0.07135433
#
# Stress axis : x y z
#
# Youngs Moduli (GPa) = 10.96742 122.04855 100.41676
#
# Poissons Ratio (x) = 1.10176 0.69887
# Poissons Ratio (y) = 0.09901 0.30140
# Poissons Ratio (z) = 0.07633 0.36632
#
# Static dielectric constant tensor:
#      x y z
#    x 3.088250 0.000000 -0.174590 
#    y 0.000000 3.359870 0.000000 
#    z -0.174590 0.000000 3.612480 
# 
# 
# High freq. dielectric constant tensor:
#      x y z
#    x 1.674850 0.000000 -0.016930 
#    y 0.000000 1.728570 0.000000 
#    z -0.016930 0.000000 1.734600 
# 
# From -- ./inp_files/144807.got.cif
#   From: 2010.06.25/outbox.cif.g09.slc.cpg/sg12_73_cif.got.tgz:144807.got - 2010.06.28 00:19:55.
