data_PCOD8089559
_publ_section_title
;
Structure prediction by ZEFSAII (Michael W. Deem and Ramdas Pophale) SiO2 
 PCOD8089559
Probable space group: C 2/M
;
_chemical_formula_sum "Si O2"
_cell_formula_units_Z 64
_cell_length_a 15.312811
_cell_length_b 9.165058
_cell_length_c 33.372437
_cell_angle_alpha 90.000000
_cell_angle_beta 134.114673
_cell_angle_gamma 90.000000
_cell_volume 3362.568079
_symmetry_space_group_name_H-M "C 2/M"
_symmetry_group_IT_number 12
_symmetry_cell_setting 'monoclinic'
loop_
_space_group_symop_operation_xyz
x,y,z
-x,y,-z
-x,-y,-z
x,-y,z
1/2+x,1/2+y,z
1/2-x,1/2+y,-z
1/2-x,1/2-y,-z
1/2+x,1/2-y,z
loop_
_atom_site_type_symbol
_atom_site_label
_atom_site_fract_x
_atom_site_fract_y
_atom_site_fract_z
Si Si1 0.936602 0.166676 0.941331
Si Si2 0.082873 0.831331 0.637657
Si Si3 0.143907 0.165115 0.944617
Si Si4 0.753146 0.827497 0.753834
Si Si5 0.526365 0.326753 0.826311
Si Si6 0.371856 0.670624 0.439691
Si Si7 0.304154 0.173936 0.175373
Si Si8 0.300028 0.671995 0.555189
O O1 0.807296 0.235384 0.887571
O O2 0.020235 0.178757 0.929494
O O3 0.912275 0.000000 0.945864
O O4 0.000000 0.246220 0.000000
O O5 0.164161 0.736408 0.692638
O O6 0.119323 0.788722 0.604113
O O7 0.943133 0.795652 0.602736
O O8 0.110476 0.000000 0.654228
O O9 0.112567 0.225514 0.890557
O O10 0.188877 0.000000 0.956388
O O11 0.250000 0.250000 0.000000
O O12 0.889643 0.772322 0.789610
O O13 0.712761 0.773028 0.784655
O O14 0.746936 0.000000 0.749181
O O15 0.531499 0.500000 0.823008
O O16 0.572897 0.247576 0.801211
O O17 0.500000 0.714403 0.500000
O O18 0.344664 0.500000 0.437951
O O19 0.264031 0.763130 0.425654
O O20 0.312458 0.000000 0.175712
O O21 0.273638 0.500000 0.543812
O O22 0.250000 0.750000 0.500000
#
# Coordination Sequence:
#
# PCOD8089559 Si02
#       8
#     8   8   8   8   8   8   8   8
#     4   9  16  29  52  79 107 141 184 231 279 337
#     4  10  23  41  61  87 122 158 195 241 292 344
#     4  10  19  33  53  80 113 146 184 233 288 344
#     4  10  22  41  61  82 115 156 199 240 282 344
#     4  10  21  38  58  82 115 151 186 239 298 341
#     4  10  20  39  62  87 123 161 195 241 296 346
#     4  10  20  37  60  84 109 148 199 238 280 347
#     4  11  22  38  61  91 124 159 198 242 294 350
#
# _framework density 19.033072000000001
#
# number of rings (size 3 to 8) (size 9 to 14) (size 15 to 20)
#    0.000    2.000    2.500    1.125    0.000    5.250 
#    0.000    5.625    0.000    2.250    0.000    0.000 
#    0.000    0.000    0.000    0.000    0.000    0.000 
#
# Total GULP energy -396797.217491 kJ/mol
# GULP energy per Si atom -12399.913047 kJ/mol
# Density = 1.898975 g / cm^3
# Si number density = 19.033072 Si / 1000 Ang^3
#
#
#
# Elastic Constant Matrix: (Units=GPa)
#
#
# Indices 1 2 3 4 5 6 
#
# 1 150.6677 49.6901 73.9188 0.0000 -6.8420 0.0000
# 2 49.6901 45.4553 42.5282 0.0000 3.6715 0.0000
# 3 73.9188 42.5282 129.8080 0.0000 -4.0580 0.0000
# 4 0.0000 0.0000 0.0000 30.6038 0.0000 -2.0166
# 5 -6.8420 3.6715 -4.0580 0.0000 28.4977 0.0000
# 6 0.0000 0.0000 0.0000 -2.0166 0.0000 32.9324
#
#
#
# Elastic Compliance Matrix: (Units=1/GPa)
#
#
# Indices 1 2 3 4 5 6 
#
# 1 0.011720 -0.010049 -0.003268 0.000000 0.003643 0.000000
# 2 -0.010049 0.041252 -0.008071 0.000000 -0.008877 0.000000
# 3 -0.003268 -0.008071 0.012271 0.000000 0.002003 0.000000
# 4 0.000000 0.000000 0.000000 0.032808 0.000000 0.002009
# 5 0.003643 -0.008877 0.002003 0.000000 0.037394 0.000000
# 6 0.000000 0.000000 0.000000 0.002009 0.000000 0.030488
#
#
# Mechanical properties :
#
#
# Convention : Reuss Voigt Hill
#
# Bulk Modulus (GPa) = 44.50494 73.13392 58.81943
# Shear Modulus (GPa) = 23.12702 29.05969 26.09336
#
# Velocity S-wave (km/s) = 3.48961 3.91167 3.70665
# Velocity P-wave (km/s) = 6.29843 7.67526 7.02068
#
# Compressibility (1/GPa) = 0.02246942
#
# Stress axis : x y z
#
# Youngs Moduli (GPa) = 85.32603 24.24108 81.49149
#
# Poissons Ratio (x) = 0.24359 0.26629
# Poissons Ratio (y) = 0.85741 0.65769
# Poissons Ratio (z) = 0.27882 0.19564
#
# Static dielectric constant tensor:
#      x y z
#    x 3.886020 0.000000 -0.050950 
#    y 0.000000 3.265150 0.000000 
#    z -0.050950 0.000000 3.487430 
# 
# 
# High freq. dielectric constant tensor:
#      x y z
#    x 1.755180 0.000000 -0.003560 
#    y 0.000000 1.716030 0.000000 
#    z -0.003560 0.000000 1.744780 
# 
# From -- ./inp_files/375674.got.cif
#   From: 2010.06.25/outbox.cif.g09.slc.cpg/sg12_188_cif.got.tgz:375674.got - 2010.06.28 00:19:55.
