data_PCOD8089804
_publ_section_title
;
Structure prediction by ZEFSAII (Michael W. Deem and Ramdas Pophale) SiO2 
 PCOD8089804
Probable space group: C 2/M
;
_chemical_formula_sum "Si O2"
_cell_formula_units_Z 48
_cell_length_a 27.365050
_cell_length_b 21.938388
_cell_length_c 12.576980
_cell_angle_alpha 90.000000
_cell_angle_beta 159.495197
_cell_angle_gamma 90.000000
_cell_volume 2644.843535
_symmetry_space_group_name_H-M "C 2/M"
_symmetry_group_IT_number 12
_symmetry_cell_setting 'monoclinic'
loop_
_space_group_symop_operation_xyz
x,y,z
-x,y,-z
-x,-y,-z
x,-y,z
1/2+x,1/2+y,z
1/2-x,1/2+y,-z
1/2-x,1/2-y,-z
1/2+x,1/2-y,z
loop_
_atom_site_type_symbol
_atom_site_label
_atom_site_fract_x
_atom_site_fract_y
_atom_site_fract_z
Si Si1 0.641060 0.431727 0.511245
Si Si2 0.138010 0.357495 0.918366
Si Si3 0.464443 0.311899 0.805684
Si Si4 0.418688 0.432932 0.237468
Si Si5 0.222699 0.240966 0.208362
Si Si6 0.173882 0.650534 0.750072
O O1 0.666264 0.500000 0.512512
O O2 0.602276 0.379496 0.346595
O O3 0.509563 0.435525 0.318536
O O4 0.775951 0.413445 0.856037
O O5 0.196442 0.338175 0.921696
O O6 0.977856 0.376901 0.582897
O O7 0.143336 0.300600 0.007641
O O8 0.349028 0.260478 0.543527
O O9 0.500000 0.303608 0.000000
O O10 0.607406 0.302328 0.029521
O O11 0.500000 0.398983 0.500000
O O12 0.377349 0.500000 0.194190
O O13 0.278283 0.399822 0.919765
O O14 0.293709 0.211408 0.249329
#
# Coordination Sequence:
#
# PCOD8089804 Si02
#       6
#     8   8   8   8   8   8
#     4  10  21  38  58  81 114 146 185 236 279 325
#     4  10  22  34  53  84 116 151 186 214 277 331
#     4  11  23  39  62  83 106 146 191 238 287 330
#     4  10  19  33  54  80 110 149 188 224 271 326
#     4  11  21  39  54  83 116 143 182 235 280 330
#     4  11  20  34  54  82 117 152 184 218 268 342
#
# _framework density 18.148522
#
# number of rings (size 3 to 8) (size 9 to 14) (size 15 to 20)
#    0.000    1.500    5.000    1.000    0.000    1.000 
#    3.000    1.667    0.000    0.000    0.000    1.167 
#    0.000    0.000    0.000    0.000    0.000    0.000 
#
# Total GULP energy -297481.768448 kJ/mol
# GULP energy per Si atom -12395.073685 kJ/mol
# Density = 1.810721 g / cm^3
# Si number density = 18.148522 Si / 1000 Ang^3
#
#
#
# Elastic Constant Matrix: (Units=GPa)
#
#
# Indices 1 2 3 4 5 6 
#
# 1 48.8062 21.2836 28.6335 0.0000 -2.1229 0.0000
# 2 21.2836 96.8585 49.2803 0.0000 -1.0124 0.0000
# 3 28.6335 49.2803 113.4447 0.0000 -0.6166 0.0000
# 4 0.0000 0.0000 0.0000 42.3094 0.0000 20.5856
# 5 -2.1229 -1.0124 -0.6166 0.0000 30.2338 0.0000
# 6 0.0000 0.0000 0.0000 20.5856 0.0000 43.8115
#
#
#
# Elastic Compliance Matrix: (Units=1/GPa)
#
#
# Indices 1 2 3 4 5 6 
#
# 1 0.024737 -0.002885 -0.004982 0.000000 0.001539 0.000000
# 2 -0.002885 0.013593 -0.005176 0.000000 0.000147 0.000000
# 3 -0.004982 -0.005176 0.012319 0.000000 -0.000272 0.000000
# 4 0.000000 0.000000 0.000000 0.030640 0.000000 -0.014397
# 5 0.001539 0.000147 -0.000272 0.000000 0.033183 0.000000
# 6 0.000000 0.000000 0.000000 -0.014397 0.000000 0.029590
#
#
# Mechanical properties :
#
#
# Convention : Reuss Voigt Hill
#
# Bulk Modulus (GPa) = 40.71028 50.83383 45.77205
# Shear Modulus (GPa) = 28.03694 33.93174 30.98434
#
# Velocity S-wave (km/s) = 3.93474 4.32866 4.13639
# Velocity P-wave (km/s) = 6.56683 7.28380 6.93459
#
# Compressibility (1/GPa) = 0.02456382
#
# Stress axis : x y z
#
# Youngs Moduli (GPa) = 40.42523 73.56603 81.17331
#
# Poissons Ratio (x) = 0.21222 0.40442
# Poissons Ratio (y) = 0.11662 0.42015
# Poissons Ratio (z) = 0.20140 0.38078
#
# Static dielectric constant tensor:
#      x y z
#    x 3.132020 0.000000 0.067580 
#    y 0.000000 3.502080 0.000000 
#    z 0.067580 0.000000 3.488380 
# 
# 
# High freq. dielectric constant tensor:
#      x y z
#    x 1.683550 0.000000 0.007030 
#    y 0.000000 1.696250 0.000000 
#    z 0.007030 0.000000 1.715320 
# 
# From -- ./inp_files/121833.got.cif
#   From: 2010.06.25/outbox.cif.g09.slc.cpg/sg12_61_cif.got.tgz:121833.got - 2010.06.28 00:19:55.
