data_PCOD8089094
_publ_section_title
;
Structure prediction by ZEFSAII (Michael W. Deem and Ramdas Pophale) SiO2 
 PCOD8089094
Probable space group: C 2/M
;
_chemical_formula_sum "Si O2"
_cell_formula_units_Z 56
_cell_length_a 19.092427
_cell_length_b 9.109640
_cell_length_c 18.362015
_cell_angle_alpha 90.000000
_cell_angle_beta 85.473103
_cell_angle_gamma 90.000000
_cell_volume 3183.653139
_symmetry_space_group_name_H-M "C 2/M"
_symmetry_group_IT_number 12
_symmetry_cell_setting 'monoclinic'
loop_
_space_group_symop_operation_xyz
x,y,z
-x,y,-z
-x,-y,-z
x,-y,z
1/2+x,1/2+y,z
1/2-x,1/2+y,-z
1/2-x,1/2-y,-z
1/2+x,1/2-y,z
loop_
_atom_site_type_symbol
_atom_site_label
_atom_site_fract_x
_atom_site_fract_y
_atom_site_fract_z
Si Si1 0.493013 0.167228 0.418322
Si Si2 0.165462 0.335816 0.560212
Si Si3 0.550735 0.339749 0.927560
Si Si4 0.674494 0.324337 0.011476
Si Si5 0.399513 0.673947 0.690527
Si Si6 0.292566 0.830630 0.603684
Si Si7 0.574707 0.675052 0.148753
O O1 0.500000 0.224866 0.500000
O O2 0.412126 0.175375 0.400958
O O3 0.534715 0.272306 0.361534
O O4 0.522219 0.000000 0.410624
O O5 0.196226 0.500000 0.567758
O O6 0.212692 0.221877 0.600555
O O7 0.164224 0.299253 0.474052
O O8 0.571965 0.500000 0.895826
O O9 0.502134 0.258353 0.870344
O O10 0.500000 0.359116 0.000000
O O11 0.623946 0.265181 0.948980
O O12 0.682369 0.500000 0.007030
O O13 0.637996 0.275471 0.090345
O O14 0.750000 0.250000 0.000000
O O15 0.395283 0.500000 0.687361
O O16 0.327520 0.740403 0.665902
O O17 0.408482 0.732026 0.772019
O O18 0.292359 0.000000 0.625334
O O19 0.568168 0.500000 0.146430
#
# Coordination Sequence:
#
# PCOD8089094 Si02
#       7
#     8   8   8   8   8   8   8
#     4  10  19  35  53  71  97 128 163 208 260 302
#     4   9  18  33  52  71  93 124 164 209 257 306
#     4   7  11  24  48  71  90 122 165 196 225 274
#     4   9  16  29  52  78 101 128 162 202 243 287
#     4  11  21  32  50  75 102 133 170 209 252 303
#     4  10  19  33  51  71  97 129 165 207 254 303
#     4   8  16  31  49  71 100 132 165 202 243 290
#
# _framework density 17.589856000000001
#
# number of rings (size 3 to 8) (size 9 to 14) (size 15 to 20)
#    0.000    2.857    1.429    2.571    0.000    1.429 
#    0.000    2.857    0.000    9.000    0.000    0.000 
#    0.000    0.000    0.000    0.000    0.000    0.000 
#
# Total GULP energy -346957.461959 kJ/mol
# GULP energy per Si atom -12391.337927 kJ/mol
# Density = 1.754982 g / cm^3
# Si number density = 17.589856 Si / 1000 Ang^3
#
#
#
# Elastic Constant Matrix: (Units=GPa)
#
#
# Indices 1 2 3 4 5 6 
#
# 1 128.2089 40.3390 61.5573 0.0000 16.7996 0.0000
# 2 40.3390 53.9308 37.4758 0.0000 9.6630 0.0000
# 3 61.5573 37.4758 108.3270 0.0000 21.9850 0.0000
# 4 0.0000 0.0000 0.0000 14.6372 0.0000 -0.7700
# 5 16.7996 9.6630 21.9850 0.0000 26.2108 0.0000
# 6 0.0000 0.0000 0.0000 -0.7700 0.0000 29.8096
#
#
#
# Elastic Compliance Matrix: (Units=1/GPa)
#
#
# Indices 1 2 3 4 5 6 
#
# 1 0.011925 -0.005451 -0.004516 0.000000 -0.001846 0.000000
# 2 -0.005451 0.027018 -0.005950 0.000000 -0.001476 0.000000
# 3 -0.004516 -0.005950 0.015454 0.000000 -0.007874 0.000000
# 4 0.000000 0.000000 0.000000 0.068412 0.000000 0.001767
# 5 -0.001846 -0.001476 -0.007874 0.000000 0.046484 0.000000
# 6 0.000000 0.000000 0.000000 0.001767 0.000000 0.033592
#
#
# Mechanical properties :
#
#
# Convention : Reuss Voigt Hill
#
# Bulk Modulus (GPa) = 44.31874 63.24566 53.78220
# Shear Modulus (GPa) = 20.64062 24.20448 22.42255
#
# Velocity S-wave (km/s) = 3.42927 3.71354 3.57423
# Velocity P-wave (km/s) = 6.39767 7.37706 6.90475
#
# Compressibility (1/GPa) = 0.02256382
#
# Stress axis : x y z
#
# Youngs Moduli (GPa) = 83.85787 37.01182 64.70753
#
# Poissons Ratio (x) = 0.20174 0.29223
# Poissons Ratio (y) = 0.45708 0.38501
# Poissons Ratio (z) = 0.37871 0.22022
#
# Static dielectric constant tensor:
#      x y z
#    x 3.442520 0.000000 0.290390 
#    y 0.000000 2.975000 0.000000 
#    z 0.290390 0.000000 3.236300 
# 
# 
# High freq. dielectric constant tensor:
#      x y z
#    x 1.692730 0.000000 0.018630 
#    y 0.000000 1.649410 0.000000 
#    z 0.018630 0.000000 1.654180 
# 
# From -- ./inp_files/280150.got.cif
#   From: 2010.06.25/outbox.cif.g09.slc.cpg/sg12_141_cif.got.tgz:280150.got - 2010.06.28 00:19:55.
