data_PCOD8089376
_publ_section_title
;
Structure prediction by ZEFSAII (Michael W. Deem and Ramdas Pophale) SiO2 
 PCOD8089376
Probable space group: C 2/M
;
_chemical_formula_sum "Si O2"
_cell_formula_units_Z 56
_cell_length_a 21.486472
_cell_length_b 9.021715
_cell_length_c 20.149377
_cell_angle_alpha 90.000000
_cell_angle_beta 128.209802
_cell_angle_gamma 90.000000
_cell_volume 3069.027839
_symmetry_space_group_name_H-M "C 2/M"
_symmetry_group_IT_number 12
_symmetry_cell_setting 'monoclinic'
loop_
_space_group_symop_operation_xyz
x,y,z
-x,y,-z
-x,-y,-z
x,-y,z
1/2+x,1/2+y,z
1/2-x,1/2+y,-z
1/2-x,1/2-y,-z
1/2+x,1/2-y,z
loop_
_atom_site_type_symbol
_atom_site_label
_atom_site_fract_x
_atom_site_fract_y
_atom_site_fract_z
Si Si1 0.395907 0.330098 0.463846
Si Si2 0.983926 0.824410 0.065209
Si Si3 0.769610 0.669692 0.581222
Si Si4 0.080772 0.332105 0.240740
Si Si5 0.075727 0.335311 0.784638
Si Si6 0.533380 0.172273 0.611960
Si Si7 0.165744 0.827842 0.949293
O O1 0.420393 0.500000 0.468281
O O2 0.304874 0.315197 0.420427
O O3 0.450351 0.261643 0.558268
O O4 0.410267 0.234561 0.407800
O O5 0.895567 0.773416 0.032572
O O6 0.052887 0.757523 0.157187
O O7 0.990321 0.000000 0.075282
O O8 0.000000 0.771683 0.000000
O O9 0.789565 0.500000 0.576667
O O10 0.750000 0.750000 0.500000
O O11 0.842081 0.738552 0.672120
O O12 0.098628 0.500000 0.229026
O O13 0.015007 0.328294 0.253947
O O14 0.110139 0.500000 0.823619
O O15 0.081006 0.301499 0.710689
O O16 0.124915 0.207329 0.852557
O O17 0.514778 0.000000 0.587965
O O18 0.181780 0.000000 0.967897
O O19 0.250000 0.750000 0.000000
#
# Coordination Sequence:
#
# PCOD8089376 Si02
#       7
#     8   8   8   8   8   8   8
#     4  10  20  33  49  72 106 139 170 215 261 307
#     4   9  19  37  58  80 107 140 177 220 269 319
#     4  10  21  35  52  76 107 140 175 217 262 309
#     4   9  18  34  54  77 105 136 174 216 256 310
#     4   9  18  33  54  76 100 132 172 214 256 305
#     4  10  19  33  53  74  98 135 178 216 257 308
#     4  10  20  35  56  80 108 137 171 218 265 318
#
# _framework density 18.246821000000001
#
# number of rings (size 3 to 8) (size 9 to 14) (size 15 to 20)
#    0.000    2.429    0.000    3.000    0.000    4.857 
#    2.571    2.857    0.000    0.000    0.000    0.000 
#    0.000    0.000    0.000    0.000    0.000    0.000 
#
# Total GULP energy -347037.790797 kJ/mol
# GULP energy per Si atom -12394.206814 kJ/mol
# Density = 1.820529 g / cm^3
# Si number density = 18.246821 Si / 1000 Ang^3
#
#
#
# Elastic Constant Matrix: (Units=GPa)
#
#
# Indices 1 2 3 4 5 6 
#
# 1 84.2148 34.0476 68.0569 0.0000 10.0015 0.0000
# 2 34.0476 54.3008 44.0126 0.0000 0.7681 0.0000
# 3 68.0569 44.0126 128.5191 0.0000 0.9808 0.0000
# 4 0.0000 0.0000 0.0000 33.2920 0.0000 0.9262
# 5 10.0015 0.7681 0.9808 0.0000 31.7227 0.0000
# 6 0.0000 0.0000 0.0000 0.9262 0.0000 23.8122
#
#
#
# Elastic Compliance Matrix: (Units=1/GPa)
#
#
# Indices 1 2 3 4 5 6 
#
# 1 0.023546 -0.006370 -0.010234 0.000000 -0.006953 0.000000
# 2 -0.006370 0.027219 -0.005960 0.000000 0.001534 0.000000
# 3 -0.010234 -0.005960 0.015219 0.000000 0.002900 0.000000
# 4 0.000000 0.000000 0.000000 0.030070 0.000000 -0.001170
# 5 -0.006953 0.001534 0.002900 0.000000 0.033588 0.000000
# 6 0.000000 0.000000 0.000000 -0.001170 0.000000 0.042041
#
#
# Mechanical properties :
#
#
# Convention : Reuss Voigt Hill
#
# Bulk Modulus (GPa) = 47.94784 62.14100 55.04442
# Shear Modulus (GPa) = 22.34493 25.82657 24.08575
#
# Velocity S-wave (km/s) = 3.50322 3.76626 3.63712
# Velocity P-wave (km/s) = 6.53435 7.28304 6.91883
#
# Compressibility (1/GPa) = 0.02085600
#
# Stress axis : x y z
#
# Youngs Moduli (GPa) = 42.46952 36.73883 65.70630
#
# Poissons Ratio (x) = 0.23404 0.67245
# Poissons Ratio (y) = 0.27055 0.39159
# Poissons Ratio (z) = 0.43464 0.21895
#
# Static dielectric constant tensor:
#      x y z
#    x 3.471440 0.000000 0.013840 
#    y 0.000000 3.489770 0.000000 
#    z 0.013840 0.000000 3.401010 
# 
# 
# High freq. dielectric constant tensor:
#      x y z
#    x 1.705500 0.000000 0.000730 
#    y 0.000000 1.707190 0.000000 
#    z 0.000730 0.000000 1.705420 
# 
# From -- ./inp_files/323809.got.cif
#   From: 2010.06.25/outbox.cif.g09.slc.cpg/sg12_162_cif.got.tgz:323809.got - 2010.06.28 00:19:55.
