data_PCOD8089972
_publ_section_title
;
Structure prediction by ZEFSAII (Michael W. Deem and Ramdas Pophale) SiO2 
 PCOD8089972
Probable space group: C 2/M
;
_chemical_formula_sum "Si O2"
_cell_formula_units_Z 64
_cell_length_a 19.370722
_cell_length_b 8.884908
_cell_length_c 25.185940
_cell_angle_alpha 90.000000
_cell_angle_beta 55.056376
_cell_angle_gamma 90.000000
_cell_volume 3553.205526
_symmetry_space_group_name_H-M "C 2/M"
_symmetry_group_IT_number 12
_symmetry_cell_setting 'monoclinic'
loop_
_space_group_symop_operation_xyz
x,y,z
-x,y,-z
-x,-y,-z
x,-y,z
1/2+x,1/2+y,z
1/2-x,1/2+y,-z
1/2-x,1/2-y,-z
1/2+x,1/2-y,z
loop_
_atom_site_type_symbol
_atom_site_label
_atom_site_fract_x
_atom_site_fract_y
_atom_site_fract_z
Si Si1 0.719224 0.325545 0.931638
Si Si2 0.198881 0.323286 0.828748
Si Si3 0.259611 0.828718 0.551240
Si Si4 0.169237 0.169769 0.690863
Si Si5 0.876657 0.325579 0.935035
Si Si6 0.547943 0.327059 0.832522
Si Si7 0.089008 0.322328 0.441505
Si Si8 0.812228 0.171861 0.686186
O O1 0.705303 0.500000 0.923858
O O2 0.714710 0.225005 0.881603
O O3 0.809695 0.295816 0.918096
O O4 0.645690 0.272580 0.003611
O O5 0.176560 0.500000 0.835441
O O6 0.121547 0.228526 0.839085
O O7 0.286427 0.289436 0.758383
O O8 0.250000 0.750000 0.500000
O O9 0.174124 0.808519 0.624647
O O10 0.338907 0.764258 0.549757
O O11 0.277526 0.000000 0.529566
O O12 0.076965 0.187101 0.757669
O O13 0.227880 0.295810 0.690393
O O14 0.204093 0.000000 0.688303
O O15 0.878229 0.500000 0.950772
O O16 0.966990 0.276353 0.874073
O O17 0.526675 0.500000 0.855921
O O18 0.085018 0.500000 0.441570
O O19 0.110186 0.267345 0.372110
O O20 0.000000 0.254531 0.500000
O O21 0.838445 0.000000 0.668404
#
# Coordination Sequence:
#
# PCOD8089972 Si02
#       8
#     8   8   8   8   8   8   8   8
#     4  10  21  37  56  76 100 135 174 205 243 301
#     4  10  20  34  53  78 106 132 164 210 257 296
#     4   9  17  30  48  70  95 125 161 199 242 287
#     4   8  16  31  49  69  96 131 166 199 240 292
#     4  10  21  37  55  76 104 134 165 206 253 298
#     4  10  19  33  55  79 102 131 169 209 249 299
#     4   9  18  33  51  69  94 130 168 203 241 290
#     4   9  17  29  48  74 100 127 160 201 249 295
#
# _framework density 18.011904999999999
#
# number of rings (size 3 to 8) (size 9 to 14) (size 15 to 20)
#    0.000    2.625    0.000    2.625    0.000    6.250 
#    0.000    3.750    0.000    6.000    0.000    0.000 
#    0.000    0.000    0.000    0.000    0.000    0.000 
#
# Total GULP energy -396582.306863 kJ/mol
# GULP energy per Si atom -12393.197089 kJ/mol
# Density = 1.797091 g / cm^3
# Si number density = 18.011905 Si / 1000 Ang^3
#
#
#
# Elastic Constant Matrix: (Units=GPa)
#
#
# Indices 1 2 3 4 5 6 
#
# 1 51.8249 22.5202 52.8821 -0.0004 -2.2108 -0.0010
# 2 22.5202 42.6443 29.2176 -0.0011 1.4929 -0.0022
# 3 52.8821 29.2176 136.1235 0.0000 -3.2932 -0.0001
# 4 -0.0004 -0.0011 0.0000 33.8267 -0.0001 0.9084
# 5 -2.2108 1.4929 -3.2932 -0.0001 30.8273 -0.0005
# 6 -0.0010 -0.0022 -0.0001 0.9084 -0.0005 23.5200
#
#
#
# Elastic Compliance Matrix: (Units=1/GPa)
#
#
# Indices 1 2 3 4 5 6 
#
# 1 0.036014 -0.011174 -0.011547 0.000000 0.001890 0.000000
# 2 -0.011174 0.031079 -0.002392 0.000001 -0.002562 0.000002
# 3 -0.011547 -0.002392 0.012360 0.000000 0.000608 -0.000001
# 4 0.000000 0.000001 0.000000 0.029593 0.000000 -0.001143
# 5 0.001890 -0.002562 0.000608 0.000000 0.032763 0.000001
# 6 0.000000 0.000002 -0.000001 -0.001143 0.000001 0.042561
#
#
# Mechanical properties :
#
#
# Convention : Reuss Voigt Hill
#
# Bulk Modulus (GPa) = 34.21341 48.87028 41.54185
# Shear Modulus (GPa) = 20.46328 26.03298 23.24813
#
# Velocity S-wave (km/s) = 3.37426 3.80586 3.59654
# Velocity P-wave (km/s) = 5.84953 6.81938 6.35299
#
# Compressibility (1/GPa) = 0.02922830
#
# Stress axis : x y z
#
# Youngs Moduli (GPa) = 27.76661 32.17587 80.90450
#
# Poissons Ratio (x) = 0.35953 0.93421
# Poissons Ratio (y) = 0.31026 0.19352
# Poissons Ratio (z) = 0.32062 0.07696
#
# Static dielectric constant tensor:
#      x y z
#    x 3.011500 0.000000 -0.065170 
#    y 0.000000 3.367700 0.000000 
#    z -0.065170 0.000000 3.707020 
# 
# 
# High freq. dielectric constant tensor:
#      x y z
#    x 1.652170 0.000000 -0.003010 
#    y 0.000000 1.704480 0.000000 
#    z -0.003010 0.000000 1.718330 
# 
# From -- ./inp_files/346041.got.cif
#   From: 2010.06.25/outbox.cif.g09.slc.cpg/sg12_174_cif.got.tgz:346041.got - 2010.06.28 00:19:55.
