data_PCOD8089057
_publ_section_title
;
Structure prediction by ZEFSAII (Michael W. Deem and Ramdas Pophale) SiO2 
 PCOD8089057
Probable space group: C 2/M
;
_chemical_formula_sum "Si O2"
_cell_formula_units_Z 56
_cell_length_a 30.816081
_cell_length_b 9.448215
_cell_length_c 11.867822
_cell_angle_alpha 90.000000
_cell_angle_beta 120.349153
_cell_angle_gamma 90.000000
_cell_volume 2981.879407
_symmetry_space_group_name_H-M "C 2/M"
_symmetry_group_IT_number 12
_symmetry_cell_setting 'monoclinic'
loop_
_space_group_symop_operation_xyz
x,y,z
-x,y,-z
-x,-y,-z
x,-y,z
1/2+x,1/2+y,z
1/2-x,1/2+y,-z
1/2-x,1/2-y,-z
1/2+x,1/2-y,z
loop_
_atom_site_type_symbol
_atom_site_label
_atom_site_fract_x
_atom_site_fract_y
_atom_site_fract_z
Si Si1 0.442230 0.331065 0.409284
Si Si2 0.406072 0.658691 0.763739
Si Si3 0.640119 0.658402 0.529616
Si Si4 0.253832 0.331552 0.387044
Si Si5 0.092149 0.660757 0.846722
Si Si6 0.994246 0.655467 0.860565
Si Si7 0.848454 0.336080 0.865946
O O1 0.500000 0.274631 0.500000
O O2 0.443817 0.500000 0.403606
O O3 0.406417 0.270288 0.463549
O O4 0.415134 0.270540 0.263176
O O5 0.417747 0.500000 0.819702
O O6 0.365160 0.661763 0.611925
O O7 0.455443 0.725065 0.770259
O O8 0.388190 0.747380 0.846522
O O9 0.640121 0.500000 0.576922
O O10 0.696533 0.721391 0.617908
O O11 0.256427 0.500000 0.415288
O O12 0.250000 0.250000 0.500000
O O13 0.207730 0.293155 0.243945
O O14 0.093736 0.500000 0.801466
O O15 0.047032 0.684140 0.873363
O O16 0.142213 0.693044 0.987995
O O17 0.973625 0.500000 0.800176
O O18 0.000000 0.669487 0.000000
O O19 0.859512 0.500000 0.853595
#
# Coordination Sequence:
#
# PCOD8089057 Si02
#       7
#     8   8   8   8   8   8   8
#     4  10  21  39  60  79 108 148 188 227 276 333
#     4  11  20  31  52  81 111 139 179 229 270 325
#     4   9  19  35  54  80 111 143 181 230 281 324
#     4  10  19  34  57  82 112 147 184 227 278 332
#     4  10  21  37  55  77 109 145 186 229 271 326
#     4  10  19  33  50  71 107 146 176 215 273 334
#     4  10  20  35  54  78 111 148 178 217 281 339
#
# _framework density 18.780101999999999
#
# number of rings (size 3 to 8) (size 9 to 14) (size 15 to 20)
#    0.000    2.000    2.857    1.286    0.000    2.857 
#    0.000    2.857    0.000    0.000    0.000    0.000 
#    0.000    0.000    0.000    0.000    0.000    0.000 
#
# Total GULP energy -346947.966076 kJ/mol
# GULP energy per Si atom -12390.998788 kJ/mol
# Density = 1.873736 g / cm^3
# Si number density = 18.780102 Si / 1000 Ang^3
#
#
#
# Elastic Constant Matrix: (Units=GPa)
#
#
# Indices 1 2 3 4 5 6 
#
# 1 103.4892 27.0907 41.9851 0.0000 9.9732 0.0000
# 2 27.0907 56.0660 33.4963 0.0000 7.0873 0.0000
# 3 41.9851 33.4963 100.9605 0.0000 10.7424 0.0000
# 4 0.0000 0.0000 0.0000 29.2756 0.0000 -0.6958
# 5 9.9732 7.0873 10.7424 0.0000 33.3040 0.0000
# 6 0.0000 0.0000 0.0000 -0.6958 0.0000 15.2961
#
#
#
# Elastic Compliance Matrix: (Units=1/GPa)
#
#
# Indices 1 2 3 4 5 6 
#
# 1 0.012263 -0.003455 -0.003770 0.000000 -0.001721 0.000000
# 2 -0.003455 0.023412 -0.006121 0.000000 -0.001973 0.000000
# 3 -0.003770 -0.006121 0.013715 0.000000 -0.001993 0.000000
# 4 0.000000 0.000000 0.000000 0.034195 0.000000 0.001555
# 5 -0.001721 -0.001973 -0.001993 0.000000 0.031604 0.000000
# 6 0.000000 0.000000 0.000000 0.001555 0.000000 0.065447
#
#
# Mechanical properties :
#
#
# Convention : Reuss Voigt Hill
#
# Bulk Modulus (GPa) = 44.05688 51.73998 47.89843
# Shear Modulus (GPa) = 23.26724 26.10470 24.68597
#
# Velocity S-wave (km/s) = 3.52366 3.73234 3.62950
# Velocity P-wave (km/s) = 6.32971 6.79589 6.56693
#
# Compressibility (1/GPa) = 0.02269793
#
# Stress axis : x y z
#
# Youngs Moduli (GPa) = 81.54832 42.71333 72.91109
#
# Poissons Ratio (x) = 0.14759 0.27488
# Poissons Ratio (y) = 0.28178 0.44626
# Poissons Ratio (z) = 0.30744 0.26143
#
# Static dielectric constant tensor:
#      x y z
#    x 3.765930 0.000000 0.239320 
#    y 0.000000 3.389150 0.000000 
#    z 0.239320 0.000000 3.564600 
# 
# 
# High freq. dielectric constant tensor:
#      x y z
#    x 1.726590 0.000000 0.015530 
#    y 0.000000 1.711770 0.000000 
#    z 0.015530 0.000000 1.724360 
# 
# From -- ./inp_files/110550.got.cif
#   From: 2010.06.25/outbox.cif.g09.slc.cpg/sg12_56_cif.got.tgz:110550.got - 2010.06.28 00:19:55.
