data_PCOD8089698
_publ_section_title
;
Structure prediction by ZEFSAII (Michael W. Deem and Ramdas Pophale) SiO2 
 PCOD8089698
Probable space group: C 2/M
;
_chemical_formula_sum "Si O2"
_cell_formula_units_Z 56
_cell_length_a 15.485354
_cell_length_b 9.684187
_cell_length_c 30.561388
_cell_angle_alpha 90.000000
_cell_angle_beta 139.468144
_cell_angle_gamma 90.000000
_cell_volume 2978.409132
_symmetry_space_group_name_H-M "C 2/M"
_symmetry_group_IT_number 12
_symmetry_cell_setting 'monoclinic'
loop_
_space_group_symop_operation_xyz
x,y,z
-x,y,-z
-x,-y,-z
x,-y,z
1/2+x,1/2+y,z
1/2-x,1/2+y,-z
1/2-x,1/2-y,-z
1/2+x,1/2-y,z
loop_
_atom_site_type_symbol
_atom_site_label
_atom_site_fract_x
_atom_site_fract_y
_atom_site_fract_z
Si Si1 0.613186 0.663548 0.075457
Si Si2 0.765084 0.845744 0.441228
Si Si3 0.058601 0.345744 0.441228
Si Si4 0.563769 0.336452 0.155297
Si Si5 0.153295 0.336379 0.705248
Si Si6 0.402121 0.163548 0.155297
Si Si7 0.537552 0.836379 0.294752
O O1 0.610594 0.500000 0.073730
O O2 0.585519 0.713560 0.114022
O O3 0.756548 0.713560 0.114022
O O4 0.500000 0.725082 0.000000
O O5 0.892325 0.750000 0.500000
O O6 0.664160 0.845448 0.442773
O O7 0.684311 0.788369 0.367561
O O8 0.818917 0.000000 0.453650
O O9 0.042032 0.500000 0.453650
O O10 0.918373 0.288369 0.367561
O O11 0.534613 0.500000 0.146864
O O12 0.693224 0.292627 0.233431
O O13 0.440408 0.250000 0.126938
O O14 0.141232 0.500000 0.703637
O O15 0.075958 0.272402 0.717306
O O16 0.507069 0.207373 0.233431
O O17 0.405978 0.000000 0.146864
O O18 0.530321 0.000000 0.296363
#
# Coordination Sequence:
#
# PCOD8089698 Si02
#       7
#     8   8   8   8   8   8   8
#     4   9  18  34  57  81 104 135 173 205 239 299
#     4   8  13  21  36  60  88 117 156 202 246 289
#     4   8  13  21  36  60  88 117 156 202 246 289
#     4  10  19  33  54  78 104 134 171 210 249 295
#     4   8  13  25  46  67  89 127 172 205 237 292
#     4  10  19  33  54  78 104 134 171 210 249 295
#     4   8  13  25  46  67  89 127 172 205 237 292
#
# _framework density 18.801984000000001
#
# number of rings (size 3 to 8) (size 9 to 14) (size 15 to 20)
#    0.000    3.286    1.429    1.714    0.000    0.571 
#    0.000    2.143    0.000    3.429    0.000    6.000 
#    0.000    0.000    0.000    0.000    0.000    0.000 
#
# Total GULP energy -346954.659550 kJ/mol
# GULP energy per Si atom -12391.237841 kJ/mol
# Density = 1.875919 g / cm^3
# Si number density = 18.801984 Si / 1000 Ang^3
#
#
#
# Elastic Constant Matrix: (Units=GPa)
#
#
# Indices 1 2 3 4 5 6 
#
# 1 100.5586 35.4093 54.5840 0.0000 0.3944 0.0000
# 2 35.4093 44.2931 38.7215 0.0000 -0.0414 0.0000
# 3 54.5840 38.7215 150.4862 0.0000 -1.0183 0.0000
# 4 0.0000 0.0000 0.0000 17.1628 0.0000 0.0577
# 5 0.3944 -0.0414 -1.0183 0.0000 7.2241 0.0000
# 6 0.0000 0.0000 0.0000 0.0577 0.0000 21.7736
#
#
#
# Elastic Compliance Matrix: (Units=1/GPa)
#
#
# Indices 1 2 3 4 5 6 
#
# 1 0.014835 -0.009224 -0.003016 0.000000 -0.001288 0.000000
# 2 -0.009224 0.034870 -0.005627 0.000000 -0.000090 0.000000
# 3 -0.003016 -0.005627 0.009197 0.000000 0.001429 0.000000
# 4 0.000000 0.000000 0.000000 0.058266 0.000000 -0.000154
# 5 -0.001288 -0.000090 0.001429 0.000000 0.138697 0.000000
# 6 0.000000 0.000000 0.000000 -0.000154 0.000000 0.045928
#
#
# Mechanical properties :
#
#
# Convention : Reuss Voigt Hill
#
# Bulk Modulus (GPa) = 43.16493 61.41863 52.29178
# Shear Modulus (GPa) = 14.48229 20.34030 17.41129
#
# Velocity S-wave (km/s) = 2.77835 3.29267 3.04638
# Velocity P-wave (km/s) = 5.77060 6.86968 6.34399
#
# Compressibility (1/GPa) = 0.02316696
#
# Stress axis : x y z
#
# Youngs Moduli (GPa) = 67.40998 28.67785 108.73365
#
# Poissons Ratio (x) = 0.26452 0.32796
# Poissons Ratio (y) = 0.62177 0.61189
# Poissons Ratio (z) = 0.20332 0.16138
#
# Static dielectric constant tensor:
#      x y z
#    x 3.127210 0.000000 -0.011020 
#    y 0.000000 3.000780 0.000000 
#    z -0.011020 0.000000 4.009340 
# 
# 
# High freq. dielectric constant tensor:
#      x y z
#    x 1.705770 0.000000 -0.000480 
#    y 0.000000 1.674210 0.000000 
#    z -0.000480 0.000000 1.744130 
# 
# From -- ./inp_files/375904.got.cif
#   From: 2010.06.25/outbox.cif.g09.slc.cpg/sg12_188_cif.got.tgz:375904.got - 2010.06.28 00:19:55.
