data_PCOD8089590
_publ_section_title
;
Structure prediction by ZEFSAII (Michael W. Deem and Ramdas Pophale) SiO2 
 PCOD8089590
Probable space group: C 2/M
;
_chemical_formula_sum "Si O2"
_cell_formula_units_Z 64
_cell_length_a 11.552044
_cell_length_b 21.568940
_cell_length_c 22.885105
_cell_angle_alpha 90.000000
_cell_angle_beta 143.614457
_cell_angle_gamma 90.000000
_cell_volume 3382.620197
_symmetry_space_group_name_H-M "C 2/M"
_symmetry_group_IT_number 12
_symmetry_cell_setting 'monoclinic'
loop_
_space_group_symop_operation_xyz
x,y,z
-x,y,-z
-x,-y,-z
x,-y,z
1/2+x,1/2+y,z
1/2-x,1/2+y,-z
1/2-x,1/2-y,-z
1/2+x,1/2-y,z
loop_
_atom_site_type_symbol
_atom_site_label
_atom_site_fract_x
_atom_site_fract_y
_atom_site_fract_z
Si Si1 0.570159 0.572118 0.207665
Si Si2 0.935721 0.388215 0.706737
Si Si3 0.353676 0.572176 0.891005
Si Si4 0.999921 0.428469 0.603502
Si Si5 0.184706 0.154917 0.438067
Si Si6 0.691445 0.570034 0.714087
Si Si7 0.814997 0.427524 0.890296
Si Si8 0.223909 0.777075 0.574786
O O1 0.581327 0.500000 0.226607
O O2 0.536717 0.583550 0.125470
O O3 0.780671 0.600210 0.312312
O O4 0.388972 0.602384 0.169065
O O5 0.815343 0.426917 0.705472
O O6 0.849090 0.318380 0.670938
O O7 0.160645 0.386077 0.817815
O O8 0.919122 0.421649 0.637119
O O9 0.294032 0.500000 0.873754
O O10 0.500000 0.594732 0.000000
O O11 0.997654 0.500000 0.585661
O O12 0.860699 0.393992 0.500452
O O13 0.239047 0.189788 0.519223
O O14 0.183426 0.207835 0.387570
O O15 0.981921 0.119234 0.358053
O O16 0.607000 0.500000 0.685414
O O17 0.828258 0.584633 0.826098
O O18 0.811337 0.500000 0.903919
O O19 0.000000 0.397655 0.000000
O O20 0.000000 0.772564 0.500000
#
# Coordination Sequence:
#
# PCOD8089590 Si02
#       8
#     8   8   8   8   8   8   8   8
#     4   8  15  29  44  65 104 145 178 211 259 328
#     4  10  19  33  53  82 114 148 179 229 278 328
#     4   9  17  28  50  82 112 142 180 226 279 336
#     4   9  17  31  52  79 112 142 172 222 288 335
#     4  10  21  34  54  80 105 144 185 228 269 330
#     4  11  21  33  54  86 117 141 180 229 286 343
#     4   9  19  32  47  70 107 151 179 209 266 336
#     4  10  20  38  54  73 107 147 193 226 266 319
#
# _framework density 18.920245000000001
#
# number of rings (size 3 to 8) (size 9 to 14) (size 15 to 20)
#    0.000    2.500    1.250    2.250    1.750    1.000 
#    0.000    1.875    0.000    4.500    0.000    1.750 
#    0.000    0.000    0.000    0.000    0.000    0.000 
#
# Total GULP energy -396630.083070 kJ/mol
# GULP energy per Si atom -12394.690096 kJ/mol
# Density = 1.887718 g / cm^3
# Si number density = 18.920245 Si / 1000 Ang^3
#
#
#
# Elastic Constant Matrix: (Units=GPa)
#
#
# Indices 1 2 3 4 5 6 
#
# 1 62.7243 24.4400 29.2290 0.0005 18.3670 0.0001
# 2 24.4400 74.5661 37.4647 0.0005 2.4381 0.0001
# 3 29.2290 37.4647 94.1807 -0.0020 7.7078 -0.0003
# 4 0.0005 0.0005 -0.0020 17.3092 0.0005 8.1558
# 5 18.3670 2.4381 7.7078 0.0005 28.9457 0.0003
# 6 0.0001 0.0001 -0.0003 8.1558 0.0003 27.8277
#
#
#
# Elastic Compliance Matrix: (Units=1/GPa)
#
#
# Indices 1 2 3 4 5 6 
#
# 1 0.023961 -0.005289 -0.004216 -0.000001 -0.013636 0.000000
# 2 -0.005289 0.017932 -0.005769 -0.000001 0.003382 0.000000
# 3 -0.004216 -0.005769 0.014274 0.000002 -0.000639 0.000000
# 4 -0.000001 -0.000001 0.000002 0.067029 -0.000001 -0.019645
# 5 -0.013636 0.003382 -0.000639 -0.000001 0.043085 0.000000
# 6 0.000000 0.000000 0.000000 -0.019645 0.000000 0.041693
#
#
# Mechanical properties :
#
#
# Convention : Reuss Voigt Hill
#
# Bulk Modulus (GPa) = 39.03413 45.97095 42.50254
# Shear Modulus (GPa) = 20.23771 24.17233 22.20502
#
# Velocity S-wave (km/s) = 3.27407 3.57822 3.42952
# Velocity P-wave (km/s) = 5.91341 6.43595 6.18021
#
# Compressibility (1/GPa) = 0.02561861
#
# Stress axis : x y z
#
# Youngs Moduli (GPa) = 41.73362 55.76505 70.05968
#
# Poissons Ratio (x) = 0.29496 0.29540
# Poissons Ratio (y) = 0.22074 0.40415
# Poissons Ratio (z) = 0.17597 0.32169
#
# Static dielectric constant tensor:
#      x y z
#    x 3.655180 0.000000 0.226790 
#    y 0.000000 3.379650 0.000000 
#    z 0.226790 0.000000 3.708090 
# 
# 
# High freq. dielectric constant tensor:
#      x y z
#    x 1.738910 0.000000 0.006990 
#    y 0.000000 1.694360 0.000000 
#    z 0.006990 0.000000 1.731500 
# 
# From -- ./inp_files/359143.got.cif
#   From: 2010.06.25/outbox.cif.g09.slc.cpg/sg12_180_cif.got.tgz:359143.got - 2010.06.28 00:19:55.
