data_PCOD8089388
_publ_section_title
;
Structure prediction by ZEFSAII (Michael W. Deem and Ramdas Pophale) SiO2 
 PCOD8089388
Probable space group: C 2/M
;
_chemical_formula_sum "Si O2"
_cell_formula_units_Z 56
_cell_length_a 29.234295
_cell_length_b 8.946505
_cell_length_c 16.209530
_cell_angle_alpha 90.000000
_cell_angle_beta 42.900140
_cell_angle_gamma 90.000000
_cell_volume 2885.935786
_symmetry_space_group_name_H-M "C 2/M"
_symmetry_group_IT_number 12
_symmetry_cell_setting 'monoclinic'
loop_
_space_group_symop_operation_xyz
x,y,z
-x,y,-z
-x,-y,-z
x,-y,z
1/2+x,1/2+y,z
1/2-x,1/2+y,-z
1/2-x,1/2-y,-z
1/2+x,1/2-y,z
loop_
_atom_site_type_symbol
_atom_site_label
_atom_site_fract_x
_atom_site_fract_y
_atom_site_fract_z
Si Si1 0.798816 0.177266 0.191935
Si Si2 0.951851 0.672665 0.438498
Si Si3 0.911198 0.826388 0.752375
Si Si4 0.835099 0.323203 0.715702
Si Si5 0.574103 0.675164 0.077852
Si Si6 0.063894 0.326193 0.730913
Si Si7 0.306501 0.322516 0.369085
O O1 0.735566 0.240837 0.224305
O O2 0.794154 0.232469 0.292037
O O3 0.796909 0.000000 0.191248
O O4 0.867729 0.233847 0.059595
O O5 0.969852 0.500000 0.428703
O O6 0.892088 0.726889 0.575892
O O7 0.928242 0.702599 0.376634
O O8 0.017844 0.765250 0.374341
O O9 0.850212 0.747749 0.784720
O O10 0.902132 0.790299 0.860650
O O11 0.908296 0.000000 0.737409
O O12 0.832489 0.500000 0.728794
O O13 0.558462 0.500000 0.087095
O O14 0.507959 0.768305 0.142398
O O15 0.071893 0.500000 0.742403
O O16 0.120192 0.230906 0.701835
O O17 0.301739 0.500000 0.383186
O O18 0.250000 0.250000 0.500000
#
# Coordination Sequence:
#
# PCOD8089388 Si02
#       7
#     8   8   8   8   8   8   8
#     4   9  20  38  58  77 103 144 187 220 255 319
#     4   9  18  33  53  76 104 140 180 217 258 320
#     4  10  20  32  50  78 108 136 172 222 273 315
#     4  10  19  33  53  75 101 139 183 220 260 314
#     4   9  19  38  58  77 105 143 185 221 260 315
#     4  10  20  36  58  83 111 142 178 222 270 316
#     4  11  22  38  60  85 111 140 177 219 267 320
#
# _framework density 19.404451999999999
#
# number of rings (size 3 to 8) (size 9 to 14) (size 15 to 20)
#    0.000    2.286    0.000    2.571    0.000    6.857 
#    0.000    7.857    0.000    0.000    0.000    0.000 
#    0.000    0.000    0.000    0.000    0.000    0.000 
#
# Total GULP energy -347291.452625 kJ/mol
# GULP energy per Si atom -12403.266165 kJ/mol
# Density = 1.936029 g / cm^3
# Si number density = 19.404452 Si / 1000 Ang^3
#
#
#
# Elastic Constant Matrix: (Units=GPa)
#
#
# Indices 1 2 3 4 5 6 
#
# 1 135.1058 46.4617 62.3590 -0.0002 -18.5049 0.0001
# 2 46.4617 57.3008 40.8774 0.0000 -3.6086 0.0001
# 3 62.3590 40.8774 135.2571 0.0004 -3.8930 0.0001
# 4 -0.0002 0.0000 0.0004 25.6500 0.0006 -2.4673
# 5 -18.5049 -3.6086 -3.8930 0.0006 21.5505 -0.0001
# 6 0.0001 0.0001 0.0001 -2.4673 -0.0001 33.8161
#
#
#
# Elastic Compliance Matrix: (Units=1/GPa)
#
#
# Indices 1 2 3 4 5 6 
#
# 1 0.012735 -0.007332 -0.003394 0.000000 0.009095 0.000000
# 2 -0.007332 0.026608 -0.004738 0.000000 -0.002697 0.000000
# 3 -0.003394 -0.004738 0.010337 0.000000 -0.001840 0.000000
# 4 0.000000 0.000000 0.000000 0.039262 -0.000001 0.002865
# 5 0.009095 -0.002697 -0.001840 -0.000001 0.053428 0.000000
# 6 0.000000 0.000000 0.000000 0.002865 0.000000 0.029781
#
#
# Mechanical properties :
#
#
# Convention : Reuss Voigt Hill
#
# Bulk Modulus (GPa) = 53.33103 69.67333 61.50218
# Shear Modulus (GPa) = 23.88573 28.06767 25.97670
#
# Velocity S-wave (km/s) = 3.51228 3.80736 3.66279
# Velocity P-wave (km/s) = 6.63263 7.43719 7.04640
#
# Compressibility (1/GPa) = 0.01875081
#
# Stress axis : x y z
#
# Youngs Moduli (GPa) = 78.52275 37.58308 96.73961
#
# Poissons Ratio (x) = 0.27558 0.32830
# Poissons Ratio (y) = 0.57576 0.45840
# Poissons Ratio (z) = 0.26648 0.17809
#
# Static dielectric constant tensor:
#      x y z
#    x 3.707640 0.000000 -0.016880 
#    y 0.000000 3.382650 0.000000 
#    z -0.016880 0.000000 3.653000 
# 
# 
# High freq. dielectric constant tensor:
#      x y z
#    x 1.765370 0.000000 -0.002580 
#    y 0.000000 1.739300 0.000000 
#    z -0.002580 0.000000 1.756520 
# 
# From -- ./inp_files/281004.got.cif
#   From: 2010.06.25/outbox.cif.g09.slc.cpg/sg12_141_cif.got.tgz:281004.got - 2010.06.28 00:19:55.
