data_PCOD8089855
_publ_section_title
;
Structure prediction by ZEFSAII (Michael W. Deem and Ramdas Pophale) SiO2 
 PCOD8089855
Probable space group: C 2/M
;
_chemical_formula_sum "Si O2"
_cell_formula_units_Z 64
_cell_length_a 25.004110
_cell_length_b 12.635385
_cell_length_c 11.177404
_cell_angle_alpha 90.000000
_cell_angle_beta 70.324085
_cell_angle_gamma 90.000000
_cell_volume 3325.162613
_symmetry_space_group_name_H-M "C 2/M"
_symmetry_group_IT_number 12
_symmetry_cell_setting 'monoclinic'
loop_
_space_group_symop_operation_xyz
x,y,z
-x,y,-z
-x,-y,-z
x,-y,z
1/2+x,1/2+y,z
1/2-x,1/2+y,-z
1/2-x,1/2-y,-z
1/2+x,1/2-y,z
loop_
_atom_site_type_symbol
_atom_site_label
_atom_site_fract_x
_atom_site_fract_y
_atom_site_fract_z
Si Si1 0.650765 0.619637 0.422478
Si Si2 0.645025 0.122434 0.953240
Si Si3 0.737298 0.768051 0.738610
Si Si4 0.188047 0.380817 0.173746
Si Si5 0.413624 0.187627 0.606219
Si Si6 0.021288 0.624696 0.670506
Si Si7 0.946213 0.252871 0.114473
Si Si8 0.352291 0.381352 0.300784
O O1 0.651414 0.500000 0.370154
O O2 0.713159 0.671158 0.368191
O O3 0.605052 0.688830 0.383357
O O4 0.630745 0.619818 0.573879
O O5 0.696067 0.143439 0.823213
O O6 0.587425 0.176502 0.955033
O O7 0.631622 0.000000 0.969794
O O8 0.661779 0.165432 0.071379
O O9 0.760387 0.694784 0.828329
O O10 0.702146 0.693751 0.675126
O O11 0.211274 0.500000 0.138607
O O12 0.139627 0.382079 0.311766
O O13 0.464492 0.178073 0.661930
O O14 0.428856 0.144646 0.462986
O O15 0.011547 0.500000 0.695216
O O16 0.036726 0.676108 0.784847
O O17 0.907103 0.155409 0.184460
O O18 0.000000 0.208576 0.000000
O O19 0.336469 0.500000 0.271072
#
# Coordination Sequence:
#
# PCOD8089855 Si02
#       8
#     8   8   8   8   8   8   8   8
#     4  10  20  37  59  83 116 151 186 230 282 337
#     4  10  21  36  54  81 115 149 185 228 280 335
#     4  10  20  34  58  84 113 145 190 230 278 328
#     4  10  19  33  54  81 113 149 185 225 278 334
#     4  10  20  35  55  82 111 144 189 232 282 327
#     4  11  21  36  57  82 113 147 188 237 284 329
#     4  11  23  38  58  83 112 148 190 234 280 336
#     4  10  21  39  58  81 114 151 189 232 281 333
#
# _framework density 19.247178999999999
#
# number of rings (size 3 to 8) (size 9 to 14) (size 15 to 20)
#    0.000    1.750    1.250    4.125    0.000    2.250 
#    0.000    1.875    0.000   14.250    0.000    0.000 
#    0.000    0.000    0.000    0.000    0.000    0.000 
#
# Total GULP energy -396848.866487 kJ/mol
# GULP energy per Si atom -12401.527078 kJ/mol
# Density = 1.920337 g / cm^3
# Si number density = 19.247179 Si / 1000 Ang^3
#
#
#
# Elastic Constant Matrix: (Units=GPa)
#
#
# Indices 1 2 3 4 5 6 
#
# 1 72.1214 30.1459 13.6732 0.0000 0.8364 0.0000
# 2 30.1459 107.6652 16.4721 0.0000 3.9884 0.0000
# 3 13.6732 16.4721 54.1267 0.0000 1.0363 0.0000
# 4 0.0000 0.0000 0.0000 17.4332 0.0000 10.6492
# 5 0.8364 3.9884 1.0363 0.0000 35.0096 0.0000
# 6 0.0000 0.0000 0.0000 10.6492 0.0000 19.2937
#
#
#
# Elastic Compliance Matrix: (Units=1/GPa)
#
#
# Indices 1 2 3 4 5 6 
#
# 1 0.016107 -0.004083 -0.002829 0.000000 0.000164 0.000000
# 2 -0.004083 0.010813 -0.002239 0.000000 -0.001068 0.000000
# 3 -0.002829 -0.002239 0.019876 0.000000 -0.000266 0.000000
# 4 0.000000 0.000000 0.000000 0.086540 0.000000 -0.047766
# 5 0.000164 -0.001068 -0.000266 0.000000 0.028689 0.000000
# 6 0.000000 0.000000 0.000000 -0.047766 0.000000 0.078195
#
#
# Mechanical properties :
#
#
# Convention : Reuss Voigt Hill
#
# Bulk Modulus (GPa) = 35.09531 39.38842 37.24186
# Shear Modulus (GPa) = 18.65525 25.92212 22.28869
#
# Velocity S-wave (km/s) = 3.11665 3.67386 3.40667
# Velocity P-wave (km/s) = 5.58793 6.20526 5.90467
#
# Compressibility (1/GPa) = 0.02849384
#
# Stress axis : x y z
#
# Youngs Moduli (GPa) = 62.08611 92.47799 50.31109
#
# Poissons Ratio (x) = 0.37759 0.14235
# Poissons Ratio (y) = 0.25350 0.11264
# Poissons Ratio (z) = 0.17566 0.20705
#
# Static dielectric constant tensor:
#      x y z
#    x 3.535370 0.000000 0.002790 
#    y 0.000000 3.514000 0.000000 
#    z 0.002790 0.000000 3.544280 
# 
# 
# High freq. dielectric constant tensor:
#      x y z
#    x 1.750620 0.000000 -0.001750 
#    y 0.000000 1.745710 0.000000 
#    z -0.001750 0.000000 1.753170 
# 
# From -- ./inp_files/175252.got.cif
#   From: 2010.06.25/outbox.cif.g09.slc.cpg/sg12_88_cif.got.tgz:175252.got - 2010.06.28 00:19:55.
