data_PCOD8089050
_publ_section_title
;
Structure prediction by ZEFSAII (Michael W. Deem and Ramdas Pophale) SiO2 
 PCOD8089050
Probable space group: C 2/M
;
_chemical_formula_sum "Si O2"
_cell_formula_units_Z 56
_cell_length_a 14.363984
_cell_length_b 8.662802
_cell_length_c 28.293079
_cell_angle_alpha 90.000000
_cell_angle_beta 122.857711
_cell_angle_gamma 90.000000
_cell_volume 2957.354727
_symmetry_space_group_name_H-M "C 2/M"
_symmetry_group_IT_number 12
_symmetry_cell_setting 'monoclinic'
loop_
_space_group_symop_operation_xyz
x,y,z
-x,y,-z
-x,-y,-z
x,-y,z
1/2+x,1/2+y,z
1/2-x,1/2+y,-z
1/2-x,1/2-y,-z
1/2+x,1/2-y,z
loop_
_atom_site_type_symbol
_atom_site_label
_atom_site_fract_x
_atom_site_fract_y
_atom_site_fract_z
Si Si1 0.511874 0.317038 0.266120
Si Si2 0.832357 0.681839 0.951087
Si Si3 0.743219 0.817176 0.641539
Si Si4 0.299523 0.818283 0.560846
Si Si5 0.045817 0.682171 0.653918
Si Si6 0.906880 0.819376 0.141874
Si Si7 0.490021 0.679658 0.064953
O O1 0.506227 0.500000 0.264590
O O2 0.639645 0.262028 0.304286
O O3 0.440501 0.254978 0.290429
O O4 0.459747 0.246045 0.203734
O O5 0.828070 0.500000 0.961052
O O6 0.713791 0.750067 0.902774
O O7 0.915123 0.713470 0.930570
O O8 0.872716 0.773541 0.008808
O O9 0.729413 0.745621 0.585744
O O10 0.644043 0.755124 0.647413
O O11 0.737199 0.000000 0.634911
O O12 0.250000 0.750000 0.500000
O O13 0.427956 0.766717 0.599665
O O14 0.287813 0.000000 0.556596
O O15 0.053886 0.500000 0.661654
O O16 0.987543 0.786169 0.120029
O O17 0.892222 0.000000 0.145989
O O18 0.513498 0.500000 0.061025
#
# Coordination Sequence:
#
# PCOD8089050 Si02
#       7
#     8   8   8   8   8   8   8
#     4   9  18  34  53  73  97 128 166 205 242 290
#     4  10  19  33  50  70  98 129 160 198 247 299
#     4   9  18  34  55  74  98 133 168 200 244 292
#     4  10  20  34  52  76 107 134 165 205 244 287
#     4   9  19  35  53  75 102 133 165 204 248 288
#     4   9  19  33  50  72  99 129 161 200 247 294
#     4  10  19  33  51  72  97 126 163 204 245 294
#
# _framework density 18.935841
#
# number of rings (size 3 to 8) (size 9 to 14) (size 15 to 20)
#    0.000    2.571    0.000    2.571    0.000    2.857 
#    0.000    9.286    0.000    0.000    0.000    0.000 
#    0.000    0.000    0.000    0.000    0.000    0.000 
#
# Total GULP energy -347186.935108 kJ/mol
# GULP energy per Si atom -12399.533397 kJ/mol
# Density = 1.889274 g / cm^3
# Si number density = 18.935841 Si / 1000 Ang^3
#
#
#
# Elastic Constant Matrix: (Units=GPa)
#
#
# Indices 1 2 3 4 5 6 
#
# 1 115.9460 14.5122 54.3678 0.0000 -18.5158 0.0000
# 2 14.5122 27.8177 18.1431 0.0000 -5.1301 0.0000
# 3 54.3678 18.1431 129.4036 0.0000 -28.4354 0.0000
# 4 0.0000 0.0000 0.0000 24.7069 0.0000 -6.0733
# 5 -18.5158 -5.1301 -28.4354 0.0000 27.5515 0.0000
# 6 0.0000 0.0000 0.0000 -6.0733 0.0000 25.5459
#
#
#
# Elastic Compliance Matrix: (Units=1/GPa)
#
#
# Indices 1 2 3 4 5 6 
#
# 1 0.011188 -0.002901 -0.003570 0.000000 0.003294 0.000000
# 2 -0.002901 0.040415 -0.004168 0.000000 0.001275 0.000000
# 3 -0.003570 -0.004168 0.011788 0.000000 0.008991 0.000000
# 4 0.000000 0.000000 0.000000 0.042987 0.000000 0.010220
# 5 0.003294 0.001275 0.008991 0.000000 0.048026 0.000000
# 6 0.000000 0.000000 0.000000 0.010220 0.000000 0.041575
#
#
# Mechanical properties :
#
#
# Convention : Reuss Voigt Hill
#
# Bulk Modulus (GPa) = 23.74523 49.69039 36.71781
# Shear Modulus (GPa) = 21.61773 27.97047 24.79410
#
# Velocity S-wave (km/s) = 3.38247 3.84750 3.62245
# Velocity P-wave (km/s) = 5.27464 6.78499 6.07692
#
# Compressibility (1/GPa) = 0.04211373
#
# Stress axis : x y z
#
# Youngs Moduli (GPa) = 89.38338 24.74343 84.83532
#
# Poissons Ratio (x) = 0.07177 0.30285
# Poissons Ratio (y) = 0.25927 0.35356
# Poissons Ratio (z) = 0.31909 0.10312
#
# Static dielectric constant tensor:
#      x y z
#    x 3.569770 0.000000 0.031540 
#    y 0.000000 3.249190 0.000000 
#    z 0.031540 0.000000 3.687410 
# 
# 
# High freq. dielectric constant tensor:
#      x y z
#    x 1.740400 0.000000 -0.006400 
#    y 0.000000 1.719390 0.000000 
#    z -0.006400 0.000000 1.736180 
# 
# From -- ./inp_files/375129.got.cif
#   From: 2010.06.25/outbox.cif.g09.slc.cpg/sg12_188_cif.got.tgz:375129.got - 2010.06.28 00:19:55.
