data_PCOD8089027
_publ_section_title
;
Structure prediction by ZEFSAII (Michael W. Deem and Ramdas Pophale) SiO2 
 PCOD8089027
Probable space group: C 2/M
;
_chemical_formula_sum "Si O2"
_cell_formula_units_Z 56
_cell_length_a 31.426962
_cell_length_b 14.026907
_cell_length_c 13.698949
_cell_angle_alpha 90.000000
_cell_angle_beta 33.551917
_cell_angle_gamma 90.000000
_cell_volume 3337.605706
_symmetry_space_group_name_H-M "C 2/M"
_symmetry_group_IT_number 12
_symmetry_cell_setting 'monoclinic'
loop_
_space_group_symop_operation_xyz
x,y,z
-x,y,-z
-x,-y,-z
x,-y,z
1/2+x,1/2+y,z
1/2-x,1/2+y,-z
1/2-x,1/2-y,-z
1/2+x,1/2-y,z
loop_
_atom_site_type_symbol
_atom_site_label
_atom_site_fract_x
_atom_site_fract_y
_atom_site_fract_z
Si Si1 0.487425 0.890112 0.914600
Si Si2 0.913034 0.270498 0.774841
Si Si3 0.068008 0.721350 0.590637
Si Si4 0.828521 0.107786 0.625765
Si Si5 0.840772 0.392639 0.077299
Si Si6 0.812236 0.110073 0.885245
Si Si7 0.644497 0.888024 0.282313
O O1 0.540159 0.827697 0.742827
O O2 0.513088 0.000000 0.855116
O O3 0.500000 0.852762 0.000000
O O4 0.397045 0.877577 0.061962
O O5 0.879176 0.167954 0.810912
O O6 0.915980 0.340059 0.676085
O O7 0.998375 0.254621 0.651197
O O8 0.859620 0.317617 0.958223
O O9 0.109370 0.820619 0.538857
O O10 0.128346 0.651178 0.421759
O O11 0.747952 0.120994 0.721483
O O12 0.813700 0.131931 0.767556
O O13 0.859530 0.000000 0.554018
O O14 0.851820 0.500000 0.013115
O O15 0.827956 0.000000 0.877742
O O16 0.729934 0.141916 0.085471
O O17 0.631361 0.000000 0.306304
#
# Coordination Sequence:
#
# PCOD8089027 Si02
#       7
#     8   8   8   8   8   8   8
#     4   9  19  37  57  75  96 121 154 201 254 302
#     4  11  19  30  45  68 101 133 164 197 236 278
#     4  11  22  31  48  75  99 126 160 204 246 284
#     4  10  19  33  49  69  99 134 170 199 226 275
#     4   9  17  31  53  74  94 129 166 193 235 293
#     4  10  20  32  47  65  97 143 176 194 222 274
#     4  11  20  30  45  69 100 130 161 199 239 282
#
# _framework density 16.778493999999998
#
# number of rings (size 3 to 8) (size 9 to 14) (size 15 to 20)
#    0.000    1.857    2.857    2.571    0.000    2.857 
#    0.000    2.143    0.000    0.429    0.000    0.000 
#    0.000    0.000    0.000    0.000    0.000    0.000 
#
# Total GULP energy -347225.421708 kJ/mol
# GULP energy per Si atom -12400.907918 kJ/mol
# Density = 1.674031 g / cm^3
# Si number density = 16.778494 Si / 1000 Ang^3
#
#
#
# Elastic Constant Matrix: (Units=GPa)
#
#
# Indices 1 2 3 4 5 6 
#
# 1 87.2060 54.6810 46.7637 0.0000 4.5920 0.0000
# 2 54.6810 92.1538 55.1498 0.0000 -6.8298 0.0000
# 3 46.7637 55.1498 82.8080 0.0000 -3.5777 0.0000
# 4 0.0000 0.0000 0.0000 25.9465 0.0000 -3.4784
# 5 4.5920 -6.8298 -3.5777 0.0000 20.6445 0.0000
# 6 0.0000 0.0000 0.0000 -3.4784 0.0000 22.1133
#
#
#
# Elastic Compliance Matrix: (Units=1/GPa)
#
#
# Indices 1 2 3 4 5 6 
#
# 1 0.021181 -0.009712 -0.005879 0.000000 -0.008943 0.000000
# 2 -0.009712 0.022816 -0.009361 0.000000 0.008086 0.000000
# 3 -0.005879 -0.009361 0.021716 0.000000 0.001974 0.000000
# 4 0.000000 0.000000 0.000000 0.039371 0.000000 0.006193
# 5 -0.008943 0.008086 0.001974 0.000000 0.053446 0.000000
# 6 0.000000 0.000000 0.000000 0.006193 0.000000 0.046196
#
#
# Mechanical properties :
#
#
# Convention : Reuss Voigt Hill
#
# Bulk Modulus (GPa) = 63.26232 63.92854 63.59543
# Shear Modulus (GPa) = 19.23818 20.77906 20.00862
#
# Velocity S-wave (km/s) = 3.38982 3.52296 3.45703
# Velocity P-wave (km/s) = 7.28748 7.39814 7.34302
#
# Compressibility (1/GPa) = 0.01580720
#
# Stress axis : x y z
#
# Youngs Moduli (GPa) = 47.21291 43.82913 46.04865
#
# Poissons Ratio (x) = 0.42568 0.27074
# Poissons Ratio (y) = 0.45854 0.43107
# Poissons Ratio (z) = 0.27758 0.41029
#
# Static dielectric constant tensor:
#      x y z
#    x 3.086960 0.000000 -0.175770 
#    y 0.000000 3.190550 0.000000 
#    z -0.175770 0.000000 3.004470 
# 
# 
# High freq. dielectric constant tensor:
#      x y z
#    x 1.627980 0.000000 -0.021760 
#    y 0.000000 1.652490 0.000000 
#    z -0.021760 0.000000 1.630940 
# 
# From -- ./inp_files/183462.got.cif
#   From: 2010.06.25/outbox.cif.g09.slc.cpg/sg12_92_cif.got.tgz:183462.got - 2010.06.28 00:19:55.
