data_PCOD8089774
_publ_section_title
;
Structure prediction by ZEFSAII (Michael W. Deem and Ramdas Pophale) SiO2 
 PCOD8089774
Probable space group: C 2/M
;
_chemical_formula_sum "Si O2"
_cell_formula_units_Z 60
_cell_length_a 24.511170
_cell_length_b 23.711238
_cell_length_c 5.256599
_cell_angle_alpha 90.000000
_cell_angle_beta 92.872710
_cell_angle_gamma 90.000000
_cell_volume 3051.244551
_symmetry_space_group_name_H-M "C 2/M"
_symmetry_group_IT_number 12
_symmetry_cell_setting 'monoclinic'
loop_
_space_group_symop_operation_xyz
x,y,z
-x,y,-z
-x,-y,-z
x,-y,z
1/2+x,1/2+y,z
1/2-x,1/2+y,-z
1/2-x,1/2-y,-z
1/2+x,1/2-y,z
loop_
_atom_site_type_symbol
_atom_site_label
_atom_site_fract_x
_atom_site_fract_y
_atom_site_fract_z
Si Si1 0.181024 0.632010 0.070207
Si Si2 0.122306 0.254949 0.989316
Si Si3 0.536921 0.500000 0.761919
Si Si4 0.896082 0.900106 0.401839
Si Si5 0.807692 0.436798 0.449304
Si Si6 0.808614 0.940203 0.708541
Si Si7 0.699031 0.659004 0.916583
Si Si8 0.938313 0.783980 0.524054
O O1 0.135234 0.679385 0.021606
O O2 0.163014 0.594467 0.308405
O O3 0.183076 0.594447 0.817158
O O4 0.238345 0.662643 0.160486
O O5 0.178830 0.219608 0.013562
O O6 0.082292 0.235628 0.205112
O O7 0.095644 0.244955 0.708568
O O8 0.500000 0.500000 0.500000
O O9 0.573025 0.442435 0.783768
O O10 0.500000 0.500000 0.000000
O O11 0.869331 0.940782 0.604769
O O12 0.937015 0.852560 0.516968
O O13 0.843870 0.864898 0.294039
O O14 0.832062 0.500000 0.432784
O O15 0.742627 0.439884 0.500072
O O16 0.801072 0.884228 0.857533
O O17 0.805039 0.000000 0.863356
O O18 0.000000 0.764026 0.500000
#
# Coordination Sequence:
#
# PCOD8089774 Si02
#       8
#     8   8   4   8   8   8   8   8
#     4  11  21  37  59  90 124 154 192 234 287 364
#     4  11  23  39  62  86 117 152 196 246 301 354
#     4  12  30  42  56  80 110 154 222 282 309 329
#     4  11  22  37  58  76 112 152 205 254 314 342
#     4  10  21  36  57  87 127 161 191 221 279 348
#     4  10  19  33  54  79 113 159 204 247 284 348
#     4  10  22  35  54  85 117 156 195 246 307 361
#     4  11  24  42  61  81 112 155 202 253 303 349
#
# _framework density 19.664107000000001
#
# number of rings (size 3 to 8) (size 9 to 14) (size 15 to 20)
#    0.000    1.333    3.333    2.400    2.800    2.667 
#    0.000    4.000    0.000    0.000    0.000    0.000 
#    0.000   37.333    0.000    0.000    0.000    0.000 
#
# Total GULP energy -371731.979975 kJ/mol
# GULP energy per Si atom -12391.065999 kJ/mol
# Density = 1.961935 g / cm^3
# Si number density = 19.664107 Si / 1000 Ang^3
#
#
#
# Elastic Constant Matrix: (Units=GPa)
#
#
# Indices 1 2 3 4 5 6 
#
# 1 43.3653 27.0360 3.7071 0.0000 -4.1710 0.0000
# 2 27.0360 121.6172 24.9008 0.0000 3.2127 0.0000
# 3 3.7071 24.9008 78.1742 0.0000 -0.8125 0.0000
# 4 0.0000 0.0000 0.0000 28.1919 0.0000 4.6025
# 5 -4.1710 3.2127 -0.8125 0.0000 22.5723 0.0000
# 6 0.0000 0.0000 0.0000 4.6025 0.0000 24.4012
#
#
#
# Elastic Compliance Matrix: (Units=1/GPa)
#
#
# Indices 1 2 3 4 5 6 
#
# 1 0.027601 -0.006462 0.000812 0.000000 0.006049 0.000000
# 2 -0.006462 0.010351 -0.003019 0.000000 -0.002776 0.000000
# 3 0.000812 -0.003019 0.013726 0.000000 0.001074 0.000000
# 4 0.000000 0.000000 0.000000 0.036598 0.000000 -0.006903
# 5 0.006049 -0.002776 0.001074 0.000000 0.045854 0.000000
# 6 0.000000 0.000000 0.000000 -0.006903 0.000000 0.042284
#
#
# Mechanical properties :
#
#
# Convention : Reuss Voigt Hill
#
# Bulk Modulus (GPa) = 29.12063 39.38271 34.25167
# Shear Modulus (GPa) = 24.36672 27.53394 25.95033
#
# Velocity S-wave (km/s) = 3.52397 3.74600 3.63668
# Velocity P-wave (km/s) = 5.60348 6.22746 5.92369
#
# Compressibility (1/GPa) = 0.03433992
#
# Stress axis : x y z
#
# Youngs Moduli (GPa) = 36.23061 96.61305 72.85256
#
# Poissons Ratio (x) = 0.62431 -0.05918
# Poissons Ratio (y) = 0.23412 0.21997
# Poissons Ratio (z) = -0.02943 0.29171
#
# Static dielectric constant tensor:
#      x y z
#    x 3.693540 0.000000 0.091280 
#    y 0.000000 3.642520 0.000000 
#    z 0.091280 0.000000 3.518320 
# 
# 
# High freq. dielectric constant tensor:
#      x y z
#    x 1.736050 0.000000 -0.001620 
#    y 0.000000 1.773650 0.000000 
#    z -0.001620 0.000000 1.761290 
# 
# From -- ./inp_files/25649.got.cif
#   From: 2010.06.25/outbox.cif.g09.slc.cpg/sg12_13_cif.got.tgz:25649.got - 2010.06.28 00:19:55.
