data_PCOD8089054
_publ_section_title
;
Structure prediction by ZEFSAII (Michael W. Deem and Ramdas Pophale) SiO2 
 PCOD8089054
Probable space group: C 2/M
;
_chemical_formula_sum "Si O2"
_cell_formula_units_Z 48
_cell_length_a 13.561702
_cell_length_b 30.510956
_cell_length_c 11.512859
_cell_angle_alpha 90.000000
_cell_angle_beta 146.226493
_cell_angle_gamma 90.000000
_cell_volume 2648.248372
_symmetry_space_group_name_H-M "C 2/M"
_symmetry_group_IT_number 12
_symmetry_cell_setting 'monoclinic'
loop_
_space_group_symop_operation_xyz
x,y,z
-x,y,-z
-x,-y,-z
x,-y,z
1/2+x,1/2+y,z
1/2-x,1/2+y,-z
1/2-x,1/2-y,-z
1/2+x,1/2-y,z
loop_
_atom_site_type_symbol
_atom_site_label
_atom_site_fract_x
_atom_site_fract_y
_atom_site_fract_z
Si Si1 0.730457 0.690836 0.983912
Si Si2 0.816884 0.249168 0.260536
Si Si3 0.219610 0.382351 0.596673
Si Si4 0.677173 0.895281 0.821023
Si Si5 0.832506 0.786825 0.662960
Si Si6 0.491200 0.452086 0.128100
O O1 0.765874 0.706613 0.886141
O O2 0.534322 0.705107 0.829062
O O3 0.861643 0.714884 0.204140
O O4 0.765459 0.639555 0.025104
O O5 0.678355 0.268672 0.216642
O O6 0.000000 0.235649 0.500000
O O7 0.236397 0.377424 0.752305
O O8 0.233214 0.333944 0.554497
O O9 0.369621 0.415085 0.692846
O O10 0.032066 0.404450 0.379028
O O11 0.789127 0.938589 0.962595
O O12 0.750000 0.750000 0.500000
O O13 0.531456 0.500000 0.223786
O O14 0.500000 0.456738 0.000000
#
# Coordination Sequence:
#
# PCOD8089054 Si02
#       6
#     8   8   8   8   8   8
#     4  11  22  34  52  70 103 143 182 227 260 311
#     4  11  22  35  47  73  99 137 190 224 257 313
#     4  10  20  32  49  72 105 136 176 218 262 323
#     4  10  19  33  50  71 101 139 173 217 267 318
#     4  12  22  34  52  74 106 147 187 224 267 312
#     4   9  18  32  50  74  99 133 178 218 266 327
#
# _framework density 18.125188999999999
#
# number of rings (size 3 to 8) (size 9 to 14) (size 15 to 20)
#    0.000    1.500    5.000    1.500    2.333    0.667 
#    0.000    3.333    0.000    0.000    0.000    0.000 
#    0.000    6.000    0.000    7.500    0.000    1.167 
#
# Total GULP energy -297473.676966 kJ/mol
# GULP energy per Si atom -12394.736540 kJ/mol
# Density = 1.808394 g / cm^3
# Si number density = 18.125189 Si / 1000 Ang^3
#
#
#
# Elastic Constant Matrix: (Units=GPa)
#
#
# Indices 1 2 3 4 5 6 
#
# 1 48.5589 31.0210 27.9163 0.0000 5.1706 0.0000
# 2 31.0210 131.8894 48.1968 0.0000 7.5013 0.0000
# 3 27.9163 48.1968 82.9631 0.0000 6.5736 0.0000
# 4 0.0000 0.0000 0.0000 24.3856 0.0000 4.6585
# 5 5.1706 7.5013 6.5736 0.0000 26.7984 0.0000
# 6 0.0000 0.0000 0.0000 4.6585 0.0000 9.4094
#
#
#
# Elastic Compliance Matrix: (Units=1/GPa)
#
#
# Indices 1 2 3 4 5 6 
#
# 1 0.027152 -0.003779 -0.006741 0.000000 -0.002528 0.000000
# 2 -0.003779 0.010200 -0.004574 0.000000 -0.001004 0.000000
# 3 -0.006741 -0.004574 0.017107 0.000000 -0.001615 0.000000
# 4 0.000000 0.000000 0.000000 0.045291 0.000000 -0.022424
# 5 -0.002528 -0.001004 -0.001615 0.000000 0.038481 0.000000
# 6 0.000000 0.000000 0.000000 -0.022424 0.000000 0.117379
#
#
# Mechanical properties :
#
#
# Convention : Reuss Voigt Hill
#
# Bulk Modulus (GPa) = 41.20201 53.07552 47.13876
# Shear Modulus (GPa) = 17.01328 22.53717 19.77523
#
# Velocity S-wave (km/s) = 3.06707 3.53004 3.30667
# Velocity P-wave (km/s) = 5.94338 6.77947 6.37515
#
# Compressibility (1/GPa) = 0.02427066
#
# Stress axis : x y z
#
# Youngs Moduli (GPa) = 36.82945 98.04237 58.45547
#
# Poissons Ratio (x) = 0.37053 0.39403
# Poissons Ratio (y) = 0.13919 0.26739
# Poissons Ratio (z) = 0.24825 0.44846
#
# Static dielectric constant tensor:
#      x y z
#    x 3.258620 0.000000 0.155330 
#    y 0.000000 3.496830 0.000000 
#    z 0.155330 0.000000 3.431220 
# 
# 
# High freq. dielectric constant tensor:
#      x y z
#    x 1.663860 0.000000 0.029680 
#    y 0.000000 1.688000 0.000000 
#    z 0.029680 0.000000 1.702480 
# 
# From -- ./inp_files/150202.got.cif
#   From: 2010.06.25/outbox.cif.g09.slc.cpg/sg12_76_cif.got.tgz:150202.got - 2010.06.28 00:19:55.
