data_PCOD8089479
_publ_section_title
;
Structure prediction by ZEFSAII (Michael W. Deem and Ramdas Pophale) SiO2 
 PCOD8089479
Probable space group: C 2/M
;
_chemical_formula_sum "Si O2"
_cell_formula_units_Z 56
_cell_length_a 28.720761
_cell_length_b 8.825479
_cell_length_c 14.394766
_cell_angle_alpha 90.000000
_cell_angle_beta 120.201518
_cell_angle_gamma 90.000000
_cell_volume 3153.435792
_symmetry_space_group_name_H-M "C 2/M"
_symmetry_group_IT_number 12
_symmetry_cell_setting 'monoclinic'
loop_
_space_group_symop_operation_xyz
x,y,z
-x,y,-z
-x,-y,-z
x,-y,z
1/2+x,1/2+y,z
1/2-x,1/2+y,-z
1/2-x,1/2-y,-z
1/2+x,1/2-y,z
loop_
_atom_site_type_symbol
_atom_site_label
_atom_site_fract_x
_atom_site_fract_y
_atom_site_fract_z
Si Si1 0.008197 0.324628 0.904790
Si Si2 0.697595 0.178129 0.493622
Si Si3 0.715740 0.171173 0.714336
Si Si4 0.838265 0.169875 0.851749
Si Si5 0.201121 0.821947 0.892610
Si Si6 0.108254 0.325439 0.261115
Si Si7 0.618735 0.177706 0.934387
O O1 0.022140 0.500000 0.934326
O O2 0.059543 0.255365 0.901531
O O3 0.955704 0.302053 0.786752
O O4 0.000000 0.252357 0.000000
O O5 0.750000 0.250000 0.500000
O O6 0.688070 0.229432 0.591073
O O7 0.642891 0.225458 0.385013
O O8 0.707275 0.000000 0.500433
O O9 0.778508 0.174926 0.752022
O O10 0.702682 0.282041 0.785616
O O11 0.697628 0.000000 0.722471
O O12 0.878422 0.220963 0.812232
O O13 0.853647 0.000000 0.899761
O O14 0.841442 0.285610 0.940504
O O15 0.143084 0.762850 0.869659
O O16 0.205438 0.000000 0.910807
O O17 0.250000 0.750000 0.000000
O O18 0.120744 0.500000 0.248124
O O19 0.618041 0.000000 0.912489
#
# Coordination Sequence:
#
# PCOD8089479 Si02
#       7
#     8   8   8   8   8   8   8
#     4   9  17  31  52  79 106 137 176 218 259 309
#     4  10  20  33  53  78 107 140 175 217 259 309
#     4  10  21  36  51  75 110 143 176 215 259 308
#     4  11  20  30  49  77 112 142 173 215 255 310
#     4  12  24  37  55  79 106 138 176 216 263 317
#     4  10  19  33  53  77 107 143 181 214 258 313
#     4  11  21  35  55  76 106 142 176 216 263 310
#
# _framework density 17.758407999999999
#
# number of rings (size 3 to 8) (size 9 to 14) (size 15 to 20)
#    0.000    1.571    4.286    2.143    0.000    1.143 
#    0.000    2.143    0.000    0.857    0.000    6.000 
#    0.000    0.000    0.000    0.000    0.000    0.000 
#
# Total GULP energy -347122.376425 kJ/mol
# GULP energy per Si atom -12397.227729 kJ/mol
# Density = 1.771799 g / cm^3
# Si number density = 17.758408 Si / 1000 Ang^3
#
#
#
# Elastic Constant Matrix: (Units=GPa)
#
#
# Indices 1 2 3 4 5 6 
#
# 1 111.6024 37.5112 43.2257 0.0000 -3.4525 0.0000
# 2 37.5112 69.3026 26.6917 0.0000 -5.7579 0.0000
# 3 43.2257 26.6917 106.4704 0.0000 -0.6908 0.0000
# 4 0.0000 0.0000 0.0000 20.3987 0.0000 -3.9539
# 5 -3.4525 -5.7579 -0.6908 0.0000 28.6681 0.0000
# 6 0.0000 0.0000 0.0000 -3.9539 0.0000 24.7273
#
#
#
# Elastic Compliance Matrix: (Units=1/GPa)
#
#
# Indices 1 2 3 4 5 6 
#
# 1 0.012097 -0.005123 -0.003625 0.000000 0.000340 0.000000
# 2 -0.005123 0.018424 -0.002519 0.000000 0.003023 0.000000
# 3 -0.003625 -0.002519 0.011491 0.000000 -0.000666 0.000000
# 4 0.000000 0.000000 0.000000 0.050591 0.000000 0.008089
# 5 0.000340 0.003023 -0.000666 0.000000 0.035514 0.000000
# 6 0.000000 0.000000 0.000000 0.008089 0.000000 0.041735
#
#
# Mechanical properties :
#
#
# Convention : Reuss Voigt Hill
#
# Bulk Modulus (GPa) = 51.34086 55.80362 53.57224
# Shear Modulus (GPa) = 25.14107 26.75528 25.94817
#
# Velocity S-wave (km/s) = 3.76670 3.88574 3.82668
# Velocity P-wave (km/s) = 6.92032 7.18498 7.05389
#
# Compressibility (1/GPa) = 0.01947766
#
# Stress axis : x y z
#
# Youngs Moduli (GPa) = 82.66649 54.27718 87.02434
#
# Poissons Ratio (x) = 0.27808 0.31542
# Poissons Ratio (y) = 0.42353 0.21923
# Poissons Ratio (z) = 0.29963 0.13673
#
# Static dielectric constant tensor:
#      x y z
#    x 3.380250 0.000000 -0.022700 
#    y 0.000000 3.235100 0.000000 
#    z -0.022700 0.000000 3.439030 
# 
# 
# High freq. dielectric constant tensor:
#      x y z
#    x 1.678700 0.000000 -0.000050 
#    y 0.000000 1.675660 0.000000 
#    z -0.000050 0.000000 1.674450 
# 
# From -- ./inp_files/248588.got.cif
#   From: 2010.06.25/outbox.cif.g09.slc.cpg/sg12_125_cif.got.tgz:248588.got - 2010.06.28 00:19:55.
