data_PCOD8089431
_publ_section_title
;
Structure prediction by ZEFSAII (Michael W. Deem and Ramdas Pophale) SiO2 
 PCOD8089431
Probable space group: C 2/M
;
_chemical_formula_sum "Si O2"
_cell_formula_units_Z 56
_cell_length_a 28.836506
_cell_length_b 13.828116
_cell_length_c 8.273467
_cell_angle_alpha 90.000000
_cell_angle_beta 118.378108
_cell_angle_gamma 90.000000
_cell_volume 2902.632641
_symmetry_space_group_name_H-M "C 2/M"
_symmetry_group_IT_number 12
_symmetry_cell_setting 'monoclinic'
loop_
_space_group_symop_operation_xyz
x,y,z
-x,y,-z
-x,-y,-z
x,-y,z
1/2+x,1/2+y,z
1/2-x,1/2+y,-z
1/2-x,1/2-y,-z
1/2+x,1/2-y,z
loop_
_atom_site_type_symbol
_atom_site_label
_atom_site_fract_x
_atom_site_fract_y
_atom_site_fract_z
Si Si1 0.087229 0.112966 0.052101
Si Si2 0.316471 0.283136 0.911180
Si Si3 0.073123 0.260772 0.294179
Si Si4 0.845782 0.611161 0.741600
Si Si5 0.786995 0.606700 0.317291
Si Si6 0.127716 0.286487 0.705602
Si Si7 0.028587 0.237588 0.705897
O O1 0.148716 0.140823 0.132966
O O2 0.066216 0.163386 0.179743
O O3 0.080213 0.000000 0.062392
O O4 0.053979 0.147930 0.842580
O O5 0.324709 0.174184 0.856862
O O6 0.255867 0.313085 0.799149
O O7 0.334399 0.284473 0.128401
O O8 0.098237 0.346365 0.228189
O O9 0.109536 0.234593 0.509381
O O10 0.014508 0.293621 0.255211
O O11 0.854095 0.500000 0.809499
O O12 0.802225 0.618735 0.529376
O O13 0.764396 0.500000 0.246603
O O14 0.838837 0.619310 0.290143
O O15 0.075712 0.311262 0.728781
O O16 0.000000 0.194323 0.500000
#
# Coordination Sequence:
#
# PCOD8089431 Si02
#       7
#     8   8   8   8   8   8   8
#     4  10  20  33  52  78 105 136 173 209 250 304
#     4  10  19  34  54  75 106 136 167 211 258 300
#     4   9  18  34  53  74 104 135 168 211 255 300
#     4   9  19  34  54  78 101 131 172 212 253 306
#     4  10  19  33  53  76 103 136 171 208 255 306
#     4   9  19  34  51  72 100 137 172 209 251 299
#     4   9  18  33  52  74 103 138 171 209 255 297
#
# _framework density 19.292829999999999
#
# number of rings (size 3 to 8) (size 9 to 14) (size 15 to 20)
#    0.000    2.571    0.000    1.714    0.000    2.000 
#    0.000    7.143    0.000   16.286    0.000    0.000 
#    0.000    0.000    0.000    0.000    0.000    0.000 
#
# Total GULP energy -347006.279459 kJ/mol
# GULP energy per Si atom -12393.081409 kJ/mol
# Density = 1.924892 g / cm^3
# Si number density = 19.292830 Si / 1000 Ang^3
#
#
#
# Elastic Constant Matrix: (Units=GPa)
#
#
# Indices 1 2 3 4 5 6 
#
# 1 111.6607 55.8884 43.2316 0.0000 4.2642 0.0000
# 2 55.8884 114.8018 41.3288 0.0000 3.3357 0.0000
# 3 43.2316 41.3288 86.3205 0.0000 1.0366 0.0000
# 4 0.0000 0.0000 0.0000 18.5426 0.0000 0.6342
# 5 4.2642 3.3357 1.0366 0.0000 26.9553 0.0000
# 6 0.0000 0.0000 0.0000 0.6342 0.0000 15.2610
#
#
#
# Elastic Compliance Matrix: (Units=1/GPa)
#
#
# Indices 1 2 3 4 5 6 
#
# 1 0.013037 -0.004789 -0.004220 0.000000 -0.001307 0.000000
# 2 -0.004789 0.012317 -0.003491 0.000000 -0.000632 0.000000
# 3 -0.004220 -0.003491 0.015364 0.000000 0.000509 0.000000
# 4 0.000000 0.000000 0.000000 0.054006 0.000000 -0.002244
# 5 -0.001307 -0.000632 0.000509 0.000000 0.037364 0.000000
# 6 0.000000 0.000000 0.000000 -0.002244 0.000000 0.065620
#
#
# Mechanical properties :
#
#
# Convention : Reuss Voigt Hill
#
# Bulk Modulus (GPa) = 63.62840 65.96449 64.79645
# Shear Modulus (GPa) = 21.93473 23.64073 22.78773
#
# Velocity S-wave (km/s) = 3.37551 3.50432 3.44052
# Velocity P-wave (km/s) = 6.94579 7.11611 7.03147
#
# Compressibility (1/GPa) = 0.01571625
#
# Stress axis : x y z
#
# Youngs Moduli (GPa) = 76.70608 81.18590 65.08794
#
# Poissons Ratio (x) = 0.38882 0.27470
# Poissons Ratio (y) = 0.36737 0.22723
# Poissons Ratio (z) = 0.32373 0.28343
#
# Static dielectric constant tensor:
#      x y z
#    x 3.742250 0.000000 -0.027580 
#    y 0.000000 3.105340 0.000000 
#    z -0.027580 0.000000 3.745220 
# 
# 
# High freq. dielectric constant tensor:
#      x y z
#    x 1.762360 0.000000 0.001130 
#    y 0.000000 1.702540 0.000000 
#    z 0.001130 0.000000 1.765930 
# 
# From -- ./inp_files/110571.got.cif
#   From: 2010.06.25/outbox.cif.g09.slc.cpg/sg12_56_cif.got.tgz:110571.got - 2010.06.28 00:19:55.
