data_PCOD8089005
_publ_section_title
;
Structure prediction by ZEFSAII (Michael W. Deem and Ramdas Pophale) SiO2 
 PCOD8089005
Probable space group: C 2/M
;
_chemical_formula_sum "Si O2"
_cell_formula_units_Z 48
_cell_length_a 14.257387
_cell_length_b 15.762316
_cell_length_c 10.498542
_cell_angle_alpha 90.000000
_cell_angle_beta 106.034699
_cell_angle_gamma 90.000000
_cell_volume 2267.540700
_symmetry_space_group_name_H-M "C 2/M"
_symmetry_group_IT_number 12
_symmetry_cell_setting 'monoclinic'
loop_
_space_group_symop_operation_xyz
x,y,z
-x,y,-z
-x,-y,-z
x,-y,z
1/2+x,1/2+y,z
1/2-x,1/2+y,-z
1/2-x,1/2-y,-z
1/2+x,1/2-y,z
loop_
_atom_site_type_symbol
_atom_site_label
_atom_site_fract_x
_atom_site_fract_y
_atom_site_fract_z
Si Si1 0.427984 0.885334 0.867361
Si Si2 0.059189 0.218210 0.644061
Si Si3 0.781282 0.904004 0.906000
Si Si4 0.077285 0.405680 0.713929
Si Si5 0.941976 0.805991 0.859631
Si Si6 0.793546 0.093832 0.194823
O O1 0.474810 0.904609 0.748029
O O2 0.415224 0.787448 0.893328
O O3 0.320454 0.923452 0.822913
O O4 0.500000 0.926925 0.000000
O O5 0.997557 0.194306 0.746674
O O6 0.000000 0.185231 0.500000
O O7 0.080184 0.319509 0.629656
O O8 0.158943 0.163114 0.691613
O O9 0.665339 0.894296 0.846160
O O10 0.838559 0.854854 0.814913
O O11 0.814489 0.000000 0.906104
O O12 0.807672 0.869874 0.056829
O O13 0.086331 0.500000 0.647581
O O14 0.000000 0.849134 0.000000
O O15 0.842729 0.000000 0.228920
#
# Coordination Sequence:
#
# PCOD8089005 Si02
#       6
#     8   8   8   8   8   8
#     4  10  19  32  59  93 127 155 191 254 318 363
#     4  11  25  43  62  87 125 169 207 248 300 361
#     4  10  20  34  59  93 123 156 201 258 312 359
#     4  10  21  38  61  91 124 157 200 255 312 366
#     4  10  20  36  59  89 119 159 207 254 302 354
#     4  11  22  36  60  93 127 163 203 249 304 363
#
# _framework density 21.168308
#
# number of rings (size 3 to 8) (size 9 to 14) (size 15 to 20)
#    0.000    1.667    3.333    1.500    0.000    3.667 
#    0.000    7.500    0.000    4.000    0.000    0.000 
#    0.000    0.000    0.000    0.000    0.000    0.000 
#
# Total GULP energy -297322.613941 kJ/mol
# GULP energy per Si atom -12388.442248 kJ/mol
# Density = 2.112013 g / cm^3
# Si number density = 21.168308 Si / 1000 Ang^3
#
#
#
# Elastic Constant Matrix: (Units=GPa)
#
#
# Indices 1 2 3 4 5 6 
#
# 1 93.9233 49.0207 30.7131 0.0000 12.5128 0.0000
# 2 49.0207 103.5542 39.3023 0.0000 14.4430 0.0000
# 3 30.7131 39.3023 104.7025 0.0000 12.2936 0.0000
# 4 0.0000 0.0000 0.0000 17.1089 0.0000 8.4507
# 5 12.5128 14.4430 12.2936 0.0000 22.4406 0.0000
# 6 0.0000 0.0000 0.0000 8.4507 0.0000 27.9250
#
#
#
# Elastic Compliance Matrix: (Units=1/GPa)
#
#
# Indices 1 2 3 4 5 6 
#
# 1 0.014717 -0.005824 -0.001718 0.000000 -0.003516 0.000000
# 2 -0.005824 0.014181 -0.003125 0.000000 -0.004167 0.000000
# 3 -0.001718 -0.003125 0.011627 0.000000 -0.003400 0.000000
# 4 0.000000 0.000000 0.000000 0.068721 0.000000 -0.020796
# 5 -0.003516 -0.004167 -0.003400 0.000000 0.051068 0.000000
# 6 0.000000 0.000000 0.000000 -0.020796 0.000000 0.042104
#
#
# Mechanical properties :
#
#
# Convention : Reuss Voigt Hill
#
# Bulk Modulus (GPa) = 52.10969 60.02800 56.06885
# Shear Modulus (GPa) = 21.72491 25.70450 23.71471
#
# Velocity S-wave (km/s) = 3.20706 3.48845 3.35071
# Velocity P-wave (km/s) = 6.19548 6.68167 6.44316
#
# Compressibility (1/GPa) = 0.01919029
#
# Stress axis : x y z
#
# Youngs Moduli (GPa) = 67.94830 70.51493 86.00491
#
# Poissons Ratio (x) = 0.41070 0.14775
# Poissons Ratio (y) = 0.39576 0.26881
# Poissons Ratio (z) = 0.11673 0.22039
#
# Static dielectric constant tensor:
#      x y z
#    x 3.700300 0.000000 0.179200 
#    y 0.000000 4.051440 0.000000 
#    z 0.179200 0.000000 3.388630 
# 
# 
# High freq. dielectric constant tensor:
#      x y z
#    x 1.825770 0.000000 0.017380 
#    y 0.000000 1.848070 0.000000 
#    z 0.017380 0.000000 1.781930 
# 
# From -- ./inp_files/143901.got.cif
#   From: 2010.06.25/outbox.cif.g09.slc.cpg/sg12_72_cif.got.tgz:143901.got - 2010.06.28 00:19:55.
