data_PCOD8089088
_publ_section_title
;
Structure prediction by ZEFSAII (Michael W. Deem and Ramdas Pophale) SiO2 
 PCOD8089088
Probable space group: C 2/M
;
_chemical_formula_sum "Si O2"
_cell_formula_units_Z 48
_cell_length_a 20.534840
_cell_length_b 9.524104
_cell_length_c 14.989872
_cell_angle_alpha 90.000000
_cell_angle_beta 69.514645
_cell_angle_gamma 90.000000
_cell_volume 2746.265305
_symmetry_space_group_name_H-M "C 2/M"
_symmetry_group_IT_number 12
_symmetry_cell_setting 'monoclinic'
loop_
_space_group_symop_operation_xyz
x,y,z
-x,y,-z
-x,-y,-z
x,-y,z
1/2+x,1/2+y,z
1/2-x,1/2+y,-z
1/2-x,1/2-y,-z
1/2+x,1/2-y,z
loop_
_atom_site_type_symbol
_atom_site_label
_atom_site_fract_x
_atom_site_fract_y
_atom_site_fract_z
Si Si1 0.652269 0.162804 0.594388
Si Si2 0.938520 0.333520 0.200596
Si Si3 0.659699 0.166484 0.906795
Si Si4 0.313181 0.664555 0.785013
Si Si5 0.902871 0.333503 0.876429
Si Si6 0.306051 0.339583 0.583263
O O1 0.592279 0.217359 0.689814
O O2 0.646438 0.245923 0.504359
O O3 0.724975 0.193853 0.608420
O O4 0.643313 0.000000 0.575802
O O5 0.932877 0.500000 0.198473
O O6 0.893381 0.269237 0.140829
O O7 0.017546 0.284010 0.153011
O O8 0.737335 0.220552 0.850504
O O9 0.657485 0.000000 0.900600
O O10 0.636813 0.216201 0.015643
O O11 0.321181 0.500000 0.803179
O O12 0.370742 0.753526 0.808338
O O13 0.325432 0.695002 0.675216
O O14 0.896982 0.500000 0.864055
O O15 0.322063 0.500000 0.552009
#
# Coordination Sequence:
#
# PCOD8089088 Si02
#       6
#     8   8   8   8   8   8
#     4   9  16  29  51  74  94 119 157 204 244 278
#     4   9  16  30  51  75  99 125 160 201 244 285
#     4   9  16  30  52  74  95 127 168 201 233 281
#     4  10  19  33  51  70  99 135 162 191 239 294
#     4  10  20  31  49  76 102 126 159 203 241 280
#     4   9  17  30  49  72  95 123 160 198 238 285
#
# _framework density 17.478283000000001
#
# number of rings (size 3 to 8) (size 9 to 14) (size 15 to 20)
#    0.000    2.667    1.667    1.000    0.000    2.667 
#    0.000    1.667    0.000    9.000    0.000    0.000 
#    0.000    0.000    0.000    0.000    0.000    0.000 
#
# Total GULP energy -297596.170000 kJ/mol
# GULP energy per Si atom -12399.840417 kJ/mol
# Density = 1.743850 g / cm^3
# Si number density = 17.478283 Si / 1000 Ang^3
#
#
#
# Elastic Constant Matrix: (Units=GPa)
#
#
# Indices 1 2 3 4 5 6 
#
# 1 77.2718 25.7036 33.1023 0.0000 17.3244 0.0000
# 2 25.7036 34.8078 34.4430 0.0000 9.0984 0.0000
# 3 33.1023 34.4430 103.4286 0.0000 13.9192 0.0000
# 4 0.0000 0.0000 0.0000 25.3091 0.0000 4.0818
# 5 17.3244 9.0984 13.9192 0.0000 20.9645 0.0000
# 6 0.0000 0.0000 0.0000 4.0818 0.0000 23.2176
#
#
#
# Elastic Compliance Matrix: (Units=1/GPa)
#
#
# Indices 1 2 3 4 5 6 
#
# 1 0.019271 -0.010089 -0.001377 0.000000 -0.010632 0.000000
# 2 -0.010089 0.050136 -0.012805 0.000000 -0.004920 0.000000
# 3 -0.001377 -0.012805 0.014794 0.000000 -0.003127 0.000000
# 4 0.000000 0.000000 0.000000 0.040664 0.000000 -0.007149
# 5 -0.010632 -0.004920 -0.003127 0.000000 0.060697 0.000000
# 6 0.000000 0.000000 0.000000 -0.007149 0.000000 0.044328
#
#
# Mechanical properties :
#
#
# Convention : Reuss Voigt Hill
#
# Bulk Modulus (GPa) = 28.04282 44.66731 36.35507
# Shear Modulus (GPa) = 17.22248 22.04886 19.63567
#
# Velocity S-wave (km/s) = 3.14246 3.55561 3.35540
# Velocity P-wave (km/s) = 5.40795 6.51674 5.98806
#
# Compressibility (1/GPa) = 0.03565975
#
# Stress axis : x y z
#
# Youngs Moduli (GPa) = 51.89183 19.94580 67.59347
#
# Poissons Ratio (x) = 0.20122 0.09309
# Poissons Ratio (y) = 0.52351 0.86553
# Poissons Ratio (z) = 0.07146 0.25540
#
# Static dielectric constant tensor:
#      x y z
#    x 3.193930 0.000000 -0.052530 
#    y 0.000000 2.884160 0.000000 
#    z -0.052530 0.000000 3.453880 
# 
# 
# High freq. dielectric constant tensor:
#      x y z
#    x 1.665330 0.000000 0.000240 
#    y 0.000000 1.633700 0.000000 
#    z 0.000240 0.000000 1.691380 
# 
# From -- ./inp_files/153545.got.cif
#   From: 2010.06.25/outbox.cif.g09.slc.cpg/sg12_77_cif.got.tgz:153545.got - 2010.06.28 00:19:55.
