data_PCOD8089393
_publ_section_title
;
Structure prediction by ZEFSAII (Michael W. Deem and Ramdas Pophale) SiO2 
 PCOD8089393
Probable space group: C 2/M
;
_chemical_formula_sum "Si O2"
_cell_formula_units_Z 48
_cell_length_a 14.520509
_cell_length_b 9.603786
_cell_length_c 20.136604
_cell_angle_alpha 90.000000
_cell_angle_beta 112.174363
_cell_angle_gamma 90.000000
_cell_volume 2600.399552
_symmetry_space_group_name_H-M "C 2/M"
_symmetry_group_IT_number 12
_symmetry_cell_setting 'monoclinic'
loop_
_space_group_symop_operation_xyz
x,y,z
-x,y,-z
-x,-y,-z
x,-y,z
1/2+x,1/2+y,z
1/2-x,1/2+y,-z
1/2-x,1/2-y,-z
1/2+x,1/2-y,z
loop_
_atom_site_type_symbol
_atom_site_label
_atom_site_fract_x
_atom_site_fract_y
_atom_site_fract_z
Si Si1 0.389482 0.157699 0.496069
Si Si2 0.889044 0.837537 0.990410
Si Si3 0.358189 0.337694 0.264669
Si Si4 0.071351 0.158083 0.371227
Si Si5 0.708274 0.660233 0.898396
Si Si6 0.256061 0.842060 0.339072
O O1 0.500000 0.167667 0.500000
O O2 0.377538 0.251961 0.557530
O O3 0.318021 0.215049 0.418949
O O4 0.359851 0.000000 0.507083
O O5 0.807751 0.752866 0.926250
O O6 0.875864 0.000000 0.970049
O O7 0.867977 0.806157 0.062376
O O8 0.000000 0.788053 0.000000
O O9 0.343344 0.500000 0.275136
O O10 0.464163 0.283753 0.320566
O O11 0.351364 0.305703 0.184817
O O12 0.272959 0.253511 0.279727
O O13 0.139662 0.165150 0.324413
O O14 0.063210 0.000000 0.395123
O O15 0.742673 0.500000 0.910768
O O16 0.289510 0.000000 0.331848
#
# Coordination Sequence:
#
# PCOD8089393 Si02
#       6
#     8   8   8   8   8   8
#     4  10  19  33  53  75 102 134 172 222 271 309
#     4   9  18  34  58  84 106 135 173 209 249 299
#     4  10  21  36  52  74 106 140 171 211 259 307
#     4  10  21  35  53  76 101 134 177 219 262 311
#     4   9  19  35  53  77 110 139 168 209 255 303
#     4  10  21  36  53  75 102 136 177 220 264 312
#
# _framework density 18.458701000000001
#
# number of rings (size 3 to 8) (size 9 to 14) (size 15 to 20)
#    0.000    2.333    1.667    0.500    0.000    4.000 
#    0.000    3.333    0.000    0.000    0.000    0.000 
#    0.000    0.000    0.000    0.000    0.000    0.000 
#
# Total GULP energy -297638.268490 kJ/mol
# GULP energy per Si atom -12401.594520 kJ/mol
# Density = 1.841669 g / cm^3
# Si number density = 18.458701 Si / 1000 Ang^3
#
#
#
# Elastic Constant Matrix: (Units=GPa)
#
#
# Indices 1 2 3 4 5 6 
#
# 1 93.6256 32.8188 26.1940 0.0000 -7.1737 0.0000
# 2 32.8188 56.2627 42.5984 0.0000 -7.1035 0.0000
# 3 26.1940 42.5984 89.4774 0.0000 -11.4136 0.0000
# 4 0.0000 0.0000 0.0000 30.9608 0.0000 -2.4854
# 5 -7.1737 -7.1035 -11.4136 0.0000 19.1207 0.0000
# 6 0.0000 0.0000 0.0000 -2.4854 0.0000 29.1638
#
#
#
# Elastic Compliance Matrix: (Units=1/GPa)
#
#
# Indices 1 2 3 4 5 6 
#
# 1 0.013518 -0.007541 -0.000084 0.000000 0.002220 0.000000
# 2 -0.007541 0.032121 -0.012906 0.000000 0.001400 0.000000
# 3 -0.000084 -0.012906 0.018108 0.000000 0.005983 0.000000
# 4 0.000000 0.000000 0.000000 0.032521 0.000000 0.002772
# 5 0.002220 0.001400 0.005983 0.000000 0.057224 0.000000
# 6 0.000000 0.000000 0.000000 0.002772 0.000000 0.034525
#
#
# Mechanical properties :
#
#
# Convention : Reuss Voigt Hill
#
# Bulk Modulus (GPa) = 44.08271 49.17646 46.62959
# Shear Modulus (GPa) = 21.12906 25.03270 23.08088
#
# Velocity S-wave (km/s) = 3.38696 3.68658 3.53994
# Velocity P-wave (km/s) = 6.26331 6.69480 6.48265
#
# Compressibility (1/GPa) = 0.02268463
#
# Stress axis : x y z
#
# Youngs Moduli (GPa) = 73.97601 31.13227 55.22443
#
# Poissons Ratio (x) = 0.23478 0.00463
# Poissons Ratio (y) = 0.55789 0.71272
# Poissons Ratio (z) = 0.00620 0.40179
#
# Static dielectric constant tensor:
#      x y z
#    x 3.424690 0.000000 0.012010 
#    y 0.000000 3.380820 0.000000 
#    z 0.012010 0.000000 3.300660 
# 
# 
# High freq. dielectric constant tensor:
#      x y z
#    x 1.719700 0.000000 -0.001010 
#    y 0.000000 1.710070 0.000000 
#    z -0.001010 0.000000 1.706580 
# 
# From -- ./inp_files/308300.got.cif
#   From: 2010.06.25/outbox.cif.g09.slc.cpg/sg12_155_cif.got.tgz:308300.got - 2010.06.28 00:19:55.
