data_PCOD8089857
_publ_section_title
;
Structure prediction by ZEFSAII (Michael W. Deem and Ramdas Pophale) SiO2 
 PCOD8089857
Probable space group: C 2/M
;
_chemical_formula_sum "Si O2"
_cell_formula_units_Z 48
_cell_length_a 24.833134
_cell_length_b 9.264146
_cell_length_c 12.332573
_cell_angle_alpha 90.000000
_cell_angle_beta 109.680180
_cell_angle_gamma 90.000000
_cell_volume 2671.475014
_symmetry_space_group_name_H-M "C 2/M"
_symmetry_group_IT_number 12
_symmetry_cell_setting 'monoclinic'
loop_
_space_group_symop_operation_xyz
x,y,z
-x,y,-z
-x,-y,-z
x,-y,z
1/2+x,1/2+y,z
1/2-x,1/2+y,-z
1/2-x,1/2-y,-z
1/2+x,1/2-y,z
loop_
_atom_site_type_symbol
_atom_site_label
_atom_site_fract_x
_atom_site_fract_y
_atom_site_fract_z
Si Si1 0.690373 0.166420 0.218237
Si Si2 0.305612 0.330806 0.994735
Si Si3 0.314071 0.330493 0.386175
Si Si4 0.106752 0.167334 0.757027
Si Si5 0.998055 0.330204 0.623248
Si Si6 0.373916 0.833765 0.610734
O O1 0.675035 0.267904 0.107340
O O2 0.750588 0.215537 0.309273
O O3 0.640868 0.188787 0.273350
O O4 0.693976 0.000000 0.182003
O O5 0.291667 0.500000 0.976185
O O6 0.250000 0.250000 0.000000
O O7 0.357734 0.301597 0.110855
O O8 0.318021 0.500000 0.407945
O O9 0.357159 0.278119 0.321785
O O10 0.329105 0.253671 0.508311
O O11 0.047962 0.254466 0.724891
O O12 0.091982 0.000000 0.734832
O O13 0.007086 0.500000 0.639537
O O14 0.000000 0.279166 0.500000
O O15 0.938282 0.279055 0.634503
O O16 0.367982 0.000000 0.572293
#
# Coordination Sequence:
#
# PCOD8089857 Si02
#       6
#     8   8   8   8   8   8
#     4  10  21  38  56  80 115 149 183 227 276 327
#     4  11  22  38  59  83 112 144 185 228 272 327
#     4  10  19  33  54  81 114 143 177 226 279 334
#     4  10  21  36  55  82 110 140 180 227 275 324
#     4  10  20  35  55  81 110 143 186 228 268 323
#     4  10  21  36  55  81 114 148 184 228 276 326
#
# _framework density 17.967603
#
# number of rings (size 3 to 8) (size 9 to 14) (size 15 to 20)
#    0.000    1.833    3.333    1.000    0.000    3.667 
#    0.000    0.833    0.000    5.000    0.000    0.000 
#    0.000    0.000    0.000    0.000    0.000    0.000 
#
# Total GULP energy -297716.062338 kJ/mol
# GULP energy per Si atom -12404.835931 kJ/mol
# Density = 1.792671 g / cm^3
# Si number density = 17.967603 Si / 1000 Ang^3
#
#
#
# Elastic Constant Matrix: (Units=GPa)
#
#
# Indices 1 2 3 4 5 6 
#
# 1 108.8829 34.9474 48.9018 0.0000 1.9051 0.0000
# 2 34.9474 60.7323 55.4172 0.0000 5.2676 0.0000
# 3 48.9018 55.4172 107.6424 0.0000 -0.3983 0.0000
# 4 0.0000 0.0000 0.0000 37.3003 0.0000 2.3728
# 5 1.9051 5.2676 -0.3983 0.0000 28.0373 0.0000
# 6 0.0000 0.0000 0.0000 2.3728 0.0000 26.1511
#
#
#
# Elastic Compliance Matrix: (Units=1/GPa)
#
#
# Indices 1 2 3 4 5 6 
#
# 1 0.011948 -0.003594 -0.003579 0.000000 -0.000188 0.000000
# 2 -0.003594 0.033200 -0.015483 0.000000 -0.006213 0.000000
# 3 -0.003579 -0.015483 0.018899 0.000000 0.003420 0.000000
# 4 0.000000 0.000000 0.000000 0.026965 0.000000 -0.002447
# 5 -0.000188 -0.006213 0.003420 0.000000 0.036895 0.000000
# 6 0.000000 0.000000 0.000000 -0.002447 0.000000 0.038461
#
#
# Mechanical properties :
#
#
# Convention : Reuss Voigt Hill
#
# Bulk Modulus (GPa) = 53.36837 61.75449 57.56143
# Shear Modulus (GPa) = 22.94362 27.49718 25.22040
#
# Velocity S-wave (km/s) = 3.57731 3.91625 3.75061
# Velocity P-wave (km/s) = 6.84324 7.40904 7.13175
#
# Compressibility (1/GPa) = 0.01873769
#
# Stress axis : x y z
#
# Youngs Moduli (GPa) = 83.69509 30.12020 52.91182
#
# Poissons Ratio (x) = 0.10824 0.18935
# Poissons Ratio (y) = 0.30077 0.81922
# Poissons Ratio (z) = 0.29951 0.46634
#
# Static dielectric constant tensor:
#      x y z
#    x 3.378010 0.000000 -0.057780 
#    y 0.000000 3.285500 0.000000 
#    z -0.057780 0.000000 3.295210 
# 
# 
# High freq. dielectric constant tensor:
#      x y z
#    x 1.698370 0.000000 -0.001230 
#    y 0.000000 1.692490 0.000000 
#    z -0.001230 0.000000 1.691990 
# 
# From -- ./inp_files/172093.got.cif
#   From: 2010.06.25/outbox.cif.g09.slc.cpg/sg12_87_cif.got.tgz:172093.got - 2010.06.28 00:19:55.
