data_PCOD8089886
_publ_section_title
;
Structure prediction by ZEFSAII (Michael W. Deem and Ramdas Pophale) SiO2 
 PCOD8089886
Probable space group: C 2/M
;
_chemical_formula_sum "Si O2"
_cell_formula_units_Z 56
_cell_length_a 20.345771
_cell_length_b 8.613626
_cell_length_c 30.068943
_cell_angle_alpha 90.000000
_cell_angle_beta 146.347936
_cell_angle_gamma 90.000000
_cell_volume 2920.143817
_symmetry_space_group_name_H-M "C 2/M"
_symmetry_group_IT_number 12
_symmetry_cell_setting 'monoclinic'
loop_
_space_group_symop_operation_xyz
x,y,z
-x,y,-z
-x,-y,-z
x,-y,z
1/2+x,1/2+y,z
1/2-x,1/2+y,-z
1/2-x,1/2-y,-z
1/2+x,1/2-y,z
loop_
_atom_site_type_symbol
_atom_site_label
_atom_site_fract_x
_atom_site_fract_y
_atom_site_fract_z
Si Si1 0.248650 0.320303 0.100466
Si Si2 0.713591 0.317357 0.334021
Si Si3 0.528854 0.180567 0.820665
Si Si4 0.434790 0.828308 0.510106
Si Si5 0.218495 0.820357 0.178041
Si Si6 0.014135 0.680180 0.915249
Si Si7 0.147786 0.820821 0.668726
O O1 0.245320 0.500000 0.112572
O O2 0.368652 0.284644 0.142132
O O3 0.240211 0.214667 0.138936
O O4 0.140704 0.278293 0.007186
O O5 0.687069 0.500000 0.319912
O O6 0.593403 0.221423 0.273190
O O7 0.801069 0.269609 0.424224
O O8 0.772814 0.278990 0.320083
O O9 0.516027 0.226790 0.864844
O O10 0.559135 0.000000 0.831546
O O11 0.500000 0.835866 0.500000
O O12 0.507111 0.715216 0.583788
O O13 0.431777 0.000000 0.529917
O O14 0.312721 0.720637 0.259338
O O15 0.084030 0.779756 0.114795
O O16 0.242194 0.000000 0.200603
O O17 0.981681 0.500000 0.903063
O O18 0.171555 0.000000 0.672175
#
# Coordination Sequence:
#
# PCOD8089886 Si02
#       7
#     8   8   8   8   8   8   8
#     4  11  24  41  59  81 115 153 191 236 289 340
#     4  10  19  33  54  82 114 150 188 229 280 332
#     4  11  22  37  59  86 117 151 192 235 280 338
#     4   8  16  30  49  77 113 146 182 228 277 330
#     4  12  24  38  59  84 114 151 193 237 285 340
#     4  10  22  40  61  85 113 148 189 239 288 335
#     4  11  20  32  53  82 114 147 187 232 283 335
#
# _framework density 19.177136999999998
#
# number of rings (size 3 to 8) (size 9 to 14) (size 15 to 20)
#    0.000    1.571    1.429    5.571    0.000    6.571 
#    0.000    0.000    0.000    0.857    0.000    0.000 
#    0.000    0.000    0.000    0.000    0.000    0.000 
#
# Total GULP energy -347276.768788 kJ/mol
# GULP energy per Si atom -12402.741742 kJ/mol
# Density = 1.913349 g / cm^3
# Si number density = 19.177137 Si / 1000 Ang^3
#
#
#
# Elastic Constant Matrix: (Units=GPa)
#
#
# Indices 1 2 3 4 5 6 
#
# 1 117.3388 23.9696 39.4555 0.0002 45.7031 -0.0008
# 2 23.9696 60.2106 30.9259 0.0002 8.0430 -0.0002
# 3 39.4555 30.9259 146.0119 0.0000 18.9995 -0.0002
# 4 0.0002 0.0002 0.0000 33.0860 0.0001 1.2415
# 5 45.7031 8.0430 18.9995 0.0001 37.3500 -0.0005
# 6 -0.0008 -0.0002 -0.0002 1.2415 -0.0005 26.9575
#
#
#
# Elastic Compliance Matrix: (Units=1/GPa)
#
#
# Indices 1 2 3 4 5 6 
#
# 1 0.017471 -0.003592 -0.001370 0.000000 -0.019907 0.000000
# 2 -0.003592 0.019537 -0.003418 0.000000 0.001927 0.000000
# 3 -0.001370 -0.003418 0.008170 0.000000 -0.001744 0.000000
# 4 0.000000 0.000000 0.000000 0.030277 0.000000 -0.001394
# 5 -0.019907 0.001927 -0.001744 0.000000 0.051605 0.000000
# 6 0.000000 0.000000 0.000000 -0.001394 0.000000 0.037160
#
#
# Mechanical properties :
#
#
# Convention : Reuss Voigt Hill
#
# Bulk Modulus (GPa) = 35.19009 56.91814 46.05411
# Shear Modulus (GPa) = 26.25353 34.75941 30.50647
#
# Velocity S-wave (km/s) = 3.70402 4.26202 3.99278
# Velocity P-wave (km/s) = 6.05664 7.34604 6.73228
#
# Compressibility (1/GPa) = 0.02841709
#
# Stress axis : x y z
#
# Youngs Moduli (GPa) = 57.23905 51.18612 122.40318
#
# Poissons Ratio (x) = 0.18387 0.16765
# Poissons Ratio (y) = 0.20562 0.41837
# Poissons Ratio (z) = 0.07840 0.17495
#
# Static dielectric constant tensor:
#      x y z
#    x 3.152990 0.000000 0.068040 
#    y 0.000000 3.482360 0.000000 
#    z 0.068040 0.000000 3.985230 
# 
# 
# High freq. dielectric constant tensor:
#      x y z
#    x 1.705340 0.000000 0.004220 
#    y 0.000000 1.750930 0.000000 
#    z 0.004220 0.000000 1.767650 
# 
# From -- ./inp_files/380820.got.cif
#   From: 2010.06.25/outbox.cif.g09.slc.cpg/sg12_191_cif.got.tgz:380820.got - 2010.06.28 00:19:55.
