data_PCOD8089898
_publ_section_title
;
Structure prediction by ZEFSAII (Michael W. Deem and Ramdas Pophale) SiO2 
 PCOD8089898
Probable space group: C 2/M
;
_chemical_formula_sum "Si O2"
_cell_formula_units_Z 56
_cell_length_a 18.155279
_cell_length_b 26.591450
_cell_length_c 8.872626
_cell_angle_alpha 90.000000
_cell_angle_beta 135.541128
_cell_angle_gamma 90.000000
_cell_volume 3000.139583
_symmetry_space_group_name_H-M "C 2/M"
_symmetry_group_IT_number 12
_symmetry_cell_setting 'monoclinic'
loop_
_space_group_symop_operation_xyz
x,y,z
-x,y,-z
-x,-y,-z
x,-y,z
1/2+x,1/2+y,z
1/2-x,1/2+y,-z
1/2-x,1/2-y,-z
1/2+x,1/2-y,z
loop_
_atom_site_type_symbol
_atom_site_label
_atom_site_fract_x
_atom_site_fract_y
_atom_site_fract_z
Si Si1 0.692750 0.440637 0.153415
Si Si2 0.705818 0.445706 0.516086
Si Si3 0.272118 0.307799 0.009191
Si Si4 0.051823 0.848650 0.915968
Si Si5 0.615709 0.107260 0.742361
Si Si6 0.096173 0.135965 0.547737
Si Si7 0.417304 0.055554 0.991126
O O1 0.668118 0.500000 0.096230
O O2 0.705609 0.424229 0.346278
O O3 0.801499 0.428312 0.225133
O O4 0.593842 0.406621 0.952271
O O5 0.648247 0.500000 0.431730
O O6 0.654478 0.410601 0.563186
O O7 0.822477 0.452305 0.740394
O O8 0.348183 0.313241 0.974290
O O9 0.326885 0.330103 0.239293
O O10 0.250000 0.250000 0.000000
O O11 0.162582 0.336341 0.815160
O O12 0.957972 0.832691 0.665914
O O13 0.000000 0.838606 0.000000
O O14 0.500000 0.106798 0.500000
O O15 0.606618 0.089273 0.900174
O O16 0.000000 0.112665 0.500000
O O17 0.456336 0.000000 0.102588
O O18 0.500000 0.082459 0.000000
#
# Coordination Sequence:
#
# PCOD8089898 Si02
#       7
#     8   8   8   8   8   8   8
#     4  10  21  35  56  89 125 161 196 230 276 342
#     4  10  19  33  54  82 120 157 192 229 273 339
#     4  10  23  43  63  83 111 148 194 251 307 354
#     4  10  20  37  63  88 119 153 190 235 289 344
#     4  11  22  37  59  83 113 152 198 248 299 350
#     4  10  20  37  59  83 115 156 185 234 288 343
#     4  10  20  34  53  80 116 157 195 234 282 339
#
# _framework density 18.665797999999999
#
# number of rings (size 3 to 8) (size 9 to 14) (size 15 to 20)
#    0.000    1.857    2.857    1.286    0.000    5.143 
#    0.000    1.429    0.000    0.000    0.000    0.000 
#    0.000    0.000    0.000    0.000    0.000    0.000 
#
# Total GULP energy -346901.104082 kJ/mol
# GULP energy per Si atom -12389.325146 kJ/mol
# Density = 1.862331 g / cm^3
# Si number density = 18.665798 Si / 1000 Ang^3
#
#
#
# Elastic Constant Matrix: (Units=GPa)
#
#
# Indices 1 2 3 4 5 6 
#
# 1 139.9396 54.6497 28.5363 0.0000 -9.8197 0.0000
# 2 54.6497 106.5480 19.3478 0.0000 0.5051 0.0000
# 3 28.5363 19.3478 84.0132 0.0000 -2.4830 0.0000
# 4 0.0000 0.0000 0.0000 1.7498 0.0000 3.8954
# 5 -9.8197 0.5051 -2.4830 0.0000 25.8079 0.0000
# 6 0.0000 0.0000 0.0000 3.8954 0.0000 16.5422
#
#
#
# Elastic Compliance Matrix: (Units=1/GPa)
#
#
# Indices 1 2 3 4 5 6 
#
# 1 0.009605 -0.004561 -0.002108 0.000000 0.003541 0.000000
# 2 -0.004561 0.011965 -0.001268 0.000000 -0.002092 0.000000
# 3 -0.002108 -0.001268 0.012925 0.000000 0.000466 0.000000
# 4 0.000000 0.000000 0.000000 1.201253 0.000000 -0.282876
# 5 0.003541 -0.002092 0.000466 0.000000 0.040181 0.000000
# 6 0.000000 0.000000 0.000000 -0.282876 0.000000 0.127064
#
#
# Mechanical properties :
#
#
# Convention : Reuss Voigt Hill
#
# Bulk Modulus (GPa) = 53.70048 59.50761 56.60405
# Shear Modulus (GPa) = 3.50859 24.01779 13.76319
#
# Velocity S-wave (km/s) = 1.37251 3.59099 2.71836
# Velocity P-wave (km/s) = 5.59854 7.01023 6.34378
#
# Compressibility (1/GPa) = 0.01862181
#
# Stress axis : x y z
#
# Youngs Moduli (GPa) = 104.10927 83.57785 77.37187
#
# Poissons Ratio (x) = 0.38118 0.16307
# Poissons Ratio (y) = 0.47482 0.09812
# Poissons Ratio (z) = 0.21942 0.10599
#
# Static dielectric constant tensor:
#      x y z
#    x 3.482930 0.000000 -0.007730 
#    y 0.000000 3.152450 0.000000 
#    z -0.007730 0.000000 3.781410 
# 
# 
# High freq. dielectric constant tensor:
#      x y z
#    x 1.743310 0.000000 -0.001400 
#    y 0.000000 1.690190 0.000000 
#    z -0.001400 0.000000 1.734650 
# 
# From -- ./inp_files/53136.got.cif
#   From: 2010.06.25/outbox.cif.g09.slc.cpg/sg12_27_cif.got.tgz:53136.got - 2010.06.28 00:19:55.
