data_PCOD8089969
_publ_section_title
;
Structure prediction by ZEFSAII (Michael W. Deem and Ramdas Pophale) SiO2 
 PCOD8089969
Probable space group: C 2/M
;
_chemical_formula_sum "Si O2"
_cell_formula_units_Z 56
_cell_length_a 31.936129
_cell_length_b 8.874361
_cell_length_c 11.879936
_cell_angle_alpha 90.000000
_cell_angle_beta 62.551477
_cell_angle_gamma 90.000000
_cell_volume 2987.894694
_symmetry_space_group_name_H-M "C 2/M"
_symmetry_group_IT_number 12
_symmetry_cell_setting 'monoclinic'
loop_
_space_group_symop_operation_xyz
x,y,z
-x,y,-z
-x,-y,-z
x,-y,z
1/2+x,1/2+y,z
1/2-x,1/2+y,-z
1/2-x,1/2-y,-z
1/2+x,1/2-y,z
loop_
_atom_site_type_symbol
_atom_site_label
_atom_site_fract_x
_atom_site_fract_y
_atom_site_fract_z
Si Si1 0.954991 0.321728 0.702473
Si Si2 0.624979 0.677480 0.073233
Si Si3 0.060125 0.322086 0.529844
Si Si4 0.835120 0.178245 0.216811
Si Si5 0.294385 0.821773 0.885512
Si Si6 0.729207 0.822025 0.332776
Si Si7 0.143195 0.679302 0.584654
O O1 0.947590 0.500000 0.727000
O O2 0.927990 0.232060 0.834534
O O3 0.935957 0.265781 0.603999
O O4 0.009884 0.276542 0.645625
O O5 0.630523 0.500000 0.081672
O O6 0.657741 0.761298 0.121730
O O7 0.638938 0.726303 0.930000
O O8 0.064141 0.500000 0.520685
O O9 0.102054 0.255403 0.554664
O O10 0.781748 0.245184 0.282652
O O11 0.863936 0.252538 0.282983
O O12 0.835155 0.000000 0.231995
O O13 0.293249 0.771046 0.757312
O O14 0.291870 0.000000 0.902349
O O15 0.250000 0.750000 0.000000
O O16 0.694004 0.765586 0.474194
O O17 0.733561 0.000000 0.329154
O O18 0.140330 0.500000 0.594319
#
# Coordination Sequence:
#
# PCOD8089969 Si02
#       7
#     8   8   8   8   8   8   8
#     4   9  17  34  60  83 104 136 172 212 270 329
#     4  11  22  36  52  76 111 145 177 217 263 312
#     4   8  16  33  57  84 109 130 166 222 275 319
#     4  10  21  37  50  68 107 148 176 214 264 310
#     4  11  20  34  55  79 108 141 174 214 264 315
#     4   9  18  34  54  75 104 139 172 215 267 308
#     4  10  19  33  55  79 100 132 180 223 259 309
#
# _framework density 18.742294000000001
#
# number of rings (size 3 to 8) (size 9 to 14) (size 15 to 20)
#    0.000    2.286    1.429    3.000    0.000    3.429 
#    0.000    6.429    0.000    4.286    0.000    0.000 
#    0.000    0.000    0.000    0.000    0.000    0.000 
#
# Total GULP energy -347175.645694 kJ/mol
# GULP energy per Si atom -12399.130203 kJ/mol
# Density = 1.869964 g / cm^3
# Si number density = 18.742294 Si / 1000 Ang^3
#
#
#
# Elastic Constant Matrix: (Units=GPa)
#
#
# Indices 1 2 3 4 5 6 
#
# 1 109.1643 21.6107 66.0407 0.0000 1.0330 0.0000
# 2 21.6107 36.5239 28.8894 0.0000 1.7503 0.0000
# 3 66.0407 28.8894 128.4492 0.0000 -2.5250 0.0000
# 4 0.0000 0.0000 0.0000 30.4560 0.0000 -0.7079
# 5 1.0330 1.7503 -2.5250 0.0000 31.9846 0.0000
# 6 0.0000 0.0000 0.0000 -0.7079 0.0000 24.6732
#
#
#
# Elastic Compliance Matrix: (Units=1/GPa)
#
#
# Indices 1 2 3 4 5 6 
#
# 1 0.013589 -0.002999 -0.006328 0.000000 -0.000774 0.000000
# 2 -0.002999 0.034153 -0.006184 0.000000 -0.002260 0.000000
# 3 -0.006328 -0.006184 0.012459 0.000000 0.001526 0.000000
# 4 0.000000 0.000000 0.000000 0.032856 0.000000 0.000943
# 5 -0.000774 -0.002260 0.001526 0.000000 0.031534 0.000000
# 6 0.000000 0.000000 0.000000 0.000943 0.000000 0.040557
#
#
# Mechanical properties :
#
#
# Convention : Reuss Voigt Hill
#
# Bulk Modulus (GPa) = 34.26843 56.35766 45.31305
# Shear Modulus (GPa) = 24.28394 27.92921 26.10657
#
# Velocity S-wave (km/s) = 3.60345 3.86446 3.73624
# Velocity P-wave (km/s) = 5.96966 7.07440 6.54538
#
# Compressibility (1/GPa) = 0.02918137
#
# Stress axis : x y z
#
# Youngs Moduli (GPa) = 73.58629 29.27968 80.26088
#
# Poissons Ratio (x) = 0.08780 0.50787
# Poissons Ratio (y) = 0.22065 0.49635
# Poissons Ratio (z) = 0.46563 0.18107
#
# Static dielectric constant tensor:
#      x y z
#    x 4.049230 0.000000 -0.019250 
#    y 0.000000 3.084600 0.000000 
#    z -0.019250 0.000000 3.566660 
# 
# 
# High freq. dielectric constant tensor:
#      x y z
#    x 1.726370 0.000000 -0.003940 
#    y 0.000000 1.695770 0.000000 
#    z -0.003940 0.000000 1.735420 
# 
# From -- ./inp_files/186812.got.cif
#   From: 2010.06.25/outbox.cif.g09.slc.cpg/sg12_94_cif.got.tgz:186812.got - 2010.06.28 00:19:55.
