data_PCOD8089089
_publ_section_title
;
Structure prediction by ZEFSAII (Michael W. Deem and Ramdas Pophale) SiO2 
 PCOD8089089
Probable space group: C 2/M
;
_chemical_formula_sum "Si O2"
_cell_formula_units_Z 64
_cell_length_a 25.214074
_cell_length_b 12.796356
_cell_length_c 10.953934
_cell_angle_alpha 90.000000
_cell_angle_beta 87.254947
_cell_angle_gamma 90.000000
_cell_volume 3530.212340
_symmetry_space_group_name_H-M "C 2/M"
_symmetry_group_IT_number 12
_symmetry_cell_setting 'monoclinic'
loop_
_space_group_symop_operation_xyz
x,y,z
-x,y,-z
-x,-y,-z
x,-y,z
1/2+x,1/2+y,z
1/2-x,1/2+y,-z
1/2-x,1/2-y,-z
1/2+x,1/2-y,z
loop_
_atom_site_type_symbol
_atom_site_label
_atom_site_fract_x
_atom_site_fract_y
_atom_site_fract_z
Si Si1 0.544847 0.772123 0.734112
Si Si2 0.177876 0.121672 0.317021
Si Si3 0.942719 0.621210 0.669488
Si Si4 0.299355 0.119108 0.349298
Si Si5 0.472464 0.386453 0.875885
Si Si6 0.122555 0.742005 0.129909
Si Si7 0.629473 0.877397 0.887956
Si Si8 0.878931 0.250696 0.485111
O O1 0.505442 0.854124 0.673191
O O2 0.509202 0.676651 0.780459
O O3 0.573945 0.832093 0.842021
O O4 0.588110 0.720371 0.639074
O O5 0.237319 0.143196 0.353809
O O6 0.167872 0.200815 0.205191
O O7 0.138001 0.150096 0.432976
O O8 0.169395 0.000000 0.281924
O O9 0.935216 0.500000 0.651225
O O10 0.910432 0.655592 0.792701
O O11 0.918305 0.676215 0.555184
O O12 0.323682 0.142549 0.213541
O O13 0.325652 0.188666 0.451751
O O14 0.310909 0.000000 0.384298
O O15 0.462366 0.500000 0.817084
O O16 0.416468 0.333287 0.907728
O O17 0.500000 0.400223 0.000000
O O18 0.146598 0.684046 0.008947
O O19 0.622008 0.000000 0.917182
#
# Coordination Sequence:
#
# PCOD8089089 Si02
#       8
#     8   8   8   8   8   8   8   8
#     4  10  20  33  50  79 107 136 171 207 248 303
#     4  10  21  37  55  74 100 136 175 215 258 301
#     4  10  20  32  50  77 109 140 169 204 249 302
#     4   9  19  35  56  79 102 132 168 210 262 311
#     4  10  19  33  51  71 100 135 168 205 246 292
#     4  10  20  34  51  76 102 135 175 212 250 300
#     4  10  19  33  53  77 106 136 168 209 257 308
#     4  10  20  34  54  77 105 134 170 211 254 301
#
# _framework density 18.129221000000001
#
# number of rings (size 3 to 8) (size 9 to 14) (size 15 to 20)
#    0.000    2.125    1.250    2.250    0.000    3.000 
#    0.000    1.875    0.000    5.250    0.000    0.000 
#    0.000    0.000    0.000    0.000    0.000    0.000 
#
# Total GULP energy -396753.935982 kJ/mol
# GULP energy per Si atom -12398.560499 kJ/mol
# Density = 1.808796 g / cm^3
# Si number density = 18.129221 Si / 1000 Ang^3
#
#
#
# Elastic Constant Matrix: (Units=GPa)
#
#
# Indices 1 2 3 4 5 6 
#
# 1 59.3118 13.9253 13.1525 0.0000 4.1869 0.0000
# 2 13.9253 79.7165 21.5342 0.0000 -3.8114 0.0000
# 3 13.1525 21.5342 72.7051 0.0000 5.3798 0.0000
# 4 0.0000 0.0000 0.0000 22.9819 0.0000 -2.8513
# 5 4.1869 -3.8114 5.3798 0.0000 22.8940 0.0000
# 6 0.0000 0.0000 0.0000 -2.8513 0.0000 24.4085
#
#
#
# Elastic Compliance Matrix: (Units=1/GPa)
#
#
# Indices 1 2 3 4 5 6 
#
# 1 0.018230 -0.002733 -0.002247 0.000000 -0.003261 0.000000
# 2 -0.002733 0.014291 -0.004021 0.000000 0.003824 0.000000
# 3 -0.002247 -0.004021 0.015643 0.000000 -0.003934 0.000000
# 4 0.000000 0.000000 0.000000 0.044152 0.000000 0.005158
# 5 -0.003261 0.003824 -0.003934 0.000000 0.045837 0.000000
# 6 0.000000 0.000000 0.000000 0.005158 0.000000 0.041572
#
#
# Mechanical properties :
#
#
# Convention : Reuss Voigt Hill
#
# Bulk Modulus (GPa) = 33.15571 34.32860 33.74215
# Shear Modulus (GPa) = 24.06360 24.93163 24.49761
#
# Velocity S-wave (km/s) = 3.64722 3.71242 3.67996
# Velocity P-wave (km/s) = 6.00537 6.11168 6.05876
#
# Compressibility (1/GPa) = 0.03016072
#
# Stress axis : x y z
#
# Youngs Moduli (GPa) = 54.85374 69.97379 63.92705
#
# Poissons Ratio (x) = 0.19127 0.14364
# Poissons Ratio (y) = 0.14994 0.25707
# Poissons Ratio (z) = 0.12326 0.28138
#
# Static dielectric constant tensor:
#      x y z
#    x 3.333600 0.000000 0.095350 
#    y 0.000000 3.426130 0.000000 
#    z 0.095350 0.000000 3.311210 
# 
# 
# High freq. dielectric constant tensor:
#      x y z
#    x 1.702190 0.000000 0.007080 
#    y 0.000000 1.700360 0.000000 
#    z 0.007080 0.000000 1.703000 
# 
# From -- ./inp_files/174642.got.cif
#   From: 2010.06.25/outbox.cif.g09.slc.cpg/sg12_88_cif.got.tgz:174642.got - 2010.06.28 00:19:55.
