data_PCOD8089637
_publ_section_title
;
Structure prediction by ZEFSAII (Michael W. Deem and Ramdas Pophale) SiO2 
 PCOD8089637
Probable space group: C 2/M
;
_chemical_formula_sum "Si O2"
_cell_formula_units_Z 64
_cell_length_a 11.829709
_cell_length_b 17.958089
_cell_length_c 21.288172
_cell_angle_alpha 90.000000
_cell_angle_beta 135.573600
_cell_angle_gamma 90.000000
_cell_volume 3165.672043
_symmetry_space_group_name_H-M "C 2/M"
_symmetry_group_IT_number 12
_symmetry_cell_setting 'monoclinic'
loop_
_space_group_symop_operation_xyz
x,y,z
-x,y,-z
-x,-y,-z
x,-y,z
1/2+x,1/2+y,z
1/2-x,1/2+y,-z
1/2-x,1/2-y,-z
1/2+x,1/2-y,z
loop_
_atom_site_type_symbol
_atom_site_label
_atom_site_fract_x
_atom_site_fract_y
_atom_site_fract_z
Si Si1 0.628023 0.413676 0.105841
Si Si2 0.563680 0.309732 0.197953
Si Si3 0.430969 0.366362 0.563662
Si Si4 0.549665 0.080764 0.586500
Si Si5 0.448901 0.173050 0.209960
Si Si6 0.426953 0.781168 0.335354
Si Si7 0.093499 0.919720 0.308376
Si Si8 0.753394 0.914875 0.374449
O O1 0.651318 0.500000 0.138273
O O2 0.560868 0.358933 0.133551
O O3 0.795977 0.381918 0.144883
O O4 0.500000 0.411664 0.000000
O O5 0.458904 0.232186 0.155209
O O6 0.742834 0.280577 0.286135
O O7 0.492815 0.360089 0.227430
O O8 0.473955 0.279568 0.586866
O O9 0.367858 0.395518 0.605274
O O10 0.292077 0.374255 0.456134
O O11 0.589096 0.412677 0.607233
O O12 0.500000 0.114658 0.500000
O O13 0.494802 0.137475 0.618897
O O14 0.741356 0.071377 0.664647
O O15 0.466372 0.000000 0.564943
O O16 0.435506 0.228508 0.264298
O O17 0.608975 0.123472 0.278964
O O18 0.003892 0.000000 0.273409
O O19 0.706863 0.000000 0.369451
#
# Coordination Sequence:
#
# PCOD8089637 Si02
#       8
#     8   8   8   8   8   8   8   8
#     4  10  23  44  69  95 123 153 189 241 312 383
#     4  10  20  38  60  90 120 146 193 243 294 359
#     4  11  21  35  52  75 114 161 205 250 282 335
#     4   9  20  33  47  70 101 141 196 254 298 344
#     4  11  22  38  62  87 118 155 197 245 302 357
#     4  10  21  34  53  78 111 150 190 243 293 340
#     4  10  19  33  54  76 108 154 197 241 289 342
#     4  11  24  37  52  77 114 161 211 252 287 339
#
# _framework density 20.216877
#
# number of rings (size 3 to 8) (size 9 to 14) (size 15 to 20)
#    0.000    1.750    2.500    2.250    3.500    4.500 
#    0.000    0.000    0.000    0.000    0.000    0.000 
#    0.000   10.500    0.000    0.000    0.000    0.000 
#
# Total GULP energy -396563.418209 kJ/mol
# GULP energy per Si atom -12392.606819 kJ/mol
# Density = 2.017086 g / cm^3
# Si number density = 20.216877 Si / 1000 Ang^3
#
#
#
# Elastic Constant Matrix: (Units=GPa)
#
#
# Indices 1 2 3 4 5 6 
#
# 1 64.3065 42.9073 20.2342 0.0000 -3.2704 0.0000
# 2 42.9073 162.9224 45.3050 0.0000 -6.0617 0.0000
# 3 20.2342 45.3050 67.6280 0.0000 2.6005 0.0000
# 4 0.0000 0.0000 0.0000 29.9579 0.0000 -4.0999
# 5 -3.2704 -6.0617 2.6005 0.0000 20.4264 0.0000
# 6 0.0000 0.0000 0.0000 -4.0999 0.0000 22.2672
#
#
#
# Elastic Compliance Matrix: (Units=1/GPa)
#
#
# Indices 1 2 3 4 5 6 
#
# 1 0.019424 -0.004167 -0.003107 0.000000 0.002269 0.000000
# 2 -0.004167 0.008611 -0.004617 0.000000 0.002476 0.000000
# 3 -0.003107 -0.004617 0.018974 0.000000 -0.004283 0.000000
# 4 0.000000 0.000000 0.000000 0.034243 0.000000 0.006305
# 5 0.002269 0.002476 -0.004283 0.000000 0.050600 0.000000
# 6 0.000000 0.000000 0.000000 0.006305 0.000000 0.046070
#
#
# Mechanical properties :
#
#
# Convention : Reuss Voigt Hill
#
# Bulk Modulus (GPa) = 43.05441 56.86109 49.95775
# Shear Modulus (GPa) = 23.87226 26.95767 25.41497
#
# Velocity S-wave (km/s) = 3.44002 3.65557 3.54943
# Velocity P-wave (km/s) = 6.09268 6.78264 6.44690
#
# Compressibility (1/GPa) = 0.02322642
#
# Stress axis : x y z
#
# Youngs Moduli (GPa) = 51.48262 116.12462 52.70249
#
# Poissons Ratio (x) = 0.48389 0.16376
# Poissons Ratio (y) = 0.21453 0.24335
# Poissons Ratio (z) = 0.15997 0.53619
#
# Static dielectric constant tensor:
#      x y z
#    x 3.653150 0.000000 -0.066590 
#    y 0.000000 4.087820 0.000000 
#    z -0.066590 0.000000 3.245710 
# 
# 
# High freq. dielectric constant tensor:
#      x y z
#    x 1.787210 0.000000 -0.008100 
#    y 0.000000 1.811710 0.000000 
#    z -0.008100 0.000000 1.741150 
# 
# From -- ./inp_files/306241.got.cif
#   From: 2010.06.25/outbox.cif.g09.slc.cpg/sg12_154_cif.got.tgz:306241.got - 2010.06.28 00:19:55.
