data_PCOD8089496
_publ_section_title
;
Structure prediction by ZEFSAII (Michael W. Deem and Ramdas Pophale) SiO2 
 PCOD8089496
Probable space group: C 2/M
;
_chemical_formula_sum "Si O2"
_cell_formula_units_Z 56
_cell_length_a 15.406161
_cell_length_b 8.777476
_cell_length_c 24.504976
_cell_angle_alpha 90.000000
_cell_angle_beta 61.985707
_cell_angle_gamma 90.000000
_cell_volume 2925.470135
_symmetry_space_group_name_H-M "C 2/M"
_symmetry_group_IT_number 12
_symmetry_cell_setting 'monoclinic'
loop_
_space_group_symop_operation_xyz
x,y,z
-x,y,-z
-x,-y,-z
x,-y,z
1/2+x,1/2+y,z
1/2-x,1/2+y,-z
1/2-x,1/2-y,-z
1/2+x,1/2-y,z
loop_
_atom_site_type_symbol
_atom_site_label
_atom_site_fract_x
_atom_site_fract_y
_atom_site_fract_z
Si Si1 0.675822 0.180865 0.565461
Si Si2 0.740618 0.181256 0.350704
Si Si3 0.020834 0.680390 0.433826
Si Si4 0.063107 0.819202 0.131277
Si Si5 0.902848 0.181135 0.999887
Si Si6 0.342768 0.680923 0.210373
Si Si7 0.241141 0.680834 0.131120
O O1 0.750000 0.250000 0.500000
O O2 0.699226 0.243702 0.618085
O O3 0.564739 0.232535 0.582551
O O4 0.686488 0.000000 0.561169
O O5 0.627582 0.238546 0.382692
O O6 0.790035 0.239964 0.280465
O O7 0.746657 0.000000 0.355485
O O8 0.022017 0.500000 0.437352
O O9 0.000000 0.749387 0.500000
O O10 0.099896 0.759469 0.061358
O O11 0.132927 0.749624 0.156811
O O12 0.953943 0.757275 0.175401
O O13 0.066140 0.000000 0.133263
O O14 0.907286 0.000000 0.999795
O O15 0.808408 0.240221 0.061105
O O16 0.000000 0.247449 0.000000
O O17 0.343412 0.500000 0.208326
O O18 0.284682 0.743620 0.174978
O O19 0.235268 0.500000 0.133407
#
# Coordination Sequence:
#
# PCOD8089496 Si02
#       7
#     8   8   8   8   8   8   8
#     4  11  21  35  57  84 110 138 172 214 263 314
#     4  10  20  37  57  77 104 139 179 219 258 311
#     4   9  17  32  54  77 102 134 167 203 254 309
#     4  10  19  33  53  78 106 138 175 221 273 315
#     4   9  15  28  53  77 101 136 180 223 262 316
#     4   9  19  35  55  75 101 142 183 212 254 323
#     4  10  19  33  54  79 103 137 183 222 261 317
#
# _framework density 19.142223000000001
#
# number of rings (size 3 to 8) (size 9 to 14) (size 15 to 20)
#    0.000    2.286    2.857    0.857    0.000    1.143 
#    0.000    5.714    0.000    0.857    0.000    0.000 
#    0.000    0.000    0.000    0.000    0.000    0.000 
#
# Total GULP energy -347174.863865 kJ/mol
# GULP energy per Si atom -12399.102281 kJ/mol
# Density = 1.909865 g / cm^3
# Si number density = 19.142223 Si / 1000 Ang^3
#
#
#
# Elastic Constant Matrix: (Units=GPa)
#
#
# Indices 1 2 3 4 5 6 
#
# 1 204.1134 28.1749 97.9355 0.0000 -3.3754 0.0000
# 2 28.1749 24.0153 24.3127 0.0000 1.0707 0.0000
# 3 97.9355 24.3127 173.8132 0.0000 1.2314 0.0000
# 4 0.0000 0.0000 0.0000 13.7907 0.0000 3.9179
# 5 -3.3754 1.0707 1.2314 0.0000 21.5227 0.0000
# 6 0.0000 0.0000 0.0000 3.9179 0.0000 29.2087
#
#
#
# Elastic Compliance Matrix: (Units=1/GPa)
#
#
# Indices 1 2 3 4 5 6 
#
# 1 0.007260 -0.005168 -0.003379 0.000000 0.001589 0.000000
# 2 -0.005168 0.052276 -0.004378 0.000000 -0.003160 0.000000
# 3 -0.003379 -0.004378 0.008275 0.000000 -0.000786 0.000000
# 4 0.000000 0.000000 0.000000 0.075385 0.000000 -0.010112
# 5 0.001589 -0.003160 -0.000786 0.000000 0.046914 0.000000
# 6 0.000000 0.000000 0.000000 -0.010112 0.000000 0.035593
#
#
# Mechanical properties :
#
#
# Convention : Reuss Voigt Hill
#
# Bulk Modulus (GPa) = 23.83126 78.08757 50.95941
# Shear Modulus (GPa) = 18.82951 29.67234 24.25092
#
# Velocity S-wave (km/s) = 3.13974 3.94140 3.56319
# Velocity P-wave (km/s) = 5.06168 7.84823 6.60361
#
# Compressibility (1/GPa) = 0.04196169
#
# Stress axis : x y z
#
# Youngs Moduli (GPa) = 137.73741 19.12919 120.84125
#
# Poissons Ratio (x) = 0.09885 0.40835
# Poissons Ratio (y) = 0.71176 0.52907
# Poissons Ratio (z) = 0.46544 0.08375
#
# Static dielectric constant tensor:
#      x y z
#    x 3.780450 0.000000 -0.024830 
#    y 0.000000 2.971520 0.000000 
#    z -0.024830 0.000000 3.734040 
# 
# 
# High freq. dielectric constant tensor:
#      x y z
#    x 1.763020 0.000000 -0.001560 
#    y 0.000000 1.693690 0.000000 
#    z -0.001560 0.000000 1.746500 
# 
# From -- ./inp_files/308984.got.cif
#   From: 2010.06.25/outbox.cif.g09.slc.cpg/sg12_155_cif.got.tgz:308984.got - 2010.06.28 00:19:55.
