data_PCOD8089997
_publ_section_title
;
Structure prediction by ZEFSAII (Michael W. Deem and Ramdas Pophale) SiO2 
 PCOD8089997
Probable space group: C 2/M
;
_chemical_formula_sum "Si O2"
_cell_formula_units_Z 48
_cell_length_a 30.934838
_cell_length_b 9.009215
_cell_length_c 8.936636
_cell_angle_alpha 90.000000
_cell_angle_beta 90.069413
_cell_angle_gamma 90.000000
_cell_volume 2490.626173
_symmetry_space_group_name_H-M "C 2/M"
_symmetry_group_IT_number 12
_symmetry_cell_setting 'monoclinic'
loop_
_space_group_symop_operation_xyz
x,y,z
-x,y,-z
-x,-y,-z
x,-y,z
1/2+x,1/2+y,z
1/2-x,1/2+y,-z
1/2-x,1/2-y,-z
1/2+x,1/2-y,z
loop_
_atom_site_type_symbol
_atom_site_label
_atom_site_fract_x
_atom_site_fract_y
_atom_site_fract_z
Si Si1 0.338906 0.175670 0.838448
Si Si2 0.495149 0.675841 0.166997
Si Si3 0.755119 0.673755 0.657649
Si Si4 0.327825 0.325288 0.153433
Si Si5 0.911658 0.175756 0.336340
Si Si6 0.416980 0.324390 0.674130
O O1 0.299798 0.226387 0.731549
O O2 0.382768 0.246306 0.780218
O O3 0.343463 0.000000 0.843340
O O4 0.329258 0.233915 0.002524
O O5 0.490870 0.500000 0.156027
O O6 0.452106 0.742500 0.243966
O O7 0.535806 0.721391 0.267912
O O8 0.500000 0.742779 0.000000
O O9 0.754220 0.500000 0.629547
O O10 0.750000 0.750000 0.500000
O O11 0.716069 0.721179 0.764878
O O12 0.330084 0.500000 0.118011
O O13 0.367496 0.274506 0.257899
O O14 0.912032 0.236927 0.505629
O O15 0.916017 0.000000 0.342980
O O16 0.409518 0.500000 0.684193
#
# Coordination Sequence:
#
# PCOD8089997 Si02
#       6
#     8   8   8   8   8   8
#     4  11  23  37  53  78 111 142 175 217 265 314
#     4   9  16  27  48  80 111 136 170 220 270 311
#     4  10  22  38  57  82 110 140 175 217 263 314
#     4  10  20  36  57  79 104 138 181 222 262 313
#     4   9  17  30  52  82 108 132 173 226 270 310
#     4  10  19  33  55  79 106 142 179 217 263 315
#
# _framework density 19.272261
#
# number of rings (size 3 to 8) (size 9 to 14) (size 15 to 20)
#    0.000    2.167    0.000    3.500    0.000    8.000 
#    0.000    0.833    0.000    6.500    0.000    0.000 
#    0.000    0.000    0.000    0.000    0.000    0.000 
#
# Total GULP energy -297666.261448 kJ/mol
# GULP energy per Si atom -12402.760894 kJ/mol
# Density = 1.922840 g / cm^3
# Si number density = 19.272261 Si / 1000 Ang^3
#
#
#
# Elastic Constant Matrix: (Units=GPa)
#
#
# Indices 1 2 3 4 5 6 
#
# 1 81.5181 26.9602 4.9678 0.0000 -6.2151 0.0000
# 2 26.9602 26.9522 26.7447 0.0000 1.7951 0.0000
# 3 4.9678 26.7447 105.4920 0.0000 1.0630 0.0000
# 4 0.0000 0.0000 0.0000 26.6818 0.0000 -0.4978
# 5 -6.2151 1.7951 1.0630 0.0000 40.0023 0.0000
# 6 0.0000 0.0000 0.0000 -0.4978 0.0000 15.3155
#
#
#
# Elastic Compliance Matrix: (Units=1/GPa)
#
#
# Indices 1 2 3 4 5 6 
#
# 1 0.021345 -0.027528 0.005930 0.000000 0.004394 0.000000
# 2 -0.027528 0.085220 -0.020233 0.000000 -0.007564 0.000000
# 3 0.005930 -0.020233 0.014315 0.000000 0.001449 0.000000
# 4 0.000000 0.000000 0.000000 0.037502 0.000000 0.001219
# 5 0.004394 -0.007564 0.001449 0.000000 0.025982 0.000000
# 6 0.000000 0.000000 0.000000 0.001219 0.000000 0.065333
#
#
# Mechanical properties :
#
#
# Convention : Reuss Voigt Hill
#
# Bulk Modulus (GPa) = 26.86904 36.81199 31.84051
# Shear Modulus (GPa) = 14.46066 26.75255 20.60661
#
# Velocity S-wave (km/s) = 2.74220 3.72981 3.27347
# Velocity P-wave (km/s) = 4.89880 6.13931 5.55380
#
# Compressibility (1/GPa) = 0.03721756
#
# Stress axis : x y z
#
# Youngs Moduli (GPa) = 46.84892 11.73432 69.85657
#
# Poissons Ratio (x) = 0.32303 -0.41422
# Poissons Ratio (y) = 1.28967 1.41339
# Poissons Ratio (z) = -0.27780 0.23742
#
# Static dielectric constant tensor:
#      x y z
#    x 3.825790 0.000000 -0.009420 
#    y 0.000000 3.075000 0.000000 
#    z -0.009420 0.000000 3.701320 
# 
# 
# High freq. dielectric constant tensor:
#      x y z
#    x 1.770920 0.000000 -0.000300 
#    y 0.000000 1.702450 0.000000 
#    z -0.000300 0.000000 1.769710 
# 
# From -- ./inp_files/108569.got.cif
#   From: 2010.06.25/outbox.cif.g09.slc.cpg/sg12_55_cif.got.tgz:108569.got - 2010.06.28 00:19:55.
