data_PCOD8089918
_publ_section_title
;
Structure prediction by ZEFSAII (Michael W. Deem and Ramdas Pophale) SiO2 
 PCOD8089918
Probable space group: C 2/M
;
_chemical_formula_sum "Si O2"
_cell_formula_units_Z 56
_cell_length_a 24.131801
_cell_length_b 18.795265
_cell_length_c 11.074168
_cell_angle_alpha 90.000000
_cell_angle_beta 146.138903
_cell_angle_gamma 90.000000
_cell_volume 2798.632786
_symmetry_space_group_name_H-M "C 2/M"
_symmetry_group_IT_number 12
_symmetry_cell_setting 'monoclinic'
loop_
_space_group_symop_operation_xyz
x,y,z
-x,y,-z
-x,-y,-z
x,-y,z
1/2+x,1/2+y,z
1/2-x,1/2+y,-z
1/2-x,1/2-y,-z
1/2+x,1/2-y,z
loop_
_atom_site_type_symbol
_atom_site_label
_atom_site_fract_x
_atom_site_fract_y
_atom_site_fract_z
Si Si1 0.964873 0.291633 0.064498
Si Si2 0.617436 0.420781 0.399502
Si Si3 0.247790 0.331292 0.954628
Si Si4 0.335079 0.211644 0.431435
Si Si5 0.591637 0.419424 0.882602
Si Si6 0.347004 0.346945 0.782518
Si Si7 0.776486 0.643683 0.829799
O O1 0.052919 0.285119 0.320762
O O2 0.918289 0.214339 0.962398
O O3 0.885622 0.346898 0.973443
O O4 0.000000 0.322953 0.000000
O O5 0.602928 0.500000 0.320185
O O6 0.525957 0.401832 0.323082
O O7 0.623193 0.364758 0.299955
O O8 0.719755 0.420443 0.660639
O O9 0.174161 0.338022 0.705775
O O10 0.250000 0.250000 0.000000
O O11 0.356068 0.361988 0.111163
O O12 0.211046 0.374720 0.005312
O O13 0.267423 0.179228 0.417482
O O14 0.294995 0.288869 0.323050
O O15 0.610217 0.500000 0.869562
O O16 0.636448 0.413925 0.099403
#
# Coordination Sequence:
#
# PCOD8089918 Si02
#       7
#     8   8   8   8   8   8   8
#     4  11  20  32  56  84 111 142 180 232 286 337
#     4  11  22  35  54  81 116 154 185 223 279 337
#     4   9  20  37  54  78 110 146 191 237 279 332
#     4   9  19  35  55  80 109 143 182 231 288 330
#     4  10  20  34  55  82 112 148 187 229 281 340
#     4  10  19  33  54  84 116 146 183 228 278 338
#     4  10  21  35  52  78 108 143 187 232 278 332
#
# _framework density 20.00977
#
# number of rings (size 3 to 8) (size 9 to 14) (size 15 to 20)
#    0.000    2.000    0.000    5.143    0.000    5.143 
#    0.000    7.143    0.000    7.286    0.000    5.000 
#    0.000    0.000    0.000    0.000    0.000    0.000 
#
# Total GULP energy -347065.835740 kJ/mol
# GULP energy per Si atom -12395.208419 kJ/mol
# Density = 1.996423 g / cm^3
# Si number density = 20.009770 Si / 1000 Ang^3
#
#
#
# Elastic Constant Matrix: (Units=GPa)
#
#
# Indices 1 2 3 4 5 6 
#
# 1 149.6506 41.2239 57.0751 0.0000 2.9951 0.0000
# 2 41.2239 63.7039 29.0254 0.0000 11.7100 0.0000
# 3 57.0751 29.0254 129.9316 0.0000 9.7070 0.0000
# 4 0.0000 0.0000 0.0000 24.1066 0.0000 2.7887
# 5 2.9951 11.7100 9.7070 0.0000 30.1531 0.0000
# 6 0.0000 0.0000 0.0000 2.7887 0.0000 28.0121
#
#
#
# Elastic Compliance Matrix: (Units=1/GPa)
#
#
# Indices 1 2 3 4 5 6 
#
# 1 0.009165 -0.004891 -0.003081 0.000000 0.001981 0.000000
# 2 -0.004891 0.021086 -0.002035 0.000000 -0.007048 0.000000
# 3 -0.003081 -0.002035 0.009655 0.000000 -0.002012 0.000000
# 4 0.000000 0.000000 0.000000 0.041966 0.000000 -0.004178
# 5 0.001981 -0.007048 -0.002012 0.000000 0.036352 0.000000
# 6 0.000000 0.000000 0.000000 -0.004178 0.000000 0.036115
#
#
# Mechanical properties :
#
#
# Convention : Reuss Voigt Hill
#
# Bulk Modulus (GPa) = 50.27633 66.43720 58.35677
# Shear Modulus (GPa) = 27.62687 30.85181 29.23934
#
# Velocity S-wave (km/s) = 3.71977 3.93088 3.82678
# Velocity P-wave (km/s) = 6.60525 7.34009 6.98234
#
# Compressibility (1/GPa) = 0.01989007
#
# Stress axis : x y z
#
# Youngs Moduli (GPa) = 109.10941 47.42589 103.57502
#
# Poissons Ratio (x) = 0.23197 0.31915
# Poissons Ratio (y) = 0.53367 0.21080
# Poissons Ratio (z) = 0.33620 0.09652
#
# Static dielectric constant tensor:
#      x y z
#    x 4.030850 0.000000 -0.132970 
#    y 0.000000 3.420970 0.000000 
#    z -0.132970 0.000000 3.735380 
# 
# 
# High freq. dielectric constant tensor:
#      x y z
#    x 1.791420 0.000000 -0.003730 
#    y 0.000000 1.747800 0.000000 
#    z -0.003730 0.000000 1.772670 
# 
# From -- ./inp_files/177932.got.cif
#   From: 2010.06.25/outbox.cif.g09.slc.cpg/sg12_89_cif.got.tgz:177932.got - 2010.06.28 00:19:55.
