data_PCOD8089577
_publ_section_title
;
Structure prediction by ZEFSAII (Michael W. Deem and Ramdas Pophale) SiO2 
 PCOD8089577
Probable space group: C 2/M
;
_chemical_formula_sum "Si O2"
_cell_formula_units_Z 48
_cell_length_a 22.778027
_cell_length_b 12.681837
_cell_length_c 9.190791
_cell_angle_alpha 90.000000
_cell_angle_beta 106.696056
_cell_angle_gamma 90.000000
_cell_volume 2542.992977
_symmetry_space_group_name_H-M "C 2/M"
_symmetry_group_IT_number 12
_symmetry_cell_setting 'monoclinic'
loop_
_space_group_symop_operation_xyz
x,y,z
-x,y,-z
-x,-y,-z
x,-y,z
1/2+x,1/2+y,z
1/2-x,1/2+y,-z
1/2-x,1/2-y,-z
1/2+x,1/2-y,z
loop_
_atom_site_type_symbol
_atom_site_label
_atom_site_fract_x
_atom_site_fract_y
_atom_site_fract_z
Si Si1 0.245788 0.244165 0.270795
Si Si2 0.958415 0.379443 0.837465
Si Si3 0.824960 0.124017 0.541851
Si Si4 0.057381 0.758070 0.452337
Si Si5 0.862864 0.378990 0.277851
Si Si6 0.656298 0.118038 0.054212
O O1 0.193921 0.184105 0.325505
O O2 0.280037 0.336299 0.383418
O O3 0.293244 0.158664 0.247196
O O4 0.211911 0.300335 0.112158
O O5 0.976675 0.500000 0.809534
O O6 0.967610 0.304823 0.705420
O O7 0.888084 0.373742 0.838684
O O8 0.000000 0.338188 0.000000
O O9 0.896208 0.148995 0.558927
O O10 0.816890 0.000000 0.555079
O O11 0.090930 0.677510 0.582535
O O12 0.000000 0.807291 0.500000
O O13 0.865936 0.500000 0.324102
O O14 0.880790 0.358096 0.121895
O O15 0.683670 0.000000 0.062741
#
# Coordination Sequence:
#
# PCOD8089577 Si02
#       6
#     8   8   8   8   8   8
#     4  10  19  35  56  82 111 147 179 221 272 324
#     4  10  20  34  54  80 110 145 182 223 273 325
#     4  10  21  36  56  82 110 143 185 229 272 321
#     4  11  22  37  56  80 108 147 184 229 273 320
#     4  10  21  34  54  85 116 143 177 221 271 325
#     4  10  19  33  53  81 114 145 177 218 269 327
#
# _framework density 18.875397
#
# number of rings (size 3 to 8) (size 9 to 14) (size 15 to 20)
#    0.000    1.833    1.667    3.000    0.000    3.000 
#    0.000    0.000    0.000    1.500    0.000    0.000 
#    0.000    0.000    0.000    0.000    0.000    0.000 
#
# Total GULP energy -297619.424248 kJ/mol
# GULP energy per Si atom -12400.809344 kJ/mol
# Density = 1.883244 g / cm^3
# Si number density = 18.875397 Si / 1000 Ang^3
#
#
#
# Elastic Constant Matrix: (Units=GPa)
#
#
# Indices 1 2 3 4 5 6 
#
# 1 92.6427 22.1219 11.4037 0.0000 -5.7341 0.0000
# 2 22.1219 67.2875 26.9204 0.0000 9.3577 0.0000
# 3 11.4037 26.9204 77.9890 0.0000 -1.9674 0.0000
# 4 0.0000 0.0000 0.0000 23.0852 0.0000 2.2870
# 5 -5.7341 9.3577 -1.9674 0.0000 25.5265 0.0000
# 6 0.0000 0.0000 0.0000 2.2870 0.0000 15.0967
#
#
#
# Elastic Compliance Matrix: (Units=1/GPa)
#
#
# Indices 1 2 3 4 5 6 
#
# 1 0.012171 -0.004579 -0.000088 0.000000 0.004406 0.000000
# 2 -0.004579 0.020227 -0.006538 0.000000 -0.008948 0.000000
# 3 -0.000088 -0.006538 0.015182 0.000000 0.003547 0.000000
# 4 0.000000 0.000000 0.000000 0.043978 0.000000 -0.006662
# 5 0.004406 -0.008948 0.003547 0.000000 0.043718 0.000000
# 6 0.000000 0.000000 0.000000 -0.006662 0.000000 0.067249
#
#
# Mechanical properties :
#
#
# Convention : Reuss Voigt Hill
#
# Bulk Modulus (GPa) = 39.73067 39.86793 39.79930
# Shear Modulus (GPa) = 21.42935 24.57322 23.00128
#
# Velocity S-wave (km/s) = 3.37309 3.61205 3.49461
# Velocity P-wave (km/s) = 6.02203 6.20994 6.11671
#
# Compressibility (1/GPa) = 0.02516947
#
# Stress axis : x y z
#
# Youngs Moduli (GPa) = 82.16190 49.43839 65.86945
#
# Poissons Ratio (x) = 0.22638 0.00579
# Poissons Ratio (y) = 0.37622 0.43067
# Poissons Ratio (z) = 0.00723 0.32324
#
# Static dielectric constant tensor:
#      x y z
#    x 3.593030 0.000000 -0.107430 
#    y 0.000000 3.216760 0.000000 
#    z -0.107430 0.000000 3.479380 
# 
# 
# High freq. dielectric constant tensor:
#      x y z
#    x 1.739300 0.000000 -0.003510 
#    y 0.000000 1.712040 0.000000 
#    z -0.003510 0.000000 1.739120 
# 
# From -- ./inp_files/94333.got.cif
#   From: 2010.06.25/outbox.cif.g09.slc.cpg/sg12_48_cif.got.tgz:94333.got - 2010.06.28 00:19:55.
