data_PCOD8089877
_publ_section_title
;
Structure prediction by ZEFSAII (Michael W. Deem and Ramdas Pophale) SiO2 
 PCOD8089877
Probable space group: C 2/M
;
_chemical_formula_sum "Si O2"
_cell_formula_units_Z 56
_cell_length_a 28.052685
_cell_length_b 8.838009
_cell_length_c 17.248712
_cell_angle_alpha 90.000000
_cell_angle_beta 44.284764
_cell_angle_gamma 90.000000
_cell_volume 2985.938826
_symmetry_space_group_name_H-M "C 2/M"
_symmetry_group_IT_number 12
_symmetry_cell_setting 'monoclinic'
loop_
_space_group_symop_operation_xyz
x,y,z
-x,y,-z
-x,-y,-z
x,-y,z
1/2+x,1/2+y,z
1/2-x,1/2+y,-z
1/2-x,1/2-y,-z
1/2+x,1/2-y,z
loop_
_atom_site_type_symbol
_atom_site_label
_atom_site_fract_x
_atom_site_fract_y
_atom_site_fract_z
Si Si1 0.426272 0.677698 0.200738
Si Si2 0.680954 0.821633 0.370735
Si Si3 0.432736 0.175452 0.934990
Si Si4 0.835914 0.178074 0.163101
Si Si5 0.106102 0.822490 0.589402
Si Si6 0.034825 0.323525 0.276186
Si Si7 0.926170 0.822524 0.619746
O O1 0.439276 0.500000 0.180721
O O2 0.499358 0.755446 0.106231
O O3 0.376941 0.737099 0.190598
O O4 0.390947 0.720919 0.323444
O O5 0.757714 0.773086 0.261690
O O6 0.665865 0.768775 0.476324
O O7 0.631755 0.733120 0.370500
O O8 0.669529 0.000000 0.376197
O O9 0.428518 0.208451 0.848258
O O10 0.433616 0.000000 0.952525
O O11 0.365892 0.248094 0.050730
O O12 0.843468 0.000000 0.147228
O O13 0.034177 0.772875 0.636842
O O14 0.115573 0.000000 0.563934
O O15 0.017331 0.500000 0.306403
O O16 0.084282 0.265418 0.286745
O O17 0.000000 0.780221 0.500000
O O18 0.917930 0.000000 0.643393
#
# Coordination Sequence:
#
# PCOD8089877 Si02
#       7
#     8   8   8   8   8   8   8
#     4   9  19  36  58  81 110 147 187 228 270 322
#     4  11  23  37  55  80 113 148 184 225 273 329
#     4  10  21  36  57  86 113 141 184 232 273 318
#     4  10  22  39  56  78 110 152 191 223 269 326
#     4  10  19  33  54  82 112 144 182 225 274 323
#     4  10  20  35  57  84 112 141 178 226 276 322
#     4  11  22  36  58  86 111 139 181 225 271 329
#
# _framework density 18.754570999999999
#
# number of rings (size 3 to 8) (size 9 to 14) (size 15 to 20)
#    0.000    1.857    1.429    2.571    0.000    6.857 
#    0.000    0.714    0.000    0.000    0.000    0.000 
#    0.000    0.000    0.000    0.000    0.000    0.000 
#
# Total GULP energy -347317.765491 kJ/mol
# GULP energy per Si atom -12404.205910 kJ/mol
# Density = 1.871188 g / cm^3
# Si number density = 18.754571 Si / 1000 Ang^3
#
#
#
# Elastic Constant Matrix: (Units=GPa)
#
#
# Indices 1 2 3 4 5 6 
#
# 1 82.4192 27.7465 56.1381 -0.0235 5.3107 0.0059
# 2 27.7465 47.4640 45.6542 -0.0546 0.5833 0.0300
# 3 56.1381 45.6542 143.6855 -0.0090 -2.6205 0.0102
# 4 -0.0235 -0.0546 -0.0090 34.2624 0.0109 5.3014
# 5 5.3107 0.5833 -2.6205 0.0109 23.9940 -0.0029
# 6 0.0059 0.0300 0.0102 5.3014 -0.0029 20.9423
#
#
#
# Elastic Compliance Matrix: (Units=1/GPa)
#
#
# Indices 1 2 3 4 5 6 
#
# 1 0.017843 -0.005175 -0.005407 0.000003 -0.004414 0.000004
# 2 -0.005175 0.031920 -0.008130 0.000054 -0.000518 -0.000054
# 3 -0.005407 -0.008130 0.011704 -0.000016 0.002673 0.000012
# 4 0.000003 0.000054 -0.000016 0.030376 -0.000019 -0.007690
# 5 -0.004414 -0.000518 0.002673 -0.000019 0.042959 0.000011
# 6 0.000004 -0.000054 0.000012 -0.007690 0.000011 0.049697
#
#
# Mechanical properties :
#
#
# Convention : Reuss Voigt Hill
#
# Bulk Modulus (GPa) = 41.59274 59.18292 50.38783
# Shear Modulus (GPa) = 21.74500 25.44171 23.59335
#
# Velocity S-wave (km/s) = 3.40876 3.68715 3.55069
# Velocity P-wave (km/s) = 6.14153 7.05349 6.61325
#
# Compressibility (1/GPa) = 0.02404266
#
# Stress axis : x y z
#
# Youngs Moduli (GPa) = 56.04481 31.32822 85.43962
#
# Poissons Ratio (x) = 0.16213 0.46201
# Poissons Ratio (y) = 0.29004 0.69460
# Poissons Ratio (z) = 0.30306 0.25469
#
# Static dielectric constant tensor:
#      x y z
#    x 3.446960 -0.000010 0.192460 
#    y -0.000010 3.442660 0.000020 
#    z 0.192460 0.000020 3.531470 
# 
# 
# High freq. dielectric constant tensor:
#      x y z
#    x 1.722680 0.000000 0.018220 
#    y 0.000000 1.735940 0.000000 
#    z 0.018220 0.000000 1.725970 
# 
# From -- ./inp_files/281709.got.cif
#   From: 2010.06.25/outbox.cif.g09.slc.cpg/sg12_141_cif.got.tgz:281709.got - 2010.06.28 00:19:55.
