data_PCOD8089974
_publ_section_title
;
Structure prediction by ZEFSAII (Michael W. Deem and Ramdas Pophale) SiO2 
 PCOD8089974
Probable space group: C 2/M
;
_chemical_formula_sum "Si O2"
_cell_formula_units_Z 56
_cell_length_a 21.439918
_cell_length_b 9.450316
_cell_length_c 22.516199
_cell_angle_alpha 90.000000
_cell_angle_beta 138.334443
_cell_angle_gamma 90.000000
_cell_volume 3032.797317
_symmetry_space_group_name_H-M "C 2/M"
_symmetry_group_IT_number 12
_symmetry_cell_setting 'monoclinic'
loop_
_space_group_symop_operation_xyz
x,y,z
-x,y,-z
-x,-y,-z
x,-y,z
1/2+x,1/2+y,z
1/2-x,1/2+y,-z
1/2-x,1/2-y,-z
1/2+x,1/2-y,z
loop_
_atom_site_type_symbol
_atom_site_label
_atom_site_fract_x
_atom_site_fract_y
_atom_site_fract_z
Si Si1 0.770861 0.837335 0.426167
Si Si2 0.119615 0.163327 0.376006
Si Si3 0.780449 0.167621 0.212901
Si Si4 0.104748 0.167316 0.054211
Si Si5 0.666123 0.339439 0.967267
Si Si6 0.397411 0.332631 0.410746
Si Si7 0.418182 0.660969 0.213893
O O1 0.839738 0.815203 0.530159
O O2 0.677625 0.746506 0.367692
O O3 0.823600 0.776698 0.406489
O O4 0.741391 0.000000 0.397735
O O5 0.015761 0.231574 0.303219
O O6 0.118028 0.000000 0.355316
O O7 0.681668 0.250564 0.149160
O O8 0.855544 0.211550 0.317126
O O9 0.827891 0.223334 0.184808
O O10 0.758428 0.000000 0.198842
O O11 0.121768 0.214205 0.997644
O O12 0.118075 0.000000 0.072464
O O13 0.000000 0.212984 0.000000
O O14 0.701974 0.500000 0.999890
O O15 0.750000 0.250000 0.000000
O O16 0.586118 0.327470 0.860243
O O17 0.500000 0.267122 0.500000
O O18 0.406017 0.500000 0.421595
O O19 0.421234 0.500000 0.238413
#
# Coordination Sequence:
#
# PCOD8089974 Si02
#       7
#     8   8   8   8   8   8   8
#     4   9  17  30  47  70 101 130 163 206 249 296
#     4   9  17  30  49  71  97 132 166 201 249 304
#     4  10  19  33  55  79 102 133 177 224 260 304
#     4  10  22  38  54  76 110 147 176 212 272 331
#     4  10  19  34  55  76 101 132 169 214 259 305
#     4   9  17  30  51  77 104 134 168 210 261 310
#     4   9  17  30  51  76  97 124 170 214 249 298
#
# _framework density 18.464801000000001
#
# number of rings (size 3 to 8) (size 9 to 14) (size 15 to 20)
#    0.000    2.571    1.429    0.857    0.000    4.857 
#    0.000    3.571    0.000    3.429    0.000    0.000 
#    0.000    0.000    0.000    0.000    0.000    0.000 
#
# Total GULP energy -347026.871238 kJ/mol
# GULP energy per Si atom -12393.816830 kJ/mol
# Density = 1.842277 g / cm^3
# Si number density = 18.464801 Si / 1000 Ang^3
#
#
#
# Elastic Constant Matrix: (Units=GPa)
#
#
# Indices 1 2 3 4 5 6 
#
# 1 134.3740 32.4630 56.6628 0.0000 7.9428 0.0000
# 2 32.4630 35.6620 30.7053 0.0000 7.6910 0.0000
# 3 56.6628 30.7053 96.0550 0.0000 19.7674 0.0000
# 4 0.0000 0.0000 0.0000 20.2063 0.0000 5.0286
# 5 7.9428 7.6910 19.7674 0.0000 35.9052 0.0000
# 6 0.0000 0.0000 0.0000 5.0286 0.0000 25.8356
#
#
#
# Elastic Compliance Matrix: (Units=1/GPa)
#
#
# Indices 1 2 3 4 5 6 
#
# 1 0.010828 -0.006093 -0.004754 0.000000 0.001527 0.000000
# 2 -0.006093 0.042207 -0.009377 0.000000 -0.002531 0.000000
# 3 -0.004754 -0.009377 0.017574 0.000000 -0.006615 0.000000
# 4 0.000000 0.000000 0.000000 0.052009 0.000000 -0.010123
# 5 0.001527 -0.002531 -0.006615 0.000000 0.031697 0.000000
# 6 0.000000 0.000000 0.000000 -0.010123 0.000000 0.040677
#
#
# Mechanical properties :
#
#
# Convention : Reuss Voigt Hill
#
# Bulk Modulus (GPa) = 33.15548 56.19480 44.67514
# Shear Modulus (GPa) = 20.36710 26.14008 23.25359
#
# Velocity S-wave (km/s) = 3.32478 3.76662 3.55258
# Velocity P-wave (km/s) = 5.72136 7.02966 6.40898
#
# Compressibility (1/GPa) = 0.03016092
#
# Stress axis : x y z
#
# Youngs Moduli (GPa) = 92.34979 23.69277 56.90216
#
# Poissons Ratio (x) = 0.14436 0.27053
# Poissons Ratio (y) = 0.56268 0.53357
# Poissons Ratio (z) = 0.43905 0.22217
#
# Static dielectric constant tensor:
#      x y z
#    x 3.636550 0.000000 0.016710 
#    y 0.000000 3.098630 0.000000 
#    z 0.016710 0.000000 3.493750 
# 
# 
# High freq. dielectric constant tensor:
#      x y z
#    x 1.723740 0.000000 0.000910 
#    y 0.000000 1.674770 0.000000 
#    z 0.000910 0.000000 1.721080 
# 
# From -- ./inp_files/321034.got.cif
#   From: 2010.06.25/outbox.cif.g09.slc.cpg/sg12_161_cif.got.tgz:321034.got - 2010.06.28 00:19:55.
