data_PCOD8089657
_publ_section_title
;
Structure prediction by ZEFSAII (Michael W. Deem and Ramdas Pophale) SiO2 
 PCOD8089657
Probable space group: C 2/M
;
_chemical_formula_sum "Si O2"
_cell_formula_units_Z 56
_cell_length_a 17.536279
_cell_length_b 14.485887
_cell_length_c 19.311139
_cell_angle_alpha 90.000000
_cell_angle_beta 38.608036
_cell_angle_gamma 90.000000
_cell_volume 3061.029423
_symmetry_space_group_name_H-M "C 2/M"
_symmetry_group_IT_number 12
_symmetry_cell_setting 'monoclinic'
loop_
_space_group_symop_operation_xyz
x,y,z
-x,y,-z
-x,-y,-z
x,-y,z
1/2+x,1/2+y,z
1/2-x,1/2+y,-z
1/2-x,1/2-y,-z
1/2+x,1/2-y,z
loop_
_atom_site_type_symbol
_atom_site_label
_atom_site_fract_x
_atom_site_fract_y
_atom_site_fract_z
Si Si1 0.830785 0.106599 0.486150
Si Si2 0.251314 0.210012 0.326296
Si Si3 0.704657 0.602632 0.644840
Si Si4 0.506713 0.215779 0.074577
Si Si5 0.946487 0.897997 0.891548
Si Si6 0.241084 0.607287 0.929468
Si Si7 0.890103 0.891098 0.689129
O O1 0.750623 0.163780 0.597120
O O2 0.774260 0.126203 0.450681
O O3 0.972302 0.136264 0.389342
O O4 0.818688 0.000000 0.514268
O O5 0.231901 0.320659 0.350959
O O6 0.382377 0.187469 0.200472
O O7 0.145744 0.168316 0.352918
O O8 0.756584 0.500000 0.626199
O O9 0.558988 0.603383 0.758514
O O10 0.533517 0.325177 0.061165
O O11 0.500000 0.186628 0.000000
O O12 0.615902 0.160345 0.032938
O O13 0.827633 0.870299 0.932538
O O14 0.932112 0.000000 0.935004
O O15 0.211425 0.500000 0.945744
O O16 0.303747 0.639915 0.813570
O O17 0.877025 0.000000 0.682105
#
# Coordination Sequence:
#
# PCOD8089657 Si02
#       7
#     8   8   8   8   8   8   8
#     4  10  19  34  56  79 102 129 170 215 253 299
#     4  11  21  32  50  80 109 133 165 206 262 305
#     4   9  18  34  55  77 101 133 171 212 253 297
#     4  11  22  34  49  78 109 136 166 206 258 305
#     4   9  18  35  57  75  96 135 179 213 245 289
#     4  10  19  34  54  73 101 140 172 202 251 308
#     4  10  19  33  54  77 102 133 169 210 254 302
#
# _framework density 18.294498000000001
#
# number of rings (size 3 to 8) (size 9 to 14) (size 15 to 20)
#    0.000    2.000    2.857    1.714    0.000    2.857 
#    0.000    0.000    0.000    1.714    0.000    0.000 
#    0.000    0.000    0.000    0.000    0.000    0.000 
#
# Total GULP energy -347207.787962 kJ/mol
# GULP energy per Si atom -12400.278142 kJ/mol
# Density = 1.825286 g / cm^3
# Si number density = 18.294498 Si / 1000 Ang^3
#
#
#
# Elastic Constant Matrix: (Units=GPa)
#
#
# Indices 1 2 3 4 5 6 
#
# 1 45.9800 28.6254 10.6823 0.0000 -4.1143 0.0000
# 2 28.6254 67.2386 28.9189 0.0000 -3.6502 0.0000
# 3 10.6823 28.9189 75.3376 0.0000 2.6215 0.0000
# 4 0.0000 0.0000 0.0000 25.3746 0.0000 2.4342
# 5 -4.1143 -3.6502 2.6215 0.0000 11.9015 0.0000
# 6 0.0000 0.0000 0.0000 2.4342 0.0000 28.2580
#
#
#
# Elastic Compliance Matrix: (Units=1/GPa)
#
#
# Indices 1 2 3 4 5 6 
#
# 1 0.030098 -0.012613 0.000349 0.000000 0.006459 0.000000
# 2 -0.012613 0.023701 -0.007468 0.000000 0.004554 0.000000
# 3 0.000349 -0.007468 0.016291 0.000000 -0.005758 0.000000
# 4 0.000000 0.000000 0.000000 0.039738 0.000000 -0.003423
# 5 0.006459 0.004554 -0.005758 0.000000 0.088921 0.000000
# 6 0.000000 0.000000 0.000000 -0.003423 0.000000 0.035683
#
#
# Mechanical properties :
#
#
# Convention : Reuss Voigt Hill
#
# Bulk Modulus (GPa) = 32.65135 36.11216 34.38176
# Shear Modulus (GPa) = 17.59915 21.12879 19.36397
#
# Velocity S-wave (km/s) = 3.10496 3.40211 3.25693
# Velocity P-wave (km/s) = 5.54444 5.93419 5.74262
#
# Compressibility (1/GPa) = 0.03062660
#
# Stress axis : x y z
#
# Youngs Moduli (GPa) = 33.22495 42.19182 61.38333
#
# Poissons Ratio (x) = 0.53217 -0.02143
# Poissons Ratio (y) = 0.41907 0.45841
# Poissons Ratio (z) = -0.01160 0.31509
#
# Static dielectric constant tensor:
#      x y z
#    x 3.170280 0.000000 0.041210 
#    y 0.000000 3.486000 0.000000 
#    z 0.041210 0.000000 3.299640 
# 
# 
# High freq. dielectric constant tensor:
#      x y z
#    x 1.694170 0.000000 0.005020 
#    y 0.000000 1.710090 0.000000 
#    z 0.005020 0.000000 1.703650 
# 
# From -- ./inp_files/156168.got.cif
#   From: 2010.06.25/outbox.cif.g09.slc.cpg/sg12_79_cif.got.tgz:156168.got - 2010.06.28 00:19:55.
