data_PCOD8089893
_publ_section_title
;
Structure prediction by ZEFSAII (Michael W. Deem and Ramdas Pophale) SiO2 
 PCOD8089893
Probable space group: C 2/M
;
_chemical_formula_sum "Si O2"
_cell_formula_units_Z 56
_cell_length_a 19.773647
_cell_length_b 8.810031
_cell_length_c 26.046443
_cell_angle_alpha 90.000000
_cell_angle_beta 39.621385
_cell_angle_gamma 90.000000
_cell_volume 2893.589407
_symmetry_space_group_name_H-M "C 2/M"
_symmetry_group_IT_number 12
_symmetry_cell_setting 'monoclinic'
loop_
_space_group_symop_operation_xyz
x,y,z
-x,y,-z
-x,-y,-z
x,-y,z
1/2+x,1/2+y,z
1/2-x,1/2+y,-z
1/2-x,1/2-y,-z
1/2+x,1/2-y,z
loop_
_atom_site_type_symbol
_atom_site_label
_atom_site_fract_x
_atom_site_fract_y
_atom_site_fract_z
Si Si1 0.294932 0.674408 0.826174
Si Si2 0.429333 0.825122 0.089630
Si Si3 0.538249 0.678770 0.822171
Si Si4 0.676144 0.821406 0.085659
Si Si5 0.682412 0.824138 0.495212
Si Si6 0.002350 0.673515 0.672850
Si Si7 0.171528 0.322686 0.662572
O O1 0.302544 0.500000 0.839374
O O2 0.194493 0.700603 0.848487
O O3 0.278545 0.779192 0.885308
O O4 0.400308 0.718897 0.733336
O O5 0.462222 0.721703 0.117989
O O6 0.454148 0.000000 0.088635
O O7 0.500000 0.773424 0.000000
O O8 0.527815 0.500000 0.822660
O O9 0.441672 0.757832 0.849453
O O10 0.643891 0.738575 0.731987
O O11 0.674683 0.000000 0.079206
O O12 0.750000 0.750000 0.000000
O O13 0.750000 0.750000 0.500000
O O14 0.559327 0.804088 0.583975
O O15 0.713924 0.740506 0.423692
O O16 0.712377 0.000000 0.473140
O O17 0.964980 0.500000 0.701678
O O18 0.082545 0.715683 0.671995
O O19 0.181804 0.500000 0.667255
#
# Coordination Sequence:
#
# PCOD8089893 Si02
#       7
#     8   8   8   8   8   8   8
#     4  11  22  36  59  87 114 150 194 237 287 345
#     4  10  23  43  62  81 112 153 194 240 292 345
#     4  12  24  38  60  87 115 151 194 238 287 346
#     4  12  24  39  59  84 116 148 186 238 292 342
#     4   9  17  29  48  77 114 152 190 232 283 340
#     4   9  18  32  52  80 116 155 188 230 287 339
#     4  10  19  33  54  82 116 153 189 233 289 340
#
# _framework density 19.353124999999999
#
# number of rings (size 3 to 8) (size 9 to 14) (size 15 to 20)
#    0.000    1.571    1.429    5.571    0.000    5.429 
#    0.000    0.000    0.000    0.857    0.000    6.000 
#    0.000    0.000    0.000    0.000    0.000    0.000 
#
# Total GULP energy -347242.516157 kJ/mol
# GULP energy per Si atom -12401.518434 kJ/mol
# Density = 1.930908 g / cm^3
# Si number density = 19.353125 Si / 1000 Ang^3
#
#
#
# Elastic Constant Matrix: (Units=GPa)
#
#
# Indices 1 2 3 4 5 6 
#
# 1 34.9722 23.4756 8.7968 0.0013 4.2499 -0.0047
# 2 23.4756 133.1660 43.2526 0.0012 5.5461 -0.0043
# 3 8.7968 43.2526 114.7771 -0.0003 12.6735 -0.0001
# 4 0.0013 0.0012 -0.0003 39.8712 -0.0001 3.8731
# 5 4.2499 5.5461 12.6735 -0.0001 26.2197 0.0018
# 6 -0.0047 -0.0043 -0.0001 3.8731 0.0018 26.4770
#
#
#
# Elastic Compliance Matrix: (Units=1/GPa)
#
#
# Indices 1 2 3 4 5 6 
#
# 1 0.032872 -0.005643 0.000067 -0.000001 -0.004167 0.000005
# 2 -0.005643 0.009527 -0.003207 0.000000 0.000450 0.000001
# 3 0.000067 -0.003207 0.010397 0.000000 -0.004358 0.000000
# 4 -0.000001 0.000000 0.000000 0.025442 0.000001 -0.003722
# 5 -0.004167 0.000450 -0.004358 0.000001 0.040826 -0.000004
# 6 0.000005 0.000001 0.000000 -0.003722 -0.000004 0.038313
#
#
# Mechanical properties :
#
#
# Convention : Reuss Voigt Hill
#
# Bulk Modulus (GPa) = 28.38519 48.21837 38.30178
# Shear Modulus (GPa) = 26.78273 32.33960 29.56117
#
# Velocity S-wave (km/s) = 3.72411 4.09225 3.91252
# Velocity P-wave (km/s) = 5.76115 6.87734 6.34384
#
# Compressibility (1/GPa) = 0.03522964
#
# Stress axis : x y z
#
# Youngs Moduli (GPa) = 30.42132 104.96155 96.17904
#
# Poissons Ratio (x) = 0.59232 -0.00647
# Poissons Ratio (y) = 0.17167 0.30849
# Poissons Ratio (z) = -0.00205 0.33666
#
# Static dielectric constant tensor:
#      x y z
#    x 3.134570 -0.000010 0.091020 
#    y -0.000010 3.642240 0.000000 
#    z 0.091020 0.000000 4.062490 
# 
# 
# High freq. dielectric constant tensor:
#      x y z
#    x 1.707240 0.000000 0.010120 
#    y 0.000000 1.763800 0.000000 
#    z 0.010120 0.000000 1.776100 
# 
# From -- ./inp_files/362996.got.cif
#   From: 2010.06.25/outbox.cif.g09.slc.cpg/sg12_182_cif.got.tgz:362996.got - 2010.06.28 00:19:55.
