data_PCOD8089312
_publ_section_title
;
Structure prediction by ZEFSAII (Michael W. Deem and Ramdas Pophale) SiO2 
 PCOD8089312
Probable space group: C 2/M
;
_chemical_formula_sum "Si O2"
_cell_formula_units_Z 48
_cell_length_a 22.843125
_cell_length_b 8.842356
_cell_length_c 12.774199
_cell_angle_alpha 90.000000
_cell_angle_beta 89.812430
_cell_angle_gamma 90.000000
_cell_volume 2580.208861
_symmetry_space_group_name_H-M "C 2/M"
_symmetry_group_IT_number 12
_symmetry_cell_setting 'monoclinic'
loop_
_space_group_symop_operation_xyz
x,y,z
-x,y,-z
-x,-y,-z
x,-y,z
1/2+x,1/2+y,z
1/2-x,1/2+y,-z
1/2-x,1/2-y,-z
1/2+x,1/2-y,z
loop_
_atom_site_type_symbol
_atom_site_label
_atom_site_fract_x
_atom_site_fract_y
_atom_site_fract_z
Si Si1 0.869921 0.334457 0.182613
Si Si2 0.315063 0.178320 0.390748
Si Si3 0.258617 0.666260 0.894060
Si Si4 0.433131 0.322308 0.992534
Si Si5 0.819941 0.822728 0.609289
Si Si6 0.864192 0.322390 0.801779
O O1 0.901145 0.500000 0.178004
O O2 0.863476 0.272908 0.301880
O O3 0.802838 0.360357 0.157221
O O4 0.901114 0.223710 0.100797
O O5 0.247635 0.219634 0.361279
O O6 0.334504 0.270288 0.492371
O O7 0.319163 0.000000 0.413321
O O8 0.288823 0.500000 0.908126
O O9 0.297924 0.778067 0.826970
O O10 0.250000 0.750000 0.000000
O O11 0.427015 0.500000 0.980278
O O12 0.407093 0.247246 0.888509
O O13 0.500000 0.269930 0.000000
O O14 0.869014 0.742910 0.683868
O O15 0.829742 0.000000 0.620807
O O16 0.874462 0.500000 0.802576
#
# Coordination Sequence:
#
# PCOD8089312 Si02
#       6
#     8   8   8   8   8   8
#     4  10  20  35  56  81 113 148 182 224 273 331
#     4   9  18  33  51  79 116 150 184 219 264 324
#     4  11  20  32  50  80 114 146 180 220 274 332
#     4  11  25  42  59  80 107 142 187 238 286 333
#     4  10  19  33  52  79 116 152 185 222 266 324
#     4  12  23  35  55  81 112 150 186 226 276 331
#
# _framework density 18.603145000000001
#
# number of rings (size 3 to 8) (size 9 to 14) (size 15 to 20)
#    0.000    1.500    3.333    3.000    0.000    3.333 
#    0.000    0.000    0.000    1.000    0.000    7.000 
#    0.000    0.000    0.000    0.000    0.000    0.000 
#
# Total GULP energy -297343.554471 kJ/mol
# GULP energy per Si atom -12389.314770 kJ/mol
# Density = 1.856080 g / cm^3
# Si number density = 18.603145 Si / 1000 Ang^3
#
#
#
# Elastic Constant Matrix: (Units=GPa)
#
#
# Indices 1 2 3 4 5 6 
#
# 1 72.1506 33.8890 49.4243 0.0000 4.8550 0.0000
# 2 33.8890 99.8918 65.3930 0.0000 12.9307 0.0000
# 3 49.4243 65.3930 144.3252 0.0000 11.4298 0.0000
# 4 0.0000 0.0000 0.0000 29.8131 0.0000 -0.4904
# 5 4.8550 12.9307 11.4298 0.0000 6.4389 0.0000
# 6 0.0000 0.0000 0.0000 -0.4904 0.0000 20.4565
#
#
#
# Elastic Compliance Matrix: (Units=1/GPa)
#
#
# Indices 1 2 3 4 5 6 
#
# 1 0.018754 -0.003213 -0.005071 0.000000 0.001312 0.000000
# 2 -0.003213 0.017385 -0.004891 0.000000 -0.023807 0.000000
# 3 -0.005071 -0.004891 0.011404 0.000000 -0.006597 0.000000
# 4 0.000000 0.000000 0.000000 0.033556 0.000000 0.000804
# 5 0.001312 -0.023807 -0.006597 0.000000 0.213836 0.000000
# 6 0.000000 0.000000 0.000000 0.000804 0.000000 0.048904
#
#
# Mechanical properties :
#
#
# Convention : Reuss Voigt Hill
#
# Bulk Modulus (GPa) = 47.18510 68.19779 57.69144
# Shear Modulus (GPa) = 13.25375 22.51910 17.88642
#
# Velocity S-wave (km/s) = 2.67207 3.48300 3.10413
# Velocity P-wave (km/s) = 5.91092 7.27419 6.62770
#
# Compressibility (1/GPa) = 0.02119313
#
# Stress axis : x y z
#
# Youngs Moduli (GPa) = 53.32164 57.52226 87.68978
#
# Poissons Ratio (x) = 0.18482 0.44463
# Poissons Ratio (y) = 0.17132 0.42891
# Poissons Ratio (z) = 0.27037 0.28135
#
# Static dielectric constant tensor:
#      x y z
#    x 3.149490 0.000000 -0.030300 
#    y 0.000000 3.469350 0.000000 
#    z -0.030300 0.000000 3.641640 
# 
# 
# High freq. dielectric constant tensor:
#      x y z
#    x 1.672740 0.000000 0.003060 
#    y 0.000000 1.729790 0.000000 
#    z 0.003060 0.000000 1.742060 
# 
# From -- ./inp_files/172240.got.cif
#   From: 2010.06.25/outbox.cif.g09.slc.cpg/sg12_87_cif.got.tgz:172240.got - 2010.06.28 00:19:55.
