data_PCOD8089432
_publ_section_title
;
Structure prediction by ZEFSAII (Michael W. Deem and Ramdas Pophale) SiO2 
 PCOD8089432
Probable space group: C 2/M
;
_chemical_formula_sum "Si O2"
_cell_formula_units_Z 48
_cell_length_a 28.996716
_cell_length_b 9.545118
_cell_length_c 18.757963
_cell_angle_alpha 90.000000
_cell_angle_beta 149.073794
_cell_angle_gamma 90.000000
_cell_volume 2668.227494
_symmetry_space_group_name_H-M "C 2/M"
_symmetry_group_IT_number 12
_symmetry_cell_setting 'monoclinic'
loop_
_space_group_symop_operation_xyz
x,y,z
-x,y,-z
-x,-y,-z
x,-y,z
1/2+x,1/2+y,z
1/2-x,1/2+y,-z
1/2-x,1/2-y,-z
1/2+x,1/2-y,z
loop_
_atom_site_type_symbol
_atom_site_label
_atom_site_fract_x
_atom_site_fract_y
_atom_site_fract_z
Si Si1 0.740612 0.163725 0.719186
Si Si2 0.162077 0.839064 0.392693
Si Si3 0.253442 0.160648 0.109275
Si Si4 0.588142 0.335724 0.446977
Si Si5 0.883305 0.836993 0.193025
Si Si6 0.907441 0.836936 0.850394
O O1 0.768873 0.190531 0.838145
O O2 0.650347 0.248502 0.582771
O O3 0.820594 0.225655 0.775871
O O4 0.722651 0.000000 0.679967
O O5 0.250000 0.750000 0.500000
O O6 0.109917 0.795533 0.394469
O O7 0.097034 0.809637 0.239819
O O8 0.192157 0.000000 0.434483
O O9 0.337563 0.253601 0.196768
O O10 0.281152 0.000000 0.134065
O O11 0.165152 0.198699 0.946237
O O12 0.602725 0.500000 0.480605
O O13 0.486152 0.289822 0.325009
O O14 0.875213 0.000000 0.200310
O O15 0.909258 0.000000 0.872486
O O16 0.000000 0.765923 0.000000
#
# Coordination Sequence:
#
# PCOD8089432 Si02
#       6
#     8   8   8   8   8   8
#     4  10  20  34  53  78 105 133 169 214 256 297
#     4  10  19  33  53  76 104 136 169 206 249 299
#     4   9  19  35  55  77 102 131 169 216 257 298
#     4  10  21  34  52  77 105 137 170 207 251 304
#     4   9  19  36  55  76 102 134 171 209 256 307
#     4   9  18  31  51  78 103 131 169 210 251 296
#
# _framework density 17.989471000000002
#
# number of rings (size 3 to 8) (size 9 to 14) (size 15 to 20)
#    0.000    2.500    1.667    0.000    2.333    2.000 
#    0.000    3.333    0.000    2.000    0.000    0.000 
#    0.000    0.000    0.000    0.000    0.000    0.000 
#
# Total GULP energy -297625.515275 kJ/mol
# GULP energy per Si atom -12401.063136 kJ/mol
# Density = 1.794853 g / cm^3
# Si number density = 17.989471 Si / 1000 Ang^3
#
#
#
# Elastic Constant Matrix: (Units=GPa)
#
#
# Indices 1 2 3 4 5 6 
#
# 1 73.6776 23.3916 32.1519 0.0000 4.7649 0.0000
# 2 23.3916 34.6753 31.6520 0.0000 5.5501 0.0000
# 3 32.1519 31.6520 103.4918 0.0000 14.6998 0.0000
# 4 0.0000 0.0000 0.0000 26.5362 0.0000 0.9835
# 5 4.7649 5.5501 14.6998 0.0000 36.3037 0.0000
# 6 0.0000 0.0000 0.0000 0.9835 0.0000 26.0690
#
#
#
# Elastic Compliance Matrix: (Units=1/GPa)
#
#
# Indices 1 2 3 4 5 6 
#
# 1 0.017752 -0.009638 -0.002595 0.000000 0.000194 0.000000
# 2 -0.009638 0.045293 -0.010668 0.000000 -0.001340 0.000000
# 3 -0.002595 -0.010668 0.014272 0.000000 -0.003808 0.000000
# 4 0.000000 0.000000 0.000000 0.037737 0.000000 -0.001424
# 5 0.000194 -0.001340 -0.003808 0.000000 0.029266 0.000000
# 6 0.000000 0.000000 0.000000 -0.001424 0.000000 0.038413
#
#
# Mechanical properties :
#
#
# Convention : Reuss Voigt Hill
#
# Bulk Modulus (GPa) = 31.73002 42.91508 37.32255
# Shear Modulus (GPa) = 20.91686 26.09172 23.50429
#
# Velocity S-wave (km/s) = 3.41358 3.81253 3.61856
# Velocity P-wave (km/s) = 5.76308 6.57936 6.18470
#
# Compressibility (1/GPa) = 0.03151590
#
# Stress axis : x y z
#
# Youngs Moduli (GPa) = 56.33027 22.07854 70.06572
#
# Poissons Ratio (x) = 0.21279 0.18183
# Poissons Ratio (y) = 0.54290 0.74745
# Poissons Ratio (z) = 0.14618 0.23553
#
# Static dielectric constant tensor:
#      x y z
#    x 3.742050 0.000000 0.000820 
#    y 0.000000 3.123960 0.000000 
#    z 0.000820 0.000000 3.497880 
# 
# 
# High freq. dielectric constant tensor:
#      x y z
#    x 1.702250 0.000000 -0.003620 
#    y 0.000000 1.671840 0.000000 
#    z -0.003620 0.000000 1.702530 
# 
# From -- ./inp_files/153573.got.cif
#   From: 2010.06.25/outbox.cif.g09.slc.cpg/sg12_77_cif.got.tgz:153573.got - 2010.06.28 00:19:55.
