data_PCOD8089372
_publ_section_title
;
Structure prediction by ZEFSAII (Michael W. Deem and Ramdas Pophale) SiO2 
 PCOD8089372
Probable space group: C 2/M
;
_chemical_formula_sum "Si O2"
_cell_formula_units_Z 48
_cell_length_a 14.453957
_cell_length_b 9.589679
_cell_length_c 19.671641
_cell_angle_alpha 90.000000
_cell_angle_beta 70.911462
_cell_angle_gamma 90.000000
_cell_volume 2576.735396
_symmetry_space_group_name_H-M "C 2/M"
_symmetry_group_IT_number 12
_symmetry_cell_setting 'monoclinic'
loop_
_space_group_symop_operation_xyz
x,y,z
-x,y,-z
-x,-y,-z
x,-y,z
1/2+x,1/2+y,z
1/2-x,1/2+y,-z
1/2-x,1/2-y,-z
1/2+x,1/2-y,z
loop_
_atom_site_type_symbol
_atom_site_label
_atom_site_fract_x
_atom_site_fract_y
_atom_site_fract_z
Si Si1 0.606541 0.157866 0.505230
Si Si2 0.714547 0.661414 0.103639
Si Si3 0.611138 0.337875 0.988841
Si Si4 0.588445 0.663945 0.262788
Si Si5 0.912703 0.341645 0.337123
Si Si6 0.804378 0.841881 0.627620
O O1 0.500000 0.167998 0.500000
O O2 0.601926 0.215431 0.582834
O O3 0.679329 0.251312 0.443540
O O4 0.646995 0.000000 0.494842
O O5 0.745483 0.500000 0.097377
O O6 0.813714 0.750690 0.075308
O O7 0.661171 0.707301 0.185292
O O8 0.638413 0.691096 0.060791
O O9 0.623252 0.500000 0.967154
O O10 0.500000 0.288654 0.000000
O O11 0.567280 0.500000 0.266112
O O12 0.486935 0.745211 0.277469
O O13 0.634212 0.713697 0.323218
O O14 0.953193 0.500000 0.329363
O O15 0.809151 0.334003 0.323600
O O16 0.834509 0.000000 0.602756
#
# Coordination Sequence:
#
# PCOD8089372 Si02
#       6
#     8   8   8   8   8   8
#     4  10  19  33  53  74  98 129 169 216 260 298
#     4   9  19  35  53  76 107 136 165 204 248 295
#     4   9  18  34  56  80 104 132 168 206 244 291
#     4  10  21  36  52  74 105 137 167 204 251 302
#     4  10  21  36  52  73 101 133 170 213 256 300
#     4  10  21  35  52  74 100 132 171 211 254 303
#
# _framework density 18.628222000000001
#
# number of rings (size 3 to 8) (size 9 to 14) (size 15 to 20)
#    0.000    2.333    1.667    0.500    0.000    4.000 
#    0.000    0.000    0.000    0.000    0.000    0.000 
#    0.000    0.000    0.000    0.000    0.000    0.000 
#
# Total GULP energy -297649.305888 kJ/mol
# GULP energy per Si atom -12402.054412 kJ/mol
# Density = 1.858582 g / cm^3
# Si number density = 18.628222 Si / 1000 Ang^3
#
#
#
# Elastic Constant Matrix: (Units=GPa)
#
#
# Indices 1 2 3 4 5 6 
#
# 1 93.3096 38.9061 28.4865 0.0000 -20.3126 0.0000
# 2 38.9061 64.7946 52.0733 0.0000 -20.2425 0.0000
# 3 28.4865 52.0733 97.0914 0.0000 -25.5814 0.0000
# 4 0.0000 0.0000 0.0000 31.5574 0.0000 -10.0582
# 5 -20.3126 -20.2425 -25.5814 0.0000 24.1392 0.0000
# 6 0.0000 0.0000 0.0000 -10.0582 0.0000 30.4781
#
#
#
# Elastic Compliance Matrix: (Units=1/GPa)
#
#
# Indices 1 2 3 4 5 6 
#
# 1 0.015331 -0.008385 0.002144 0.000000 0.008141 0.000000
# 2 -0.008385 0.033639 -0.013885 0.000000 0.006438 0.000000
# 3 0.002144 -0.013885 0.020152 0.000000 0.011517 0.000000
# 4 0.000000 0.000000 0.000000 0.035413 0.000000 0.011687
# 5 0.008141 0.006438 0.011517 0.000000 0.065880 0.000000
# 6 0.000000 0.000000 0.000000 0.011687 0.000000 0.036667
#
#
# Mechanical properties :
#
#
# Convention : Reuss Voigt Hill
#
# Bulk Modulus (GPa) = 34.63900 54.90304 44.77102
# Shear Modulus (GPa) = 19.45847 26.28357 22.87102
#
# Velocity S-wave (km/s) = 3.23549 3.76034 3.50774
# Velocity P-wave (km/s) = 5.70904 6.95633 6.36332
#
# Compressibility (1/GPa) = 0.02886919
#
# Stress axis : x y z
#
# Youngs Moduli (GPa) = 65.22709 29.72777 49.62353
#
# Poissons Ratio (x) = 0.24928 -0.10641
# Poissons Ratio (y) = 0.54696 0.68902
# Poissons Ratio (z) = -0.13987 0.41277
#
# Static dielectric constant tensor:
#      x y z
#    x 3.452220 0.000000 0.062680 
#    y 0.000000 3.381320 0.000000 
#    z 0.062680 0.000000 3.320420 
# 
# 
# High freq. dielectric constant tensor:
#      x y z
#    x 1.728680 0.000000 0.000980 
#    y 0.000000 1.716190 0.000000 
#    z 0.000980 0.000000 1.712740 
# 
# From -- ./inp_files/268209.got.cif
#   From: 2010.06.25/outbox.cif.g09.slc.cpg/sg12_135_cif.got.tgz:268209.got - 2010.06.28 00:19:55.
