data_PCOD8089802
_publ_section_title
;
Structure prediction by ZEFSAII (Michael W. Deem and Ramdas Pophale) SiO2 
 PCOD8089802
Probable space group: C 2/M
;
_chemical_formula_sum "Si O2"
_cell_formula_units_Z 56
_cell_length_a 28.251306
_cell_length_b 8.941805
_cell_length_c 17.306549
_cell_angle_alpha 90.000000
_cell_angle_beta 136.178354
_cell_angle_gamma 90.000000
_cell_volume 3027.200387
_symmetry_space_group_name_H-M "C 2/M"
_symmetry_group_IT_number 12
_symmetry_cell_setting 'monoclinic'
loop_
_space_group_symop_operation_xyz
x,y,z
-x,y,-z
-x,-y,-z
x,-y,z
1/2+x,1/2+y,z
1/2-x,1/2+y,-z
1/2-x,1/2-y,-z
1/2+x,1/2-y,z
loop_
_atom_site_type_symbol
_atom_site_label
_atom_site_fract_x
_atom_site_fract_y
_atom_site_fract_z
Si Si1 0.786025 0.176490 0.726181
Si Si2 0.561837 0.175022 0.360618
Si Si3 0.421308 0.676226 0.175967
Si Si4 0.804954 0.825556 0.921708
Si Si5 0.817278 0.324529 0.613500
Si Si6 0.834204 0.173501 0.218154
Si Si7 0.144310 0.175405 0.582182
O O1 0.815257 0.222020 0.844522
O O2 0.832469 0.255987 0.716205
O O3 0.708950 0.234977 0.625501
O O4 0.786080 0.000000 0.712587
O O5 0.489979 0.231718 0.243526
O O6 0.617929 0.214463 0.362499
O O7 0.578254 0.264016 0.459075
O O8 0.558812 0.000000 0.375161
O O9 0.437090 0.500000 0.194711
O O10 0.387417 0.729001 0.216529
O O11 0.371812 0.722389 0.047386
O O12 0.738523 0.750555 0.880376
O O13 0.791489 0.000000 0.912430
O O14 0.804812 0.500000 0.605447
O O15 0.750000 0.250000 0.500000
O O16 0.866081 0.210055 0.339461
O O17 0.819746 0.000000 0.190341
O O18 0.154789 0.000000 0.579455
#
# Coordination Sequence:
#
# PCOD8089802 Si02
#       7
#     8   8   8   8   8   8   8
#     4  10  19  33  55  84 112 137 176 225 269 319
#     4  11  24  38  53  78 110 142 181 225 271 327
#     4  10  21  38  56  77 110 149 185 221 267 321
#     4   9  19  35  57  83 110 143 182 224 267 316
#     4  11  22  36  57  82 108 139 179 223 274 327
#     4   9  19  34  56  84 109 140 184 227 266 318
#     4  10  19  33  54  80 110 143 178 220 273 322
#
# _framework density 18.498940999999999
#
# number of rings (size 3 to 8) (size 9 to 14) (size 15 to 20)
#    0.000    2.000    1.429    2.143    0.000    4.571 
#    0.000    3.571    0.000    4.286    0.000    0.000 
#    0.000    0.000    0.000    0.000    0.000    0.000 
#
# Total GULP energy -347291.589920 kJ/mol
# GULP energy per Si atom -12403.271069 kJ/mol
# Density = 1.845684 g / cm^3
# Si number density = 18.498941 Si / 1000 Ang^3
#
#
#
# Elastic Constant Matrix: (Units=GPa)
#
#
# Indices 1 2 3 4 5 6 
#
# 1 120.2060 54.2743 71.0515 0.0000 -1.4273 0.0000
# 2 54.2743 70.3470 45.9817 0.0000 3.1710 0.0000
# 3 71.0515 45.9817 119.0330 0.0000 4.9666 0.0000
# 4 0.0000 0.0000 0.0000 30.0758 0.0000 2.9828
# 5 -1.4273 3.1710 4.9666 0.0000 25.4762 0.0000
# 6 0.0000 0.0000 0.0000 2.9828 0.0000 29.4407
#
#
#
# Elastic Compliance Matrix: (Units=1/GPa)
#
#
# Indices 1 2 3 4 5 6 
#
# 1 0.015847 -0.008160 -0.006439 0.000000 0.003159 0.000000
# 2 -0.008160 0.023241 -0.004000 0.000000 -0.002570 0.000000
# 3 -0.006439 -0.004000 0.013897 0.000000 -0.002572 0.000000
# 4 0.000000 0.000000 0.000000 0.033587 0.000000 -0.003403
# 5 0.003159 -0.002570 -0.002572 0.000000 0.040251 0.000000
# 6 0.000000 0.000000 0.000000 -0.003403 0.000000 0.034311
#
#
# Mechanical properties :
#
#
# Convention : Reuss Voigt Hill
#
# Bulk Modulus (GPa) = 63.34090 72.46676 67.90383
# Shear Modulus (GPa) = 24.55883 26.21710 25.38796
#
# Velocity S-wave (km/s) = 3.64755 3.76868 3.70861
# Velocity P-wave (km/s) = 7.21485 7.62862 7.42462
#
# Compressibility (1/GPa) = 0.01578759
#
# Stress axis : x y z
#
# Youngs Moduli (GPa) = 63.10527 43.02709 71.95903
#
# Poissons Ratio (x) = 0.35109 0.46332
# Poissons Ratio (y) = 0.51493 0.28784
# Poissons Ratio (z) = 0.40631 0.17211
#
# Static dielectric constant tensor:
#      x y z
#    x 3.618540 0.000000 -0.318190 
#    y 0.000000 3.406700 0.000000 
#    z -0.318190 0.000000 3.478150 
# 
# 
# High freq. dielectric constant tensor:
#      x y z
#    x 1.715980 0.000000 -0.017340 
#    y 0.000000 1.722890 0.000000 
#    z -0.017340 0.000000 1.712910 
# 
# From -- ./inp_files/288145.got.cif
#   From: 2010.06.25/outbox.cif.g09.slc.cpg/sg12_145_cif.got.tgz:288145.got - 2010.06.28 00:19:55.
