data_PCOD8089449
_publ_section_title
;
Structure prediction by ZEFSAII (Michael W. Deem and Ramdas Pophale) SiO2 
 PCOD8089449
Probable space group: C 2/M
;
_chemical_formula_sum "Si O2"
_cell_formula_units_Z 64
_cell_length_a 14.203950
_cell_length_b 8.892118
_cell_length_c 29.031800
_cell_angle_alpha 90.000000
_cell_angle_beta 77.578532
_cell_angle_gamma 90.000000
_cell_volume 3580.975644
_symmetry_space_group_name_H-M "C 2/M"
_symmetry_group_IT_number 12
_symmetry_cell_setting 'monoclinic'
loop_
_space_group_symop_operation_xyz
x,y,z
-x,y,-z
-x,-y,-z
x,-y,z
1/2+x,1/2+y,z
1/2-x,1/2+y,-z
1/2-x,1/2-y,-z
1/2+x,1/2-y,z
loop_
_atom_site_type_symbol
_atom_site_label
_atom_site_fract_x
_atom_site_fract_y
_atom_site_fract_z
Si Si1 0.289197 0.322442 0.118933
Si Si2 0.343632 0.321664 0.303615
Si Si3 0.903552 0.176527 0.196224
Si Si4 0.426974 0.177130 0.869538
Si Si5 0.342691 0.176252 0.625202
Si Si6 0.554043 0.179684 0.624173
Si Si7 0.277430 0.321718 0.449082
Si Si8 0.458787 0.177181 0.052568
O O1 0.291895 0.500000 0.112444
O O2 0.328076 0.272315 0.164937
O O3 0.181090 0.259765 0.124553
O O4 0.355076 0.251576 0.072139
O O5 0.356330 0.500000 0.309695
O O6 0.361297 0.271126 0.249468
O O7 0.235947 0.268885 0.328952
O O8 0.419985 0.236029 0.327565
O O9 0.006932 0.252837 0.177333
O O10 0.919959 0.000000 0.193115
O O11 0.466433 0.225184 0.915456
O O12 0.428897 0.000000 0.862600
O O13 0.447379 0.244764 0.624562
O O14 0.306955 0.221409 0.577995
O O15 0.352795 0.000000 0.628219
O O16 0.622714 0.251255 0.578510
O O17 0.560859 0.000000 0.620911
O O18 0.289730 0.500000 0.452300
O O19 0.250000 0.250000 0.500000
O O20 0.443460 0.000000 0.052761
O O21 0.500000 0.237983 0.000000
#
# Coordination Sequence:
#
# PCOD8089449 Si02
#       8
#     8   8   8   8   8   8   8   8
#     4   9  18  32  49  70  94 124 162 200 235 281
#     4   9  18  34  51  70  98 130 159 194 241 288
#     4   9  18  32  50  70  95 126 160 196 238 286
#     4   9  18  32  49  69  95 124 158 199 239 282
#     4   8  17  33  52  71  97 131 162 192 235 287
#     4  10  19  33  53  76  98 127 166 202 236 282
#     4  10  20  36  54  74 101 132 163 199 241 285
#     4   9  18  32  48  68  96 127 156 193 244 292
#
# _framework density 17.872223999999999
#
# number of rings (size 3 to 8) (size 9 to 14) (size 15 to 20)
#    0.000    2.875    0.000    1.500    0.000    3.250 
#    0.000   11.250    0.000    0.000    0.000    0.000 
#    0.000    0.000    0.000    0.000    0.000    0.000 
#
# Total GULP energy -396776.312581 kJ/mol
# GULP energy per Si atom -12399.259768 kJ/mol
# Density = 1.783155 g / cm^3
# Si number density = 17.872224 Si / 1000 Ang^3
#
#
#
# Elastic Constant Matrix: (Units=GPa)
#
#
# Indices 1 2 3 4 5 6 
#
# 1 160.3548 35.4588 76.8598 0.0000 -19.9331 0.0000
# 2 35.4588 37.1356 41.3731 0.0000 -4.9326 0.0000
# 3 76.8598 41.3731 161.9186 0.0000 -3.7971 0.0000
# 4 0.0000 0.0000 0.0000 30.9501 0.0000 -3.0059
# 5 -19.9331 -4.9326 -3.7971 0.0000 17.1257 0.0000
# 6 0.0000 0.0000 0.0000 -3.0059 0.0000 24.8026
#
#
#
# Elastic Compliance Matrix: (Units=1/GPa)
#
#
# Indices 1 2 3 4 5 6 
#
# 1 0.010068 -0.004556 -0.003389 0.000000 0.009655 0.000000
# 2 -0.004556 0.041059 -0.008219 0.000000 0.004701 0.000000
# 3 -0.003389 -0.008219 0.009787 0.000000 -0.004141 0.000000
# 4 0.000000 0.000000 0.000000 0.032695 0.000000 0.003962
# 5 0.009655 0.004701 -0.004141 0.000000 0.070065 0.000000
# 6 0.000000 0.000000 0.000000 0.003962 0.000000 0.040799
#
#
# Mechanical properties :
#
#
# Convention : Reuss Voigt Hill
#
# Bulk Modulus (GPa) = 34.97882 74.08805 54.53344
# Shear Modulus (GPa) = 20.29809 28.29015 24.29412
#
# Velocity S-wave (km/s) = 3.37372 3.98290 3.69090
# Velocity P-wave (km/s) = 5.89831 7.91806 6.98161
#
# Compressibility (1/GPa) = 0.02858873
#
# Stress axis : x y z
#
# Youngs Moduli (GPa) = 99.32572 24.35507 102.17273
#
# Poissons Ratio (x) = 0.11095 0.34622
# Poissons Ratio (y) = 0.45249 0.83972
# Poissons Ratio (z) = 0.33657 0.20017
#
# Static dielectric constant tensor:
#      x y z
#    x 3.602980 0.000000 -0.085300 
#    y 0.000000 3.133340 0.000000 
#    z -0.085300 0.000000 3.446820 
# 
# 
# High freq. dielectric constant tensor:
#      x y z
#    x 1.694440 0.000000 -0.004180 
#    y 0.000000 1.677440 0.000000 
#    z -0.004180 0.000000 1.696250 
# 
# From -- ./inp_files/359771.got.cif
#   From: 2010.06.25/outbox.cif.g09.slc.cpg/sg12_180_cif.got.tgz:359771.got - 2010.06.28 00:19:55.
