data_PCOD8089249
_publ_section_title
;
Structure prediction by ZEFSAII (Michael W. Deem and Ramdas Pophale) SiO2 
 PCOD8089249
Probable space group: C 2/M
;
_chemical_formula_sum "Si O2"
_cell_formula_units_Z 56
_cell_length_a 21.437004
_cell_length_b 17.285976
_cell_length_c 10.020680
_cell_angle_alpha 90.000000
_cell_angle_beta 52.204776
_cell_angle_gamma 90.000000
_cell_volume 2934.239546
_symmetry_space_group_name_H-M "C 2/M"
_symmetry_group_IT_number 12
_symmetry_cell_setting 'monoclinic'
loop_
_space_group_symop_operation_xyz
x,y,z
-x,y,-z
-x,-y,-z
x,-y,z
1/2+x,1/2+y,z
1/2-x,1/2+y,-z
1/2-x,1/2-y,-z
1/2+x,1/2-y,z
loop_
_atom_site_type_symbol
_atom_site_label
_atom_site_fract_x
_atom_site_fract_y
_atom_site_fract_z
Si Si1 0.414841 0.160122 0.544939
Si Si2 0.262958 0.589207 0.833640
Si Si3 0.392707 0.160022 0.058699
Si Si4 0.048780 0.411874 0.765127
Si Si5 0.821095 0.803760 0.255754
Si Si6 0.666036 0.300032 0.461786
Si Si7 0.741132 0.910525 0.159476
O O1 0.500000 0.152937 0.500000
O O2 0.409474 0.099163 0.430782
O O3 0.404880 0.246805 0.500448
O O4 0.342382 0.136162 0.736196
O O5 0.257187 0.500000 0.800585
O O6 0.178593 0.630065 0.936211
O O7 0.325843 0.628489 0.651409
O O8 0.286163 0.599637 0.958798
O O9 0.389365 0.112547 0.202238
O O10 0.388002 0.252100 0.094654
O O11 0.473024 0.144026 0.873934
O O12 0.021853 0.500000 0.820366
O O13 0.745342 0.749153 0.362633
O O14 0.850598 0.829252 0.364963
O O15 0.800140 0.879102 0.196240
O O16 0.723148 0.000000 0.211949
#
# Coordination Sequence:
#
# PCOD8089249 Si02
#       7
#     8   8   8   8   8   8   8
#     4  11  22  35  53  76 114 152 180 215 267 329
#     4  10  20  34  54  78 106 138 181 232 278 317
#     4  10  19  33  52  75 109 145 183 219 260 318
#     4  11  21  32  49  79 113 150 183 213 259 323
#     4   9  18  35  55  74 107 141 181 232 269 312
#     4   9  19  35  53  77 103 140 190 225 266 321
#     4  10  22  36  53  83 113 142 180 227 277 321
#
# _framework density 19.085011999999999
#
# number of rings (size 3 to 8) (size 9 to 14) (size 15 to 20)
#    0.000    2.000    1.429    3.000    2.000    9.143 
#    0.000    0.000    0.000    0.429    0.000    3.000 
#    0.000    0.000    0.000    0.000    0.000    0.000 
#
# Total GULP energy -347139.865171 kJ/mol
# GULP energy per Si atom -12397.852328 kJ/mol
# Density = 1.904157 g / cm^3
# Si number density = 19.085012 Si / 1000 Ang^3
#
#
#
# Elastic Constant Matrix: (Units=GPa)
#
#
# Indices 1 2 3 4 5 6 
#
# 1 40.2075 40.5986 24.6050 0.0000 10.8396 0.0000
# 2 40.5986 94.6861 51.2734 0.0000 12.4014 0.0000
# 3 24.6050 51.2734 79.9631 0.0000 21.5728 0.0000
# 4 0.0000 0.0000 0.0000 33.4934 0.0000 2.1800
# 5 10.8396 12.4014 21.5728 0.0000 26.6817 0.0000
# 6 0.0000 0.0000 0.0000 2.1800 0.0000 26.3113
#
#
#
# Elastic Compliance Matrix: (Units=1/GPa)
#
#
# Indices 1 2 3 4 5 6 
#
# 1 0.046354 -0.018861 0.000699 0.000000 -0.010630 0.000000
# 2 -0.018861 0.023879 -0.010975 0.000000 0.005437 0.000000
# 3 0.000699 -0.010975 0.023058 0.000000 -0.013826 0.000000
# 4 0.000000 0.000000 0.000000 0.030018 0.000000 -0.002487
# 5 -0.010630 0.005437 -0.013826 0.000000 0.050449 0.000000
# 6 0.000000 0.000000 0.000000 -0.002487 0.000000 0.038213
#
#
# Mechanical properties :
#
#
# Convention : Reuss Voigt Hill
#
# Bulk Modulus (GPa) = 28.55827 49.75673 39.15750
# Shear Modulus (GPa) = 17.73566 23.85592 20.79579
#
# Velocity S-wave (km/s) = 3.05175 3.53934 3.30455
# Velocity P-wave (km/s) = 5.23581 6.54449 5.92638
#
# Compressibility (1/GPa) = 0.03501613
#
# Stress axis : x y z
#
# Youngs Moduli (GPa) = 21.57316 41.87752 43.36886
#
# Poissons Ratio (x) = 0.78986 -0.03029
# Poissons Ratio (y) = 0.40690 0.47596
# Poissons Ratio (z) = -0.01507 0.45960
#
# Static dielectric constant tensor:
#      x y z
#    x 3.355610 0.000000 0.250510 
#    y 0.000000 3.442280 0.000000 
#    z 0.250510 0.000000 3.546620 
# 
# 
# High freq. dielectric constant tensor:
#      x y z
#    x 1.718780 0.000000 0.026940 
#    y 0.000000 1.727620 0.000000 
#    z 0.026940 0.000000 1.742410 
# 
# From -- ./inp_files/87839.got.cif
#   From: 2010.06.25/outbox.cif.g09.slc.cpg/sg12_44_cif.got.tgz:87839.got - 2010.06.28 00:19:55.
