data_PCOD8089355
_publ_section_title
;
Structure prediction by ZEFSAII (Michael W. Deem and Ramdas Pophale) SiO2 
 PCOD8089355
Probable space group: C 2/M
;
_chemical_formula_sum "Si O2"
_cell_formula_units_Z 56
_cell_length_a 21.642405
_cell_length_b 8.708475
_cell_length_c 20.268843
_cell_angle_alpha 90.000000
_cell_angle_beta 51.337650
_cell_angle_gamma 90.000000
_cell_volume 2982.903820
_symmetry_space_group_name_H-M "C 2/M"
_symmetry_group_IT_number 12
_symmetry_cell_setting 'monoclinic'
loop_
_space_group_symop_operation_xyz
x,y,z
-x,y,-z
-x,-y,-z
x,-y,z
1/2+x,1/2+y,z
1/2-x,1/2+y,-z
1/2-x,1/2-y,-z
1/2+x,1/2-y,z
loop_
_atom_site_type_symbol
_atom_site_label
_atom_site_fract_x
_atom_site_fract_y
_atom_site_fract_z
Si Si1 0.984448 0.319877 0.583369
Si Si2 0.718699 0.676181 0.614248
Si Si3 0.726203 0.683590 0.944834
Si Si4 0.331370 0.172247 0.755085
Si Si5 0.865746 0.175770 0.463569
Si Si6 0.588672 0.178092 0.954137
Si Si7 0.176153 0.171424 0.783790
O O1 0.968554 0.500000 0.586221
O O2 0.909541 0.244415 0.672868
O O3 0.000000 0.247798 0.500000
O O4 0.060556 0.286772 0.576250
O O5 0.747742 0.500000 0.594633
O O6 0.795926 0.783202 0.561052
O O7 0.661968 0.711936 0.591526
O O8 0.666908 0.713352 0.713313
O O9 0.725088 0.500000 0.948235
O O10 0.791521 0.745642 0.847930
O O11 0.638192 0.736648 0.979454
O O12 0.750000 0.750000 0.000000
O O13 0.269004 0.174927 0.737458
O O14 0.355143 0.000000 0.759204
O O15 0.890790 0.000000 0.457322
O O16 0.631295 0.201580 0.855839
O O17 0.585990 0.000000 0.975024
O O18 0.500000 0.242559 0.000000
O O19 0.142766 0.000000 0.821772
#
# Coordination Sequence:
#
# PCOD8089355 Si02
#       7
#     8   8   8   8   8   8   8
#     4  10  19  33  53  74 100 138 178 212 258 318
#     4   9  18  34  53  72 100 139 177 213 260 318
#     4  10  20  37  60  83 111 148 189 231 281 335
#     4   8  16  31  52  77 101 131 174 218 258 314
#     4  10  20  32  48  74 107 136 171 219 263 306
#     4  10  21  37  56  82 115 144 179 228 279 334
#     4   9  17  33  57  78  99 133 179 222 262 315
#
# _framework density 18.773652999999999
#
# number of rings (size 3 to 8) (size 9 to 14) (size 15 to 20)
#    0.000    2.571    0.000    3.000    0.000    4.857 
#    2.571    3.571    0.000    0.000    0.000    0.000 
#    0.000    0.000    0.000    0.000    0.000    0.000 
#
# Total GULP energy -347007.821571 kJ/mol
# GULP energy per Si atom -12393.136485 kJ/mol
# Density = 1.873092 g / cm^3
# Si number density = 18.773653 Si / 1000 Ang^3
#
#
#
# Elastic Constant Matrix: (Units=GPa)
#
#
# Indices 1 2 3 4 5 6 
#
# 1 108.6980 29.7291 70.0987 0.0003 -4.5827 -0.0003
# 2 29.7291 35.3339 23.2499 0.0004 0.3690 -0.0008
# 3 70.0987 23.2499 110.3073 0.0000 2.8885 -0.0001
# 4 0.0003 0.0004 0.0000 23.2829 -0.0001 0.5948
# 5 -4.5827 0.3690 2.8885 -0.0001 27.5895 0.0001
# 6 -0.0003 -0.0008 -0.0001 0.5948 0.0001 29.4113
#
#
#
# Elastic Compliance Matrix: (Units=1/GPa)
#
#
# Indices 1 2 3 4 5 6 
#
# 1 0.018063 -0.008843 -0.009723 0.000000 0.004137 0.000000
# 2 -0.008843 0.037190 -0.002173 0.000000 -0.001739 0.000001
# 3 -0.009723 -0.002173 0.015788 0.000000 -0.003239 0.000000
# 4 0.000000 0.000000 0.000000 0.042972 0.000000 -0.000869
# 5 0.004137 -0.001739 -0.003239 0.000000 0.037295 0.000000
# 6 0.000000 0.000001 0.000000 -0.000869 0.000000 0.034018
#
#
# Mechanical properties :
#
#
# Convention : Reuss Voigt Hill
#
# Bulk Modulus (GPa) = 33.82836 55.61052 44.71944
# Shear Modulus (GPa) = 21.12730 24.80752 22.96741
#
# Velocity S-wave (km/s) = 3.35829 3.63905 3.50149
# Velocity P-wave (km/s) = 5.75289 6.88061 6.34186
#
# Compressibility (1/GPa) = 0.02956099
#
# Stress axis : x y z
#
# Youngs Moduli (GPa) = 55.36041 26.88880 63.34078
#
# Poissons Ratio (x) = 0.23778 0.61589
# Poissons Ratio (y) = 0.48957 0.13767
# Poissons Ratio (z) = 0.53829 0.05844
#
# Static dielectric constant tensor:
#      x y z
#    x 3.420600 0.000000 0.037330 
#    y 0.000000 3.228520 0.000000 
#    z 0.037330 0.000000 3.604840 
# 
# 
# High freq. dielectric constant tensor:
#      x y z
#    x 1.726690 0.000000 0.004980 
#    y 0.000000 1.707210 0.000000 
#    z 0.004980 0.000000 1.728820 
# 
# From -- ./inp_files/319693.got.cif
#   From: 2010.06.25/outbox.cif.g09.slc.cpg/sg12_160_cif.got.tgz:319693.got - 2010.06.28 00:19:55.
