data_PCOD8089592
_publ_section_title
;
Structure prediction by ZEFSAII (Michael W. Deem and Ramdas Pophale) SiO2 
 PCOD8089592
Probable space group: C 2/M
;
_chemical_formula_sum "Si O2"
_cell_formula_units_Z 48
_cell_length_a 18.008336
_cell_length_b 15.380926
_cell_length_c 13.932515
_cell_angle_alpha 90.000000
_cell_angle_beta 140.312979
_cell_angle_gamma 90.000000
_cell_volume 2464.393695
_symmetry_space_group_name_H-M "C 2/M"
_symmetry_group_IT_number 12
_symmetry_cell_setting 'monoclinic'
loop_
_space_group_symop_operation_xyz
x,y,z
-x,y,-z
-x,-y,-z
x,-y,z
1/2+x,1/2+y,z
1/2-x,1/2+y,-z
1/2-x,1/2-y,-z
1/2+x,1/2-y,z
loop_
_atom_site_type_symbol
_atom_site_label
_atom_site_fract_x
_atom_site_fract_y
_atom_site_fract_z
Si Si1 0.220475 0.193109 0.821350
Si Si2 0.870396 0.597159 0.836081
Si Si3 0.444925 0.098398 0.298912
Si Si4 0.911303 0.240862 0.136956
Si Si5 0.838047 0.337367 0.368117
Si Si6 0.164524 0.760440 0.326903
O O1 0.279495 0.107754 0.834358
O O2 0.136938 0.174145 0.829389
O O3 0.145245 0.242270 0.664536
O O4 0.325178 0.258218 0.960228
O O5 0.857389 0.500000 0.782041
O O6 0.842897 0.664776 0.725465
O O7 0.000000 0.615677 0.000000
O O8 0.408304 0.159432 0.174217
O O9 0.562501 0.141437 0.456545
O O10 0.347950 0.095311 0.288391
O O11 0.465295 0.000000 0.282276
O O12 0.037950 0.207097 0.233308
O O13 0.714955 0.332778 0.302420
O O14 0.250000 0.750000 0.500000
#
# Coordination Sequence:
#
# PCOD8089592 Si02
#       6
#     8   8   8   8   8   8
#     4   9  19  34  53  76 111 139 179 214 255 326
#     4  10  20  35  56  82 110 136 174 228 277 310
#     4  10  19  33  53  83 111 132 175 225 272 307
#     4  10  19  33  53  83 106 141 175 216 268 307
#     4   9  18  31  50  75 105 143 169 212 263 309
#     4  11  20  34  52  80 112 139 178 218 262 320
#
# _framework density 19.477408
#
# number of rings (size 3 to 8) (size 9 to 14) (size 15 to 20)
#    0.000    2.167    3.333    1.000    0.000    1.333 
#    0.000    0.000    0.000    4.000    0.000   18.667 
#    0.000    0.000    0.000    0.000    0.000    0.000 
#
# Total GULP energy -297316.257832 kJ/mol
# GULP energy per Si atom -12388.177410 kJ/mol
# Density = 1.943308 g / cm^3
# Si number density = 19.477408 Si / 1000 Ang^3
#
#
#
# Elastic Constant Matrix: (Units=GPa)
#
#
# Indices 1 2 3 4 5 6 
#
# 1 134.3914 25.0822 29.4128 0.0000 29.2433 0.0000
# 2 25.0822 73.7378 31.1709 0.0000 5.2691 0.0000
# 3 29.4128 31.1709 68.6130 0.0000 6.2565 0.0000
# 4 0.0000 0.0000 0.0000 16.6384 0.0000 -2.7489
# 5 29.2433 5.2691 6.2565 0.0000 32.1195 0.0000
# 6 0.0000 0.0000 0.0000 -2.7489 0.0000 21.8380
#
#
#
# Elastic Compliance Matrix: (Units=1/GPa)
#
#
# Indices 1 2 3 4 5 6 
#
# 1 0.010220 -0.001665 -0.002852 0.000000 -0.008476 0.000000
# 2 -0.001665 0.017109 -0.007067 0.000000 0.000086 0.000000
# 3 -0.002852 -0.007067 0.019002 0.000000 0.000054 0.000000
# 4 0.000000 0.000000 0.000000 0.061378 0.000000 0.007726
# 5 -0.008476 0.000086 0.000054 0.000000 0.038826 0.000000
# 6 0.000000 0.000000 0.000000 0.007726 0.000000 0.046764
#
#
# Mechanical properties :
#
#
# Convention : Reuss Voigt Hill
#
# Bulk Modulus (GPa) = 43.16948 49.78600 46.47774
# Shear Modulus (GPa) = 22.30252 26.85761 24.58006
#
# Velocity S-wave (km/s) = 3.38752 3.71740 3.55629
# Velocity P-wave (km/s) = 6.12474 6.63640 6.38569
#
# Compressibility (1/GPa) = 0.02316451
#
# Stress axis : x y z
#
# Youngs Moduli (GPa) = 97.84405 58.44829 52.62482
#
# Poissons Ratio (x) = 0.09733 0.15007
# Poissons Ratio (y) = 0.16294 0.37188
# Poissons Ratio (z) = 0.27903 0.41304
#
# Static dielectric constant tensor:
#      x y z
#    x 3.996570 0.000000 0.028950 
#    y 0.000000 3.187620 0.000000 
#    z 0.028950 0.000000 3.464840 
# 
# 
# High freq. dielectric constant tensor:
#      x y z
#    x 1.778110 0.000000 -0.006510 
#    y 0.000000 1.703430 0.000000 
#    z -0.006510 0.000000 1.756920 
# 
# From -- ./inp_files/225458.got.cif
#   From: 2010.06.25/outbox.cif.g09.slc.cpg/sg12_113_cif.got.tgz:225458.got - 2010.06.28 00:19:55.
