data_PCOD8089633
_publ_section_title
;
Structure prediction by ZEFSAII (Michael W. Deem and Ramdas Pophale) SiO2 
 PCOD8089633
Probable space group: C 2/M
;
_chemical_formula_sum "Si O2"
_cell_formula_units_Z 64
_cell_length_a 17.524029
_cell_length_b 16.844660
_cell_length_c 21.198109
_cell_angle_alpha 90.000000
_cell_angle_beta 145.757481
_cell_angle_gamma 90.000000
_cell_volume 3521.015450
_symmetry_space_group_name_H-M "C 2/M"
_symmetry_group_IT_number 12
_symmetry_cell_setting 'monoclinic'
loop_
_space_group_symop_operation_xyz
x,y,z
-x,y,-z
-x,-y,-z
x,-y,z
1/2+x,1/2+y,z
1/2-x,1/2+y,-z
1/2-x,1/2-y,-z
1/2+x,1/2-y,z
loop_
_atom_site_type_symbol
_atom_site_label
_atom_site_fract_x
_atom_site_fract_y
_atom_site_fract_z
Si Si1 0.648273 0.162944 0.234702
Si Si2 0.409406 0.591728 0.629258
Si Si3 0.678854 0.337041 0.765314
Si Si4 0.607979 0.191932 0.791273
Si Si5 0.474588 0.308048 0.791318
Si Si6 0.373976 0.090635 0.999997
Si Si7 0.807692 0.909796 0.999980
Si Si8 0.349015 0.091732 0.629196
O O1 0.777235 0.154986 0.277217
O O2 0.633855 0.255214 0.244913
O O3 0.674048 0.107922 0.312772
O O4 0.514291 0.135060 0.107030
O O5 0.404995 0.500000 0.645711
O O6 0.548566 0.607886 0.687333
O O7 0.396976 0.643061 0.684180
O O8 0.286111 0.615913 0.500033
O O9 0.643906 0.244779 0.755004
O O10 0.800268 0.364833 0.893032
O O11 0.586467 0.249981 0.836480
O O12 0.471314 0.143045 0.684141
O O13 0.731125 0.132694 0.890071
O O14 0.549079 0.367286 0.890130
O O15 0.283209 0.094257 0.000029
O O16 0.402480 0.000000 0.999900
O O17 0.836866 0.000000 0.999998
O O18 0.386320 0.000000 0.645666
#
# Coordination Sequence:
#
# PCOD8089633 Si02
#       8
#     8   8   8   8   8   8   8   8
#     4  11  23  35  52  79 111 143 171 205 259 317
#     4  10  21  37  57  79 102 133 176 221 261 303
#     4  11  23  35  52  79 111 143 171 205 259 317
#     4  10  19  33  54  76 105 137 176 215 255 302
#     4  10  19  33  54  76 105 137 176 215 255 302
#     4  11  20  32  52  80 111 139 172 212 256 309
#     4  11  18  30  55  81 101 132 177 222 258 295
#     4  10  21  37  57  79 102 133 176 221 261 303
#
# _framework density 18.176575
#
# number of rings (size 3 to 8) (size 9 to 14) (size 15 to 20)
#    0.000    1.500    5.000    3.000    0.000    7.500 
#    0.000    1.250    0.000    3.750    0.000    1.750 
#    0.000    0.000    0.000    0.000    0.000    0.000 
#
# Total GULP energy -396909.451853 kJ/mol
# GULP energy per Si atom -12403.420370 kJ/mol
# Density = 1.813520 g / cm^3
# Si number density = 18.176575 Si / 1000 Ang^3
#
#
#
# Elastic Constant Matrix: (Units=GPa)
#
#
# Indices 1 2 3 4 5 6 
#
# 1 55.6887 23.4856 24.9780 -0.0004 0.2442 -0.0006
# 2 23.4856 111.2399 53.9677 -0.0003 -0.2142 -0.0004
# 3 24.9780 53.9677 134.1369 -0.0008 -0.8342 -0.0004
# 4 -0.0004 -0.0003 -0.0008 23.1468 0.0002 -0.0814
# 5 0.2442 -0.2142 -0.8342 0.0002 1.6685 0.0002
# 6 -0.0006 -0.0004 -0.0004 -0.0814 0.0002 13.4842
#
#
#
# Elastic Compliance Matrix: (Units=1/GPa)
#
#
# Indices 1 2 3 4 5 6 
#
# 1 0.020436 -0.003061 -0.002603 0.000000 -0.004686 0.000001
# 2 -0.003061 0.011629 -0.004110 0.000000 -0.000114 0.000000
# 3 -0.002603 -0.004110 0.009622 0.000000 0.004664 0.000000
# 4 0.000000 0.000000 0.000000 0.043203 -0.000006 0.000261
# 5 -0.004686 -0.000114 0.004664 -0.000006 0.602343 -0.000008
# 6 0.000001 0.000000 0.000000 0.000261 -0.000008 0.074162
#
#
# Mechanical properties :
#
#
# Convention : Reuss Voigt Hill
#
# Bulk Modulus (GPa) = 45.16595 56.21422 50.69008
# Shear Modulus (GPa) = 6.34257 20.90218 13.62238
#
# Velocity S-wave (km/s) = 1.87003 3.39477 2.74057
# Velocity P-wave (km/s) = 5.43737 6.80881 6.16137
#
# Compressibility (1/GPa) = 0.02214057
#
# Stress axis : x y z
#
# Youngs Moduli (GPa) = 48.93359 85.98960 103.92568
#
# Poissons Ratio (x) = 0.26318 0.27054
# Poissons Ratio (y) = 0.14977 0.42710
# Poissons Ratio (z) = 0.12738 0.35339
#
# Static dielectric constant tensor:
#      x y z
#    x 3.102910 0.000000 -0.002150 
#    y 0.000000 3.659200 0.000000 
#    z -0.002150 0.000000 3.365920 
# 
# 
# High freq. dielectric constant tensor:
#      x y z
#    x 1.664440 0.000000 -0.000330 
#    y 0.000000 1.720890 0.000000 
#    z -0.000330 0.000000 1.705310 
# 
# From -- ./inp_files/157800.got.cif
#   From: 2010.06.25/outbox.cif.g09.slc.cpg/sg12_79_cif.got.tgz:157800.got - 2010.06.28 00:19:55.
