data_PCOD8089529
_publ_section_title
;
Structure prediction by ZEFSAII (Michael W. Deem and Ramdas Pophale) SiO2 
 PCOD8089529
Probable space group: C 2/M
;
_chemical_formula_sum "Si O2"
_cell_formula_units_Z 64
_cell_length_a 24.879632
_cell_length_b 9.091599
_cell_length_c 28.740600
_cell_angle_alpha 90.000000
_cell_angle_beta 31.177399
_cell_angle_gamma 90.000000
_cell_volume 3365.498972
_symmetry_space_group_name_H-M "C 2/M"
_symmetry_group_IT_number 12
_symmetry_cell_setting 'monoclinic'
loop_
_space_group_symop_operation_xyz
x,y,z
-x,y,-z
-x,-y,-z
x,-y,z
1/2+x,1/2+y,z
1/2-x,1/2+y,-z
1/2-x,1/2-y,-z
1/2+x,1/2-y,z
loop_
_atom_site_type_symbol
_atom_site_label
_atom_site_fract_x
_atom_site_fract_y
_atom_site_fract_z
Si Si1 0.552590 0.834191 0.340501
Si Si2 0.082327 0.675652 0.478101
Si Si3 0.231117 0.165638 0.778556
Si Si4 0.678634 0.166888 0.987445
Si Si5 0.204189 0.674866 0.706099
Si Si6 0.992945 0.328763 0.817000
Si Si7 0.391183 0.165280 0.061376
Si Si8 0.385527 0.171941 0.804602
O O1 0.456423 0.770496 0.441680
O O2 0.644944 0.829857 0.309916
O O3 0.579071 0.755024 0.271327
O O4 0.525783 0.000000 0.346159
O O5 0.095530 0.500000 0.465937
O O6 0.193178 0.750337 0.389899
O O7 0.000000 0.728344 0.500000
O O8 0.187824 0.273759 0.771200
O O9 0.193852 0.222041 0.856348
O O10 0.192362 0.000000 0.797460
O O11 0.606092 0.172331 0.995915
O O12 0.782255 0.258100 0.902180
O O13 0.712128 0.000000 0.974504
O O14 0.606654 0.238102 0.081347
O O15 0.216199 0.500000 0.695086
O O16 0.104708 0.733334 0.750371
O O17 0.992204 0.500000 0.830065
O O18 0.978250 0.299685 0.772876
O O19 0.366390 0.000000 0.097219
O O20 0.500000 0.221219 0.000000
O O21 0.361562 0.000000 0.816008
#
# Coordination Sequence:
#
# PCOD8089529 Si02
#       8
#     8   8   8   8   8   8   8   8
#     4   9  18  33  55  80 106 136 175 221 273 323
#     4  10  19  36  58  80 110 144 177 221 277 334
#     4  11  20  34  54  79 109 143 181 222 272 327
#     4  10  19  33  53  79 109 144 184 226 271 317
#     4  11  22  37  56  82 112 144 183 225 273 333
#     4   9  20  37  56  77 109 149 185 222 271 327
#     4  10  20  33  49  73 111 153 184 218 273 332
#     4  10  19  36  59  80 105 145 190 228 266 317
#
# _framework density 19.016497999999999
#
# number of rings (size 3 to 8) (size 9 to 14) (size 15 to 20)
#    0.000    2.000    2.500    1.875    0.000    2.500 
#    0.000    5.000    0.000    0.000    0.000    0.000 
#    0.000    0.000    0.000    0.000    0.000    0.000 
#
# Total GULP energy -396629.761126 kJ/mol
# GULP energy per Si atom -12394.680035 kJ/mol
# Density = 1.897322 g / cm^3
# Si number density = 19.016498 Si / 1000 Ang^3
#
#
#
# Elastic Constant Matrix: (Units=GPa)
#
#
# Indices 1 2 3 4 5 6 
#
# 1 109.9246 23.8489 50.2859 -0.0038 4.7996 0.0042
# 2 23.8489 46.2470 32.2738 -0.0136 1.9553 0.0152
# 3 50.2859 32.2738 113.2751 -0.0023 11.1336 0.0045
# 4 -0.0038 -0.0136 -0.0023 27.4562 0.0011 1.0746
# 5 4.7996 1.9553 11.1336 0.0011 23.0980 -0.0023
# 6 0.0042 0.0152 0.0045 1.0746 -0.0023 18.8097
#
#
#
# Elastic Compliance Matrix: (Units=1/GPa)
#
#
# Indices 1 2 3 4 5 6 
#
# 1 0.011744 -0.003021 -0.004344 0.000000 -0.000091 0.000001
# 2 -0.003021 0.027816 -0.006733 0.000014 0.001519 -0.000021
# 3 -0.004344 -0.006733 0.013153 -0.000003 -0.004867 0.000003
# 4 0.000000 0.000014 -0.000003 0.036503 -0.000002 -0.002085
# 5 -0.000091 0.001519 -0.004867 -0.000002 0.045530 0.000006
# 6 0.000001 -0.000021 0.000003 -0.002085 0.000006 0.053283
#
#
# Mechanical properties :
#
#
# Convention : Reuss Voigt Hill
#
# Bulk Modulus (GPa) = 40.78867 53.58487 47.18677
# Shear Modulus (GPa) = 22.28195 24.74199 23.51197
#
# Velocity S-wave (km/s) = 3.42675 3.61096 3.52006
# Velocity P-wave (km/s) = 6.09528 6.75460 6.43339
#
# Compressibility (1/GPa) = 0.02451661
#
# Stress axis : x y z
#
# Youngs Moduli (GPa) = 85.15314 35.95114 76.02733
#
# Poissons Ratio (x) = 0.10860 0.33024
# Poissons Ratio (y) = 0.25724 0.51191
# Poissons Ratio (z) = 0.36988 0.24207
#
# Static dielectric constant tensor:
#      x y z
#    x 3.633170 -0.000020 0.142330 
#    y -0.000020 3.210320 0.000010 
#    z 0.142330 0.000010 3.586630 
# 
# 
# High freq. dielectric constant tensor:
#      x y z
#    x 1.741510 0.000000 0.010160 
#    y 0.000000 1.707440 0.000000 
#    z 0.010160 0.000000 1.740710 
# 
# From -- ./inp_files/238564.got.cif
#   From: 2010.06.25/outbox.cif.g09.slc.cpg/sg12_120_cif.got.tgz:238564.got - 2010.06.28 00:19:55.
