data_PCOD8089922
_publ_section_title
;
Structure prediction by ZEFSAII (Michael W. Deem and Ramdas Pophale) SiO2 
 PCOD8089922
Probable space group: C 2/M
;
_chemical_formula_sum "Si O2"
_cell_formula_units_Z 64
_cell_length_a 23.935728
_cell_length_b 9.008587
_cell_length_c 29.378912
_cell_angle_alpha 90.000000
_cell_angle_beta 28.219912
_cell_angle_gamma 90.000000
_cell_volume 2995.496824
_symmetry_space_group_name_H-M "C 2/M"
_symmetry_group_IT_number 12
_symmetry_cell_setting 'monoclinic'
loop_
_space_group_symop_operation_xyz
x,y,z
-x,y,-z
-x,-y,-z
x,-y,z
1/2+x,1/2+y,z
1/2-x,1/2+y,-z
1/2-x,1/2-y,-z
1/2+x,1/2-y,z
loop_
_atom_site_type_symbol
_atom_site_label
_atom_site_fract_x
_atom_site_fract_y
_atom_site_fract_z
Si Si1 0.728786 0.168710 0.204163
Si Si2 0.105817 0.170064 0.454517
Si Si3 0.860568 0.676233 0.290097
Si Si4 0.504321 0.332136 0.624327
Si Si5 0.796522 0.330402 0.881260
Si Si6 0.961152 0.171232 0.298666
Si Si7 0.436479 0.164989 0.093279
Si Si8 0.451582 0.672597 0.906657
O O1 0.594735 0.209069 0.311268
O O2 0.756177 0.193507 0.131367
O O3 0.804175 0.278318 0.181185
O O4 0.753348 0.000000 0.201069
O O5 0.239922 0.232962 0.350894
O O6 0.090254 0.187306 0.519927
O O7 0.000000 0.247301 0.500000
O O8 0.106433 0.000000 0.438772
O O9 0.860407 0.500000 0.292474
O O10 0.865036 0.738479 0.338396
O O11 0.978843 0.732548 0.180563
O O12 0.451635 0.500000 0.663350
O O13 0.568062 0.300945 0.627024
O O14 0.840536 0.500000 0.855357
O O15 0.906284 0.222026 0.810307
O O16 0.689755 0.294689 0.993217
O O17 0.951454 0.000000 0.292366
O O18 0.503575 0.281473 0.076132
O O19 0.432307 0.000000 0.118520
O O20 0.500000 0.159211 0.000000
O O21 0.477353 0.500000 0.880038
#
# Coordination Sequence:
#
# PCOD8089922 Si02
#       8
#     8   8   8   8   8   8   8   8
#     4  10  19  33  54  84 120 156 196 246 303 356
#     4   9  20  40  64  90 122 156 196 248 307 368
#     4  11  24  41  62  89 119 159 206 251 304 369
#     4   9  19  37  63  91 117 154 201 249 303 363
#     4   9  19  36  58  84 118 158 198 241 296 357
#     4  10  21  38  62  91 122 156 199 253 302 353
#     4  11  22  34  53  82 118 162 209 251 292 353
#     4  11  23  39  58  84 122 164 202 251 308 357
#
# _framework density 21.365403000000001
#
# number of rings (size 3 to 8) (size 9 to 14) (size 15 to 20)
#    0.000    2.000    1.250    1.875    1.750    3.500 
#    0.000    1.250    0.000    1.875    0.000    0.000 
#    0.000    0.000    0.000    0.000    0.000    0.000 
#
# Total GULP energy -396640.852897 kJ/mol
# GULP energy per Si atom -12395.026653 kJ/mol
# Density = 2.131677 g / cm^3
# Si number density = 21.365403 Si / 1000 Ang^3
#
#
#
# Elastic Constant Matrix: (Units=GPa)
#
#
# Indices 1 2 3 4 5 6 
#
# 1 97.5667 32.5726 27.0380 -0.0280 -8.2120 0.0282
# 2 32.5726 69.1757 22.2026 0.0224 -6.0575 -0.0087
# 3 27.0380 22.2026 65.1805 -0.0411 0.7941 0.0307
# 4 -0.0280 0.0224 -0.0411 21.2197 0.0212 -1.9938
# 5 -8.2120 -6.0575 0.7941 0.0212 24.0804 -0.0229
# 6 0.0282 -0.0087 0.0307 -1.9938 -0.0229 32.4907
#
#
#
# Elastic Compliance Matrix: (Units=1/GPa)
#
#
# Indices 1 2 3 4 5 6 
#
# 1 0.013178 -0.004642 -0.003927 0.000011 0.003456 -0.000006
# 2 -0.004642 0.018316 -0.004352 -0.000036 0.003168 0.000013
# 3 -0.003927 -0.004352 0.018491 0.000037 -0.003044 -0.000015
# 4 0.000011 -0.000036 0.000037 0.047400 -0.000045 0.002909
# 5 0.003456 0.003168 -0.003044 -0.000045 0.043603 0.000029
# 6 -0.000006 0.000013 -0.000015 0.002909 0.000029 0.030957
#
#
# Mechanical properties :
#
#
# Convention : Reuss Voigt Hill
#
# Bulk Modulus (GPa) = 41.42165 43.94993 42.68579
# Shear Modulus (GPa) = 24.29126 25.56547 24.92837
#
# Velocity S-wave (km/s) = 3.37552 3.46292 3.41950
# Velocity P-wave (km/s) = 5.88400 6.05015 5.96766
#
# Compressibility (1/GPa) = 0.02414196
#
# Stress axis : x y z
#
# Youngs Moduli (GPa) = 75.88149 54.59700 54.08105
#
# Poissons Ratio (x) = 0.25345 0.21240
# Poissons Ratio (y) = 0.35225 0.23536
# Poissons Ratio (z) = 0.29802 0.23761
#
# Static dielectric constant tensor:
#      x y z
#    x 3.990580 -0.000090 -0.040980 
#    y -0.000090 3.829330 0.000050 
#    z -0.040980 0.000050 3.768810 
# 
# 
# High freq. dielectric constant tensor:
#      x y z
#    x 1.839220 -0.000010 -0.000840 
#    y -0.000010 1.824780 0.000000 
#    z -0.000840 0.000000 1.830640 
# 
# From -- ./inp_files/382271.got.cif
#   From: 2010.06.25/outbox.cif.g09.slc.cpg/sg12_192_cif.got.tgz:382271.got - 2010.06.28 00:19:55.
