data_PCOD8089586
_publ_section_title
;
Structure prediction by ZEFSAII (Michael W. Deem and Ramdas Pophale) SiO2 
 PCOD8089586
Probable space group: C 2/M
;
_chemical_formula_sum "Si O2"
_cell_formula_units_Z 40
_cell_length_a 19.276480
_cell_length_b 13.703278
_cell_length_c 16.232780
_cell_angle_alpha 90.000000
_cell_angle_beta 28.140792
_cell_angle_gamma 90.000000
_cell_volume 2022.346400
_symmetry_space_group_name_H-M "C 2/M"
_symmetry_group_IT_number 12
_symmetry_cell_setting 'monoclinic'
loop_
_space_group_symop_operation_xyz
x,y,z
-x,y,-z
-x,-y,-z
x,-y,z
1/2+x,1/2+y,z
1/2-x,1/2+y,-z
1/2-x,1/2-y,-z
1/2+x,1/2-y,z
loop_
_atom_site_type_symbol
_atom_site_label
_atom_site_fract_x
_atom_site_fract_y
_atom_site_fract_z
Si Si1 0.759101 0.723783 0.605007
Si Si2 0.895482 0.885111 0.363783
Si Si3 0.939830 0.614619 0.725440
Si Si4 0.215932 0.112835 0.099901
Si Si5 0.340998 0.748448 0.696051
O O1 0.778113 0.832973 0.547889
O O2 0.622204 0.665415 0.707991
O O3 0.736738 0.731196 0.726650
O O4 0.902716 0.662879 0.429025
O O5 0.058830 0.863870 0.224194
O O6 0.860525 0.000000 0.396472
O O7 0.956504 0.500000 0.702050
O O8 0.862412 0.650429 0.722520
O O9 0.841153 0.647900 0.905967
O O10 0.235076 0.168919 0.165856
O O11 0.233104 0.000000 0.102650
O O12 0.500000 0.707766 0.500000
#
# Coordination Sequence:
#
# PCOD8089586 Si02
#       5
#     8   8   8   8   8
#     4  10  21  35  55  81 107 146 179 222 269 315
#     4  10  20  35  55  80 110 142 179 220 271 324
#     4  10  20  34  55  80 108 145 182 218 264 321
#     4  10  20  35  58  82 108 141 179 224 270 317
#     4  10  19  33  53  82 109 137 180 224 264 313
#
# _framework density 19.779005999999999
#
# number of rings (size 3 to 8) (size 9 to 14) (size 15 to 20)
#    0.000    2.000    4.000    1.200    0.000    5.600 
#    0.000    1.000    0.000    3.600    0.000    7.000 
#    0.000    0.000    0.000    0.000    0.000    0.000 
#
# Total GULP energy -247989.363203 kJ/mol
# GULP energy per Si atom -12399.468160 kJ/mol
# Density = 1.973399 g / cm^3
# Si number density = 19.779006 Si / 1000 Ang^3
#
#
#
# Elastic Constant Matrix: (Units=GPa)
#
#
# Indices 1 2 3 4 5 6 
#
# 1 133.8265 48.4525 37.6803 -0.0006 30.2116 0.0003
# 2 48.4525 77.7180 31.8581 -0.0003 9.1845 0.0004
# 3 37.6803 31.8581 66.9210 0.0011 22.4026 -0.0005
# 4 -0.0006 -0.0003 0.0011 26.7761 -0.0010 -0.2069
# 5 30.2116 9.1845 22.4026 -0.0010 27.2063 0.0005
# 6 0.0003 0.0004 -0.0005 -0.2069 0.0005 19.5680
#
#
#
# Elastic Compliance Matrix: (Units=1/GPa)
#
#
# Indices 1 2 3 4 5 6 
#
# 1 0.012397 -0.006321 -0.000106 0.000000 -0.011545 0.000000
# 2 -0.006321 0.019238 -0.007973 0.000001 0.007090 -0.000001
# 3 -0.000106 -0.007973 0.024654 -0.000002 -0.017491 0.000001
# 4 0.000000 0.000001 -0.000002 0.037350 0.000003 0.000395
# 5 -0.011545 0.007090 -0.017491 0.000003 0.061586 -0.000002
# 6 0.000000 -0.000001 0.000001 0.000395 -0.000002 0.051108
#
#
# Mechanical properties :
#
#
# Convention : Reuss Voigt Hill
#
# Bulk Modulus (GPa) = 36.37815 57.16083 46.76949
# Shear Modulus (GPa) = 20.46701 25.40838 22.93770
#
# Velocity S-wave (km/s) = 3.22030 3.58804 3.40913
# Velocity P-wave (km/s) = 5.67973 6.79175 6.26048
#
# Compressibility (1/GPa) = 0.02748903
#
# Stress axis : x y z
#
# Youngs Moduli (GPa) = 80.66368 51.98026 40.56197
#
# Poissons Ratio (x) = 0.32856 0.00431
# Poissons Ratio (y) = 0.50987 0.32339
# Poissons Ratio (z) = 0.00857 0.41442
#
# Static dielectric constant tensor:
#      x y z
#    x 3.736280 0.000000 0.132770 
#    y 0.000000 3.769350 0.000000 
#    z 0.132770 0.000000 3.433480 
# 
# 
# High freq. dielectric constant tensor:
#      x y z
#    x 1.773330 0.000000 0.009880 
#    y 0.000000 1.782760 0.000000 
#    z 0.009880 0.000000 1.743940 
# 
# From -- ./inp_files/72352.got.cif
#   From: 2010.06.25/outbox.cif.g09.slc.cpg/sg12_37_cif.got.tgz:72352.got - 2010.06.28 00:19:55.
