data_PCOD8089179
_publ_section_title
;
Structure prediction by ZEFSAII (Michael W. Deem and Ramdas Pophale) SiO2 
 PCOD8089179
Probable space group: C 2/M
;
_chemical_formula_sum "Si O2"
_cell_formula_units_Z 64
_cell_length_a 14.181814
_cell_length_b 8.667374
_cell_length_c 29.023981
_cell_angle_alpha 90.000000
_cell_angle_beta 76.167481
_cell_angle_gamma 90.000000
_cell_volume 3464.136286
_symmetry_space_group_name_H-M "C 2/M"
_symmetry_group_IT_number 12
_symmetry_cell_setting 'monoclinic'
loop_
_space_group_symop_operation_xyz
x,y,z
-x,y,-z
-x,-y,-z
x,-y,z
1/2+x,1/2+y,z
1/2-x,1/2+y,-z
1/2-x,1/2-y,-z
1/2+x,1/2-y,z
loop_
_atom_site_type_symbol
_atom_site_label
_atom_site_fract_x
_atom_site_fract_y
_atom_site_fract_z
Si Si1 0.919364 0.682500 0.873155
Si Si2 0.035894 0.320564 0.621153
Si Si3 0.647908 0.175882 0.700394
Si Si4 0.591469 0.679895 0.800569
Si Si5 0.832123 0.819966 0.620490
Si Si6 0.210144 0.182011 0.872596
Si Si7 0.477302 0.682874 0.053462
Si Si8 0.719587 0.317701 0.552024
O O1 0.916909 0.500000 0.876419
O O2 0.814466 0.754167 0.872168
O O3 0.992714 0.731697 0.824261
O O4 0.945806 0.748119 0.919932
O O5 0.018706 0.500000 0.612621
O O6 0.069758 0.294024 0.669487
O O7 0.117110 0.257749 0.577160
O O8 0.937598 0.226896 0.625494
O O9 0.623976 0.288054 0.745001
O O10 0.755510 0.216265 0.669915
O O11 0.642390 0.000000 0.718198
O O12 0.571014 0.500000 0.809635
O O13 0.675758 0.735830 0.825795
O O14 0.803537 0.723882 0.578655
O O15 0.828610 0.000000 0.607934
O O16 0.130881 0.236570 0.919556
O O17 0.219543 0.000000 0.872611
O O18 0.487499 0.500000 0.054171
O O19 0.500000 0.747417 0.000000
O O20 0.707009 0.500000 0.550599
O O21 0.750000 0.250000 0.500000
#
# Coordination Sequence:
#
# PCOD8089179 Si02
#       8
#     8   8   8   8   8   8   8   8
#     4  10  19  33  52  73 101 133 169 213 258 304
#     4  10  21  38  58  82 112 146 183 225 272 322
#     4   9  20  37  55  78 110 141 174 218 266 313
#     4  10  20  35  54  75 102 136 175 212 256 313
#     4  10  21  38  58  83 113 144 181 225 270 323
#     4   8  17  33  50  71 100 134 167 205 255 306
#     4   9  18  34  53  73 101 134 167 206 254 309
#     4  11  22  38  59  83 112 146 184 227 275 325
#
# _framework density 18.475024000000001
#
# number of rings (size 3 to 8) (size 9 to 14) (size 15 to 20)
#    0.000    2.375    0.000    4.125    0.000    5.250 
#    0.000   12.500    0.000    0.000    0.000    0.000 
#    0.000    0.000    0.000    0.000    0.000    0.000 
#
# Total GULP energy -396834.327118 kJ/mol
# GULP energy per Si atom -12401.072722 kJ/mol
# Density = 1.843297 g / cm^3
# Si number density = 18.475024 Si / 1000 Ang^3
#
#
#
# Elastic Constant Matrix: (Units=GPa)
#
#
# Indices 1 2 3 4 5 6 
#
# 1 144.3187 14.2995 54.9518 0.0000 1.7023 0.0000
# 2 14.2995 43.8848 29.2001 0.0000 0.5944 0.0000
# 3 54.9518 29.2001 135.4676 0.0000 -4.3678 0.0000
# 4 0.0000 0.0000 0.0000 31.6741 0.0000 1.6932
# 5 1.7023 0.5944 -4.3678 0.0000 12.0292 0.0000
# 6 0.0000 0.0000 0.0000 1.6932 0.0000 29.4140
#
#
#
# Elastic Compliance Matrix: (Units=1/GPa)
#
#
# Indices 1 2 3 4 5 6 
#
# 1 0.008271 -0.000444 -0.003336 0.000000 -0.002360 0.000000
# 2 -0.000444 0.026767 -0.005697 0.000000 -0.003328 0.000000
# 3 -0.003336 -0.005697 0.010105 0.000000 0.004423 0.000000
# 4 0.000000 0.000000 0.000000 0.031669 0.000000 -0.001823
# 5 -0.002360 -0.003328 0.004423 0.000000 0.085235 0.000000
# 6 0.000000 0.000000 0.000000 -0.001823 0.000000 0.034102
#
#
# Mechanical properties :
#
#
# Convention : Reuss Voigt Hill
#
# Bulk Modulus (GPa) = 38.18073 57.84155 48.01114
# Shear Modulus (GPa) = 22.33806 29.63809 25.98808
#
# Velocity S-wave (km/s) = 3.48098 4.00962 3.75462
# Velocity P-wave (km/s) = 6.07184 7.26719 6.69624
#
# Compressibility (1/GPa) = 0.02619122
#
# Stress axis : x y z
#
# Youngs Moduli (GPa) = 120.90495 37.35908 98.95622
#
# Poissons Ratio (x) = 0.01658 0.33007
# Poissons Ratio (y) = 0.05364 0.56376
# Poissons Ratio (z) = 0.40328 0.21284
#
# Static dielectric constant tensor:
#      x y z
#    x 3.618570 0.000000 0.006890 
#    y 0.000000 3.322970 0.000000 
#    z 0.006890 0.000000 3.401650 
# 
# 
# High freq. dielectric constant tensor:
#      x y z
#    x 1.722020 0.000000 -0.000910 
#    y 0.000000 1.714440 0.000000 
#    z -0.000910 0.000000 1.718490 
# 
# From -- ./inp_files/359811.got.cif
#   From: 2010.06.25/outbox.cif.g09.slc.cpg/sg12_180_cif.got.tgz:359811.got - 2010.06.28 00:19:55.
