data_PCOD8089820
_publ_section_title
;
Structure prediction by ZEFSAII (Michael W. Deem and Ramdas Pophale) SiO2 
 PCOD8089820
Probable space group: C 2/M
;
_chemical_formula_sum "Si O2"
_cell_formula_units_Z 40
_cell_length_a 17.801152
_cell_length_b 20.495197
_cell_length_c 6.310143
_cell_angle_alpha 90.000000
_cell_angle_beta 77.307902
_cell_angle_gamma 90.000000
_cell_volume 2245.926571
_symmetry_space_group_name_H-M "C 2/M"
_symmetry_group_IT_number 12
_symmetry_cell_setting 'monoclinic'
loop_
_space_group_symop_operation_xyz
x,y,z
-x,y,-z
-x,-y,-z
x,-y,z
1/2+x,1/2+y,z
1/2-x,1/2+y,-z
1/2-x,1/2-y,-z
1/2+x,1/2-y,z
loop_
_atom_site_type_symbol
_atom_site_label
_atom_site_fract_x
_atom_site_fract_y
_atom_site_fract_z
Si Si1 0.709594 0.809962 0.642546
Si Si2 0.577063 0.730740 0.823429
Si Si3 0.814455 0.847540 0.938958
Si Si4 0.722863 0.572867 0.655988
Si Si5 0.080650 0.884939 0.507023
O O1 0.750000 0.750000 0.500000
O O2 0.617228 0.797118 0.710437
O O3 0.744974 0.813633 0.856219
O O4 0.724202 0.877512 0.510179
O O5 0.559150 0.682784 0.639505
O O6 0.500000 0.747367 0.000000
O O7 0.644507 0.702105 0.928123
O O8 0.877757 0.873964 0.739786
O O9 0.778704 0.907042 0.096783
O O10 0.757054 0.500000 0.614845
O O11 0.634801 0.571969 0.623970
O O12 0.000000 0.920610 0.500000
#
# Coordination Sequence:
#
# PCOD8089820 Si02
#       5
#     8   8   8   8   8
#     4  11  20  35  59  84 108 142 188 237 276 326
#     4  11  20  31  54  87 115 139 178 230 286 329
#     4  10  19  33  55  76 113 142 183 221 280 322
#     4  10  23  37  53  78 112 152 193 225 270 330
#     4  10  19  33  54  80 115 148 179 224 271 332
#
# _framework density 17.810022
#
# number of rings (size 3 to 8) (size 9 to 14) (size 15 to 20)
#    0.000    1.600    8.000    0.600    0.000    3.600 
#    0.000    1.000    0.000    0.600    0.000    1.400 
#    0.000    0.000    0.000    0.000    0.000    0.000 
#
# Total GULP energy -247898.888734 kJ/mol
# GULP energy per Si atom -12394.944437 kJ/mol
# Density = 1.776949 g / cm^3
# Si number density = 17.810022 Si / 1000 Ang^3
#
#
#
# Elastic Constant Matrix: (Units=GPa)
#
#
# Indices 1 2 3 4 5 6 
#
# 1 53.1311 38.7380 26.5793 0.0000 -15.7078 0.0000
# 2 38.7380 113.9239 43.1095 0.0000 -11.2348 0.0000
# 3 26.5793 43.1095 105.1114 0.0000 -2.7281 0.0000
# 4 0.0000 0.0000 0.0000 19.9700 0.0000 -4.3741
# 5 -15.7078 -11.2348 -2.7281 0.0000 34.4577 0.0000
# 6 0.0000 0.0000 0.0000 -4.3741 0.0000 12.7838
#
#
#
# Elastic Compliance Matrix: (Units=1/GPa)
#
#
# Indices 1 2 3 4 5 6 
#
# 1 0.029437 -0.007392 -0.004135 0.000000 0.010682 0.000000
# 2 -0.007392 0.012578 -0.003277 0.000000 0.000472 0.000000
# 3 -0.004135 -0.003277 0.011851 0.000000 -0.002015 0.000000
# 4 0.000000 0.000000 0.000000 0.054132 0.000000 0.018522
# 5 0.010682 0.000472 -0.002015 0.000000 0.033885 0.000000
# 6 0.000000 0.000000 0.000000 0.018522 0.000000 0.084561
#
#
# Mechanical properties :
#
#
# Convention : Reuss Voigt Hill
#
# Bulk Modulus (GPa) = 41.22254 54.33556 47.77905
# Shear Modulus (GPa) = 18.92953 24.35828 21.64390
#
# Velocity S-wave (km/s) = 3.26369 3.70222 3.48985
# Velocity P-wave (km/s) = 6.11540 6.98927 6.56689
#
# Compressibility (1/GPa) = 0.02425857
#
# Stress axis : x y z
#
# Youngs Moduli (GPa) = 33.97083 79.50494 84.38026
#
# Poissons Ratio (x) = 0.58766 0.34891
# Poissons Ratio (y) = 0.25110 0.27653
# Poissons Ratio (z) = 0.14047 0.26056
#
# Static dielectric constant tensor:
#      x y z
#    x 3.295040 0.000000 -0.000220 
#    y 0.000000 3.056660 0.000000 
#    z -0.000220 0.000000 3.840110 
# 
# 
# High freq. dielectric constant tensor:
#      x y z
#    x 1.667800 0.000000 0.003750 
#    y 0.000000 1.654960 0.000000 
#    z 0.003750 0.000000 1.711600 
# 
# From -- ./inp_files/15742.got.cif
#   From: 2010.06.25/outbox.cif.g09.slc.cpg/sg12_8_cif.got.tgz:15742.got - 2010.06.28 00:19:55.
