data_PCOD8089266
_publ_section_title
;
Structure prediction by ZEFSAII (Michael W. Deem and Ramdas Pophale) SiO2 
 PCOD8089266
Probable space group: C 2/M
;
_chemical_formula_sum "Si O2"
_cell_formula_units_Z 64
_cell_length_a 31.619866
_cell_length_b 9.421546
_cell_length_c 18.000617
_cell_angle_alpha 90.000000
_cell_angle_beta 139.820413
_cell_angle_gamma 90.000000
_cell_volume 3459.825581
_symmetry_space_group_name_H-M "C 2/M"
_symmetry_group_IT_number 12
_symmetry_cell_setting 'monoclinic'
loop_
_space_group_symop_operation_xyz
x,y,z
-x,y,-z
-x,-y,-z
x,-y,z
1/2+x,1/2+y,z
1/2-x,1/2+y,-z
1/2-x,1/2-y,-z
1/2+x,1/2-y,z
loop_
_atom_site_type_symbol
_atom_site_label
_atom_site_fract_x
_atom_site_fract_y
_atom_site_fract_z
Si Si1 0.023336 0.667363 0.310343
Si Si2 0.342177 0.163662 0.587353
Si Si3 0.685839 0.338440 0.899926
Si Si4 0.298531 0.334771 0.661767
Si Si5 0.461948 0.334559 0.523238
Si Si6 0.590468 0.334021 0.901993
Si Si7 0.196954 0.833889 0.164774
Si Si8 0.820647 0.161077 0.277515
O O1 0.010111 0.500000 0.298516
O O2 0.096533 0.701954 0.381705
O O3 0.011243 0.739774 0.373672
O O4 0.974549 0.737834 0.184601
O O5 0.345345 0.251791 0.667899
O O6 0.277438 0.204419 0.454087
O O7 0.342253 0.000000 0.610460
O O8 0.705044 0.500000 0.942451
O O9 0.629311 0.290175 0.879955
O O10 0.659451 0.316394 0.781521
O O11 0.750000 0.250000 0.000000
O O12 0.311804 0.500000 0.667456
O O13 0.316773 0.286058 0.769338
O O14 0.500000 0.289295 0.500000
O O15 0.475352 0.500000 0.559070
O O16 0.384780 0.303124 0.411273
O O17 0.571602 0.500000 0.877660
O O18 0.633640 0.292512 0.031590
O O19 0.261559 0.761571 0.219971
O O20 0.211622 0.000000 0.180039
O O21 0.797723 0.000000 0.260526
#
# Coordination Sequence:
#
# PCOD8089266 Si02
#       8
#     8   8   8   8   8   8   8   8
#     4  11  23  38  57  81 110 145 185 228 271 320
#     4   9  19  36  56  81 111 140 171 216 275 328
#     4  10  19  33  52  76 106 142 183 223 263 312
#     4   9  18  34  58  84 107 133 173 222 269 326
#     4  10  21  38  57  78 110 148 182 222 271 323
#     4  10  21  37  55  76 108 150 187 223 272 327
#     4  10  20  35  55  80 109 141 177 225 278 320
#     4  10  20  32  52  80 108 140 181 224 269 323
#
# _framework density 18.498042000000002
#
# number of rings (size 3 to 8) (size 9 to 14) (size 15 to 20)
#    0.000    2.125    1.250    1.875    0.000    6.250 
#    0.000    4.375    0.000    3.750    0.000    0.000 
#    0.000    0.000    0.000    0.000    0.000    0.000 
#
# Total GULP energy -396898.732194 kJ/mol
# GULP energy per Si atom -12403.085381 kJ/mol
# Density = 1.845594 g / cm^3
# Si number density = 18.498042 Si / 1000 Ang^3
#
#
#
# Elastic Constant Matrix: (Units=GPa)
#
#
# Indices 1 2 3 4 5 6 
#
# 1 97.7883 47.7344 45.6036 0.0000 -13.9739 0.0000
# 2 47.7344 64.0314 48.1995 0.0000 -2.3502 0.0000
# 3 45.6036 48.1995 105.5847 0.0000 -13.2596 0.0000
# 4 0.0000 0.0000 0.0000 30.9429 0.0000 1.6741
# 5 -13.9739 -2.3502 -13.2596 0.0000 30.9401 0.0000
# 6 0.0000 0.0000 0.0000 1.6741 0.0000 31.6531
#
#
#
# Elastic Compliance Matrix: (Units=1/GPa)
#
#
# Indices 1 2 3 4 5 6 
#
# 1 0.017557 -0.011811 -0.001382 0.000000 0.006440 0.000000
# 2 -0.011811 0.032008 -0.010436 0.000000 -0.007376 0.000000
# 3 -0.001382 -0.010436 0.015488 0.000000 0.005220 0.000000
# 4 0.000000 0.000000 0.000000 0.032410 0.000000 -0.001714
# 5 0.006440 -0.007376 0.005220 0.000000 0.036906 0.000000
# 6 0.000000 0.000000 0.000000 -0.001714 0.000000 0.031683
#
#
# Mechanical properties :
#
#
# Convention : Reuss Voigt Hill
#
# Bulk Modulus (GPa) = 56.20427 61.16440 58.68433
# Shear Modulus (GPa) = 22.80583 27.09834 24.95208
#
# Velocity S-wave (km/s) = 3.51505 3.83159 3.67673
# Velocity P-wave (km/s) = 6.85010 7.26030 7.05818
#
# Compressibility (1/GPa) = 0.01779224
#
# Stress axis : x y z
#
# Youngs Moduli (GPa) = 56.95853 31.24260 64.56647
#
# Poissons Ratio (x) = 0.36901 0.08926
# Poissons Ratio (y) = 0.67275 0.67383
# Poissons Ratio (z) = 0.07874 0.32606
#
# Static dielectric constant tensor:
#      x y z
#    x 3.355750 0.000000 -0.120540 
#    y 0.000000 3.366040 0.000000 
#    z -0.120540 0.000000 3.529450 
# 
# 
# High freq. dielectric constant tensor:
#      x y z
#    x 1.711160 0.000000 -0.005570 
#    y 0.000000 1.712460 0.000000 
#    z -0.005570 0.000000 1.722280 
# 
# From -- ./inp_files/295678.got.cif
#   From: 2010.06.25/outbox.cif.g09.slc.cpg/sg12_148_cif.got.tgz:295678.got - 2010.06.28 00:19:55.
