data_PCOD8089625
_publ_section_title
;
Structure prediction by ZEFSAII (Michael W. Deem and Ramdas Pophale) SiO2 
 PCOD8089625
Probable space group: C 2/M
;
_chemical_formula_sum "Si O2"
_cell_formula_units_Z 56
_cell_length_a 15.375425
_cell_length_b 8.914063
_cell_length_c 21.356397
_cell_angle_alpha 90.000000
_cell_angle_beta 88.514742
_cell_angle_gamma 90.000000
_cell_volume 2926.071123
_symmetry_space_group_name_H-M "C 2/M"
_symmetry_group_IT_number 12
_symmetry_cell_setting 'monoclinic'
loop_
_space_group_symop_operation_xyz
x,y,z
-x,y,-z
-x,-y,-z
x,-y,z
1/2+x,1/2+y,z
1/2-x,1/2+y,-z
1/2-x,1/2-y,-z
1/2+x,1/2-y,z
loop_
_atom_site_type_symbol
_atom_site_label
_atom_site_fract_x
_atom_site_fract_y
_atom_site_fract_z
Si Si1 0.246834 0.178083 0.708612
Si Si2 0.763433 0.321379 0.849378
Si Si3 0.407358 0.822343 0.623118
Si Si4 0.106095 0.822395 0.935986
Si Si5 0.657105 0.674044 0.497537
Si Si6 0.587993 0.677614 0.076858
Si Si7 0.581998 0.673862 0.635048
O O1 0.251076 0.238975 0.779231
O O2 0.329352 0.237841 0.668201
O O3 0.158922 0.236613 0.677653
O O4 0.247684 0.000000 0.707469
O O5 0.765211 0.500000 0.851488
O O6 0.683569 0.255747 0.892122
O O7 0.854619 0.260499 0.872780
O O8 0.400469 0.748506 0.555177
O O9 0.497089 0.770418 0.653178
O O10 0.404670 0.000000 0.615791
O O11 0.012221 0.771928 0.910888
O O12 0.108948 0.000000 0.935053
O O13 0.118180 0.768130 0.007266
O O14 0.670435 0.500000 0.482351
O O15 0.750000 0.750000 0.500000
O O16 0.606638 0.698548 0.562741
O O17 0.598724 0.500000 0.084126
O O18 0.562981 0.500000 0.649541
#
# Coordination Sequence:
#
# PCOD8089625 Si02
#       7
#     8   8   8   8   8   8   8
#     4   9  20  38  54  72 107 146 177 215 264 316
#     4  10  19  33  54  76 101 141 182 212 258 319
#     4  11  22  38  57  81 109 141 178 223 273 318
#     4   8  16  31  52  76 104 139 173 209 264 323
#     4  11  21  36  60  85 111 140 175 220 271 321
#     4   9  17  32  52  77 107 134 169 221 267 308
#     4  10  21  39  58  79 107 142 178 218 268 322
#
# _framework density 19.138290999999999
#
# number of rings (size 3 to 8) (size 9 to 14) (size 15 to 20)
#    0.000    2.286    1.429    2.571    0.000    4.000 
#    0.000    5.714    0.000    0.000    0.000    0.000 
#    0.000    0.000    0.000    0.000    0.000    0.000 
#
# Total GULP energy -347226.660292 kJ/mol
# GULP energy per Si atom -12400.952153 kJ/mol
# Density = 1.909473 g / cm^3
# Si number density = 19.138291 Si / 1000 Ang^3
#
#
#
# Elastic Constant Matrix: (Units=GPa)
#
#
# Indices 1 2 3 4 5 6 
#
# 1 141.8354 32.0351 62.8176 0.0000 23.6493 0.0000
# 2 32.0351 43.1247 29.3127 0.0000 4.9959 0.0000
# 3 62.8176 29.3127 121.5488 0.0000 22.9039 0.0000
# 4 0.0000 0.0000 0.0000 20.5458 0.0000 6.8867
# 5 23.6493 4.9959 22.9039 0.0000 22.9644 0.0000
# 6 0.0000 0.0000 0.0000 6.8867 0.0000 34.4923
#
#
#
# Elastic Compliance Matrix: (Units=1/GPa)
#
#
# Indices 1 2 3 4 5 6 
#
# 1 0.010677 -0.005101 -0.002986 0.000000 -0.006907 0.000000
# 2 -0.005101 0.030184 -0.005412 0.000000 0.004085 0.000000
# 3 -0.002986 -0.005412 0.012652 0.000000 -0.008366 0.000000
# 4 0.000000 0.000000 0.000000 0.052163 0.000000 -0.010415
# 5 -0.006907 0.004085 -0.008366 0.000000 0.058114 0.000000
# 6 0.000000 0.000000 0.000000 -0.010415 0.000000 0.031071
#
#
# Mechanical properties :
#
#
# Convention : Reuss Voigt Hill
#
# Bulk Modulus (GPa) = 37.71749 61.64885 49.68317
# Shear Modulus (GPa) = 21.67329 27.75672 24.71501
#
# Velocity S-wave (km/s) = 3.36885 3.81244 3.59749
# Velocity P-wave (km/s) = 5.90617 7.18762 6.57817
#
# Compressibility (1/GPa) = 0.02651290
#
# Stress axis : x y z
#
# Youngs Moduli (GPa) = 93.66073 33.13030 79.03811
#
# Poissons Ratio (x) = 0.16901 0.23601
# Poissons Ratio (y) = 0.47780 0.42779
# Poissons Ratio (z) = 0.27968 0.17932
#
# Static dielectric constant tensor:
#      x y z
#    x 3.607360 0.000000 -0.122600 
#    y 0.000000 3.168670 0.000000 
#    z -0.122600 0.000000 3.766590 
# 
# 
# High freq. dielectric constant tensor:
#      x y z
#    x 1.760760 0.000000 0.003480 
#    y 0.000000 1.711820 0.000000 
#    z 0.003480 0.000000 1.742770 
# 
# From -- ./inp_files/309054.got.cif
#   From: 2010.06.25/outbox.cif.g09.slc.cpg/sg12_155_cif.got.tgz:309054.got - 2010.06.28 00:19:55.
