data_PCOD8089101
_publ_section_title
;
Structure prediction by ZEFSAII (Michael W. Deem and Ramdas Pophale) SiO2 
 PCOD8089101
Probable space group: C 2/M
;
_chemical_formula_sum "Si O2"
_cell_formula_units_Z 56
_cell_length_a 33.744483
_cell_length_b 9.273946
_cell_length_c 14.837869
_cell_angle_alpha 90.000000
_cell_angle_beta 46.008691
_cell_angle_gamma 90.000000
_cell_volume 3340.693028
_symmetry_space_group_name_H-M "C 2/M"
_symmetry_group_IT_number 12
_symmetry_cell_setting 'monoclinic'
loop_
_space_group_symop_operation_xyz
x,y,z
-x,y,-z
-x,-y,-z
x,-y,z
1/2+x,1/2+y,z
1/2-x,1/2+y,-z
1/2-x,1/2-y,-z
1/2+x,1/2-y,z
loop_
_atom_site_type_symbol
_atom_site_label
_atom_site_fract_x
_atom_site_fract_y
_atom_site_fract_z
Si Si1 0.918281 0.170450 0.571565
Si Si2 0.464124 0.329735 0.682252
Si Si3 0.145012 0.332255 0.469681
Si Si4 0.125410 0.164530 0.823268
Si Si5 0.067644 0.331049 0.758028
Si Si6 0.041700 0.831616 0.108447
Si Si7 0.248556 0.833892 0.595001
O O1 0.921228 0.220177 0.672167
O O2 0.867340 0.247817 0.603182
O O3 0.974442 0.225984 0.435668
O O4 0.910326 0.000000 0.574509
O O5 0.466396 0.500000 0.674391
O O6 0.445547 0.275326 0.810277
O O7 0.147406 0.500000 0.442826
O O8 0.097681 0.296829 0.616906
O O9 0.203661 0.276316 0.414391
O O10 0.105298 0.272155 0.778492
O O11 0.190306 0.187906 0.736722
O O12 0.112958 0.000000 0.812733
O O13 0.095712 0.199796 0.964391
O O14 0.058906 0.500000 0.786548
O O15 0.008916 0.253798 0.854745
O O16 0.025904 0.000000 0.134015
O O17 0.250000 0.750000 0.500000
O O18 0.260290 0.000000 0.552955
#
# Coordination Sequence:
#
# PCOD8089101 Si02
#       7
#     8   8   8   8   8   8   8
#     4   9  16  29  50  73  93 122 158 195 238 282
#     4   8  15  28  48  72  97 120 152 197 239 278
#     4  10  20  32  47  70 100 127 155 195 242 285
#     4  10  21  34  51  71  93 128 170 200 232 280
#     4  11  21  32  47  71 102 133 158 190 241 292
#     4  10  19  33  51  72  98 128 160 198 238 284
#     4  10  20  35  51  69  94 126 165 204 237 275
#
# _framework density 16.762989999999999
#
# number of rings (size 3 to 8) (size 9 to 14) (size 15 to 20)
#    0.000    2.286    2.857    1.714    0.000    3.429 
#    0.000    2.143    0.000    0.857    0.000    0.000 
#    0.000    0.000    0.000    0.000    0.000    0.000 
#
# Total GULP energy -347159.740411 kJ/mol
# GULP energy per Si atom -12398.562158 kJ/mol
# Density = 1.672484 g / cm^3
# Si number density = 16.762990 Si / 1000 Ang^3
#
#
#
# Elastic Constant Matrix: (Units=GPa)
#
#
# Indices 1 2 3 4 5 6 
#
# 1 138.5341 42.2515 35.2566 0.0000 -1.4828 0.0000
# 2 42.2515 46.3521 23.8441 0.0000 -1.2333 0.0000
# 3 35.2566 23.8441 52.8103 0.0000 -11.5195 0.0000
# 4 0.0000 0.0000 0.0000 14.0357 0.0000 0.4712
# 5 -1.4828 -1.2333 -11.5195 0.0000 26.0737 0.0000
# 6 0.0000 0.0000 0.0000 0.4712 0.0000 27.7633
#
#
#
# Elastic Compliance Matrix: (Units=1/GPa)
#
#
# Indices 1 2 3 4 5 6 
#
# 1 0.010521 -0.007619 -0.003909 0.000000 -0.001489 0.000000
# 2 -0.007619 0.034156 -0.011152 0.000000 -0.003745 0.000000
# 3 -0.003909 -0.011152 0.029234 0.000000 0.012166 0.000000
# 4 0.000000 0.000000 0.000000 0.071287 0.000000 -0.001210
# 5 -0.001489 -0.003745 0.012166 0.000000 0.043466 0.000000
# 6 0.000000 0.000000 0.000000 -0.001210 0.000000 0.036039
#
#
# Mechanical properties :
#
#
# Convention : Reuss Voigt Hill
#
# Bulk Modulus (GPa) = 35.02396 48.93344 41.97870
# Shear Modulus (GPa) = 17.88394 22.66417 20.27406
#
# Velocity S-wave (km/s) = 3.26984 3.68099 3.48149
# Velocity P-wave (km/s) = 5.93252 6.87903 6.42323
#
# Compressibility (1/GPa) = 0.02855188
#
# Stress axis : x y z
#
# Youngs Moduli (GPa) = 95.04775 29.27723 34.20682
#
# Poissons Ratio (x) = 0.22307 0.13370
# Poissons Ratio (y) = 0.72420 0.38147
# Poissons Ratio (z) = 0.37150 0.32649
#
# Static dielectric constant tensor:
#      x y z
#    x 3.358880 0.000000 0.089220 
#    y 0.000000 2.990660 0.000000 
#    z 0.089220 0.000000 3.202210 
# 
# 
# High freq. dielectric constant tensor:
#      x y z
#    x 1.648520 0.000000 0.005820 
#    y 0.000000 1.631450 0.000000 
#    z 0.005820 0.000000 1.628110 
# 
# From -- ./inp_files/242983.got.cif
#   From: 2010.06.25/outbox.cif.g09.slc.cpg/sg12_122_cif.got.tgz:242983.got - 2010.06.28 00:19:55.
