data_PCOD8089383
_publ_section_title
;
Structure prediction by ZEFSAII (Michael W. Deem and Ramdas Pophale) SiO2 
 PCOD8089383
Probable space group: C 2/M
;
_chemical_formula_sum "Si O2"
_cell_formula_units_Z 56
_cell_length_a 20.320775
_cell_length_b 9.111028
_cell_length_c 17.490914
_cell_angle_alpha 90.000000
_cell_angle_beta 105.122987
_cell_angle_gamma 90.000000
_cell_volume 3126.173442
_symmetry_space_group_name_H-M "C 2/M"
_symmetry_group_IT_number 12
_symmetry_cell_setting 'monoclinic'
loop_
_space_group_symop_operation_xyz
x,y,z
-x,y,-z
-x,-y,-z
x,-y,z
1/2+x,1/2+y,z
1/2-x,1/2+y,-z
1/2-x,1/2-y,-z
1/2+x,1/2-y,z
loop_
_atom_site_type_symbol
_atom_site_label
_atom_site_fract_x
_atom_site_fract_y
_atom_site_fract_z
Si Si1 0.151934 0.329063 0.598911
Si Si2 0.471253 0.673301 0.175407
Si Si3 0.574955 0.671128 0.994890
Si Si4 0.380526 0.826053 0.579190
Si Si5 0.784821 0.325826 0.687484
Si Si6 0.472309 0.170279 0.329101
Si Si7 0.122593 0.173792 0.165984
O O1 0.172579 0.500000 0.606164
O O2 0.143937 0.267262 0.510446
O O3 0.208961 0.235790 0.659114
O O4 0.080702 0.302232 0.619395
O O5 0.463421 0.500000 0.182206
O O6 0.446551 0.749766 0.245061
O O7 0.549765 0.713701 0.181292
O O8 0.421168 0.732541 0.091167
O O9 0.587013 0.500000 0.993458
O O10 0.625247 0.729336 0.077297
O O11 0.500000 0.707026 0.000000
O O12 0.327161 0.771591 0.626449
O O13 0.455219 0.763060 0.622023
O O14 0.385229 0.000000 0.576804
O O15 0.783136 0.500000 0.692737
O O16 0.818393 0.261727 0.773849
O O17 0.479647 0.000000 0.311302
O O18 0.135933 0.000000 0.175891
#
# Coordination Sequence:
#
# PCOD8089383 Si02
#       7
#     8   8   8   8   8   8   8
#     4  10  21  36  53  71  96 136 176 203 238 298
#     4   9  16  28  49  76 103 130 161 201 247 292
#     4   7  12  24  44  71 100 128 160 198 238 286
#     4   9  18  34  54  74  96 128 169 209 249 292
#     4  11  21  33  51  75 105 131 159 210 259 292
#     4  10  19  33  53  75 101 131 166 207 247 293
#     4   9  16  29  50  74 100 132 168 199 236 296
#
# _framework density 17.913273
#
# number of rings (size 3 to 8) (size 9 to 14) (size 15 to 20)
#    0.000    2.714    1.429    3.000    0.000    2.286 
#    0.000    2.143    0.000    5.143    0.000    0.000 
#    0.000    0.000    0.000    0.000    0.000    0.000 
#
# Total GULP energy -346987.483983 kJ/mol
# GULP energy per Si atom -12392.410142 kJ/mol
# Density = 1.787250 g / cm^3
# Si number density = 17.913273 Si / 1000 Ang^3
#
#
#
# Elastic Constant Matrix: (Units=GPa)
#
#
# Indices 1 2 3 4 5 6 
#
# 1 44.7676 20.0831 21.3148 0.0000 12.4629 0.0000
# 2 20.0831 38.6837 34.2051 0.0000 5.7211 0.0000
# 3 21.3148 34.2051 148.8651 0.0000 8.5946 0.0000
# 4 0.0000 0.0000 0.0000 25.7623 0.0000 -2.0573
# 5 12.4629 5.7211 8.5946 0.0000 16.7925 0.0000
# 6 0.0000 0.0000 0.0000 -2.0573 0.0000 20.6305
#
#
#
# Elastic Compliance Matrix: (Units=1/GPa)
#
#
# Indices 1 2 3 4 5 6 
#
# 1 0.034877 -0.014670 -0.000430 0.000000 -0.020667 0.000000
# 2 -0.014670 0.039545 -0.007045 0.000000 0.001021 0.000000
# 3 -0.000430 -0.007045 0.008492 0.000000 -0.001627 0.000000
# 4 0.000000 0.000000 0.000000 0.039128 0.000000 0.003902
# 5 -0.020667 0.001021 -0.001627 0.000000 0.075374 0.000000
# 6 0.000000 0.000000 0.000000 0.003902 0.000000 0.048861
#
#
# Mechanical properties :
#
#
# Convention : Reuss Voigt Hill
#
# Bulk Modulus (GPa) = 25.89063 42.61360 34.25211
# Shear Modulus (GPa) = 16.47770 23.08463 19.78116
#
# Velocity S-wave (km/s) = 3.03621 3.59373 3.32667
# Velocity P-wave (km/s) = 5.17456 6.40783 5.82393
#
# Compressibility (1/GPa) = 0.03862402
#
# Stress axis : x y z
#
# Youngs Moduli (GPa) = 28.67231 25.28758 117.76271
#
# Poissons Ratio (x) = 0.37098 0.05061
# Poissons Ratio (y) = 0.42063 0.82961
# Poissons Ratio (z) = 0.01232 0.17815
#
# Static dielectric constant tensor:
#      x y z
#    x 3.013110 0.000000 -0.048630 
#    y 0.000000 2.957380 0.000000 
#    z -0.048630 0.000000 3.792930 
# 
# 
# High freq. dielectric constant tensor:
#      x y z
#    x 1.659530 0.000000 -0.001900 
#    y 0.000000 1.659640 0.000000 
#    z -0.001900 0.000000 1.719290 
# 
# From -- ./inp_files/281637.got.cif
#   From: 2010.06.25/outbox.cif.g09.slc.cpg/sg12_141_cif.got.tgz:281637.got - 2010.06.28 00:19:55.
