data_PCOD8089273
_publ_section_title
;
Structure prediction by ZEFSAII (Michael W. Deem and Ramdas Pophale) SiO2 
 PCOD8089273
Probable space group: C 2/M
;
_chemical_formula_sum "Si O2"
_cell_formula_units_Z 56
_cell_length_a 27.352401
_cell_length_b 13.171013
_cell_length_c 10.088047
_cell_angle_alpha 90.000000
_cell_angle_beta 69.227223
_cell_angle_gamma 90.000000
_cell_volume 3398.057240
_symmetry_space_group_name_H-M "C 2/M"
_symmetry_group_IT_number 12
_symmetry_cell_setting 'monoclinic'
loop_
_space_group_symop_operation_xyz
x,y,z
-x,y,-z
-x,-y,-z
x,-y,z
1/2+x,1/2+y,z
1/2-x,1/2+y,-z
1/2-x,1/2-y,-z
1/2+x,1/2-y,z
loop_
_atom_site_type_symbol
_atom_site_label
_atom_site_fract_x
_atom_site_fract_y
_atom_site_fract_z
Si Si1 0.174535 0.686726 0.310995
Si Si2 0.600904 0.118350 0.156572
Si Si3 0.489932 0.118585 0.364857
Si Si4 0.620684 0.880944 0.625248
Si Si5 0.724001 0.385978 0.201312
Si Si6 0.282703 0.385746 0.100895
Si Si7 0.164240 0.307425 0.852558
O O1 0.128097 0.678125 0.249973
O O2 0.158323 0.638744 0.465299
O O3 0.188892 0.805913 0.316561
O O4 0.224338 0.625078 0.211511
O O5 0.538912 0.140220 0.221985
O O6 0.613187 0.000000 0.164144
O O7 0.619994 0.156170 0.996429
O O8 0.500000 0.168089 0.500000
O O9 0.437221 0.162721 0.350261
O O10 0.479876 0.000000 0.395633
O O11 0.642117 0.817049 0.727069
O O12 0.620293 0.000000 0.661172
O O13 0.704957 0.500000 0.252018
O O14 0.784667 0.376956 0.180969
O O15 0.718012 0.358396 0.053086
O O16 0.302498 0.500000 0.106257
O O17 0.322337 0.310563 0.136559
#
# Coordination Sequence:
#
# PCOD8089273 Si02
#       7
#     8   8   8   8   8   8   8
#     4  11  19  32  52  77  98 137 175 197 247 306
#     4  11  18  30  53  74  99 133 169 205 245 302
#     4   9  18  31  49  74 100 130 169 206 247 301
#     4  11  22  34  49  75 110 136 161 208 257 298
#     4  10  19  33  52  77 104 131 170 215 244 290
#     4  10  19  33  53  77 101 131 174 213 242 294
#     4  11  21  34  49  77 105 136 168 202 256 298
#
# _framework density 16.480004999999998
#
# number of rings (size 3 to 8) (size 9 to 14) (size 15 to 20)
#    0.000    1.571    4.286    3.429    0.000    2.857 
#    0.000    4.286    0.000    0.000    0.000    6.000 
#    0.000    0.000    0.000    0.000    0.000    0.000 
#
# Total GULP energy -347251.730665 kJ/mol
# GULP energy per Si atom -12401.847524 kJ/mol
# Density = 1.644250 g / cm^3
# Si number density = 16.480005 Si / 1000 Ang^3
#
#
#
# Elastic Constant Matrix: (Units=GPa)
#
#
# Indices 1 2 3 4 5 6 
#
# 1 92.6412 33.4794 34.0574 0.0000 6.8580 0.0000
# 2 33.4794 67.7960 7.2838 0.0000 -5.8438 0.0000
# 3 34.0574 7.2838 60.6581 0.0000 4.3182 0.0000
# 4 0.0000 0.0000 0.0000 19.3291 0.0000 3.7433
# 5 6.8580 -5.8438 4.3182 0.0000 25.7340 0.0000
# 6 0.0000 0.0000 0.0000 3.7433 0.0000 18.3050
#
#
#
# Elastic Compliance Matrix: (Units=1/GPa)
#
#
# Indices 1 2 3 4 5 6 
#
# 1 0.017092 -0.007979 -0.008284 0.000000 -0.004977 0.000000
# 2 -0.007979 0.019032 0.001757 0.000000 0.006154 0.000000
# 3 -0.008284 0.001757 0.020991 0.000000 -0.000916 0.000000
# 4 0.000000 0.000000 0.000000 0.053869 0.000000 -0.011016
# 5 -0.004977 0.006154 -0.000916 0.000000 0.041736 0.000000
# 6 0.000000 0.000000 0.000000 -0.011016 0.000000 0.056883
#
#
# Mechanical properties :
#
#
# Convention : Reuss Voigt Hill
#
# Bulk Modulus (GPa) = 35.58472 41.19293 38.38882
# Shear Modulus (GPa) = 20.16260 22.42525 21.29392
#
# Velocity S-wave (km/s) = 3.50159 3.69284 3.59849
# Velocity P-wave (km/s) = 6.16342 6.57516 6.37262
#
# Compressibility (1/GPa) = 0.02810195
#
# Stress axis : x y z
#
# Youngs Moduli (GPa) = 58.50759 52.54251 47.63882
#
# Poissons Ratio (x) = 0.41925 0.39464
# Poissons Ratio (y) = 0.46685 -0.08368
# Poissons Ratio (z) = 0.48468 -0.09230
#
# Static dielectric constant tensor:
#      x y z
#    x 3.095260 0.000000 -0.052430 
#    y 0.000000 3.005150 0.000000 
#    z -0.052430 0.000000 3.085510 
# 
# 
# High freq. dielectric constant tensor:
#      x y z
#    x 1.627620 0.000000 -0.000380 
#    y 0.000000 1.614050 0.000000 
#    z -0.000380 0.000000 1.633720 
# 
# From -- ./inp_files/96512.got.cif
#   From: 2010.06.25/outbox.cif.g09.slc.cpg/sg12_49_cif.got.tgz:96512.got - 2010.06.28 00:19:55.
