data_PCOD8089325
_publ_section_title
;
Structure prediction by ZEFSAII (Michael W. Deem and Ramdas Pophale) SiO2 
 PCOD8089325
Probable space group: C 2/M
;
_chemical_formula_sum "Si O2"
_cell_formula_units_Z 48
_cell_length_a 16.980659
_cell_length_b 20.003955
_cell_length_c 8.402736
_cell_angle_alpha 90.000000
_cell_angle_beta 63.200831
_cell_angle_gamma 90.000000
_cell_volume 2547.676568
_symmetry_space_group_name_H-M "C 2/M"
_symmetry_group_IT_number 12
_symmetry_cell_setting 'monoclinic'
loop_
_space_group_symop_operation_xyz
x,y,z
-x,y,-z
-x,-y,-z
x,-y,z
1/2+x,1/2+y,z
1/2-x,1/2+y,-z
1/2-x,1/2-y,-z
1/2+x,1/2-y,z
loop_
_atom_site_type_symbol
_atom_site_label
_atom_site_fract_x
_atom_site_fract_y
_atom_site_fract_z
Si Si1 0.080111 0.577551 0.243694
Si Si2 0.237074 0.823123 0.432457
Si Si3 0.283229 0.160967 0.027637
Si Si4 0.405955 0.140920 0.429079
Si Si5 0.569369 0.287440 0.713300
Si Si6 0.378678 0.709052 0.973509
O O1 0.085226 0.500000 0.281248
O O2 0.099158 0.622065 0.381709
O O3 0.981424 0.596182 0.272689
O O4 0.155224 0.595299 0.044852
O O5 0.250000 0.750000 0.500000
O O6 0.246300 0.826213 0.236144
O O7 0.309617 0.873546 0.440565
O O8 0.135029 0.841395 0.568918
O O9 0.345099 0.223107 0.918986
O O10 0.198353 0.154315 0.986900
O O11 0.431262 0.218381 0.383654
O O12 0.606898 0.274057 0.855397
O O13 0.470043 0.316069 0.810401
#
# Coordination Sequence:
#
# PCOD8089325 Si02
#       6
#     8   8   8   8   8   8
#     4  11  24  38  53  75 108 155 197 224 259 309
#     4  10  20  32  53  79 112 140 176 219 283 330
#     4  11  21  34  53  79 110 147 184 222 271 328
#     4  10  19  34  53  75 107 145 183 224 259 319
#     4  10  19  33  52  84 114 143 170 217 281 337
#     4  10  20  32  54  82 113 143 174 218 283 336
#
# _framework density 18.840696000000001
#
# number of rings (size 3 to 8) (size 9 to 14) (size 15 to 20)
#    0.000    1.667    5.000    2.000    7.000    1.333 
#    0.000    2.500    0.000    0.000    0.000   12.833 
#    0.000    0.000    0.000    0.000    0.000    0.000 
#
# Total GULP energy -297372.467651 kJ/mol
# GULP energy per Si atom -12390.519485 kJ/mol
# Density = 1.879781 g / cm^3
# Si number density = 18.840696 Si / 1000 Ang^3
#
#
#
# Elastic Constant Matrix: (Units=GPa)
#
#
# Indices 1 2 3 4 5 6 
#
# 1 140.8025 39.9306 60.4575 0.0000 -28.6991 0.0000
# 2 39.9306 52.9085 38.0860 0.0000 -6.2113 0.0000
# 3 60.4575 38.0860 113.6732 0.0000 -26.0562 0.0000
# 4 0.0000 0.0000 0.0000 13.2371 0.0000 -4.1132
# 5 -28.6991 -6.2113 -26.0562 0.0000 37.4425 0.0000
# 6 0.0000 0.0000 0.0000 -4.1132 0.0000 13.6714
#
#
#
# Elastic Compliance Matrix: (Units=1/GPa)
#
#
# Indices 1 2 3 4 5 6 
#
# 1 0.011019 -0.005755 -0.002636 0.000000 0.005657 0.000000
# 2 -0.005755 0.028039 -0.007470 0.000000 -0.004958 0.000000
# 3 -0.002636 -0.007470 0.014224 0.000000 0.006639 0.000000
# 4 0.000000 0.000000 0.000000 0.083336 0.000000 0.025073
# 5 0.005657 -0.004958 0.006639 0.000000 0.034841 0.000000
# 6 0.000000 0.000000 0.000000 0.025073 0.000000 0.080688
#
#
# Mechanical properties :
#
#
# Convention : Reuss Voigt Hill
#
# Bulk Modulus (GPa) = 46.38151 64.92582 55.65366
# Shear Modulus (GPa) = 17.17889 24.13089 20.65489
#
# Velocity S-wave (km/s) = 3.02287 3.58269 3.31462
# Velocity P-wave (km/s) = 6.07082 7.18675 6.65223
#
# Compressibility (1/GPa) = 0.02156032
#
# Stress axis : x y z
#
# Youngs Moduli (GPa) = 90.75350 35.66454 70.30593
#
# Poissons Ratio (x) = 0.20524 0.18530
# Poissons Ratio (y) = 0.52226 0.52520
# Poissons Ratio (z) = 0.23919 0.26642
#
# Static dielectric constant tensor:
#      x y z
#    x 4.099150 0.000000 -0.523720 
#    y 0.000000 2.860160 0.000000 
#    z -0.523720 0.000000 3.689030 
# 
# 
# High freq. dielectric constant tensor:
#      x y z
#    x 1.751880 0.000000 -0.016850 
#    y 0.000000 1.647260 0.000000 
#    z -0.016850 0.000000 1.745640 
# 
# From -- ./inp_files/75067.got.cif
#   From: 2010.06.25/outbox.cif.g09.slc.cpg/sg12_38_cif.got.tgz:75067.got - 2010.06.28 00:19:55.
