data_PCOD8089457
_publ_section_title
;
Structure prediction by ZEFSAII (Michael W. Deem and Ramdas Pophale) SiO2 
 PCOD8089457
Probable space group: C 2/M
;
_chemical_formula_sum "Si O2"
_cell_formula_units_Z 56
_cell_length_a 18.673250
_cell_length_b 9.404904
_cell_length_c 26.665685
_cell_angle_alpha 90.000000
_cell_angle_beta 139.732593
_cell_angle_gamma 90.000000
_cell_volume 3026.904308
_symmetry_space_group_name_H-M "C 2/M"
_symmetry_group_IT_number 12
_symmetry_cell_setting 'monoclinic'
loop_
_space_group_symop_operation_xyz
x,y,z
-x,y,-z
-x,-y,-z
x,-y,z
1/2+x,1/2+y,z
1/2-x,1/2+y,-z
1/2-x,1/2-y,-z
1/2+x,1/2-y,z
loop_
_atom_site_type_symbol
_atom_site_label
_atom_site_fract_x
_atom_site_fract_y
_atom_site_fract_z
Si Si1 0.177452 0.661994 0.276095
Si Si2 0.067152 0.166202 0.583837
Si Si3 0.469027 0.166102 0.228934
Si Si4 0.190577 0.845339 0.192974
Si Si5 0.875104 0.659315 0.930184
Si Si6 0.287786 0.336036 0.068685
Si Si7 0.445561 0.844175 0.329784
O O1 0.171559 0.500000 0.254532
O O2 0.303614 0.702261 0.357478
O O3 0.131671 0.755977 0.205414
O O4 0.096133 0.687640 0.279508
O O5 0.012623 0.239251 0.604079
O O6 0.000000 0.222657 0.500000
O O7 0.049140 0.000000 0.582419
O O8 0.389257 0.259534 0.151250
O O9 0.464431 0.219972 0.284119
O O10 0.432821 0.000000 0.206291
O O11 0.189611 0.765641 0.139912
O O12 0.317692 0.864303 0.273882
O O13 0.132567 0.000000 0.158042
O O14 0.869903 0.500000 0.905011
O O15 0.821190 0.665190 0.955644
O O16 0.000000 0.713875 0.000000
O O17 0.320780 0.500000 0.073565
O O18 0.250000 0.250000 0.000000
O O19 0.503691 0.000000 0.364555
#
# Coordination Sequence:
#
# PCOD8089457 Si02
#       7
#     8   8   8   8   8   8   8
#     4   9  19  34  55  78 105 143 180 214 261 320
#     4   9  18  34  56  82 110 140 177 218 260 314
#     4  10  20  37  57  77 107 144 183 223 266 322
#     4  10  19  33  53  77 103 132 173 225 267 307
#     4  10  22  38  54  73 100 137 179 217 263 323
#     4  11  24  39  56  78 108 144 181 225 274 322
#     4   9  18  33  54  78 104 137 174 214 264 316
#
# _framework density 18.50075
#
# number of rings (size 3 to 8) (size 9 to 14) (size 15 to 20)
#    0.000    2.286    1.429    0.857    2.000    2.857 
#    0.000    0.714    0.000    0.000    0.000    0.000 
#    0.000    0.000    0.000    0.000    0.000    0.000 
#
# Total GULP energy -347084.325729 kJ/mol
# GULP energy per Si atom -12395.868776 kJ/mol
# Density = 1.845864 g / cm^3
# Si number density = 18.500750 Si / 1000 Ang^3
#
#
#
# Elastic Constant Matrix: (Units=GPa)
#
#
# Indices 1 2 3 4 5 6 
#
# 1 98.3810 41.1354 44.6247 0.0000 -16.9122 0.0000
# 2 41.1354 100.4530 62.7019 0.0000 -18.7073 0.0000
# 3 44.6247 62.7019 107.0108 0.0000 -27.7711 0.0000
# 4 0.0000 0.0000 0.0000 25.6530 0.0000 -9.4816
# 5 -16.9122 -18.7073 -27.7711 0.0000 30.8603 0.0000
# 6 0.0000 0.0000 0.0000 -9.4816 0.0000 25.1258
#
#
#
# Elastic Compliance Matrix: (Units=1/GPa)
#
#
# Indices 1 2 3 4 5 6 
#
# 1 0.013283 -0.003022 -0.003072 0.000000 0.002683 0.000000
# 2 -0.003022 0.016445 -0.008113 0.000000 0.001012 0.000000
# 3 -0.003072 -0.008113 0.017830 0.000000 0.009444 0.000000
# 4 0.000000 0.000000 0.000000 0.045300 0.000000 0.017095
# 5 0.002683 0.001012 0.009444 0.000000 0.042986 0.000000
# 6 0.000000 0.000000 0.000000 0.017095 0.000000 0.046251
#
#
# Mechanical properties :
#
#
# Convention : Reuss Voigt Hill
#
# Bulk Modulus (GPa) = 52.23558 66.97432 59.60495
# Shear Modulus (GPa) = 23.05305 26.81999 24.93652
#
# Velocity S-wave (km/s) = 3.53379 3.81158 3.67531
# Velocity P-wave (km/s) = 6.70416 7.45992 7.09211
#
# Compressibility (1/GPa) = 0.01914404
#
# Stress axis : x y z
#
# Youngs Moduli (GPa) = 75.28512 60.80919 56.08371
#
# Poissons Ratio (x) = 0.18377 0.17229
# Poissons Ratio (y) = 0.22752 0.45500
# Poissons Ratio (z) = 0.23128 0.49334
#
# Static dielectric constant tensor:
#      x y z
#    x 3.395970 0.000000 -0.084610 
#    y 0.000000 3.726800 0.000000 
#    z -0.084610 0.000000 3.288270 
# 
# 
# High freq. dielectric constant tensor:
#      x y z
#    x 1.716650 0.000000 -0.012880 
#    y 0.000000 1.722660 0.000000 
#    z -0.012880 0.000000 1.696810 
# 
# From -- ./inp_files/280192.got.cif
#   From: 2010.06.25/outbox.cif.g09.slc.cpg/sg12_141_cif.got.tgz:280192.got - 2010.06.28 00:19:55.
