data_PCOD8089580
_publ_section_title
;
Structure prediction by ZEFSAII (Michael W. Deem and Ramdas Pophale) SiO2 
 PCOD8089580
Probable space group: C 2/M
;
_chemical_formula_sum "Si O2"
_cell_formula_units_Z 64
_cell_length_a 30.906656
_cell_length_b 8.837050
_cell_length_c 22.528562
_cell_angle_alpha 90.000000
_cell_angle_beta 148.540186
_cell_angle_gamma 90.000000
_cell_volume 3211.296773
_symmetry_space_group_name_H-M "C 2/M"
_symmetry_group_IT_number 12
_symmetry_cell_setting 'monoclinic'
loop_
_space_group_symop_operation_xyz
x,y,z
-x,y,-z
-x,-y,-z
x,-y,z
1/2+x,1/2+y,z
1/2-x,1/2+y,-z
1/2-x,1/2-y,-z
1/2+x,1/2-y,z
loop_
_atom_site_type_symbol
_atom_site_label
_atom_site_fract_x
_atom_site_fract_y
_atom_site_fract_z
Si Si1 0.921936 0.670850 0.018691
Si Si2 0.329276 0.826664 0.028889
Si Si3 0.251081 0.176126 0.765950
Si Si4 0.913267 0.178130 0.766965
Si Si5 0.325187 0.820850 0.216040
Si Si6 0.746323 0.175883 0.367239
Si Si7 0.570772 0.679118 0.753536
Si Si8 0.405824 0.320031 0.624385
O O1 0.942481 0.500000 0.023399
O O2 0.901085 0.681111 0.063793
O O3 0.003348 0.770069 0.101951
O O4 0.844694 0.733468 0.889531
O O5 0.356317 0.727399 0.116412
O O6 0.312751 0.000000 0.028845
O O7 0.246685 0.754940 0.906462
O O8 0.184152 0.268136 0.726590
O O9 0.229033 0.204587 0.672033
O O10 0.245437 0.000000 0.777581
O O11 0.835795 0.233376 0.713954
O O12 0.909258 0.245075 0.695303
O O13 0.912141 0.000000 0.763251
O O14 0.411675 0.759566 0.289409
O O15 0.320891 0.000000 0.207285
O O16 0.821324 0.238036 0.495218
O O17 0.729301 0.000000 0.359270
O O18 0.570653 0.500000 0.744957
O O19 0.483332 0.739915 0.676574
O O20 0.408564 0.500000 0.628431
#
# Coordination Sequence:
#
# PCOD8089580 Si02
#       8
#     8   8   8   8   8   8   8   8
#     4   9  18  33  54  81 111 145 182 225 276 332
#     4  10  19  33  53  81 115 149 186 225 276 333
#     4   9  20  39  60  81 109 146 192 235 274 327
#     4  11  21  35  56  86 117 143 181 229 282 338
#     4  11  22  35  54  81 113 148 185 226 279 334
#     4  10  21  40  62  81 106 147 192 235 280 329
#     4  11  20  34  55  81 114 148 186 229 276 330
#     4   9  20  37  58  84 113 145 187 232 277 330
#
# _framework density 19.929642999999999
#
# number of rings (size 3 to 8) (size 9 to 14) (size 15 to 20)
#    0.000    2.000    1.250    3.750    0.000    3.000 
#    0.000    5.000    0.000    3.750    0.000    0.000 
#    0.000    0.000    0.000    0.000    0.000    0.000 
#
# Total GULP energy -396849.978564 kJ/mol
# GULP energy per Si atom -12401.561830 kJ/mol
# Density = 1.988428 g / cm^3
# Si number density = 19.929643 Si / 1000 Ang^3
#
#
#
# Elastic Constant Matrix: (Units=GPa)
#
#
# Indices 1 2 3 4 5 6 
#
# 1 67.0563 21.2039 7.6514 0.0000 11.7547 0.0000
# 2 21.2039 61.8796 10.1208 0.0000 7.6042 0.0000
# 3 7.6514 10.1208 24.6306 0.0000 -3.8574 0.0000
# 4 0.0000 0.0000 0.0000 18.4825 0.0000 2.4919
# 5 11.7547 7.6042 -3.8574 0.0000 28.4736 0.0000
# 6 0.0000 0.0000 0.0000 2.4919 0.0000 31.0429
#
#
#
# Elastic Compliance Matrix: (Units=1/GPa)
#
#
# Indices 1 2 3 4 5 6 
#
# 1 0.018122 -0.004569 -0.004835 0.000000 -0.006916 0.000000
# 2 -0.004569 0.019436 -0.007238 0.000000 -0.004285 0.000000
# 3 -0.004835 -0.007238 0.046682 0.000000 0.010253 0.000000
# 4 0.000000 0.000000 0.000000 0.054697 0.000000 -0.004391
# 5 -0.006916 -0.004285 0.010253 0.000000 0.040509 0.000000
# 6 0.000000 0.000000 0.000000 -0.004391 0.000000 0.032566
#
#
# Mechanical properties :
#
#
# Convention : Reuss Voigt Hill
#
# Bulk Modulus (GPa) = 19.62505 25.72431 22.67468
# Shear Modulus (GPa) = 19.06348 23.23917 21.15132
#
# Velocity S-wave (km/s) = 3.09615 3.41847 3.26129
# Velocity P-wave (km/s) = 4.75921 5.34011 5.05801
#
# Compressibility (1/GPa) = 0.05095529
#
# Stress axis : x y z
#
# Youngs Moduli (GPa) = 55.18267 51.44972 21.42157
#
# Poissons Ratio (x) = 0.23507 0.10358
# Poissons Ratio (y) = 0.25213 0.15505
# Poissons Ratio (z) = 0.26682 0.37241
#
# Static dielectric constant tensor:
#      x y z
#    x 3.854290 0.000000 0.074810 
#    y 0.000000 3.448380 0.000000 
#    z 0.074810 0.000000 3.517220 
# 
# 
# High freq. dielectric constant tensor:
#      x y z
#    x 1.785940 0.000000 0.008690 
#    y 0.000000 1.762420 0.000000 
#    z 0.008690 0.000000 1.759650 
# 
# From -- ./inp_files/353453.got.cif
#   From: 2010.06.25/outbox.cif.g09.slc.cpg/sg12_177_cif.got.tgz:353453.got - 2010.06.28 00:19:55.
