data_PCOD8089683
_publ_section_title
;
Structure prediction by ZEFSAII (Michael W. Deem and Ramdas Pophale) SiO2 
 PCOD8089683
Probable space group: C 2/M
;
_chemical_formula_sum "Si O2"
_cell_formula_units_Z 56
_cell_length_a 14.610338
_cell_length_b 8.633397
_cell_length_c 23.426511
_cell_angle_alpha 90.000000
_cell_angle_beta 68.686560
_cell_angle_gamma 90.000000
_cell_volume 2752.845649
_symmetry_space_group_name_H-M "C 2/M"
_symmetry_group_IT_number 12
_symmetry_cell_setting 'monoclinic'
loop_
_space_group_symop_operation_xyz
x,y,z
-x,y,-z
-x,-y,-z
x,-y,z
1/2+x,1/2+y,z
1/2-x,1/2+y,-z
1/2-x,1/2-y,-z
1/2+x,1/2-y,z
loop_
_atom_site_type_symbol
_atom_site_label
_atom_site_fract_x
_atom_site_fract_y
_atom_site_fract_z
Si Si1 0.051918 0.185529 0.410579
Si Si2 0.114340 0.181517 0.272689
Si Si3 0.492866 0.822588 0.802293
Si Si4 0.685543 0.818725 0.821921
Si Si5 0.382024 0.670863 0.928603
Si Si6 0.647458 0.814637 0.499024
Si Si7 0.654769 0.172101 0.952617
O O1 0.090364 0.245801 0.340776
O O2 0.128623 0.252203 0.439348
O O3 0.942661 0.254078 0.442147
O O4 0.047040 0.000000 0.416942
O O5 0.027364 0.219954 0.248697
O O6 0.214035 0.257249 0.224452
O O7 0.128108 0.000000 0.274801
O O8 0.605266 0.788358 0.792021
O O9 0.425131 0.784026 0.871435
O O10 0.475262 0.000000 0.790132
O O11 0.651091 0.746733 0.890657
O O12 0.703365 0.000000 0.829927
O O13 0.428178 0.500000 0.910689
O O14 0.266387 0.663686 0.947325
O O15 0.407730 0.732185 0.986457
O O16 0.750000 0.750000 0.500000
O O17 0.649896 0.000000 0.498662
O O18 0.609103 0.000000 0.960637
#
# Coordination Sequence:
#
# PCOD8089683 Si02
#       7
#     8   8   8   8   8   8   8
#     4  10  21  38  63  93 124 161 202 242 296 354
#     4  10  21  41  62  82 116 156 191 233 284 338
#     4  11  22  35  56  83 110 145 194 239 282 343
#     4   9  19  37  57  78 107 148 189 228 283 346
#     4  10  19  33  54  77 106 140 181 235 296 351
#     4  11  22  39  64  93 129 163 200 246 290 341
#     4   9  17  33  56  75 100 140 186 231 285 354
#
# _framework density 20.342586000000001
#
# number of rings (size 3 to 8) (size 9 to 14) (size 15 to 20)
#    0.000    2.000    1.429    3.429    0.000    3.429 
#    0.000    7.143    0.000    0.000    0.000    0.000 
#    0.000    0.000    0.000    0.000    0.000    0.000 
#
# Total GULP energy -347150.113021 kJ/mol
# GULP energy per Si atom -12398.218322 kJ/mol
# Density = 2.029629 g / cm^3
# Si number density = 20.342586 Si / 1000 Ang^3
#
#
#
# Elastic Constant Matrix: (Units=GPa)
#
#
# Indices 1 2 3 4 5 6 
#
# 1 98.5899 32.3534 56.8386 0.0000 16.2872 0.0000
# 2 32.3534 60.0983 25.2528 0.0000 -1.4405 0.0000
# 3 56.8386 25.2528 168.3543 0.0000 20.2064 0.0000
# 4 0.0000 0.0000 0.0000 26.7869 0.0000 5.3508
# 5 16.2872 -1.4405 20.2064 0.0000 16.4314 0.0000
# 6 0.0000 0.0000 0.0000 5.3508 0.0000 27.2162
#
#
#
# Elastic Compliance Matrix: (Units=1/GPa)
#
#
# Indices 1 2 3 4 5 6 
#
# 1 0.016703 -0.008171 -0.002746 0.000000 -0.013897 0.000000
# 2 -0.008171 0.022218 -0.002088 0.000000 0.012615 0.000000
# 3 -0.002746 -0.002088 0.008066 0.000000 -0.007380 0.000000
# 4 0.000000 0.000000 0.000000 0.038858 0.000000 -0.007640
# 5 -0.013897 0.012615 -0.007380 0.000000 0.084816 0.000000
# 6 0.000000 0.000000 0.000000 -0.007640 0.000000 0.038245
#
#
# Mechanical properties :
#
#
# Convention : Reuss Voigt Hill
#
# Bulk Modulus (GPa) = 47.67106 61.77022 54.72064
# Shear Modulus (GPa) = 20.66901 28.26007 24.46454
#
# Velocity S-wave (km/s) = 3.19101 3.73125 3.47165
# Velocity P-wave (km/s) = 6.08783 6.99956 6.55956
#
# Compressibility (1/GPa) = 0.02097709
#
# Stress axis : x y z
#
# Youngs Moduli (GPa) = 59.86879 45.00828 123.97985
#
# Poissons Ratio (x) = 0.36778 0.34040
# Poissons Ratio (y) = 0.48921 0.25887
# Poissons Ratio (z) = 0.16438 0.09398
#
# Static dielectric constant tensor:
#      x y z
#    x 3.657030 0.000000 0.040450 
#    y 0.000000 3.670580 0.000000 
#    z 0.040450 0.000000 3.894180 
# 
# 
# High freq. dielectric constant tensor:
#      x y z
#    x 1.795370 0.000000 0.006930 
#    y 0.000000 1.780200 0.000000 
#    z 0.006930 0.000000 1.798170 
# 
# From -- ./inp_files/337914.got.cif
#   From: 2010.06.25/outbox.cif.g09.slc.cpg/sg12_169_cif.got.tgz:337914.got - 2010.06.28 00:19:55.
