data_PCOD8089156
_publ_section_title
;
Structure prediction by ZEFSAII (Michael W. Deem and Ramdas Pophale) SiO2 
 PCOD8089156
Probable space group: C 2/M
;
_chemical_formula_sum "Si O2"
_cell_formula_units_Z 40
_cell_length_a 32.600291
_cell_length_b 8.706160
_cell_length_c 23.615360
_cell_angle_alpha 90.000000
_cell_angle_beta 19.391254
_cell_angle_gamma 90.000000
_cell_volume 2225.375009
_symmetry_space_group_name_H-M "C 2/M"
_symmetry_group_IT_number 12
_symmetry_cell_setting 'monoclinic'
loop_
_space_group_symop_operation_xyz
x,y,z
-x,y,-z
-x,-y,-z
x,-y,z
1/2+x,1/2+y,z
1/2-x,1/2+y,-z
1/2-x,1/2-y,-z
1/2+x,1/2-y,z
loop_
_atom_site_type_symbol
_atom_site_label
_atom_site_fract_x
_atom_site_fract_y
_atom_site_fract_z
Si Si1 0.320781 0.317590 0.253960
Si Si2 0.957037 0.316739 0.972557
Si Si3 0.889672 0.319923 0.936993
Si Si4 0.959295 0.681332 0.367024
Si Si5 0.667655 0.679412 0.155851
O O1 0.337183 0.500000 0.236317
O O2 0.358739 0.259941 0.142557
O O3 0.181580 0.263694 0.447223
O O4 0.405124 0.236920 0.191487
O O5 0.946883 0.500000 0.990268
O O6 0.926334 0.251533 0.950075
O O7 0.913545 0.500000 0.907480
O O8 0.977953 0.252387 0.772284
O O9 0.743716 0.285270 0.114811
O O10 0.969166 0.500000 0.356590
O O11 0.031609 0.745489 0.328577
O O12 0.653517 0.500000 0.164717
O O13 0.750000 0.750000 0.000000
#
# Coordination Sequence:
#
# PCOD8089156 Si02
#       5
#     8   8   8   8   8
#     4  10  20  34  50  69  97 128 157 196 243 283
#     4  10  19  33  52  70  93 126 162 196 233 286
#     4   8  16  31  50  72  96 123 156 196 237 275
#     4   9  18  33  51  71  97 127 159 196 236 279
#     4   9  16  29  49  72  99 127 156 192 236 283
#
# _framework density 17.974499999999999
#
# number of rings (size 3 to 8) (size 9 to 14) (size 15 to 20)
#    0.000    2.800    0.000    4.200    0.000    2.400 
#    0.000   11.000    0.000    6.000    0.000    0.000 
#    0.000    0.000    0.000    0.000    0.000    0.000 
#
# Total GULP energy -247845.469884 kJ/mol
# GULP energy per Si atom -12392.273494 kJ/mol
# Density = 1.793359 g / cm^3
# Si number density = 17.974500 Si / 1000 Ang^3
#
#
#
# Elastic Constant Matrix: (Units=GPa)
#
#
# Indices 1 2 3 4 5 6 
#
# 1 134.0013 19.7285 82.4690 -0.0007 -24.2991 0.0008
# 2 19.7285 32.1571 19.9081 -0.0005 -6.3070 -0.0004
# 3 82.4690 19.9081 97.9539 -0.0007 -19.0863 -0.0025
# 4 -0.0007 -0.0005 -0.0007 28.5553 -0.0004 -5.8338
# 5 -24.2991 -6.3070 -19.0863 -0.0004 19.2161 0.0002
# 6 0.0008 -0.0004 -0.0025 -5.8338 0.0002 20.7968
#
#
#
# Elastic Compliance Matrix: (Units=1/GPa)
#
#
# Indices 1 2 3 4 5 6 
#
# 1 0.016640 -0.001007 -0.012114 0.000000 0.008679 -0.000002
# 2 -0.001007 0.036122 -0.005495 0.000001 0.005125 0.000000
# 3 -0.012114 -0.005495 0.022553 0.000001 0.005279 0.000003
# 4 0.000000 0.000001 0.000001 0.037149 0.000001 0.010421
# 5 0.008679 0.005125 0.005279 0.000001 0.069940 0.000000
# 6 -0.000002 0.000000 0.000003 0.010421 0.000000 0.051007
#
#
# Mechanical properties :
#
#
# Convention : Reuss Voigt Hill
#
# Bulk Modulus (GPa) = 26.25805 56.48039 41.36922
# Shear Modulus (GPa) = 17.64685 23.18077 20.41381
#
# Velocity S-wave (km/s) = 3.13672 3.59506 3.37368
# Velocity P-wave (km/s) = 5.26867 6.98021 6.18394
#
# Compressibility (1/GPa) = 0.03808356
#
# Stress axis : x y z
#
# Youngs Moduli (GPa) = 60.09705 27.68385 44.34002
#
# Poissons Ratio (x) = 0.02788 0.53711
# Poissons Ratio (y) = 0.06051 0.24366
# Poissons Ratio (z) = 0.72799 0.15213
#
# Static dielectric constant tensor:
#      x y z
#    x 3.690240 0.000000 -0.315140 
#    y 0.000000 3.277300 0.000000 
#    z -0.315140 0.000000 3.547560 
# 
# 
# High freq. dielectric constant tensor:
#      x y z
#    x 1.689960 0.000000 -0.025080 
#    y 0.000000 1.687710 0.000000 
#    z -0.025080 0.000000 1.690330 
# 
# From -- ./inp_files/220278.got.cif
#   From: 2010.06.25/outbox.cif.g09.slc.cpg/sg12_111_cif.got.tgz:220278.got - 2010.06.28 00:19:55.
