data_PCOD8089329
_publ_section_title
;
Structure prediction by ZEFSAII (Michael W. Deem and Ramdas Pophale) SiO2 
 PCOD8089329
Probable space group: C 2/M
;
_chemical_formula_sum "Si O2"
_cell_formula_units_Z 64
_cell_length_a 18.814201
_cell_length_b 9.646914
_cell_length_c 20.360748
_cell_angle_alpha 90.000000
_cell_angle_beta 81.188754
_cell_angle_gamma 90.000000
_cell_volume 3651.842450
_symmetry_space_group_name_H-M "C 2/M"
_symmetry_group_IT_number 12
_symmetry_cell_setting 'monoclinic'
loop_
_space_group_symop_operation_xyz
x,y,z
-x,y,-z
-x,-y,-z
x,-y,z
1/2+x,1/2+y,z
1/2-x,1/2+y,-z
1/2-x,1/2-y,-z
1/2+x,1/2-y,z
loop_
_atom_site_type_symbol
_atom_site_label
_atom_site_fract_x
_atom_site_fract_y
_atom_site_fract_z
Si Si1 0.157301 0.337638 0.090498
Si Si2 0.583163 0.338430 0.989612
Si Si3 0.965318 0.838474 0.573205
Si Si4 0.650180 0.841767 0.348242
Si Si5 0.937330 0.344777 0.770864
Si Si6 0.451599 0.338992 0.308428
Si Si7 0.300478 0.664222 0.279829
Si Si8 0.196514 0.161634 0.867180
O O1 0.158710 0.500000 0.071541
O O2 0.103581 0.306763 0.157426
O O3 0.236535 0.280983 0.099239
O O4 0.128997 0.250391 0.033744
O O5 0.588133 0.500000 0.008468
O O6 0.620089 0.310803 0.913544
O O7 0.500000 0.289596 0.000000
O O8 0.892218 0.752857 0.593849
O O9 0.000000 0.791578 0.500000
O O10 0.022473 0.801902 0.622020
O O11 0.945194 0.000000 0.575833
O O12 0.618045 0.828641 0.280515
O O13 0.731225 0.783155 0.330171
O O14 0.647675 0.000000 0.374079
O O15 0.968634 0.500000 0.768836
O O16 0.003194 0.240324 0.753174
O O17 0.461249 0.500000 0.291387
O O18 0.369296 0.291353 0.312884
O O19 0.294855 0.500000 0.273714
O O20 0.305209 0.729157 0.205528
O O21 0.211462 0.000000 0.856708
#
# Coordination Sequence:
#
# PCOD8089329 Si02
#       8
#     8   8   8   8   8   8   8   8
#     4  10  19  33  53  70  92 128 164 195 245 304
#     4  10  22  35  49  72  99 126 162 208 251 288
#     4   9  18  33  50  71 104 139 164 191 237 291
#     4   9  16  30  52  75  96 121 163 206 236 278
#     4   9  17  30  48  71  95 123 157 198 245 290
#     4   9  18  30  50  75  97 128 166 199 236 285
#     4   9  16  29  51  75  97 123 161 207 247 287
#     4   9  17  32  51  70  95 128 161 198 250 299
#
# _framework density 17.525400999999999
#
# number of rings (size 3 to 8) (size 9 to 14) (size 15 to 20)
#    0.000    2.750    1.250    0.375    1.750    1.000 
#    0.000    1.250    0.000    1.500    0.000    0.000 
#    0.000    0.000    0.000    0.000    0.000    0.000 
#
# Total GULP energy -396733.080131 kJ/mol
# GULP energy per Si atom -12397.908754 kJ/mol
# Density = 1.748551 g / cm^3
# Si number density = 17.525401 Si / 1000 Ang^3
#
#
#
# Elastic Constant Matrix: (Units=GPa)
#
#
# Indices 1 2 3 4 5 6 
#
# 1 153.5702 40.4849 56.0486 0.0000 -15.0930 0.0000
# 2 40.4849 38.7526 31.5366 0.0000 -8.2955 0.0000
# 3 56.0486 31.5366 83.2745 0.0000 -14.5542 0.0000
# 4 0.0000 0.0000 0.0000 22.3540 0.0000 -2.4377
# 5 -15.0930 -8.2955 -14.5542 0.0000 22.0364 0.0000
# 6 0.0000 0.0000 0.0000 -2.4377 0.0000 19.7230
#
#
#
# Elastic Compliance Matrix: (Units=1/GPa)
#
#
# Indices 1 2 3 4 5 6 
#
# 1 0.009858 -0.006906 -0.003724 0.000000 0.001693 0.000000
# 2 -0.006906 0.042699 -0.010785 0.000000 0.004221 0.000000
# 3 -0.003724 -0.010785 0.019720 0.000000 0.006414 0.000000
# 4 0.000000 0.000000 0.000000 0.045346 0.000000 0.005605
# 5 0.001693 0.004221 0.006414 0.000000 0.052364 0.000000
# 6 0.000000 0.000000 0.000000 0.005605 0.000000 0.051395
#
#
# Mechanical properties :
#
#
# Convention : Reuss Voigt Hill
#
# Bulk Modulus (GPa) = 33.95753 59.08196 46.51975
# Shear Modulus (GPa) = 18.24642 22.65782 20.45212
#
# Velocity S-wave (km/s) = 3.23017 3.59953 3.41984
# Velocity P-wave (km/s) = 5.77324 7.14569 6.49581
#
# Compressibility (1/GPa) = 0.02944855
#
# Stress axis : x y z
#
# Youngs Moduli (GPa) = 101.44522 23.41963 50.70974
#
# Poissons Ratio (x) = 0.16172 0.18883
# Poissons Ratio (y) = 0.70053 0.54690
# Poissons Ratio (z) = 0.37775 0.25258
#
# Static dielectric constant tensor:
#      x y z
#    x 3.478090 0.000000 -0.101550 
#    y 0.000000 3.041340 0.000000 
#    z -0.101550 0.000000 3.188530 
# 
# 
# High freq. dielectric constant tensor:
#      x y z
#    x 1.684960 0.000000 -0.008870 
#    y 0.000000 1.646920 0.000000 
#    z -0.008870 0.000000 1.669830 
# 
# From -- ./inp_files/314191.got.cif
#   From: 2010.06.25/outbox.cif.g09.slc.cpg/sg12_158_cif.got.tgz:314191.got - 2010.06.28 00:19:55.
