data_PCOD8089306
_publ_section_title
;
Structure prediction by ZEFSAII (Michael W. Deem and Ramdas Pophale) SiO2 
 PCOD8089306
Probable space group: C 2/M
;
_chemical_formula_sum "Si O2"
_cell_formula_units_Z 64
_cell_length_a 19.760979
_cell_length_b 18.937399
_cell_length_c 19.248416
_cell_angle_alpha 90.000000
_cell_angle_beta 150.450172
_cell_angle_gamma 90.000000
_cell_volume 3552.462431
_symmetry_space_group_name_H-M "C 2/M"
_symmetry_group_IT_number 12
_symmetry_cell_setting 'monoclinic'
loop_
_space_group_symop_operation_xyz
x,y,z
-x,y,-z
-x,-y,-z
x,-y,z
1/2+x,1/2+y,z
1/2-x,1/2+y,-z
1/2-x,1/2-y,-z
1/2+x,1/2-y,z
loop_
_atom_site_type_symbol
_atom_site_label
_atom_site_fract_x
_atom_site_fract_y
_atom_site_fract_z
Si Si1 0.216324 0.175775 0.004534
Si Si2 0.681765 0.261503 0.268915
Si Si3 0.931385 0.833367 0.701167
Si Si4 0.433971 0.775732 0.580462
Si Si5 0.546061 0.149152 0.969249
Si Si6 0.940385 0.423412 0.155235
Si Si7 0.822015 0.580813 0.536031
Si Si8 0.251857 0.768012 0.178257
O O1 0.089117 0.141333 0.849083
O O2 0.250000 0.250000 0.000000
O O3 0.352956 0.130688 0.121856
O O4 0.185465 0.182422 0.059321
O O5 0.615599 0.317284 0.262313
O O6 0.829057 0.238596 0.432612
O O7 0.575963 0.197463 0.169408
O O8 0.707444 0.295227 0.215065
O O9 0.919198 0.763987 0.641536
O O10 0.835696 0.897209 0.588640
O O11 0.394111 0.859277 0.551632
O O12 0.584489 0.765672 0.683473
O O13 0.573688 0.088094 0.939204
O O14 0.500000 0.113382 0.000000
O O15 0.688136 0.190647 0.108860
O O16 0.879797 0.500000 0.117849
O O17 0.098577 0.418005 0.319812
O O18 0.827558 0.500000 0.509582
#
# Coordination Sequence:
#
# PCOD8089306 Si02
#       8
#     8   8   8   8   8   8   8   8
#     4  12  19  34  57  78 105 136 179 224 273 316
#     4  10  20  31  51  82 107 135 170 220 268 323
#     4  11  20  33  58  77 106 139 178 223 271 318
#     4  11  19  34  56  78 105 139 177 221 272 314
#     4  10  19  33  52  79 110 140 174 219 275 325
#     4  11  21  35  53  77 108 145 184 223 268 322
#     4  10  21  34  51  76 105 137 179 223 261 315
#     4  11  20  32  53  80 112 131 173 223 270 319
#
# _framework density 18.015671999999999
#
# number of rings (size 3 to 8) (size 9 to 14) (size 15 to 20)
#    0.000    1.250    5.000    3.375    0.000    0.750 
#    0.000    0.000    0.000    9.000    0.000    4.375 
#    0.000   19.000    0.000    0.000    0.000    0.000 
#
# Total GULP energy -396505.743185 kJ/mol
# GULP energy per Si atom -12390.804475 kJ/mol
# Density = 1.797467 g / cm^3
# Si number density = 18.015672 Si / 1000 Ang^3
#
#
#
# Elastic Constant Matrix: (Units=GPa)
#
#
# Indices 1 2 3 4 5 6 
#
# 1 97.0822 28.8765 21.6934 -0.0030 -11.8706 0.0001
# 2 28.8765 78.3427 29.2373 -0.0031 2.3402 -0.0008
# 3 21.6934 29.2373 116.2528 -0.0086 10.7915 -0.0027
# 4 -0.0030 -0.0031 -0.0086 20.1441 -0.0018 -0.8809
# 5 -11.8706 2.3402 10.7915 -0.0018 33.6696 0.0004
# 6 0.0001 -0.0008 -0.0027 -0.8809 0.0004 13.3472
#
#
#
# Elastic Compliance Matrix: (Units=1/GPa)
#
#
# Indices 1 2 3 4 5 6 
#
# 1 0.012577 -0.004121 -0.001802 0.000001 0.005298 -0.000001
# 2 -0.004121 0.015438 -0.002967 0.000000 -0.001575 0.000000
# 3 -0.001802 -0.002967 0.010023 0.000003 -0.003642 0.000002
# 4 0.000001 0.000000 0.000003 0.049786 0.000002 0.003286
# 5 0.005298 -0.001575 -0.003642 0.000002 0.032845 -0.000002
# 6 -0.000001 0.000000 0.000002 0.003286 -0.000002 0.075139
#
#
# Mechanical properties :
#
#
# Convention : Reuss Voigt Hill
#
# Bulk Modulus (GPa) = 49.36922 50.14357 49.75639
# Shear Modulus (GPa) = 22.69210 27.55689 25.12449
#
# Velocity S-wave (km/s) = 3.55290 3.91526 3.73847
# Velocity P-wave (km/s) = 6.65536 6.95218 6.80538
#
# Compressibility (1/GPa) = 0.02025554
#
# Stress axis : x y z
#
# Youngs Moduli (GPa) = 79.51020 64.77518 99.77490
#
# Poissons Ratio (x) = 0.26697 0.17982
# Poissons Ratio (y) = 0.32770 0.29607
# Poissons Ratio (z) = 0.14329 0.19221
#
# Static dielectric constant tensor:
#      x y z
#    x 3.409080 0.000000 -0.047830 
#    y 0.000000 3.096550 0.000000 
#    z -0.047830 0.000000 3.976400 
# 
# 
# High freq. dielectric constant tensor:
#      x y z
#    x 1.691010 0.000000 0.000060 
#    y 0.000000 1.651940 0.000000 
#    z 0.000060 0.000000 1.727780 
# 
# From -- ./inp_files/322446.got.cif
#   From: 2010.06.25/outbox.cif.g09.slc.cpg/sg12_162_cif.got.tgz:322446.got - 2010.06.28 00:19:55.
