data_PCOD8089469
_publ_section_title
;
Structure prediction by ZEFSAII (Michael W. Deem and Ramdas Pophale) SiO2 
 PCOD8089469
Probable space group: C 2/M
;
_chemical_formula_sum "Si O2"
_cell_formula_units_Z 48
_cell_length_a 16.682407
_cell_length_b 12.781874
_cell_length_c 12.082758
_cell_angle_alpha 90.000000
_cell_angle_beta 99.314094
_cell_angle_gamma 90.000000
_cell_volume 2542.467881
_symmetry_space_group_name_H-M "C 2/M"
_symmetry_group_IT_number 12
_symmetry_cell_setting 'monoclinic'
loop_
_space_group_symop_operation_xyz
x,y,z
-x,y,-z
-x,-y,-z
x,-y,z
1/2+x,1/2+y,z
1/2-x,1/2+y,-z
1/2-x,1/2-y,-z
1/2+x,1/2-y,z
loop_
_atom_site_type_symbol
_atom_site_label
_atom_site_fract_x
_atom_site_fract_y
_atom_site_fract_z
Si Si1 0.334618 0.326262 0.108303
Si Si2 0.490026 0.379669 0.871556
Si Si3 0.737970 0.618969 0.687803
Si Si4 0.757382 0.383400 0.123485
Si Si5 0.347248 0.694966 0.707863
Si Si6 0.909432 0.879155 0.490730
O O1 0.423102 0.363318 0.166915
O O2 0.271065 0.374570 0.181501
O O3 0.327604 0.199696 0.108718
O O4 0.315722 0.370791 0.981866
O O5 0.460781 0.500000 0.850594
O O6 0.427295 0.300196 0.801677
O O7 0.500000 0.346354 0.000000
O O8 0.755547 0.500000 0.654144
O O9 0.815687 0.688796 0.670239
O O10 0.656001 0.665572 0.612108
O O11 0.794076 0.500000 0.125414
O O12 0.722963 0.365150 0.239383
O O13 0.370765 0.634050 0.602689
O O14 0.000000 0.826415 0.500000
O O15 0.920487 0.000000 0.465759
#
# Coordination Sequence:
#
# PCOD8089469 Si02
#       6
#     8   8   8   8   8   8
#     4  10  20  33  52  77 107 140 176 216 265 319
#     4  11  20  32  52  78 107 135 172 225 272 309
#     4  10  21  36  54  77 110 148 179 216 267 322
#     4  10  19  33  53  77 105 139 177 219 264 314
#     4  11  21  34  55  81 109 139 180 225 269 315
#     4  10  20  35  57  83 108 136 174 223 275 319
#
# _framework density 18.879293000000001
#
# number of rings (size 3 to 8) (size 9 to 14) (size 15 to 20)
#    0.000    1.667    1.667    4.500    0.000    1.333 
#    0.000    0.833    0.000    1.500    0.000    0.000 
#    0.000    0.000    0.000    0.000    0.000    0.000 
#
# Total GULP energy -297569.392734 kJ/mol
# GULP energy per Si atom -12398.724697 kJ/mol
# Density = 1.883632 g / cm^3
# Si number density = 18.879293 Si / 1000 Ang^3
#
#
#
# Elastic Constant Matrix: (Units=GPa)
#
#
# Indices 1 2 3 4 5 6 
#
# 1 70.9031 28.2998 24.9772 0.0000 14.3580 0.0000
# 2 28.2998 91.3296 22.5585 0.0000 15.9556 0.0000
# 3 24.9772 22.5585 88.1493 0.0000 4.0251 0.0000
# 4 0.0000 0.0000 0.0000 22.7596 0.0000 1.9675
# 5 14.3580 15.9556 4.0251 0.0000 36.6359 0.0000
# 6 0.0000 0.0000 0.0000 1.9675 0.0000 24.6667
#
#
#
# Elastic Compliance Matrix: (Units=1/GPa)
#
#
# Indices 1 2 3 4 5 6 
#
# 1 0.017983 -0.003734 -0.003912 0.000000 -0.004992 0.000000
# 2 -0.003734 0.013363 -0.002174 0.000000 -0.004117 0.000000
# 3 -0.003912 -0.002174 0.012961 0.000000 0.001056 0.000000
# 4 0.000000 0.000000 0.000000 0.044242 0.000000 -0.003529
# 5 -0.004992 -0.004117 0.001056 0.000000 0.030929 0.000000
# 6 0.000000 0.000000 0.000000 -0.003529 0.000000 0.040822
#
#
# Mechanical properties :
#
#
# Convention : Reuss Voigt Hill
#
# Bulk Modulus (GPa) = 40.53942 44.67255 42.60598
# Shear Modulus (GPa) = 26.57289 28.44889 27.51089
#
# Velocity S-wave (km/s) = 3.75576 3.88607 3.82147
# Velocity P-wave (km/s) = 6.35037 6.62185 6.48753
#
# Compressibility (1/GPa) = 0.02466735
#
# Stress axis : x y z
#
# Youngs Moduli (GPa) = 55.60802 74.83580 77.15509
#
# Poissons Ratio (x) = 0.27943 0.30183
# Poissons Ratio (y) = 0.20764 0.16771
# Poissons Ratio (z) = 0.21754 0.16266
#
# Static dielectric constant tensor:
#      x y z
#    x 3.472340 0.000000 0.061200 
#    y 0.000000 3.369280 0.000000 
#    z 0.061200 0.000000 3.570570 
# 
# 
# High freq. dielectric constant tensor:
#      x y z
#    x 1.719130 0.000000 -0.005530 
#    y 0.000000 1.708220 0.000000 
#    z -0.005530 0.000000 1.744150 
# 
# From -- ./inp_files/153533.got.cif
#   From: 2010.06.25/outbox.cif.g09.slc.cpg/sg12_77_cif.got.tgz:153533.got - 2010.06.28 00:19:55.
