data_PCOD8089009
_publ_section_title
;
Structure prediction by ZEFSAII (Michael W. Deem and Ramdas Pophale) SiO2 
 PCOD8089009
Probable space group: C 2/M
;
_chemical_formula_sum "Si O2"
_cell_formula_units_Z 64
_cell_length_a 26.045371
_cell_length_b 18.820819
_cell_length_c 19.943363
_cell_angle_alpha 90.000000
_cell_angle_beta 18.787316
_cell_angle_gamma 90.000000
_cell_volume 3148.466069
_symmetry_space_group_name_H-M "C 2/M"
_symmetry_group_IT_number 12
_symmetry_cell_setting 'monoclinic'
loop_
_space_group_symop_operation_xyz
x,y,z
-x,y,-z
-x,-y,-z
x,-y,z
1/2+x,1/2+y,z
1/2-x,1/2+y,-z
1/2-x,1/2-y,-z
1/2+x,1/2-y,z
loop_
_atom_site_type_symbol
_atom_site_label
_atom_site_fract_x
_atom_site_fract_y
_atom_site_fract_z
Si Si1 0.834019 0.177251 0.560121
Si Si2 0.898113 0.162941 0.034446
Si Si3 0.301290 0.686055 0.887643
Si Si4 0.353493 0.920344 0.722687
Si Si5 0.432539 0.919274 0.157972
Si Si6 0.691610 0.182791 0.876987
Si Si7 0.238087 0.838229 0.655993
Si Si8 0.951462 0.579538 0.753789
O O1 0.736912 0.121229 0.634385
O O2 0.809965 0.163307 0.669479
O O3 0.782193 0.255514 0.601539
O O4 0.019430 0.165187 0.315195
O O5 0.805156 0.127450 0.087528
O O6 0.904338 0.247704 0.026195
O O7 0.803651 0.136037 0.217274
O O8 0.083435 0.142084 0.802849
O O9 0.289774 0.703583 0.822564
O O10 0.250000 0.750000 0.000000
O O11 0.186913 0.618798 0.035353
O O12 0.500000 0.886127 0.500000
O O13 0.402329 0.920345 0.738154
O O14 0.318112 0.000000 0.740000
O O15 0.408709 0.000000 0.212993
O O16 0.500000 0.917087 0.000000
O O17 0.559612 0.879736 0.049751
O O18 0.380271 0.881486 0.446270
O O19 0.967260 0.500000 0.762752
#
# Coordination Sequence:
#
# PCOD8089009 Si02
#       8
#     8   8   8   8   8   8   8   8
#     4  10  20  39  63  92 118 152 203 255 308 364
#     4  10  19  32  61  91 117 148 197 247 291 352
#     4  12  24  39  60  88 122 164 205 248 305 365
#     4  10  20  36  57  84 116 156 201 243 291 349
#     4   9  18  37  64  91 120 152 192 254 322 368
#     4  10  21  37  62  93 120 151 200 256 304 364
#     4  10  19  35  57  89 121 150 190 247 299 353
#     4  11  24  41  57  81 124 166 199 245 303 359
#
# _framework density 20.327359000000001
#
# number of rings (size 3 to 8) (size 9 to 14) (size 15 to 20)
#    0.000    1.750    3.750    1.125    0.000    1.500 
#    0.000    5.000    0.000    3.750    0.000    0.000 
#    0.000    0.000    0.000    0.000    0.000    0.000 
#
# Total GULP energy -396738.892815 kJ/mol
# GULP energy per Si atom -12398.090400 kJ/mol
# Density = 2.028109 g / cm^3
# Si number density = 20.327359 Si / 1000 Ang^3
#
#
#
# Elastic Constant Matrix: (Units=GPa)
#
#
# Indices 1 2 3 4 5 6 
#
# 1 49.2803 20.2176 23.3331 -0.0173 -17.4275 0.0080
# 2 20.2176 112.7060 55.4929 0.0159 -16.8323 -0.0047
# 3 23.3331 55.4929 141.7006 -0.0175 -32.6880 0.0069
# 4 -0.0173 0.0159 -0.0175 32.5313 0.0038 -6.5878
# 5 -17.4275 -16.8323 -32.6880 0.0038 33.5833 -0.0025
# 6 0.0080 -0.0047 0.0069 -6.5878 -0.0025 26.5240
#
#
#
# Elastic Compliance Matrix: (Units=1/GPa)
#
#
# Indices 1 2 3 4 5 6 
#
# 1 0.025689 -0.002620 -0.000557 0.000012 0.011476 -0.000004
# 2 -0.002620 0.011335 -0.003883 -0.000009 0.000543 0.000002
# 3 -0.000557 -0.003883 0.010515 0.000006 0.008000 -0.000001
# 4 0.000012 -0.000009 0.000006 0.032368 0.000005 0.008039
# 5 0.011476 0.000543 0.008000 0.000005 0.043790 0.000000
# 6 -0.000004 0.000002 -0.000001 0.008039 0.000000 0.039698
#
#
# Mechanical properties :
#
#
# Convention : Reuss Voigt Hill
#
# Bulk Modulus (GPa) = 29.92211 55.75271 42.83741
# Shear Modulus (GPa) = 26.50356 32.17060 29.33708
#
# Velocity S-wave (km/s) = 3.61479 3.98254 3.80311
# Velocity P-wave (km/s) = 5.67224 6.97384 6.35644
#
# Compressibility (1/GPa) = 0.03342010
#
# Stress axis : x y z
#
# Youngs Moduli (GPa) = 38.92729 88.21966 95.10566
#
# Poissons Ratio (x) = 0.23116 0.05294
# Poissons Ratio (y) = 0.10200 0.36925
# Poissons Ratio (z) = 0.02167 0.34251
#
# Static dielectric constant tensor:
#      x y z
#    x 4.140260 -0.000090 0.294660 
#    y -0.000090 3.848560 0.000030 
#    z 0.294660 0.000030 3.886990 
# 
# 
# High freq. dielectric constant tensor:
#      x y z
#    x 1.784840 0.000000 -0.016750 
#    y 0.000000 1.788190 0.000000 
#    z -0.016750 0.000000 1.788510 
# 
# From -- ./inp_files/290883.got.cif
#   From: 2010.06.25/outbox.cif.g09.slc.cpg/sg12_146_cif.got.tgz:290883.got - 2010.06.28 00:19:55.
