data_PCOD8089712
_publ_section_title
;
Structure prediction by ZEFSAII (Michael W. Deem and Ramdas Pophale) SiO2 
 PCOD8089712
Probable space group: C 2/M
;
_chemical_formula_sum "Si O2"
_cell_formula_units_Z 64
_cell_length_a 20.063130
_cell_length_b 9.187919
_cell_length_c 23.391649
_cell_angle_alpha 90.000000
_cell_angle_beta 123.608111
_cell_angle_gamma 90.000000
_cell_volume 3591.201446
_symmetry_space_group_name_H-M "C 2/M"
_symmetry_group_IT_number 12
_symmetry_cell_setting 'monoclinic'
loop_
_space_group_symop_operation_xyz
x,y,z
-x,y,-z
-x,-y,-z
x,-y,z
1/2+x,1/2+y,z
1/2-x,1/2+y,-z
1/2-x,1/2-y,-z
1/2+x,1/2-y,z
loop_
_atom_site_type_symbol
_atom_site_label
_atom_site_fract_x
_atom_site_fract_y
_atom_site_fract_z
Si Si1 0.462985 0.670574 0.323117
Si Si2 0.125022 0.669213 0.430180
Si Si3 0.783292 0.831845 0.826348
Si Si4 0.379245 0.833113 0.186670
Si Si5 0.667378 0.169316 0.958559
Si Si6 0.777186 0.832000 0.430185
Si Si7 0.591689 0.169570 0.040742
Si Si8 0.801950 0.168989 0.310803
O O1 0.478926 0.500000 0.326083
O O2 0.543046 0.747498 0.381282
O O3 0.439412 0.729687 0.249450
O O4 0.392684 0.707203 0.335039
O O5 0.106213 0.500000 0.429908
O O6 0.164030 0.729888 0.506367
O O7 0.185323 0.694734 0.405598
O O8 0.711641 0.806761 0.836835
O O9 0.862100 0.758211 0.888965
O O10 0.761767 0.760187 0.755618
O O11 0.801211 0.000000 0.824085
O O12 0.383753 0.789712 0.122157
O O13 0.405087 0.000000 0.209725
O O14 0.687592 0.000000 0.967039
O O15 0.750000 0.250000 0.000000
O O16 0.617295 0.216303 0.989608
O O17 0.788435 0.787577 0.369894
O O18 0.801217 0.000000 0.452045
O O19 0.607100 0.000000 0.059707
O O20 0.500000 0.212605 0.000000
O O21 0.784267 0.000000 0.291482
#
# Coordination Sequence:
#
# PCOD8089712 Si02
#       8
#     8   8   8   8   8   8   8   8
#     4  10  20  34  54  79 107 138 173 216 259 304
#     4  10  20  35  56  80 108 140 171 212 261 305
#     4  10  19  33  54  78 106 137 169 215 268 311
#     4   9  18  33  52  76 104 134 172 216 262 308
#     4  10  19  33  55  78 101 134 176 219 260 309
#     4   9  19  37  58  78 103 140 180 213 250 304
#     4  10  21  36  53  75 105 140 176 214 259 314
#     4   9  19  36  57  79 103 137 179 215 253 306
#
# _framework density 17.821334
#
# number of rings (size 3 to 8) (size 9 to 14) (size 15 to 20)
#    0.000    2.375    1.250    1.125    0.000    3.250 
#    2.250    2.500    0.000    0.000    0.000    0.000 
#    0.000    0.000    0.000    0.000    0.000    0.000 
#
# Total GULP energy -396874.460760 kJ/mol
# GULP energy per Si atom -12402.326899 kJ/mol
# Density = 1.778077 g / cm^3
# Si number density = 17.821334 Si / 1000 Ang^3
#
#
#
# Elastic Constant Matrix: (Units=GPa)
#
#
# Indices 1 2 3 4 5 6 
#
# 1 106.8955 57.1256 84.5806 0.0000 -6.5126 0.0000
# 2 57.1256 95.2229 81.3997 0.0000 4.3601 0.0000
# 3 84.5806 81.3997 145.3222 0.0000 -3.0517 0.0000
# 4 0.0000 0.0000 0.0000 39.0482 0.0000 5.0383
# 5 -6.5126 4.3601 -3.0517 0.0000 28.3717 0.0000
# 6 0.0000 0.0000 0.0000 5.0383 0.0000 23.3142
#
#
#
# Elastic Compliance Matrix: (Units=1/GPa)
#
#
# Indices 1 2 3 4 5 6 
#
# 1 0.018356 -0.004089 -0.008311 0.000000 0.003948 0.000000
# 2 -0.004089 0.021603 -0.009832 0.000000 -0.005316 0.000000
# 3 -0.008311 -0.009832 0.017256 0.000000 0.001460 0.000000
# 4 0.000000 0.000000 0.000000 0.026344 0.000000 -0.005693
# 5 0.003948 -0.005316 0.001460 0.000000 0.037127 0.000000
# 6 0.000000 0.000000 0.000000 -0.005693 0.000000 0.044123
#
#
# Mechanical properties :
#
#
# Convention : Reuss Voigt Hill
#
# Bulk Modulus (GPa) = 78.41892 88.18361 83.30127
# Shear Modulus (GPa) = 23.41665 26.43580 24.92623
#
# Velocity S-wave (km/s) = 3.62880 3.85564 3.74394
# Velocity P-wave (km/s) = 7.85213 8.33131 8.09527
#
# Compressibility (1/GPa) = 0.01275202
#
# Stress axis : x y z
#
# Youngs Moduli (GPa) = 54.47741 46.28945 57.94986
#
# Poissons Ratio (x) = 0.18927 0.48159
# Poissons Ratio (y) = 0.22275 0.56979
# Poissons Ratio (z) = 0.45273 0.45514
#
# Static dielectric constant tensor:
#      x y z
#    x 3.191170 0.000000 -0.150880 
#    y 0.000000 3.343710 0.000000 
#    z -0.150880 0.000000 3.297620 
# 
# 
# High freq. dielectric constant tensor:
#      x y z
#    x 1.680060 0.000000 -0.004700 
#    y 0.000000 1.694030 0.000000 
#    z -0.004700 0.000000 1.694580 
# 
# From -- ./inp_files/345570.got.cif
#   From: 2010.06.25/outbox.cif.g09.slc.cpg/sg12_173_cif.got.tgz:345570.got - 2010.06.28 00:19:55.
