data_PCOD8089083
_publ_section_title
;
Structure prediction by ZEFSAII (Michael W. Deem and Ramdas Pophale) SiO2 
 PCOD8089083
Probable space group: C 2/M
;
_chemical_formula_sum "Si O2"
_cell_formula_units_Z 64
_cell_length_a 23.832321
_cell_length_b 8.889594
_cell_length_c 24.189847
_cell_angle_alpha 90.000000
_cell_angle_beta 44.619107
_cell_angle_gamma 90.000000
_cell_volume 3599.647652
_symmetry_space_group_name_H-M "C 2/M"
_symmetry_group_IT_number 12
_symmetry_cell_setting 'monoclinic'
loop_
_space_group_symop_operation_xyz
x,y,z
-x,y,-z
-x,-y,-z
x,-y,z
1/2+x,1/2+y,z
1/2-x,1/2+y,-z
1/2-x,1/2-y,-z
1/2+x,1/2-y,z
loop_
_atom_site_type_symbol
_atom_site_label
_atom_site_fract_x
_atom_site_fract_y
_atom_site_fract_z
Si Si1 0.977845 0.324222 0.577605
Si Si2 0.400548 0.178774 0.333085
Si Si3 0.619756 0.321511 0.538586
Si Si4 0.422877 0.177967 0.815499
Si Si5 0.219888 0.174615 0.150586
Si Si6 0.189867 0.824091 0.293599
Si Si7 0.320079 0.175313 0.983482
Si Si8 0.743181 0.177172 0.638701
O O1 0.989113 0.500000 0.581610
O O2 0.032780 0.231372 0.580568
O O3 0.000000 0.280198 0.500000
O O4 0.888107 0.277073 0.652049
O O5 0.362650 0.251705 0.414074
O O6 0.489364 0.243078 0.259210
O O7 0.343423 0.229581 0.322382
O O8 0.401102 0.000000 0.339814
O O9 0.621731 0.500000 0.541466
O O10 0.685825 0.257146 0.449501
O O11 0.357585 0.239009 0.818138
O O12 0.424352 0.000000 0.807302
O O13 0.401892 0.224469 0.894634
O O14 0.235540 0.209579 0.204075
O O15 0.303337 0.218443 0.059729
O O16 0.200358 0.000000 0.155379
O O17 0.245698 0.771020 0.305458
O O18 0.166915 0.000000 0.315393
O O19 0.311303 0.000000 0.981605
O O20 0.250000 0.250000 0.000000
O O21 0.749544 0.000000 0.630437
#
# Coordination Sequence:
#
# PCOD8089083 Si02
#       8
#     8   8   8   8   8   8   8   8
#     4  11  22  34  49  71  97 124 153 192 238 281
#     4  10  20  34  50  69  93 124 161 201 237 277
#     4  11  21  34  52  71  92 123 160 200 239 281
#     4   9  17  29  47  68  95 124 150 185 234 284
#     4   9  17  28  47  72  96 119 150 190 230 276
#     4  10  19  33  51  70  94 127 161 194 232 281
#     4   8  14  26  43  67  94 120 147 181 228 279
#     4   9  19  34  50  66  90 126 164 196 236 280
#
# _framework density 17.779516999999998
#
# number of rings (size 3 to 8) (size 9 to 14) (size 15 to 20)
#    0.000    2.375    1.250    1.875    0.000    3.500 
#    0.000    1.250    0.000    0.750    0.000    5.250 
#    0.000    0.000    0.000   20.625    0.000   15.250 
#
# Total GULP energy -396513.544638 kJ/mol
# GULP energy per Si atom -12391.048270 kJ/mol
# Density = 1.773905 g / cm^3
# Si number density = 17.779517 Si / 1000 Ang^3
#
#
#
# Elastic Constant Matrix: (Units=GPa)
#
#
# Indices 1 2 3 4 5 6 
#
# 1 108.2406 14.9807 59.0114 0.0000 13.7517 0.0000
# 2 14.9807 22.3027 18.7913 0.0010 3.0858 0.0016
# 3 59.0114 18.7913 136.2279 0.0004 25.4169 0.0001
# 4 0.0000 0.0010 0.0004 18.2983 -0.0003 -2.2938
# 5 13.7517 3.0858 25.4169 -0.0003 22.6288 -0.0003
# 6 0.0000 0.0016 0.0001 -2.2938 -0.0003 5.3570
#
#
#
# Elastic Compliance Matrix: (Units=1/GPa)
#
#
# Indices 1 2 3 4 5 6 
#
# 1 0.012525 -0.004390 -0.004443 0.000001 -0.002023 0.000001
# 2 -0.004390 0.052298 -0.005667 -0.000005 0.001902 -0.000018
# 3 -0.004443 -0.005667 0.011891 0.000000 -0.009883 0.000001
# 4 0.000001 -0.000005 0.000000 0.057750 0.000002 0.024727
# 5 -0.002023 0.001902 -0.009883 0.000002 0.056263 0.000003
# 6 0.000001 -0.000018 0.000001 0.024727 0.000003 0.197258
#
#
# Mechanical properties :
#
#
# Convention : Reuss Voigt Hill
#
# Bulk Modulus (GPa) = 20.95796 50.25978 35.60887
# Shear Modulus (GPa) = 11.55028 20.85600 16.20314
#
# Velocity S-wave (km/s) = 2.55157 3.42868 3.02211
# Velocity P-wave (km/s) = 4.52703 6.63356 5.67883
#
# Compressibility (1/GPa) = 0.04771456
#
# Stress axis : x y z
#
# Youngs Moduli (GPa) = 79.83750 19.12109 84.09817
#
# Poissons Ratio (x) = 0.08394 0.37363
# Poissons Ratio (y) = 0.35050 0.47659
# Poissons Ratio (z) = 0.35470 0.10836
#
# Static dielectric constant tensor:
#      x y z
#    x 3.323380 0.000020 0.200580 
#    y 0.000020 2.648110 0.000020 
#    z 0.200580 0.000020 4.063020 
# 
# 
# High freq. dielectric constant tensor:
#      x y z
#    x 1.663170 0.000000 0.013600 
#    y 0.000000 1.672540 0.000000 
#    z 0.013600 0.000000 1.700230 
# 
# From -- ./inp_files/348548.got.cif
#   From: 2010.06.25/outbox.cif.g09.slc.cpg/sg12_175_cif.got.tgz:348548.got - 2010.06.28 00:19:55.
