data_PCOD8089392
_publ_section_title
;
Structure prediction by ZEFSAII (Michael W. Deem and Ramdas Pophale) SiO2 
 PCOD8089392
Probable space group: C 2/M
;
_chemical_formula_sum "Si O2"
_cell_formula_units_Z 56
_cell_length_a 28.622996
_cell_length_b 13.193641
_cell_length_c 12.898614
_cell_angle_alpha 90.000000
_cell_angle_beta 140.151572
_cell_angle_gamma 90.000000
_cell_volume 3121.169894
_symmetry_space_group_name_H-M "C 2/M"
_symmetry_group_IT_number 12
_symmetry_cell_setting 'monoclinic'
loop_
_space_group_symop_operation_xyz
x,y,z
-x,y,-z
-x,-y,-z
x,-y,z
1/2+x,1/2+y,z
1/2-x,1/2+y,-z
1/2-x,1/2-y,-z
1/2+x,1/2-y,z
loop_
_atom_site_type_symbol
_atom_site_label
_atom_site_fract_x
_atom_site_fract_y
_atom_site_fract_z
Si Si1 0.543282 0.615462 0.360562
Si Si2 0.851707 0.383858 0.752252
Si Si3 0.379433 0.384462 0.126801
Si Si4 0.172438 0.117493 0.733105
Si Si5 0.431077 0.700231 0.815072
Si Si6 0.205204 0.258967 0.168233
Si Si7 0.721769 0.384902 0.376068
O O1 0.554233 0.500000 0.341831
O O2 0.465817 0.630781 0.283314
O O3 0.602443 0.646217 0.546295
O O4 0.551295 0.686949 0.275152
O O5 0.876091 0.500000 0.792727
O O6 0.915629 0.319471 0.806941
O O7 0.840598 0.346310 0.851217
O O8 0.775295 0.364447 0.563370
O O9 0.360840 0.500000 0.063109
O O10 0.343860 0.357744 0.175829
O O11 0.350324 0.309394 0.990425
O O12 0.237908 0.189480 0.811227
O O13 0.193932 0.000000 0.753927
O O14 0.360890 0.635543 0.729406
O O15 0.500000 0.663600 0.000000
O O16 0.245015 0.187429 0.320681
O O17 0.728697 0.500000 0.349707
#
# Coordination Sequence:
#
# PCOD8089392 Si02
#       7
#     8   8   8   8   8   8   8
#     4  10  19  33  53  75 102 134 164 200 249 300
#     4  10  21  36  52  72 101 136 171 202 237 292
#     4  10  21  35  51  75 103 129 163 209 256 296
#     4  10  20  34  53  75  99 131 170 207 245 293
#     4  11  21  32  50  77 106 132 164 203 246 295
#     4  11  19  32  52  76 103 130 164 205 251 295
#     4  10  20  34  52  75 103 133 164 201 246 298
#
# _framework density 17.941990000000001
#
# number of rings (size 3 to 8) (size 9 to 14) (size 15 to 20)
#    0.000    1.714    0.000    7.286    0.000    6.571 
#    0.000    0.000    0.000    0.000    0.000    0.000 
#    0.000   16.000    0.000    0.000    0.000    0.000 
#
# Total GULP energy -347275.825945 kJ/mol
# GULP energy per Si atom -12402.708069 kJ/mol
# Density = 1.790115 g / cm^3
# Si number density = 17.941990 Si / 1000 Ang^3
#
#
#
# Elastic Constant Matrix: (Units=GPa)
#
#
# Indices 1 2 3 4 5 6 
#
# 1 80.6570 29.7511 8.2133 0.0000 -4.6062 0.0000
# 2 29.7511 68.6172 17.2821 0.0000 -8.3973 0.0000
# 3 8.2133 17.2821 70.7588 0.0000 -4.5032 0.0000
# 4 0.0000 0.0000 0.0000 25.0899 0.0000 -2.6182
# 5 -4.6062 -8.3973 -4.5032 0.0000 28.1101 0.0000
# 6 0.0000 0.0000 0.0000 -2.6182 0.0000 32.1951
#
#
#
# Elastic Compliance Matrix: (Units=1/GPa)
#
#
# Indices 1 2 3 4 5 6 
#
# 1 0.014767 -0.006304 -0.000142 0.000000 0.000514 0.000000
# 2 -0.006304 0.018696 -0.003581 0.000000 0.003978 0.000000
# 3 -0.000142 -0.003581 0.015108 0.000000 0.001327 0.000000
# 4 0.000000 0.000000 0.000000 0.040198 0.000000 0.003269
# 5 0.000514 0.003978 0.001327 0.000000 0.037060 0.000000
# 6 0.000000 0.000000 0.000000 0.003269 0.000000 0.031326
#
#
# Mechanical properties :
#
#
# Convention : Reuss Voigt Hill
#
# Bulk Modulus (GPa) = 35.06699 36.72510 35.89604
# Shear Modulus (GPa) = 26.77873 28.06479 27.42176
#
# Velocity S-wave (km/s) = 3.86750 3.95928 3.91366
# Velocity P-wave (km/s) = 6.28733 6.43541 6.36180
#
# Compressibility (1/GPa) = 0.02851685
#
# Stress axis : x y z
#
# Youngs Moduli (GPa) = 67.71703 53.48780 66.18951
#
# Poissons Ratio (x) = 0.33720 0.00938
# Poissons Ratio (y) = 0.42691 0.23705
# Poissons Ratio (z) = 0.00959 0.19156
#
# Static dielectric constant tensor:
#      x y z
#    x 3.291580 0.000000 -0.059600 
#    y 0.000000 3.384460 0.000000 
#    z -0.059600 0.000000 3.308900 
# 
# 
# High freq. dielectric constant tensor:
#      x y z
#    x 1.694650 0.000000 -0.004660 
#    y 0.000000 1.692860 0.000000 
#    z -0.004660 0.000000 1.695190 
# 
# From -- ./inp_files/183484.got.cif
#   From: 2010.06.25/outbox.cif.g09.slc.cpg/sg12_92_cif.got.tgz:183484.got - 2010.06.28 00:19:55.
