data_PCOD8089415
_publ_section_title
;
Structure prediction by ZEFSAII (Michael W. Deem and Ramdas Pophale) SiO2 
 PCOD8089415
Probable space group: C 2/M
;
_chemical_formula_sum "Si O2"
_cell_formula_units_Z 56
_cell_length_a 19.238251
_cell_length_b 9.108348
_cell_length_c 20.215531
_cell_angle_alpha 90.000000
_cell_angle_beta 56.768973
_cell_angle_gamma 90.000000
_cell_volume 2963.053660
_symmetry_space_group_name_H-M "C 2/M"
_symmetry_group_IT_number 12
_symmetry_cell_setting 'monoclinic'
loop_
_space_group_symop_operation_xyz
x,y,z
-x,y,-z
-x,-y,-z
x,-y,z
1/2+x,1/2+y,z
1/2-x,1/2+y,-z
1/2-x,1/2-y,-z
1/2+x,1/2-y,z
loop_
_atom_site_type_symbol
_atom_site_label
_atom_site_fract_x
_atom_site_fract_y
_atom_site_fract_z
Si Si1 0.924104 0.170383 0.736022
Si Si2 0.742825 0.832646 0.800190
Si Si3 0.952310 0.675031 0.229592
Si Si4 0.185472 0.335570 0.491756
Si Si5 0.439682 0.829113 0.085903
Si Si6 0.498719 0.173648 0.424413
Si Si7 0.712899 0.332582 0.686005
O O1 0.824979 0.188105 0.802401
O O2 0.972502 0.258722 0.767231
O O3 0.939235 0.235607 0.654649
O O4 0.950589 0.000000 0.723759
O O5 0.656683 0.798131 0.884172
O O6 0.748274 0.723068 0.736463
O O7 0.738262 0.000000 0.775542
O O8 0.953667 0.500000 0.236429
O O9 0.960098 0.729106 0.149174
O O10 0.864026 0.736024 0.301743
O O11 0.194240 0.500000 0.511434
O O12 0.250000 0.250000 0.500000
O O13 0.092391 0.283153 0.554439
O O14 0.207735 0.319513 0.403023
O O15 0.459192 0.000000 0.076566
O O16 0.500000 0.752511 0.000000
O O17 0.500000 0.224153 0.500000
O O18 0.517789 0.000000 0.408794
O O19 0.682138 0.500000 0.708611
#
# Coordination Sequence:
#
# PCOD8089415 Si02
#       7
#     8   8   8   8   8   8   8
#     4  11  22  35  51  75 108 141 176 217 259 306
#     4   9  19  34  53  77 103 134 169 206 251 303
#     4  10  20  34  54  79 106 138 174 212 258 309
#     4  10  21  33  47  69  95 126 165 212 260 302
#     4   8  15  32  58  82 102 130 170 210 251 307
#     4  10  21  37  54  72  98 135 179 223 265 307
#     4  10  19  33  53  75  99 130 171 215 260 310
#
# _framework density 18.899421
#
# number of rings (size 3 to 8) (size 9 to 14) (size 15 to 20)
#    0.000    2.286    0.000    3.857    0.000    6.571 
#    0.000    0.714    0.000   10.714    0.000    0.000 
#    0.000    0.000    0.000    0.000    0.000    0.000 
#
# Total GULP energy -347061.318759 kJ/mol
# GULP energy per Si atom -12395.047099 kJ/mol
# Density = 1.885640 g / cm^3
# Si number density = 18.899421 Si / 1000 Ang^3
#
#
#
# Elastic Constant Matrix: (Units=GPa)
#
#
# Indices 1 2 3 4 5 6 
#
# 1 97.2034 39.8881 28.4754 -0.0001 -10.8971 -0.0002
# 2 39.8881 75.5288 28.7381 -0.0001 -6.0578 -0.0006
# 3 28.4754 28.7381 75.2905 0.0000 -13.2988 -0.0001
# 4 -0.0001 -0.0001 0.0000 17.1553 0.0000 1.5167
# 5 -10.8971 -6.0578 -13.2988 0.0000 25.2258 0.0000
# 6 -0.0002 -0.0006 -0.0001 1.5167 0.0000 29.9538
#
#
#
# Elastic Compliance Matrix: (Units=1/GPa)
#
#
# Indices 1 2 3 4 5 6 
#
# 1 0.013869 -0.006184 -0.002304 0.000000 0.003292 0.000000
# 2 -0.006184 0.018257 -0.004772 0.000000 -0.000803 0.000000
# 3 -0.002304 -0.004772 0.017198 0.000000 0.006926 0.000000
# 4 0.000000 0.000000 0.000000 0.058553 0.000000 -0.002965
# 5 0.003292 -0.000803 0.006926 0.000000 0.044522 0.000000
# 6 0.000000 0.000000 0.000000 -0.002965 0.000000 0.033535
#
#
# Mechanical properties :
#
#
# Convention : Reuss Voigt Hill
#
# Bulk Modulus (GPa) = 43.84897 49.13624 46.49261
# Shear Modulus (GPa) = 22.72162 24.52838 23.62500
#
# Velocity S-wave (km/s) = 3.47109 3.60646 3.53942
# Velocity P-wave (km/s) = 6.27027 6.58766 6.43092
#
# Compressibility (1/GPa) = 0.02280555
#
# Stress axis : x y z
#
# Youngs Moduli (GPa) = 72.10201 54.77328 58.14737
#
# Poissons Ratio (x) = 0.33872 0.13395
# Poissons Ratio (y) = 0.44589 0.27745
# Poissons Ratio (z) = 0.16609 0.26135
#
# Static dielectric constant tensor:
#      x y z
#    x 2.897290 0.000000 -1.016360 
#    y 0.000000 3.374120 0.000000 
#    z -1.016360 0.000000 2.553030 
# 
# 
# High freq. dielectric constant tensor:
#      x y z
#    x 1.741070 0.000000 -0.012740 
#    y 0.000000 1.723910 0.000000 
#    z -0.012740 0.000000 1.719020 
# 
# From -- ./inp_files/313810.got.cif
#   From: 2010.06.25/outbox.cif.g09.slc.cpg/sg12_157_cif.got.tgz:313810.got - 2010.06.28 00:19:55.
