data_PCOD8089440
_publ_section_title
;
Structure prediction by ZEFSAII (Michael W. Deem and Ramdas Pophale) SiO2 
 PCOD8089440
Probable space group: C 2/M
;
_chemical_formula_sum "Si O2"
_cell_formula_units_Z 56
_cell_length_a 26.668925
_cell_length_b 9.933937
_cell_length_c 19.896815
_cell_angle_alpha 90.000000
_cell_angle_beta 146.863968
_cell_angle_gamma 90.000000
_cell_volume 2881.395566
_symmetry_space_group_name_H-M "C 2/M"
_symmetry_group_IT_number 12
_symmetry_cell_setting 'monoclinic'
loop_
_space_group_symop_operation_xyz
x,y,z
-x,y,-z
-x,-y,-z
x,-y,z
1/2+x,1/2+y,z
1/2-x,1/2+y,-z
1/2-x,1/2-y,-z
1/2+x,1/2-y,z
loop_
_atom_site_type_symbol
_atom_site_label
_atom_site_fract_x
_atom_site_fract_y
_atom_site_fract_z
Si Si1 0.355027 0.349984 0.312225
Si Si2 0.178820 0.148840 0.951937
Si Si3 0.879988 0.658779 0.461290
Si Si4 0.670462 0.351534 0.235304
Si Si5 0.474379 0.853618 0.893776
Si Si6 0.476430 0.653107 0.319154
Si Si7 0.338648 0.258618 0.922696
O O1 0.379526 0.500000 0.367091
O O2 0.392954 0.235787 0.404973
O O3 0.402554 0.322890 0.294864
O O4 0.245170 0.345116 0.180575
O O5 0.076333 0.179976 0.809970
O O6 0.207950 0.000000 0.960536
O O7 0.250000 0.250000 0.000000
O O8 0.180716 0.149060 0.034756
O O9 0.905104 0.500000 0.481660
O O10 0.776395 0.677263 0.370647
O O11 0.943890 0.734842 0.586919
O O12 0.642602 0.500000 0.228090
O O13 0.608867 0.250288 0.210053
O O14 0.652515 0.346232 0.135034
O O15 0.439721 0.000000 0.830746
O O16 0.500000 0.857478 0.000000
O O17 0.565911 0.817427 0.955364
O O18 0.516012 0.500000 0.366369
#
# Coordination Sequence:
#
# PCOD8089440 Si02
#       7
#     8   8   8   8   8   8   8
#     4  10  19  33  53  76 106 142 177 220 270 321
#     4  11  23  38  55  78 110 149 188 222 262 315
#     4  10  21  35  52  77 105 138 179 226 275 319
#     4   9  19  34  53  79 109 137 171 219 275 326
#     4   9  18  31  52  81 109 137 172 215 268 324
#     4  10  21  36  52  74 104 143 185 221 262 314
#     4  10  19  33  55  81 111 142 178 220 265 320
#
# _framework density 19.435026000000001
#
# number of rings (size 3 to 8) (size 9 to 14) (size 15 to 20)
#    0.000    2.143    1.429    1.714    0.000   11.143 
#    0.000    0.000    0.000    0.857    0.000    0.000 
#    0.000    0.000    0.000    0.000    0.000    0.000 
#
# Total GULP energy -347107.703506 kJ/mol
# GULP energy per Si atom -12396.703697 kJ/mol
# Density = 1.939079 g / cm^3
# Si number density = 19.435026 Si / 1000 Ang^3
#
#
#
# Elastic Constant Matrix: (Units=GPa)
#
#
# Indices 1 2 3 4 5 6 
#
# 1 44.4119 28.8260 27.4470 0.0000 15.5935 0.0000
# 2 28.8260 150.8693 62.9372 0.0000 18.8633 0.0000
# 3 27.4470 62.9372 93.4405 0.0000 8.5945 0.0000
# 4 0.0000 0.0000 0.0000 30.8373 0.0000 5.8104
# 5 15.5935 18.8633 8.5945 0.0000 25.2831 0.0000
# 6 0.0000 0.0000 0.0000 5.8104 0.0000 20.8161
#
#
#
# Elastic Compliance Matrix: (Units=1/GPa)
#
#
# Indices 1 2 3 4 5 6 
#
# 1 0.034171 -0.001132 -0.007653 0.000000 -0.017629 0.000000
# 2 -0.001132 0.009890 -0.005899 0.000000 -0.004675 0.000000
# 3 -0.007653 -0.005899 0.016603 0.000000 0.003477 0.000000
# 4 0.000000 0.000000 0.000000 0.034228 0.000000 -0.009554
# 5 -0.017629 -0.004675 0.003477 0.000000 0.052731 0.000000
# 6 0.000000 0.000000 0.000000 -0.009554 0.000000 0.050707
#
#
# Mechanical properties :
#
#
# Convention : Reuss Voigt Hill
#
# Bulk Modulus (GPa) = 31.95325 58.57133 45.26229
# Shear Modulus (GPa) = 20.99693 26.68808 23.84250
#
# Velocity S-wave (km/s) = 3.29046 3.70968 3.50634
# Velocity P-wave (km/s) = 5.55994 6.96789 6.30335
#
# Compressibility (1/GPa) = 0.03129572
#
# Stress axis : x y z
#
# Youngs Moduli (GPa) = 29.26483 101.11352 60.22867
#
# Poissons Ratio (x) = 0.11447 0.46095
# Poissons Ratio (y) = 0.03313 0.35528
# Poissons Ratio (z) = 0.22397 0.59645
#
# Static dielectric constant tensor:
#      x y z
#    x 3.343270 0.000000 0.171210 
#    y 0.000000 3.713960 0.000000 
#    z 0.171210 0.000000 3.563420 
# 
# 
# High freq. dielectric constant tensor:
#      x y z
#    x 1.726560 0.000000 0.020200 
#    y 0.000000 1.764780 0.000000 
#    z 0.020200 0.000000 1.746030 
# 
# From -- ./inp_files/329704.got.cif
#   From: 2010.06.25/outbox.cif.g09.slc.cpg/sg12_165_cif.got.tgz:329704.got - 2010.06.28 00:19:55.
