data_PCOD8089130
_publ_section_title
;
Structure prediction by ZEFSAII (Michael W. Deem and Ramdas Pophale) SiO2 
 PCOD8089130
Probable space group: C 2/M
;
_chemical_formula_sum "Si O2"
_cell_formula_units_Z 48
_cell_length_a 19.369534
_cell_length_b 8.946590
_cell_length_c 29.846309
_cell_angle_alpha 90.000000
_cell_angle_beta 30.789057
_cell_angle_gamma 90.000000
_cell_volume 2647.490943
_symmetry_space_group_name_H-M "C 2/M"
_symmetry_group_IT_number 12
_symmetry_cell_setting 'monoclinic'
loop_
_space_group_symop_operation_xyz
x,y,z
-x,y,-z
-x,-y,-z
x,-y,z
1/2+x,1/2+y,z
1/2-x,1/2+y,-z
1/2-x,1/2-y,-z
1/2+x,1/2-y,z
loop_
_atom_site_type_symbol
_atom_site_label
_atom_site_fract_x
_atom_site_fract_y
_atom_site_fract_z
Si Si1 0.280231 0.672575 0.867506
Si Si2 0.142273 0.325305 0.591730
Si Si3 0.351771 0.677746 0.978020
Si Si4 0.091746 0.172775 0.709972
Si Si5 0.162806 0.325010 0.253880
Si Si6 0.863880 0.823729 0.216822
O O1 0.238012 0.500000 0.892048
O O2 0.431481 0.695831 0.800936
O O3 0.265571 0.733786 0.825494
O O4 0.179403 0.766137 0.954699
O O5 0.168376 0.500000 0.577250
O O6 0.250000 0.250000 0.500000
O O7 0.159916 0.266511 0.632372
O O8 0.994565 0.283878 0.655181
O O9 0.338274 0.500000 0.983142
O O10 0.501401 0.735296 0.882464
O O11 0.250000 0.750000 0.000000
O O12 0.149536 0.236843 0.724803
O O13 0.128851 0.000000 0.681326
O O14 0.183593 0.500000 0.232481
O O15 0.232781 0.276030 0.261419
O O16 0.876632 0.000000 0.213543
#
# Coordination Sequence:
#
# PCOD8089130 Si02
#       6
#     8   8   8   8   8   8
#     4  10  19  33  51  75 106 141 179 217 260 303
#     4  10  20  35  57  82 102 129 167 210 257 313
#     4  11  20  32  51  76 105 140 182 221 256 299
#     4   9  17  33  55  76 101 136 173 211 254 304
#     4   9  19  36  56  77 102 135 177 216 255 307
#     4   9  18  34  54  76 104 139 176 216 259 300
#
# _framework density 18.130372999999999
#
# number of rings (size 3 to 8) (size 9 to 14) (size 15 to 20)
#    0.000    2.333    1.667    1.500    0.000    2.000 
#    0.000    6.667    0.000    5.000    0.000    0.000 
#    0.000    0.000    0.000    0.000    0.000    0.000 
#
# Total GULP energy -297620.604903 kJ/mol
# GULP energy per Si atom -12400.858538 kJ/mol
# Density = 1.808911 g / cm^3
# Si number density = 18.130373 Si / 1000 Ang^3
#
#
#
# Elastic Constant Matrix: (Units=GPa)
#
#
# Indices 1 2 3 4 5 6 
#
# 1 157.7726 44.3915 71.7130 0.0025 13.4953 -0.0078
# 2 44.3915 69.2678 50.6299 0.0036 11.0097 -0.0026
# 3 71.7130 50.6299 123.8603 -0.0016 23.6423 0.0003
# 4 0.0025 0.0036 -0.0016 29.4125 0.0007 7.2722
# 5 13.4953 11.0097 23.6423 0.0007 25.1482 0.0000
# 6 -0.0078 -0.0026 0.0003 7.2722 0.0000 27.9246
#
#
#
# Elastic Compliance Matrix: (Units=1/GPa)
#
#
# Indices 1 2 3 4 5 6 
#
# 1 0.008964 -0.002790 -0.004100 -0.000001 0.000266 0.000003
# 2 -0.002790 0.021494 -0.006898 -0.000003 -0.001428 0.000002
# 3 -0.004100 -0.006898 0.014954 0.000003 -0.008839 -0.000003
# 4 -0.000001 -0.000003 0.000003 0.036339 -0.000002 -0.009463
# 5 0.000266 -0.001428 -0.008839 -0.000002 0.048556 0.000001
# 6 0.000003 0.000002 -0.000003 -0.009463 0.000001 0.038275
#
#
# Mechanical properties :
#
#
# Convention : Reuss Voigt Hill
#
# Bulk Modulus (GPa) = 56.06810 76.04105 66.05457
# Shear Modulus (GPa) = 24.73965 28.77482 26.75724
#
# Velocity S-wave (km/s) = 3.69798 3.98817 3.84581
# Velocity P-wave (km/s) = 7.01609 7.95234 7.49884
#
# Compressibility (1/GPa) = 0.01783545
#
# Stress axis : x y z
#
# Youngs Moduli (GPa) = 111.55350 46.52548 66.86960
#
# Poissons Ratio (x) = 0.12981 0.27420
# Poissons Ratio (y) = 0.31124 0.46126
# Poissons Ratio (z) = 0.45742 0.32093
#
# Static dielectric constant tensor:
#      x y z
#    x 3.562990 0.000010 0.120050 
#    y 0.000010 3.289290 0.000000 
#    z 0.120050 0.000000 3.304260 
# 
# 
# High freq. dielectric constant tensor:
#      x y z
#    x 1.706850 0.000000 0.011750 
#    y 0.000000 1.692960 0.000000 
#    z 0.011750 0.000000 1.689200 
# 
# From -- ./inp_files/244879.got.cif
#   From: 2010.06.25/outbox.cif.g09.slc.cpg/sg12_123_cif.got.tgz:244879.got - 2010.06.28 00:19:55.
