data_PCOD8089263
_publ_section_title
;
Structure prediction by ZEFSAII (Michael W. Deem and Ramdas Pophale) SiO2 
 PCOD8089263
Probable space group: C 2/M
;
_chemical_formula_sum "Si O2"
_cell_formula_units_Z 64
_cell_length_a 29.093987
_cell_length_b 14.150775
_cell_length_c 8.246593
_cell_angle_alpha 90.000000
_cell_angle_beta 66.536897
_cell_angle_gamma 90.000000
_cell_volume 3114.420950
_symmetry_space_group_name_H-M "C 2/M"
_symmetry_group_IT_number 12
_symmetry_cell_setting 'monoclinic'
loop_
_space_group_symop_operation_xyz
x,y,z
-x,y,-z
-x,-y,-z
x,-y,z
1/2+x,1/2+y,z
1/2-x,1/2+y,-z
1/2-x,1/2-y,-z
1/2+x,1/2-y,z
loop_
_atom_site_type_symbol
_atom_site_label
_atom_site_fract_x
_atom_site_fract_y
_atom_site_fract_z
Si Si1 0.100388 0.148529 0.676331
Si Si2 0.334525 0.398185 0.130896
Si Si3 0.671683 0.257405 0.337090
Si Si4 0.002823 0.895221 0.309771
Si Si5 0.642156 0.201640 0.044691
Si Si6 0.741326 0.107768 0.782341
Si Si7 0.049020 0.736276 0.012600
Si Si8 0.269632 0.105087 0.573557
O O1 0.138489 0.088721 0.732550
O O2 0.127931 0.180959 0.474418
O O3 0.052731 0.089902 0.683472
O O4 0.082205 0.235445 0.811731
O O5 0.340439 0.500000 0.032869
O O6 0.276025 0.376701 0.240122
O O7 0.357091 0.314148 0.993568
O O8 0.649078 0.192165 0.226672
O O9 0.716144 0.324221 0.200284
O O10 0.689577 0.184821 0.449915
O O11 0.000000 0.857183 0.500000
O O12 0.033233 0.824569 0.149829
O O13 0.028168 0.000000 0.270492
O O14 0.586149 0.167628 0.065626
O O15 0.685031 0.141712 0.897244
O O16 0.750679 0.116175 0.578682
O O17 0.747735 0.000000 0.835880
O O18 0.000000 0.686176 0.000000
O O19 0.292389 0.000000 0.566601
#
# Coordination Sequence:
#
# PCOD8089263 Si02
#       8
#     8   8   8   8   8   8   8   8
#     4  10  20  33  55  76 108 149 191 229 272 336
#     4  10  19  33  52  76 105 145 191 227 270 331
#     4  12  22  37  56  85 119 154 190 236 290 341
#     4  10  20  34  52  79 113 144 181 234 290 340
#     4  11  23  37  55  83 115 152 188 240 293 343
#     4  11  23  38  56  81 116 157 199 238 279 340
#     4   9  20  37  57  80 105 146 190 234 281 337
#     4  10  20  35  56  78 108 150 193 232 274 331
#
# _framework density 20.549565999999999
#
# number of rings (size 3 to 8) (size 9 to 14) (size 15 to 20)
#    0.000    1.625    2.500    3.375    0.000    5.750 
#    0.000    0.000    0.000    0.375    0.000    2.625 
#    0.000   11.000    0.000    0.000    0.000    0.000 
#
# Total GULP energy -396578.187140 kJ/mol
# GULP energy per Si atom -12393.068348 kJ/mol
# Density = 2.050279 g / cm^3
# Si number density = 20.549566 Si / 1000 Ang^3
#
#
#
# Elastic Constant Matrix: (Units=GPa)
#
#
# Indices 1 2 3 4 5 6 
#
# 1 104.8112 15.0978 17.1593 0.0000 -5.9494 0.0000
# 2 15.0978 48.2564 3.1989 0.0000 -3.7593 0.0000
# 3 17.1593 3.1989 52.4344 0.0000 -6.5189 0.0000
# 4 0.0000 0.0000 0.0000 18.2064 0.0000 -1.9687
# 5 -5.9494 -3.7593 -6.5189 0.0000 31.5057 0.0000
# 6 0.0000 0.0000 0.0000 -1.9687 0.0000 11.1785
#
#
#
# Elastic Compliance Matrix: (Units=1/GPa)
#
#
# Indices 1 2 3 4 5 6 
#
# 1 0.010546 -0.003015 -0.003145 0.000000 0.000981 0.000000
# 2 -0.003015 0.021829 -0.000095 0.000000 0.002016 0.000000
# 3 -0.003145 -0.000095 0.020560 0.000000 0.003649 0.000000
# 4 0.000000 0.000000 0.000000 0.055992 0.000000 0.009861
# 5 0.000981 0.002016 0.003649 0.000000 0.032921 0.000000
# 6 0.000000 0.000000 0.000000 0.009861 0.000000 0.091194
#
#
# Mechanical properties :
#
#
# Convention : Reuss Voigt Hill
#
# Bulk Modulus (GPa) = 24.73640 30.71267 27.72453
# Shear Modulus (GPa) = 19.30302 23.51451 21.40876
#
# Velocity S-wave (km/s) = 3.06819 3.38639 3.23121
# Velocity P-wave (km/s) = 4.96138 5.50167 5.23849
#
# Compressibility (1/GPa) = 0.04042626
#
# Stress axis : x y z
#
# Youngs Moduli (GPa) = 94.82434 45.81042 48.63769
#
# Poissons Ratio (x) = 0.13810 0.15298
# Poissons Ratio (y) = 0.28585 0.00460
# Poissons Ratio (z) = 0.29825 0.00433
#
# Static dielectric constant tensor:
#      x y z
#    x 4.100000 0.000000 0.109350 
#    y 0.000000 3.403130 0.000000 
#    z 0.109350 0.000000 3.540730 
# 
# 
# High freq. dielectric constant tensor:
#      x y z
#    x 1.813080 0.000000 0.005810 
#    y 0.000000 1.761810 0.000000 
#    z 0.005810 0.000000 1.798140 
# 
# From -- ./inp_files/104529.got.cif
#   From: 2010.06.25/outbox.cif.g09.slc.cpg/sg12_53_cif.got.tgz:104529.got - 2010.06.28 00:19:55.
