data_PCOD8089151
_publ_section_title
;
Structure prediction by ZEFSAII (Michael W. Deem and Ramdas Pophale) SiO2 
 PCOD8089151
Probable space group: C 2/M
;
_chemical_formula_sum "Si O2"
_cell_formula_units_Z 64
_cell_length_a 28.578171
_cell_length_b 18.296748
_cell_length_c 11.709631
_cell_angle_alpha 90.000000
_cell_angle_beta 147.337341
_cell_angle_gamma 90.000000
_cell_volume 3304.436000
_symmetry_space_group_name_H-M "C 2/M"
_symmetry_group_IT_number 12
_symmetry_cell_setting 'monoclinic'
loop_
_space_group_symop_operation_xyz
x,y,z
-x,y,-z
-x,-y,-z
x,-y,z
1/2+x,1/2+y,z
1/2-x,1/2+y,-z
1/2-x,1/2-y,-z
1/2+x,1/2-y,z
loop_
_atom_site_type_symbol
_atom_site_label
_atom_site_fract_x
_atom_site_fract_y
_atom_site_fract_z
Si Si1 0.957528 0.818455 0.794489
Si Si2 0.757346 0.848769 0.168211
Si Si3 0.704381 0.418075 0.526455
Si Si4 0.093371 0.082206 0.946038
Si Si5 0.097346 0.850489 0.718912
Si Si6 0.228197 0.419045 0.569458
Si Si7 0.347392 0.208971 0.437206
Si Si8 0.596199 0.180391 0.690909
O O1 0.873517 0.863346 0.657058
O O2 0.930358 0.748830 0.663232
O O3 0.017292 0.867032 0.836202
O O4 0.000000 0.791961 0.000000
O O5 0.752066 0.905171 0.261224
O O6 0.838306 0.870438 0.252861
O O7 0.771454 0.767000 0.249025
O O8 0.666614 0.858373 0.916346
O O9 0.667569 0.500000 0.444940
O O10 0.777376 0.406115 0.578592
O O11 0.131800 0.113043 0.905841
O O12 0.057442 0.000000 0.855213
O O13 0.170291 0.082665 0.194186
O O14 0.094190 0.763901 0.726571
O O15 0.000000 0.881274 0.500000
O O16 0.190283 0.500000 0.523723
O O17 0.180121 0.353484 0.532194
O O18 0.374705 0.168697 0.378559
O O19 0.500000 0.145407 0.500000
#
# Coordination Sequence:
#
# PCOD8089151 Si02
#       8
#     8   8   8   8   8   8   8   8
#     4  11  21  35  54  88 122 155 197 239 285 352
#     4  10  20  34  58  84 114 154 198 248 291 349
#     4  10  21  37  56  82 119 158 193 234 296 357
#     4  11  21  33  55  84 120 160 193 233 288 356
#     4  10  19  33  51  81 121 155 192 231 293 357
#     4  10  21  38  58  81 113 153 193 239 298 356
#     4  10  21  37  58  85 114 149 196 244 295 354
#     4  10  19  36  58  82 110 149 193 253 306 343
#
# _framework density 19.367903999999999
#
# number of rings (size 3 to 8) (size 9 to 14) (size 15 to 20)
#    0.000    1.750    1.250    6.375    0.000    3.250 
#    4.500    0.625    0.000    1.875    0.000    0.000 
#    0.000    0.000    0.000    0.000    0.000    0.000 
#
# Total GULP energy -396746.422793 kJ/mol
# GULP energy per Si atom -12398.325712 kJ/mol
# Density = 1.932382 g / cm^3
# Si number density = 19.367904 Si / 1000 Ang^3
#
#
#
# Elastic Constant Matrix: (Units=GPa)
#
#
# Indices 1 2 3 4 5 6 
#
# 1 112.5611 52.2427 44.1395 0.0000 -16.2002 0.0000
# 2 52.2427 68.8134 20.6692 0.0000 -1.1957 0.0000
# 3 44.1395 20.6692 116.7369 0.0000 -10.7694 0.0000
# 4 0.0000 0.0000 0.0000 22.6299 0.0000 -1.6094
# 5 -16.2002 -1.1957 -10.7694 0.0000 33.0733 0.0000
# 6 0.0000 0.0000 0.0000 -1.6094 0.0000 18.6207
#
#
#
# Elastic Compliance Matrix: (Units=1/GPa)
#
#
# Indices 1 2 3 4 5 6 
#
# 1 0.016497 -0.011320 -0.003635 0.000000 0.006488 0.000000
# 2 -0.011320 0.023120 -0.000255 0.000000 -0.004792 0.000000
# 3 -0.003635 -0.000255 0.010125 0.000000 0.001507 0.000000
# 4 0.000000 0.000000 0.000000 0.044463 0.000000 0.003843
# 5 0.006488 -0.004792 0.001507 0.000000 0.033731 0.000000
# 6 0.000000 0.000000 0.000000 0.003843 0.000000 0.054036
#
#
# Mechanical properties :
#
#
# Convention : Reuss Voigt Hill
#
# Bulk Modulus (GPa) = 51.75703 59.13491 55.44597
# Shear Modulus (GPa) = 22.84852 26.93542 24.89197
#
# Velocity S-wave (km/s) = 3.43842 3.73329 3.58888
# Velocity P-wave (km/s) = 6.52263 7.01299 6.77225
#
# Compressibility (1/GPa) = 0.01932105
#
# Stress axis : x y z
#
# Youngs Moduli (GPa) = 60.61656 43.25341 98.76605
#
# Poissons Ratio (x) = 0.48963 0.35901
# Poissons Ratio (y) = 0.68618 0.02522
# Poissons Ratio (z) = 0.22034 0.01105
#
# Static dielectric constant tensor:
#      x y z
#    x 3.602290 0.000000 -0.198570 
#    y 0.000000 3.347830 0.000000 
#    z -0.198570 0.000000 3.630100 
# 
# 
# High freq. dielectric constant tensor:
#      x y z
#    x 1.761110 0.000000 -0.022110 
#    y 0.000000 1.729000 0.000000 
#    z -0.022110 0.000000 1.746510 
# 
# From -- ./inp_files/190099.got.cif
#   From: 2010.06.25/outbox.cif.g09.slc.cpg/sg12_96_cif.got.tgz:190099.got - 2010.06.28 00:19:55.
