data_PCOD8089154
_publ_section_title
;
Structure prediction by ZEFSAII (Michael W. Deem and Ramdas Pophale) SiO2 
 PCOD8089154
Probable space group: C 2/M
;
_chemical_formula_sum "Si O2"
_cell_formula_units_Z 56
_cell_length_a 14.309126
_cell_length_b 9.233009
_cell_length_c 27.976598
_cell_angle_alpha 90.000000
_cell_angle_beta 121.291385
_cell_angle_gamma 90.000000
_cell_volume 3158.508923
_symmetry_space_group_name_H-M "C 2/M"
_symmetry_group_IT_number 12
_symmetry_cell_setting 'monoclinic'
loop_
_space_group_symop_operation_xyz
x,y,z
-x,y,-z
-x,-y,-z
x,-y,z
1/2+x,1/2+y,z
1/2-x,1/2+y,-z
1/2-x,1/2-y,-z
1/2+x,1/2-y,z
loop_
_atom_site_type_symbol
_atom_site_label
_atom_site_fract_x
_atom_site_fract_y
_atom_site_fract_z
Si Si1 0.062594 0.171599 0.562165
Si Si2 0.196817 0.328375 0.350000
Si Si3 0.498790 0.328811 0.649273
Si Si4 0.210758 0.168076 0.061697
Si Si5 0.155826 0.670281 0.138573
Si Si6 0.412016 0.165997 0.047673
Si Si7 0.739348 0.671379 0.736350
O O1 0.189160 0.220614 0.595251
O O2 0.002082 0.220704 0.594693
O O3 0.000000 0.240718 0.500000
O O4 0.059130 0.000000 0.558839
O O5 0.180366 0.500000 0.349060
O O6 0.199760 0.274877 0.295549
O O7 0.098837 0.251279 0.350663
O O8 0.481374 0.500000 0.649299
O O9 0.612829 0.279164 0.703895
O O10 0.222211 0.246105 0.115461
O O11 0.324678 0.196687 0.065649
O O12 0.185549 0.000000 0.062337
O O13 0.111490 0.236826 0.004982
O O14 0.178470 0.500000 0.139267
O O15 0.197859 0.731322 0.200518
O O16 0.028212 0.707980 0.100563
O O17 0.408084 0.000000 0.029422
O O18 0.742350 0.500000 0.736312
#
# Coordination Sequence:
#
# PCOD8089154 Si02
#       7
#     8   8   8   8   8   8   8
#     4   8  15  29  48  70  98 131 163 192 228 282
#     4   9  17  31  51  71  93 126 164 196 231 277
#     4   9  17  31  50  70  94 125 159 195 237 279
#     4  10  20  33  49  72  99 121 147 190 239 280
#     4  10  19  33  52  69  89 122 161 193 226 277
#     4   9  19  34  50  68  92 124 156 185 226 283
#     4   8  17  33  49  66  91 125 160 191 229 283
#
# _framework density 17.729884999999999
#
# number of rings (size 3 to 8) (size 9 to 14) (size 15 to 20)
#    0.000    3.000    0.000    2.571    0.000    4.571 
#    0.000    5.714    0.000    0.857    0.000    0.000 
#    0.000    0.000    0.000    0.000    0.000    0.000 
#
# Total GULP energy -347136.493022 kJ/mol
# GULP energy per Si atom -12397.731894 kJ/mol
# Density = 1.768953 g / cm^3
# Si number density = 17.729885 Si / 1000 Ang^3
#
#
#
# Elastic Constant Matrix: (Units=GPa)
#
#
# Indices 1 2 3 4 5 6 
#
# 1 131.2167 38.4326 70.9544 0.0000 -7.7093 0.0000
# 2 38.4326 41.2521 36.0265 0.0000 -5.2063 0.0000
# 3 70.9544 36.0265 163.5723 0.0000 -8.7883 0.0000
# 4 0.0000 0.0000 0.0000 16.8087 0.0000 -4.1706
# 5 -7.7093 -5.2063 -8.7883 0.0000 18.7984 0.0000
# 6 0.0000 0.0000 0.0000 -4.1706 0.0000 33.4246
#
#
#
# Elastic Compliance Matrix: (Units=1/GPa)
#
#
# Indices 1 2 3 4 5 6 
#
# 1 0.011810 -0.007977 -0.003308 0.000000 0.001088 0.000000
# 2 -0.007977 0.035937 -0.004202 0.000000 0.004717 0.000000
# 3 -0.003308 -0.004202 0.008553 0.000000 0.001479 0.000000
# 4 0.000000 0.000000 0.000000 0.061394 0.000000 0.007660
# 5 0.001088 0.004717 0.001479 0.000000 0.055640 0.000000
# 6 0.000000 0.000000 0.000000 0.007660 0.000000 0.030874
#
#
# Mechanical properties :
#
#
# Convention : Reuss Voigt Hill
#
# Bulk Modulus (GPa) = 39.48107 69.65202 54.56655
# Shear Modulus (GPa) = 20.52358 26.51485 23.51921
#
# Velocity S-wave (km/s) = 3.40600 3.87135 3.64611
# Velocity P-wave (km/s) = 6.14689 7.70412 6.96914
#
# Compressibility (1/GPa) = 0.02532859
#
# Stress axis : x y z
#
# Youngs Moduli (GPa) = 84.67580 27.82615 116.91724
#
# Poissons Ratio (x) = 0.22196 0.38671
# Poissons Ratio (y) = 0.67544 0.49123
# Poissons Ratio (z) = 0.28007 0.11691
#
# Static dielectric constant tensor:
#      x y z
#    x 3.284410 0.000000 -0.037890 
#    y 0.000000 2.966560 0.000000 
#    z -0.037890 0.000000 3.813300 
# 
# 
# High freq. dielectric constant tensor:
#      x y z
#    x 1.691920 0.000000 -0.002570 
#    y 0.000000 1.653050 0.000000 
#    z -0.002570 0.000000 1.690870 
# 
# From -- ./inp_files/360019.got.cif
#   From: 2010.06.25/outbox.cif.g09.slc.cpg/sg12_181_cif.got.tgz:360019.got - 2010.06.28 00:19:55.
