data_PCOD8089466
_publ_section_title
;
Structure prediction by ZEFSAII (Michael W. Deem and Ramdas Pophale) SiO2 
 PCOD8089466
Probable space group: C 2/M
;
_chemical_formula_sum "Si O2"
_cell_formula_units_Z 64
_cell_length_a 20.645703
_cell_length_b 8.990004
_cell_length_c 24.380389
_cell_angle_alpha 90.000000
_cell_angle_beta 52.321577
_cell_angle_gamma 90.000000
_cell_volume 3581.424038
_symmetry_space_group_name_H-M "C 2/M"
_symmetry_group_IT_number 12
_symmetry_cell_setting 'monoclinic'
loop_
_space_group_symop_operation_xyz
x,y,z
-x,y,-z
-x,-y,-z
x,-y,z
1/2+x,1/2+y,z
1/2-x,1/2+y,-z
1/2-x,1/2-y,-z
1/2+x,1/2-y,z
loop_
_atom_site_type_symbol
_atom_site_label
_atom_site_fract_x
_atom_site_fract_y
_atom_site_fract_z
Si Si1 0.229912 0.822997 0.452458
Si Si2 0.723481 0.674285 0.958220
Si Si3 0.378648 0.172888 0.814184
Si Si4 0.038426 0.173983 0.038268
Si Si5 0.983620 0.827107 0.676672
Si Si6 0.370534 0.674613 0.316205
Si Si7 0.544677 0.676591 0.530339
Si Si8 0.519783 0.175344 0.824653
O O1 0.250000 0.750000 0.500000
O O2 0.287782 0.758884 0.375105
O O3 0.138958 0.775194 0.481925
O O4 0.239641 0.000000 0.452541
O O5 0.729426 0.500000 0.965532
O O6 0.786570 0.721398 0.877490
O O7 0.750000 0.750000 0.000000
O O8 0.633094 0.723895 0.987382
O O9 0.404029 0.252810 0.744840
O O10 0.438131 0.219240 0.833427
O O11 0.385802 0.000000 0.798799
O O12 0.989734 0.266855 0.108772
O O13 0.029807 0.000000 0.056428
O O14 0.000000 0.214710 0.000000
O O15 0.064218 0.792143 0.670049
O O16 0.998702 0.761130 0.608212
O O17 0.965223 0.000000 0.683992
O O18 0.353745 0.500000 0.317852
O O19 0.402514 0.742504 0.242519
O O20 0.500000 0.743949 0.500000
O O21 0.538465 0.500000 0.534021
O O22 0.535666 0.000000 0.816535
#
# Coordination Sequence:
#
# PCOD8089466 Si02
#       8
#     8   8   8   8   8   8   8   8
#     4  11  20  33  54  81 108 140 180 223 267 312
#     4  10  19  33  53  77 105 135 175 219 262 311
#     4   9  18  31  49  76 104 131 166 217 266 302
#     4  10  21  36  54  77 108 147 180 212 264 323
#     4   9  17  31  51  76 101 133 173 210 257 312
#     4  10  19  33  53  80 108 136 176 222 267 316
#     4   9  18  34  54  76 106 141 176 216 261 312
#     4  10  19  33  53  79 107 138 176 219 269 315
#
# _framework density 17.869986999999998
#
# number of rings (size 3 to 8) (size 9 to 14) (size 15 to 20)
#    0.000    2.250    2.500    1.125    0.000    1.750 
#    0.000    1.250    0.000    6.375    0.000    0.000 
#    0.000    0.000    0.000    0.000    0.000    0.000 
#
# Total GULP energy -396830.596096 kJ/mol
# GULP energy per Si atom -12400.956128 kJ/mol
# Density = 1.782931 g / cm^3
# Si number density = 17.869987 Si / 1000 Ang^3
#
#
#
# Elastic Constant Matrix: (Units=GPa)
#
#
# Indices 1 2 3 4 5 6 
#
# 1 109.4920 38.6202 77.5526 -0.0001 -4.3128 0.0000
# 2 38.6202 55.5641 56.3013 -0.0002 -3.4138 0.0002
# 3 77.5526 56.3013 181.8627 -0.0001 -11.3518 0.0000
# 4 -0.0001 -0.0002 -0.0001 36.6623 -0.0001 -3.2426
# 5 -4.3128 -3.4138 -11.3518 -0.0001 27.2344 -0.0001
# 6 0.0000 0.0002 0.0000 -3.2426 -0.0001 16.8555
#
#
#
# Elastic Compliance Matrix: (Units=1/GPa)
#
#
# Indices 1 2 3 4 5 6 
#
# 1 0.014122 -0.005410 -0.004363 0.000000 -0.000261 0.000000
# 2 -0.005410 0.028296 -0.006453 0.000000 0.000000 0.000000
# 3 -0.004363 -0.006453 0.009511 0.000000 0.002464 0.000000
# 4 0.000000 0.000000 0.000000 0.027748 0.000000 0.005338
# 5 -0.000261 0.000000 0.002464 0.000000 0.037704 0.000000
# 6 0.000000 0.000000 0.000000 0.005338 0.000000 0.060355
#
#
# Mechanical properties :
#
#
# Convention : Reuss Voigt Hill
#
# Bulk Modulus (GPa) = 51.34546 76.87413 64.10979
# Shear Modulus (GPa) = 23.07547 27.78008 25.42777
#
# Velocity S-wave (km/s) = 3.59736 3.94708 3.77627
# Velocity P-wave (km/s) = 6.78600 7.99278 7.41399
#
# Compressibility (1/GPa) = 0.01947592
#
# Stress axis : x y z
#
# Youngs Moduli (GPa) = 70.81333 35.34063 105.14295
#
# Poissons Ratio (x) = 0.19120 0.45878
# Poissons Ratio (y) = 0.38311 0.67847
# Poissons Ratio (z) = 0.30898 0.22805
#
# Static dielectric constant tensor:
#      x y z
#    x 3.287070 0.000000 -0.188590 
#    y 0.000000 3.196290 0.000000 
#    z -0.188590 0.000000 3.396050 
# 
# 
# High freq. dielectric constant tensor:
#      x y z
#    x 1.665770 0.000000 -0.012580 
#    y 0.000000 1.682160 0.000000 
#    z -0.012580 0.000000 1.707400 
# 
# From -- ./inp_files/319761.got.cif
#   From: 2010.06.25/outbox.cif.g09.slc.cpg/sg12_160_cif.got.tgz:319761.got - 2010.06.28 00:19:55.
