data_PCOD8089214
_publ_section_title
;
Structure prediction by ZEFSAII (Michael W. Deem and Ramdas Pophale) SiO2 
 PCOD8089214
Probable space group: C 2/M
;
_chemical_formula_sum "Si O2"
_cell_formula_units_Z 48
_cell_length_a 19.272013
_cell_length_b 8.911283
_cell_length_c 15.921554
_cell_angle_alpha 90.000000
_cell_angle_beta 75.243444
_cell_angle_gamma 90.000000
_cell_volume 2644.154266
_symmetry_space_group_name_H-M "C 2/M"
_symmetry_group_IT_number 12
_symmetry_cell_setting 'monoclinic'
loop_
_space_group_symop_operation_xyz
x,y,z
-x,y,-z
-x,-y,-z
x,-y,z
1/2+x,1/2+y,z
1/2-x,1/2+y,-z
1/2-x,1/2-y,-z
1/2+x,1/2-y,z
loop_
_atom_site_type_symbol
_atom_site_label
_atom_site_fract_x
_atom_site_fract_y
_atom_site_fract_z
Si Si1 0.686455 0.172709 0.295177
Si Si2 0.153721 0.828581 0.763157
Si Si3 0.411231 0.824662 0.369800
Si Si4 0.015355 0.175594 0.903411
Si Si5 0.182854 0.177216 0.473677
Si Si6 0.052177 0.675185 0.230693
O O1 0.765073 0.191676 0.228969
O O2 0.679415 0.276081 0.378309
O O3 0.628843 0.225012 0.243779
O O4 0.672444 0.000000 0.325862
O O5 0.143809 0.719870 0.687018
O O6 0.097679 0.785328 0.853693
O O7 0.140138 0.000000 0.737679
O O8 0.390569 0.733774 0.459857
O O9 0.491499 0.779366 0.317350
O O10 0.403581 0.000000 0.390848
O O11 0.959890 0.242985 0.853674
O O12 0.001003 0.000000 0.909253
O O13 0.000000 0.245224 0.000000
O O14 0.250000 0.250000 0.500000
O O15 0.189497 0.000000 0.479164
O O16 0.048185 0.500000 0.213140
#
# Coordination Sequence:
#
# PCOD8089214 Si02
#       6
#     8   8   8   8   8   8
#     4  10  20  35  53  75 105 139 176 217 262 305
#     4   9  17  31  53  75  99 136 177 214 257 310
#     4  10  19  33  52  74 102 137 178 218 257 303
#     4   9  18  34  56  80 104 133 172 217 263 314
#     4  12  23  34  51  76 105 138 179 219 256 301
#     4   9  20  36  54  77 106 138 171 215 265 310
#
# _framework density 18.153251999999998
#
# number of rings (size 3 to 8) (size 9 to 14) (size 15 to 20)
#    0.000    2.167    1.667    2.000    0.000    2.333 
#    0.000    4.167    0.000    0.000    0.000    0.000 
#    0.000    0.000    0.000    0.000    0.000    0.000 
#
# Total GULP energy -297615.210401 kJ/mol
# GULP energy per Si atom -12400.633767 kJ/mol
# Density = 1.811193 g / cm^3
# Si number density = 18.153252 Si / 1000 Ang^3
#
#
#
# Elastic Constant Matrix: (Units=GPa)
#
#
# Indices 1 2 3 4 5 6 
#
# 1 132.0632 34.5551 63.6220 0.0000 9.9985 0.0000
# 2 34.5551 72.9998 44.7009 0.0000 2.4205 0.0000
# 3 63.6220 44.7009 129.5141 0.0000 -3.2975 0.0000
# 4 0.0000 0.0000 0.0000 26.7892 0.0000 2.4648
# 5 9.9985 2.4205 -3.2975 0.0000 22.4351 0.0000
# 6 0.0000 0.0000 0.0000 2.4648 0.0000 22.4359
#
#
#
# Elastic Compliance Matrix: (Units=1/GPa)
#
#
# Indices 1 2 3 4 5 6 
#
# 1 0.010782 -0.002033 -0.004730 0.000000 -0.005281 0.000000
# 2 -0.002033 0.017926 -0.005234 0.000000 -0.001797 0.000000
# 3 -0.004730 -0.005234 0.011964 0.000000 0.004431 0.000000
# 4 0.000000 0.000000 0.000000 0.037710 0.000000 -0.004143
# 5 -0.005281 -0.001797 0.004431 0.000000 0.047772 0.000000
# 6 0.000000 0.000000 0.000000 -0.004143 0.000000 0.045027
#
#
# Mechanical properties :
#
#
# Convention : Reuss Voigt Hill
#
# Bulk Modulus (GPa) = 59.95577 68.92591 64.44084
# Shear Modulus (GPa) = 24.90885 27.11199 26.01042
#
# Velocity S-wave (km/s) = 3.70826 3.86878 3.78937
# Velocity P-wave (km/s) = 7.17177 7.61630 7.39737
#
# Compressibility (1/GPa) = 0.01667896
#
# Stress axis : x y z
#
# Youngs Moduli (GPa) = 92.74455 55.78644 83.58540
#
# Poissons Ratio (x) = 0.11340 0.39532
# Poissons Ratio (y) = 0.18852 0.43749
# Poissons Ratio (z) = 0.43864 0.29199
#
# Static dielectric constant tensor:
#      x y z
#    x 3.526500 0.000000 -0.192830 
#    y 0.000000 3.331030 0.000000 
#    z -0.192830 0.000000 3.350300 
# 
# 
# High freq. dielectric constant tensor:
#      x y z
#    x 1.704280 0.000000 -0.012340 
#    y 0.000000 1.701050 0.000000 
#    z -0.012340 0.000000 1.685350 
# 
# From -- ./inp_files/221548.got.cif
#   From: 2010.06.25/outbox.cif.g09.slc.cpg/sg12_111_cif.got.tgz:221548.got - 2010.06.28 00:19:55.
