data_PCOD8089258
_publ_section_title
;
Structure prediction by ZEFSAII (Michael W. Deem and Ramdas Pophale) SiO2 
 PCOD8089258
Probable space group: C 2/M
;
_chemical_formula_sum "Si O2"
_cell_formula_units_Z 56
_cell_length_a 18.683641
_cell_length_b 9.440015
_cell_length_c 20.783065
_cell_angle_alpha 90.000000
_cell_angle_beta 55.339223
_cell_angle_gamma 90.000000
_cell_volume 3015.070148
_symmetry_space_group_name_H-M "C 2/M"
_symmetry_group_IT_number 12
_symmetry_cell_setting 'monoclinic'
loop_
_space_group_symop_operation_xyz
x,y,z
-x,y,-z
-x,-y,-z
x,-y,z
1/2+x,1/2+y,z
1/2-x,1/2+y,-z
1/2-x,1/2-y,-z
1/2+x,1/2-y,z
loop_
_atom_site_type_symbol
_atom_site_label
_atom_site_fract_x
_atom_site_fract_y
_atom_site_fract_z
Si Si1 0.413654 0.333483 0.871797
Si Si2 0.092585 0.838396 0.462588
Si Si3 0.740771 0.331655 0.292461
Si Si4 0.914617 0.667062 0.003648
Si Si5 0.831412 0.158996 0.441309
Si Si6 0.230594 0.166219 0.153289
Si Si7 0.105910 0.164735 0.728134
O O1 0.400655 0.500000 0.892213
O O2 0.409115 0.249739 0.940149
O O3 0.339473 0.271158 0.861543
O O4 0.506128 0.301504 0.792730
O O5 0.171067 0.771105 0.380347
O O6 0.103296 0.828582 0.533100
O O7 0.000000 0.760377 0.500000
O O8 0.086459 0.000000 0.441301
O O9 0.755118 0.500000 0.291441
O O10 0.708495 0.287462 0.237682
O O11 0.833209 0.257528 0.256962
O O12 0.916874 0.500000 0.988189
O O13 0.829104 0.712829 0.087120
O O14 0.000000 0.713721 0.000000
O O15 0.750000 0.250000 0.500000
O O16 0.878917 0.212948 0.353132
O O17 0.797912 0.000000 0.448730
O O18 0.221796 0.000000 0.152456
O O19 0.127393 0.000000 0.728401
#
# Coordination Sequence:
#
# PCOD8089258 Si02
#       7
#     8   8   8   8   8   8   8
#     4  10  21  36  54  79 107 138 173 210 259 311
#     4   9  18  30  50  79 104 130 173 219 255 298
#     4  10  19  34  56  78 102 137 178 216 254 307
#     4  10  20  36  57  80 106 136 171 213 259 306
#     4  10  19  33  52  76 104 136 173 216 260 302
#     4   9  19  34  54  79 106 135 171 216 259 302
#     4  10  21  34  51  75 108 139 168 214 264 307
#
# _framework density 18.573367000000001
#
# number of rings (size 3 to 8) (size 9 to 14) (size 15 to 20)
#    0.000    2.286    1.429    1.286    2.000    2.000 
#    0.000    1.429    0.000    1.714    0.000    0.000 
#    0.000    0.000    0.000    0.000    0.000    0.000 
#
# Total GULP energy -347119.435913 kJ/mol
# GULP energy per Si atom -12397.122711 kJ/mol
# Density = 1.853109 g / cm^3
# Si number density = 18.573367 Si / 1000 Ang^3
#
#
#
# Elastic Constant Matrix: (Units=GPa)
#
#
# Indices 1 2 3 4 5 6 
#
# 1 145.6969 30.2392 53.1759 0.0000 1.0813 -0.0001
# 2 30.2392 27.5038 24.0665 0.0000 1.8004 -0.0002
# 3 53.1759 24.0665 108.3806 0.0000 12.5817 0.0000
# 4 0.0000 0.0000 0.0000 25.5083 0.0000 3.0137
# 5 1.0813 1.8004 12.5817 0.0000 36.3072 0.0000
# 6 -0.0001 -0.0002 0.0000 3.0137 0.0000 22.6590
#
#
#
# Elastic Compliance Matrix: (Units=1/GPa)
#
#
# Indices 1 2 3 4 5 6 
#
# 1 0.009638 -0.007964 -0.003098 0.000000 0.001181 0.000000
# 2 -0.007964 0.051765 -0.007624 0.000000 0.000312 0.000000
# 3 -0.003098 -0.007624 0.012904 0.000000 -0.004001 0.000000
# 4 0.000000 0.000000 0.000000 0.039829 0.000000 -0.005297
# 5 0.001181 0.000312 -0.004001 0.000000 0.028879 0.000000
# 6 0.000000 0.000000 0.000000 -0.005297 0.000000 0.044837
#
#
# Mechanical properties :
#
#
# Convention : Reuss Voigt Hill
#
# Bulk Modulus (GPa) = 27.07303 55.17162 41.12232
# Shear Modulus (GPa) = 21.04968 28.50156 24.77562
#
# Velocity S-wave (km/s) = 3.37014 3.92157 3.65627
# Velocity P-wave (km/s) = 5.45451 7.09042 6.32558
#
# Compressibility (1/GPa) = 0.03693713
#
# Stress axis : x y z
#
# Youngs Moduli (GPa) = 103.75382 19.31820 77.49561
#
# Poissons Ratio (x) = 0.15384 0.24006
# Poissons Ratio (y) = 0.82625 0.59080
# Poissons Ratio (z) = 0.32140 0.14727
#
# Static dielectric constant tensor:
#      x y z
#    x 3.004220 0.000000 -0.044940 
#    y 0.000000 3.078890 0.000000 
#    z -0.044940 0.000000 3.534630 
# 
# 
# High freq. dielectric constant tensor:
#      x y z
#    x 1.732700 0.000000 0.001840 
#    y 0.000000 1.680270 0.000000 
#    z 0.001840 0.000000 1.736800 
# 
# From -- ./inp_files/313676.got.cif
#   From: 2010.06.25/outbox.cif.g09.slc.cpg/sg12_157_cif.got.tgz:313676.got - 2010.06.28 00:19:55.
