data_PCOD8089926
_publ_section_title
;
Structure prediction by ZEFSAII (Michael W. Deem and Ramdas Pophale) SiO2 
 PCOD8089926
Probable space group: C 2/M
;
_chemical_formula_sum "Si O2"
_cell_formula_units_Z 64
_cell_length_a 17.407000
_cell_length_b 14.615691
_cell_length_c 18.571200
_cell_angle_alpha 90.000000
_cell_angle_beta 44.163893
_cell_angle_gamma 90.000000
_cell_volume 3291.829053
_symmetry_space_group_name_H-M "C 2/M"
_symmetry_group_IT_number 12
_symmetry_cell_setting 'monoclinic'
loop_
_space_group_symop_operation_xyz
x,y,z
-x,y,-z
-x,-y,-z
x,-y,z
1/2+x,1/2+y,z
1/2-x,1/2+y,-z
1/2-x,1/2-y,-z
1/2+x,1/2-y,z
loop_
_atom_site_type_symbol
_atom_site_label
_atom_site_fract_x
_atom_site_fract_y
_atom_site_fract_z
Si Si1 0.882886 0.252987 0.067438
Si Si2 0.032535 0.104861 0.626289
Si Si3 0.733772 0.398042 0.595365
Si Si4 0.110537 0.398762 0.256406
Si Si5 0.200267 0.100139 0.147616
Si Si6 0.772940 0.157297 0.023598
Si Si7 0.048334 0.712985 0.544698
Si Si8 0.321437 0.599276 0.206968
O O1 0.785086 0.326462 0.124716
O O2 0.876631 0.177951 0.006598
O O3 0.880610 0.190299 0.139754
O O4 0.000000 0.304493 0.000000
O O5 0.140395 0.124522 0.600496
O O6 0.040123 0.176517 0.555201
O O7 0.922583 0.126557 0.746033
O O8 0.030980 0.000000 0.598603
O O9 0.784004 0.500000 0.548529
O O10 0.827076 0.321037 0.530729
O O11 0.672115 0.395272 0.712339
O O12 0.059510 0.500000 0.281665
O O13 0.167820 0.372584 0.141975
O O14 0.196134 0.396982 0.264096
O O15 0.015411 0.328973 0.343496
O O16 0.232794 0.000000 0.156204
O O17 0.201974 0.089054 0.059056
O O18 0.750000 0.250000 0.000000
O O19 0.000000 0.681581 0.500000
O O20 0.371948 0.500000 0.147807
#
# Coordination Sequence:
#
# PCOD8089926 Si02
#       8
#     8   8   8   8   8   8   8   8
#     4  10  21  34  54  87 117 144 185 239 286 341
#     4  10  23  41  59  82 113 154 200 239 276 339
#     4  10  21  37  59  85 114 148 191 235 287 347
#     4  10  19  33  54  85 120 146 184 238 290 344
#     4  10  21  39  62  81 111 157 196 230 281 339
#     4   9  18  34  55  80 113 150 186 224 275 342
#     4  12  22  35  61  87 115 154 189 239 296 341
#     4   9  18  33  52  80 116 149 181 227 285 342
#
# _framework density 19.442079
#
# number of rings (size 3 to 8) (size 9 to 14) (size 15 to 20)
#    0.000    2.000    1.250    3.375    1.750    1.750 
#    0.000    0.000    0.000    0.000    0.000    0.000 
#    0.000    0.000    0.000    0.000    0.000    0.000 
#
# Total GULP energy -396422.451869 kJ/mol
# GULP energy per Si atom -12388.201621 kJ/mol
# Density = 1.939783 g / cm^3
# Si number density = 19.442079 Si / 1000 Ang^3
#
#
#
# Elastic Constant Matrix: (Units=GPa)
#
#
# Indices 1 2 3 4 5 6 
#
# 1 61.6100 35.4002 39.0432 0.0000 -15.7849 0.0000
# 2 35.4002 122.3942 45.1940 0.0000 -8.2650 0.0000
# 3 39.0432 45.1940 75.8870 0.0000 -6.2891 0.0000
# 4 0.0000 0.0000 0.0000 29.0493 0.0000 2.6411
# 5 -15.7849 -8.2650 -6.2891 0.0000 28.5008 0.0000
# 6 0.0000 0.0000 0.0000 2.6411 0.0000 19.4195
#
#
#
# Elastic Compliance Matrix: (Units=1/GPa)
#
#
# Indices 1 2 3 4 5 6 
#
# 1 0.028725 -0.003068 -0.011925 0.000000 0.012388 0.000000
# 2 -0.003068 0.010882 -0.004870 0.000000 0.000382 0.000000
# 3 -0.011925 -0.004870 0.021950 0.000000 -0.003173 0.000000
# 4 0.000000 0.000000 0.000000 0.034855 0.000000 -0.004740
# 5 0.012388 0.000382 -0.003173 0.000000 0.041358 0.000000
# 6 0.000000 0.000000 0.000000 -0.004740 0.000000 0.052139
#
#
# Mechanical properties :
#
#
# Convention : Reuss Voigt Hill
#
# Bulk Modulus (GPa) = 45.80840 55.46287 50.63564
# Shear Modulus (GPa) = 21.10475 24.74417 22.92446
#
# Velocity S-wave (km/s) = 3.29830 3.57138 3.43755
# Velocity P-wave (km/s) = 6.17395 6.75244 6.46966
#
# Compressibility (1/GPa) = 0.02183006
#
# Stress axis : x y z
#
# Youngs Moduli (GPa) = 34.81294 91.89523 45.55767
#
# Poissons Ratio (x) = 0.28198 0.54326
# Poissons Ratio (y) = 0.10682 0.22188
# Poissons Ratio (z) = 0.41513 0.44756
#
# Static dielectric constant tensor:
#      x y z
#    x 3.664030 0.000000 0.465830 
#    y 0.000000 3.313640 0.000000 
#    z 0.465830 0.000000 3.905120 
# 
# 
# High freq. dielectric constant tensor:
#      x y z
#    x 1.741760 0.000000 0.002230 
#    y 0.000000 1.767850 0.000000 
#    z 0.002230 0.000000 1.744320 
# 
# From -- ./inp_files/278163.got.cif
#   From: 2010.06.25/outbox.cif.g09.slc.cpg/sg12_140_cif.got.tgz:278163.got - 2010.06.28 00:19:55.
