data_PCOD8089504
_publ_section_title
;
Structure prediction by ZEFSAII (Michael W. Deem and Ramdas Pophale) SiO2 
 PCOD8089504
Probable space group: C 2/M
;
_chemical_formula_sum "Si O2"
_cell_formula_units_Z 64
_cell_length_a 15.306575
_cell_length_b 9.147269
_cell_length_c 26.622591
_cell_angle_alpha 90.000000
_cell_angle_beta 64.292091
_cell_angle_gamma 90.000000
_cell_volume 3358.558002
_symmetry_space_group_name_H-M "C 2/M"
_symmetry_group_IT_number 12
_symmetry_cell_setting 'monoclinic'
loop_
_space_group_symop_operation_xyz
x,y,z
-x,y,-z
-x,-y,-z
x,-y,z
1/2+x,1/2+y,z
1/2-x,1/2+y,-z
1/2-x,1/2-y,-z
1/2+x,1/2-y,z
loop_
_atom_site_type_symbol
_atom_site_label
_atom_site_fract_x
_atom_site_fract_y
_atom_site_fract_z
Si Si1 0.428939 0.665339 0.060958
Si Si2 0.108375 0.669528 0.552059
Si Si3 0.809712 0.673159 0.758817
Si Si4 0.110794 0.670338 0.830435
Si Si5 0.800361 0.828993 0.561663
Si Si6 0.890131 0.671311 0.631587
Si Si7 0.917223 0.329548 0.829134
Si Si8 0.270653 0.164121 0.944761
O O1 0.460096 0.500000 0.068109
O O2 0.436720 0.770826 0.106574
O O3 0.319764 0.667376 0.069640
O O4 0.500000 0.726302 0.000000
O O5 0.112996 0.500000 0.535229
O O6 0.127555 0.763831 0.497819
O O7 0.188565 0.703921 0.574749
O O8 0.003103 0.713696 0.598766
O O9 0.796754 0.500000 0.764792
O O10 0.704989 0.743593 0.790349
O O11 0.857084 0.721804 0.694790
O O12 0.879987 0.734119 0.785328
O O13 0.134924 0.500000 0.830910
O O14 0.031667 0.697821 0.806296
O O15 0.822563 0.755792 0.609258
O O16 0.820607 0.000000 0.560709
O O17 0.874643 0.500000 0.626675
O O18 0.891777 0.500000 0.836145
O O19 0.858451 0.261690 0.891251
O O20 0.296434 0.000000 0.954974
O O21 0.250000 0.250000 0.000000
#
# Coordination Sequence:
#
# PCOD8089504 Si02
#       8
#     8   8   8   8   8   8   8   8
#     4  10  20  35  56  81 111 146 181 219 271 337
#     4   9  19  36  56  82 116 154 193 227 271 337
#     4  10  21  41  61  77 107 151 192 230 277 338
#     4  11  22  36  58  85 110 139 181 234 284 327
#     4  10  20  34  56  86 119 151 183 233 288 326
#     4  10  21  36  58  82 107 149 197 233 272 332
#     4   9  19  37  58  77 105 145 182 220 274 336
#     4  10  19  33  53  78 108 141 175 217 268 326
#
# _framework density 19.055797999999999
#
# number of rings (size 3 to 8) (size 9 to 14) (size 15 to 20)
#    0.000    2.125    1.250    1.875    0.000    4.750 
#    0.000    4.375    0.000    0.000    0.000    0.000 
#    0.000    0.000    0.000    0.000    0.000    0.000 
#
# Total GULP energy -396827.601196 kJ/mol
# GULP energy per Si atom -12400.862537 kJ/mol
# Density = 1.901243 g / cm^3
# Si number density = 19.055798 Si / 1000 Ang^3
#
#
#
# Elastic Constant Matrix: (Units=GPa)
#
#
# Indices 1 2 3 4 5 6 
#
# 1 107.6933 32.4203 67.4773 0.0000 8.0791 0.0000
# 2 32.4203 49.8470 48.2149 0.0000 9.6762 0.0000
# 3 67.4773 48.2149 149.2133 0.0000 12.5513 0.0000
# 4 0.0000 0.0000 0.0000 24.3748 0.0000 0.5317
# 5 8.0791 9.6762 12.5513 0.0000 29.3904 0.0000
# 6 0.0000 0.0000 0.0000 0.5317 0.0000 27.1454
#
#
#
# Elastic Compliance Matrix: (Units=1/GPa)
#
#
# Indices 1 2 3 4 5 6 
#
# 1 0.013537 -0.004140 -0.004756 0.000000 -0.000327 0.000000
# 2 -0.004140 0.031430 -0.007789 0.000000 -0.005883 0.000000
# 3 -0.004756 -0.007789 0.011455 0.000000 -0.001020 0.000000
# 4 0.000000 0.000000 0.000000 0.041044 0.000000 -0.000804
# 5 -0.000327 -0.005883 -0.001020 0.000000 0.036487 0.000000
# 6 0.000000 0.000000 0.000000 -0.000804 0.000000 0.036854
#
#
# Mechanical properties :
#
#
# Convention : Reuss Voigt Hill
#
# Bulk Modulus (GPa) = 43.38115 66.99764 55.18939
# Shear Modulus (GPa) = 23.60038 26.75820 25.17929
#
# Velocity S-wave (km/s) = 3.52303 3.75133 3.63898
# Velocity P-wave (km/s) = 6.27406 7.34836 6.83235
#
# Compressibility (1/GPa) = 0.02305149
#
# Stress axis : x y z
#
# Youngs Moduli (GPa) = 73.87357 31.81686 87.29641
#
# Poissons Ratio (x) = 0.13173 0.41520
# Poissons Ratio (y) = 0.30586 0.67992
# Poissons Ratio (z) = 0.35136 0.24781
#
# Static dielectric constant tensor:
#      x y z
#    x 3.685310 0.000000 0.103190 
#    y 0.000000 3.375700 0.000000 
#    z 0.103190 0.000000 3.614380 
# 
# 
# High freq. dielectric constant tensor:
#      x y z
#    x 1.753430 0.000000 -0.000470 
#    y 0.000000 1.723360 0.000000 
#    z -0.000470 0.000000 1.740090 
# 
# From -- ./inp_files/359729.got.cif
#   From: 2010.06.25/outbox.cif.g09.slc.cpg/sg12_180_cif.got.tgz:359729.got - 2010.06.28 00:19:55.
