data_PCOD8089746
_publ_section_title
;
Structure prediction by ZEFSAII (Michael W. Deem and Ramdas Pophale) SiO2 
 PCOD8089746
Probable space group: C 2/M
;
_chemical_formula_sum "Si O2"
_cell_formula_units_Z 64
_cell_length_a 20.582210
_cell_length_b 8.960945
_cell_length_c 21.653676
_cell_angle_alpha 90.000000
_cell_angle_beta 118.243648
_cell_angle_gamma 90.000000
_cell_volume 3518.239189
_symmetry_space_group_name_H-M "C 2/M"
_symmetry_group_IT_number 12
_symmetry_cell_setting 'monoclinic'
loop_
_space_group_symop_operation_xyz
x,y,z
-x,y,-z
-x,-y,-z
x,-y,z
1/2+x,1/2+y,z
1/2-x,1/2+y,-z
1/2-x,1/2-y,-z
1/2+x,1/2-y,z
loop_
_atom_site_type_symbol
_atom_site_label
_atom_site_fract_x
_atom_site_fract_y
_atom_site_fract_z
Si Si1 0.947616 0.677141 0.675190
Si Si2 0.710180 0.173247 0.037940
Si Si3 0.165411 0.828838 0.815076
Si Si4 0.417261 0.324795 0.455719
Si Si5 0.481235 0.325319 0.179147
Si Si6 0.402938 0.825864 0.325057
Si Si7 0.670375 0.322788 0.461370
Si Si8 0.543522 0.823945 0.958533
O O1 0.937257 0.500000 0.674530
O O2 0.873948 0.752917 0.615853
O O3 0.962024 0.741724 0.749835
O O4 0.015651 0.722290 0.661290
O O5 0.754738 0.207824 0.120722
O O6 0.711528 0.000000 0.023664
O O7 0.750000 0.250000 0.000000
O O8 0.627047 0.231075 0.007333
O O9 0.102576 0.792595 0.837455
O O10 0.157172 0.724999 0.751903
O O11 0.158681 0.000000 0.790776
O O12 0.500000 0.262385 0.500000
O O13 0.417765 0.500000 0.445388
O O14 0.381594 0.250612 0.379635
O O15 0.370507 0.278192 0.493998
O O16 0.499695 0.500000 0.187790
O O17 0.492017 0.260378 0.115597
O O18 0.397026 0.000000 0.331643
O O19 0.676025 0.500000 0.455334
O O20 0.750000 0.250000 0.500000
O O21 0.538586 0.000000 0.943898
O O22 0.500000 0.776742 0.000000
#
# Coordination Sequence:
#
# PCOD8089746 Si02
#       8
#     8   8   8   8   8   8   8   8
#     4  10  20  35  56  83 113 146 186 229 278 332
#     4  10  19  33  54  79 106 138 179 225 272 323
#     4   9  18  32  51  77 108 141 180 227 279 332
#     4  10  20  36  58  82 110 145 184 225 275 331
#     4  10  19  33  55  81 108 142 186 230 276 328
#     4  10  20  32  53  84 113 142 181 233 282 325
#     4  11  23  39  59  84 115 151 189 230 278 332
#     4  10  21  36  54  79 112 148 184 225 278 335
#
# _framework density 18.190918
#
# number of rings (size 3 to 8) (size 9 to 14) (size 15 to 20)
#    0.000    2.000    2.500    1.500    0.000    3.500 
#    0.000    1.250    0.000    6.000    0.000    0.000 
#    0.000    0.000    0.000    0.000    0.000    0.000 
#
# Total GULP energy -396903.631141 kJ/mol
# GULP energy per Si atom -12403.238473 kJ/mol
# Density = 1.814951 g / cm^3
# Si number density = 18.190918 Si / 1000 Ang^3
#
#
#
# Elastic Constant Matrix: (Units=GPa)
#
#
# Indices 1 2 3 4 5 6 
#
# 1 105.8574 44.4656 72.4576 0.0000 3.5621 0.0000
# 2 44.4656 60.8766 56.3924 0.0000 -1.7115 0.0000
# 3 72.4576 56.3924 149.6365 0.0000 -1.5457 0.0000
# 4 0.0000 0.0000 0.0000 35.9707 0.0000 -1.8720
# 5 3.5621 -1.7115 -1.5457 0.0000 29.3230 0.0000
# 6 0.0000 0.0000 0.0000 -1.8720 0.0000 24.4018
#
#
#
# Elastic Compliance Matrix: (Units=1/GPa)
#
#
# Indices 1 2 3 4 5 6 
#
# 1 0.015986 -0.006997 -0.005131 0.000000 -0.002621 0.000000
# 2 -0.006997 0.028328 -0.007265 0.000000 0.002120 0.000000
# 3 -0.005131 -0.007265 0.011914 0.000000 0.000827 0.000000
# 4 0.000000 0.000000 0.000000 0.027912 0.000000 0.002141
# 5 -0.002621 0.002120 0.000827 0.000000 0.034589 0.000000
# 6 0.000000 0.000000 0.000000 0.002141 0.000000 0.041145
#
#
# Mechanical properties :
#
#
# Convention : Reuss Voigt Hill
#
# Bulk Modulus (GPa) = 57.33832 73.66684 65.50258
# Shear Modulus (GPa) = 24.45301 27.47609 25.96455
#
# Velocity S-wave (km/s) = 3.67037 3.89064 3.78211
# Velocity P-wave (km/s) = 7.03924 7.79533 7.42691
#
# Compressibility (1/GPa) = 0.01744034
#
# Stress axis : x y z
#
# Youngs Moduli (GPa) = 62.55427 35.30130 83.93507
#
# Poissons Ratio (x) = 0.24702 0.43066
# Poissons Ratio (y) = 0.43771 0.60982
# Poissons Ratio (z) = 0.32096 0.25648
#
# Static dielectric constant tensor:
#      x y z
#    x 3.201700 0.000000 0.056940 
#    y 0.000000 3.321620 0.000000 
#    z 0.056940 0.000000 3.372960 
# 
# 
# High freq. dielectric constant tensor:
#      x y z
#    x 1.677100 0.000000 0.001770 
#    y 0.000000 1.708520 0.000000 
#    z 0.001770 0.000000 1.718530 
# 
# From -- ./inp_files/319830.got.cif
#   From: 2010.06.25/outbox.cif.g09.slc.cpg/sg12_160_cif.got.tgz:319830.got - 2010.06.28 00:19:55.
