data_PCOD8089935
_publ_section_title
;
Structure prediction by ZEFSAII (Michael W. Deem and Ramdas Pophale) SiO2 
 PCOD8089935
Probable space group: C 2/M
;
_chemical_formula_sum "Si O2"
_cell_formula_units_Z 64
_cell_length_a 20.664658
_cell_length_b 9.363955
_cell_length_c 23.144924
_cell_angle_alpha 90.000000
_cell_angle_beta 129.023747
_cell_angle_gamma 90.000000
_cell_volume 3479.365648
_symmetry_space_group_name_H-M "C 2/M"
_symmetry_group_IT_number 12
_symmetry_cell_setting 'monoclinic'
loop_
_space_group_symop_operation_xyz
x,y,z
-x,y,-z
-x,-y,-z
x,-y,z
1/2+x,1/2+y,z
1/2-x,1/2+y,-z
1/2-x,1/2-y,-z
1/2+x,1/2-y,z
loop_
_atom_site_type_symbol
_atom_site_label
_atom_site_fract_x
_atom_site_fract_y
_atom_site_fract_z
Si Si1 0.924448 0.156692 0.498785
Si Si2 0.375908 0.833661 0.200895
Si Si3 0.228605 0.169642 0.198812
Si Si4 0.465090 0.833699 0.632676
Si Si5 0.958962 0.829696 0.918146
Si Si6 0.710216 0.162373 0.643588
Si Si7 0.118188 0.842550 0.324218
Si Si8 0.965207 0.836039 0.157086
O O1 0.959106 0.252913 0.569543
O O2 0.854315 0.236652 0.423662
O O3 0.000000 0.128418 0.500000
O O4 0.892074 0.000000 0.501946
O O5 0.287437 0.783604 0.178097
O O6 0.446375 0.799287 0.288090
O O7 0.393720 0.751599 0.150811
O O8 0.375064 0.000000 0.185209
O O9 0.135322 0.232553 0.138822
O O10 0.268995 0.225010 0.281286
O O11 0.224041 0.000000 0.199854
O O12 0.391220 0.776887 0.632027
O O13 0.451795 0.000000 0.614015
O O14 0.018712 0.778708 0.899033
O O15 0.954104 0.000000 0.914311
O O16 0.000000 0.772088 0.000000
O O17 0.790896 0.166622 0.649676
O O18 0.675516 0.000000 0.628705
O O19 0.053992 0.814423 0.236758
O O20 0.101689 0.000000 0.341665
O O21 0.935951 0.000000 0.140294
#
# Coordination Sequence:
#
# PCOD8089935 Si02
#       8
#     8   8   8   8   8   8   8   8
#     4  11  24  38  50  69 100 134 167 210 265 313
#     4   9  18  31  51  76 102 136 174 214 255 299
#     4   9  16  30  51  76 103 132 174 217 253 299
#     4  10  20  34  52  74  99 132 174 212 254 307
#     4   9  16  28  51  81 107 133 169 212 254 299
#     4  10  19  33  55  76  97 130 173 216 256 301
#     4   9  17  31  52  76 100 130 166 211 261 301
#     4   9  16  30  51  76 105 135 170 209 253 305
#
# _framework density 18.394157
#
# number of rings (size 3 to 8) (size 9 to 14) (size 15 to 20)
#    0.000    2.500    1.250    1.500    0.000    3.500 
#    0.000    1.250    0.000    1.125    0.000    0.000 
#    0.000    0.000    0.000    0.000    0.000    0.000 
#
# Total GULP energy -396681.013290 kJ/mol
# GULP energy per Si atom -12396.281665 kJ/mol
# Density = 1.835229 g / cm^3
# Si number density = 18.394157 Si / 1000 Ang^3
#
#
#
# Elastic Constant Matrix: (Units=GPa)
#
#
# Indices 1 2 3 4 5 6 
#
# 1 107.7272 39.6714 51.5601 0.0000 -20.3670 0.0000
# 2 39.6714 72.4335 40.6613 0.0000 -12.7944 0.0000
# 3 51.5601 40.6613 83.6260 0.0000 -28.9100 0.0000
# 4 0.0000 0.0000 0.0000 15.0585 0.0000 -5.1351
# 5 -20.3670 -12.7944 -28.9100 0.0000 22.5201 0.0000
# 6 0.0000 0.0000 0.0000 -5.1351 0.0000 25.1878
#
#
#
# Elastic Compliance Matrix: (Units=1/GPa)
#
#
# Indices 1 2 3 4 5 6 
#
# 1 0.014041 -0.003971 -0.005603 0.000000 0.003250 0.000000
# 2 -0.003971 0.020158 -0.008334 0.000000 -0.002838 0.000000
# 3 -0.005603 -0.008334 0.028903 0.000000 0.027302 0.000000
# 4 0.000000 0.000000 0.000000 0.071370 0.000000 0.014550
# 5 0.003250 -0.002838 0.027302 0.000000 0.080781 0.000000
# 6 0.000000 0.000000 0.000000 0.014550 0.000000 0.042668
#
#
# Mechanical properties :
#
#
# Convention : Reuss Voigt Hill
#
# Bulk Modulus (GPa) = 36.64789 58.61915 47.63352
# Shear Modulus (GPa) = 16.51085 21.34622 18.92854
#
# Velocity S-wave (km/s) = 2.99927 3.41029 3.21136
# Velocity P-wave (km/s) = 5.65341 6.88798 6.30101
#
# Compressibility (1/GPa) = 0.02728670
#
# Stress axis : x y z
#
# Youngs Moduli (GPa) = 71.21958 49.60877 34.59838
#
# Poissons Ratio (x) = 0.19700 0.19385
# Poissons Ratio (y) = 0.28281 0.28834
# Poissons Ratio (z) = 0.39902 0.41343
#
# Static dielectric constant tensor:
#      x y z
#    x 3.523920 0.000000 -0.134930 
#    y 0.000000 3.299420 0.000000 
#    z -0.134930 0.000000 3.305220 
# 
# 
# High freq. dielectric constant tensor:
#      x y z
#    x 1.721610 0.000000 -0.011210 
#    y 0.000000 1.684690 0.000000 
#    z -0.011210 0.000000 1.701310 
# 
# From -- ./inp_files/320173.got.cif
#   From: 2010.06.25/outbox.cif.g09.slc.cpg/sg12_161_cif.got.tgz:320173.got - 2010.06.28 00:19:55.
