data_PCOD8089379
_publ_section_title
;
Structure prediction by ZEFSAII (Michael W. Deem and Ramdas Pophale) SiO2 
 PCOD8089379
Probable space group: C 2/M
;
_chemical_formula_sum "Si O2"
_cell_formula_units_Z 56
_cell_length_a 19.849670
_cell_length_b 8.677041
_cell_length_c 20.990021
_cell_angle_alpha 90.000000
_cell_angle_beta 55.299446
_cell_angle_gamma 90.000000
_cell_volume 2972.232778
_symmetry_space_group_name_H-M "C 2/M"
_symmetry_group_IT_number 12
_symmetry_cell_setting 'monoclinic'
loop_
_space_group_symop_operation_xyz
x,y,z
-x,y,-z
-x,-y,-z
x,-y,z
1/2+x,1/2+y,z
1/2-x,1/2+y,-z
1/2-x,1/2-y,-z
1/2+x,1/2-y,z
loop_
_atom_site_type_symbol
_atom_site_label
_atom_site_fract_x
_atom_site_fract_y
_atom_site_fract_z
Si Si1 0.444387 0.684250 0.178230
Si Si2 0.869389 0.683632 0.724288
Si Si3 0.836014 0.318461 0.472644
Si Si4 0.588990 0.182154 0.437662
Si Si5 0.969800 0.817436 0.307057
Si Si6 0.430217 0.667973 0.985309
Si Si7 0.187974 0.184429 0.849694
O O1 0.449282 0.500000 0.172381
O O2 0.441995 0.741492 0.252209
O O3 0.526977 0.752288 0.098527
O O4 0.362582 0.741961 0.185500
O O5 0.878037 0.500000 0.723591
O O6 0.877874 0.744636 0.647274
O O7 0.937989 0.761155 0.730991
O O8 0.781159 0.742316 0.796186
O O9 0.834530 0.500000 0.464743
O O10 0.750000 0.250000 0.500000
O O11 0.849815 0.270433 0.538653
O O12 0.909533 0.254259 0.391000
O O13 0.500000 0.254987 0.500000
O O14 0.580699 0.000000 0.438031
O O15 0.965158 0.000000 0.314497
O O16 0.399180 0.500000 0.979339
O O17 0.500000 0.646365 0.000000
O O18 0.353619 0.752072 0.062418
O O19 0.184268 0.000000 0.853305
#
# Coordination Sequence:
#
# PCOD8089379 Si02
#       7
#     8   8   8   8   8   8   8
#     4   8  15  27  46  71 101 134 168 208 256 304
#     4  10  19  33  53  74  99 132 173 215 252 300
#     4  11  23  39  58  79 104 132 167 211 255 302
#     4   9  17  33  55  73  93 132 173 203 244 299
#     4  11  22  35  51  74 106 140 168 204 256 308
#     4   7  10  21  41  69  99 124 161 215 258 288
#     4   8  14  25  48  75  95 125 173 219 252 293
#
# _framework density 18.841052999999999
#
# number of rings (size 3 to 8) (size 9 to 14) (size 15 to 20)
#    0.000    2.857    1.429    2.571    2.000    0.000 
#    0.000    2.857    0.000    0.000    0.000    1.000 
#    0.000    8.571    0.000    0.000    0.000    0.000 
#
# Total GULP energy -346910.668670 kJ/mol
# GULP energy per Si atom -12389.666738 kJ/mol
# Density = 1.879817 g / cm^3
# Si number density = 18.841053 Si / 1000 Ang^3
#
#
#
# Elastic Constant Matrix: (Units=GPa)
#
#
# Indices 1 2 3 4 5 6 
#
# 1 109.0776 21.9177 28.8763 -0.0001 -17.1868 -0.0006
# 2 21.9177 30.6174 14.6239 0.0000 1.0490 -0.0018
# 3 28.8763 14.6239 72.6578 -0.0001 -17.3595 0.0002
# 4 -0.0001 0.0000 -0.0001 8.0312 0.0000 -0.9231
# 5 -17.1868 1.0490 -17.3595 0.0000 35.4200 0.0000
# 6 -0.0006 -0.0018 0.0002 -0.9231 0.0000 25.0521
#
#
#
# Elastic Compliance Matrix: (Units=1/GPa)
#
#
# Indices 1 2 3 4 5 6 
#
# 1 0.012085 -0.007873 -0.001995 0.000000 0.005119 0.000000
# 2 -0.007873 0.042147 -0.007436 0.000000 -0.008713 0.000003
# 3 -0.001995 -0.007436 0.017979 0.000000 0.008064 -0.000001
# 4 0.000000 0.000000 0.000000 0.125044 0.000000 0.004608
# 5 0.005119 -0.008713 0.008064 0.000000 0.034927 -0.000001
# 6 0.000000 0.000003 -0.000001 0.004608 -0.000001 0.040087
#
#
# Mechanical properties :
#
#
# Convention : Reuss Voigt Hill
#
# Bulk Modulus (GPa) = 26.59345 38.13208 32.36277
# Shear Modulus (GPa) = 15.65379 23.49631 19.57505
#
# Velocity S-wave (km/s) = 2.88555 3.53523 3.22678
# Velocity P-wave (km/s) = 5.02465 6.07837 5.57646
#
# Compressibility (1/GPa) = 0.03760324
#
# Stress axis : x y z
#
# Youngs Moduli (GPa) = 82.75016 23.72623 55.61977
#
# Poissons Ratio (x) = 0.18680 0.11096
# Poissons Ratio (y) = 0.65152 0.41357
# Poissons Ratio (z) = 0.16509 0.17642
#
# Static dielectric constant tensor:
#      x y z
#    x 3.493360 0.000000 -0.063730 
#    y 0.000000 2.903300 0.000000 
#    z -0.063730 0.000000 4.013380 
# 
# 
# High freq. dielectric constant tensor:
#      x y z
#    x 1.723610 0.000000 -0.006170 
#    y 0.000000 1.671480 0.000000 
#    z -0.006170 0.000000 1.750960 
# 
# From -- ./inp_files/319024.got.cif
#   From: 2010.06.25/outbox.cif.g09.slc.cpg/sg12_160_cif.got.tgz:319024.got - 2010.06.28 00:19:55.
