data_PCOD8089758
_publ_section_title
;
Structure prediction by ZEFSAII (Michael W. Deem and Ramdas Pophale) SiO2 
 PCOD8089758
Probable space group: C 2/M
;
_chemical_formula_sum "Si O2"
_cell_formula_units_Z 48
_cell_length_a 31.676755
_cell_length_b 8.577940
_cell_length_c 20.360616
_cell_angle_alpha 90.000000
_cell_angle_beta 27.500962
_cell_angle_gamma 90.000000
_cell_volume 2554.666482
_symmetry_space_group_name_H-M "C 2/M"
_symmetry_group_IT_number 12
_symmetry_cell_setting 'monoclinic'
loop_
_space_group_symop_operation_xyz
x,y,z
-x,y,-z
-x,-y,-z
x,-y,z
1/2+x,1/2+y,z
1/2-x,1/2+y,-z
1/2-x,1/2-y,-z
1/2+x,1/2-y,z
loop_
_atom_site_type_symbol
_atom_site_label
_atom_site_fract_x
_atom_site_fract_y
_atom_site_fract_z
Si Si1 0.270358 0.682049 0.828876
Si Si2 0.553625 0.181393 0.360077
Si Si3 0.076555 0.184265 0.093258
Si Si4 0.946193 0.181466 0.389069
Si Si5 0.273820 0.818837 0.682802
Si Si6 0.930333 0.182631 0.044023
O O1 0.283675 0.500000 0.821976
O O2 0.340454 0.773827 0.778835
O O3 0.291665 0.721841 0.723943
O O4 0.168918 0.732655 0.989839
O O5 0.500000 0.226615 0.500000
O O6 0.511763 0.280005 0.358905
O O7 0.543050 0.000000 0.358027
O O8 0.994895 0.231822 0.254251
O O9 0.095361 0.000000 0.067061
O O10 0.051077 0.245293 0.055344
O O11 0.850648 0.274592 0.523842
O O12 0.923561 0.000000 0.420367
O O13 0.173984 0.779260 0.790947
O O14 0.280469 0.000000 0.692644
O O15 0.948515 0.000000 0.018746
O O16 0.000000 0.262631 0.000000
#
# Coordination Sequence:
#
# PCOD8089758 Si02
#       6
#     8   8   8   8   8   8
#     4  11  21  34  55  79 105 141 183 223 264 313
#     4  11  22  35  54  77 105 142 184 225 261 308
#     4   9  20  37  55  78 110 142 176 219 268 316
#     4  11  22  35  53  78 109 144 179 221 267 312
#     4  10  19  33  54  79 108 141 178 219 264 315
#     4   8  15  32  59  83 102 134 179 218 257 316
#
# _framework density 18.789145000000001
#
# number of rings (size 3 to 8) (size 9 to 14) (size 15 to 20)
#    0.000    2.000    1.667    4.000    0.000    2.667 
#    0.000    0.833    0.000   12.500    0.000    0.000 
#    0.000    0.000    0.000    0.000    0.000    0.000 
#
# Total GULP energy -297629.896237 kJ/mol
# GULP energy per Si atom -12401.245677 kJ/mol
# Density = 1.874638 g / cm^3
# Si number density = 18.789145 Si / 1000 Ang^3
#
#
#
# Elastic Constant Matrix: (Units=GPa)
#
#
# Indices 1 2 3 4 5 6 
#
# 1 101.5824 8.8348 55.4584 0.0070 -15.2381 -0.0066
# 2 8.8348 34.4769 23.7401 -0.0068 1.0130 -0.0004
# 3 55.4584 23.7401 136.9177 -0.0031 -1.9658 -0.0077
# 4 0.0070 -0.0068 -0.0031 26.3415 -0.0013 2.5343
# 5 -15.2381 1.0130 -1.9658 -0.0013 26.2125 0.0053
# 6 -0.0066 -0.0004 -0.0077 2.5343 0.0053 11.5667
#
#
#
# Elastic Compliance Matrix: (Units=1/GPa)
#
#
# Indices 1 2 3 4 5 6 
#
# 1 0.014054 0.000016 -0.005584 -0.000004 0.007751 0.000002
# 2 0.000016 0.033014 -0.005755 0.000008 -0.001698 -0.000004
# 3 -0.005584 -0.005755 0.010531 0.000001 -0.002234 0.000004
# 4 -0.000004 0.000008 0.000001 0.038780 0.000001 -0.008497
# 5 0.007751 -0.001698 -0.002234 0.000001 0.042554 -0.000017
# 6 0.000002 -0.000004 0.000004 -0.008497 -0.000017 0.088317
#
#
# Mechanical properties :
#
#
# Convention : Reuss Voigt Hill
#
# Bulk Modulus (GPa) = 28.61021 49.89375 39.25198
# Shear Modulus (GPa) = 19.11701 25.15370 22.13535
#
# Velocity S-wave (km/s) = 3.19321 3.66284 3.43606
# Velocity P-wave (km/s) = 5.37173 6.67089 6.05625
#
# Compressibility (1/GPa) = 0.03495255
#
# Stress axis : x y z
#
# Youngs Moduli (GPa) = 71.15369 30.29061 94.95521
#
# Poissons Ratio (x) = -0.00048 0.53024
# Poissons Ratio (y) = -0.00114 0.54647
# Poissons Ratio (z) = 0.39733 0.17432
#
# Static dielectric constant tensor:
#      x y z
#    x 3.547510 -0.000010 -0.081390 
#    y -0.000010 3.279360 0.000020 
#    z -0.081390 0.000020 3.589970 
# 
# 
# High freq. dielectric constant tensor:
#      x y z
#    x 1.713140 0.000000 -0.010760 
#    y 0.000000 1.719530 0.000000 
#    z -0.010760 0.000000 1.734110 
# 
# From -- ./inp_files/295342.got.cif
#   From: 2010.06.25/outbox.cif.g09.slc.cpg/sg12_148_cif.got.tgz:295342.got - 2010.06.28 00:19:55.
