data_PCOD8089035
_publ_section_title
;
Structure prediction by ZEFSAII (Michael W. Deem and Ramdas Pophale) SiO2 
 PCOD8089035
Probable space group: C 2/M
;
_chemical_formula_sum "Si O2"
_cell_formula_units_Z 56
_cell_length_a 30.261856
_cell_length_b 9.129821
_cell_length_c 16.993690
_cell_angle_alpha 90.000000
_cell_angle_beta 45.760312
_cell_angle_gamma 90.000000
_cell_volume 3363.704019
_symmetry_space_group_name_H-M "C 2/M"
_symmetry_group_IT_number 12
_symmetry_cell_setting 'monoclinic'
loop_
_space_group_symop_operation_xyz
x,y,z
-x,y,-z
-x,-y,-z
x,-y,z
1/2+x,1/2+y,z
1/2-x,1/2+y,-z
1/2-x,1/2-y,-z
1/2+x,1/2-y,z
loop_
_atom_site_type_symbol
_atom_site_label
_atom_site_fract_x
_atom_site_fract_y
_atom_site_fract_z
Si Si1 0.303260 0.327272 0.482031
Si Si2 0.558382 0.667832 0.087554
Si Si3 0.919827 0.830507 0.238304
Si Si4 0.274990 0.672127 0.852604
Si Si5 0.336252 0.669162 0.930908
Si Si6 0.119323 0.673883 0.867810
Si Si7 0.259286 0.326729 0.701614
O O1 0.292027 0.500000 0.490375
O O2 0.250000 0.250000 0.500000
O O3 0.369604 0.281674 0.365462
O O4 0.299381 0.271614 0.577469
O O5 0.568645 0.500000 0.047942
O O6 0.486653 0.699075 0.193352
O O7 0.594555 0.699741 0.124500
O O8 0.583109 0.772211 0.988999
O O9 0.914276 0.735192 0.167168
O O10 0.911042 0.000000 0.226155
O O11 0.264076 0.500000 0.864339
O O12 0.329024 0.715252 0.847571
O O13 0.290704 0.728019 0.744515
O O14 0.210199 0.739933 0.958094
O O15 0.318028 0.500000 0.963075
O O16 0.116340 0.500000 0.869083
O O17 0.189417 0.733558 0.782392
O O18 0.256420 0.500000 0.703954
#
# Coordination Sequence:
#
# PCOD8089035 Si02
#       7
#     8   8   8   8   8   8   8
#     4  10  19  33  50  67  88 121 158 194 231 267
#     4  10  20  33  46  67  98 128 156 186 227 280
#     4  10  21  34  48  65  93 130 160 188 228 277
#     4   9  16  29  47  68  92 118 148 186 234 274
#     4   9  17  28  46  68  92 120 150 185 224 274
#     4  11  20  31  48  71  96 124 156 191 231 275
#     4   9  17  29  47  69  94 117 145 190 235 270
#
# _framework density 16.648313999999999
#
# number of rings (size 3 to 8) (size 9 to 14) (size 15 to 20)
#    0.000    2.286    2.857    0.857    0.000    2.286 
#    0.000    0.714    0.000    0.857    0.000    6.000 
#    0.000    0.000    0.000   11.000    0.000   11.714 
#
# Total GULP energy -347073.360617 kJ/mol
# GULP energy per Si atom -12395.477165 kJ/mol
# Density = 1.661042 g / cm^3
# Si number density = 16.648314 Si / 1000 Ang^3
#
#
#
# Elastic Constant Matrix: (Units=GPa)
#
#
# Indices 1 2 3 4 5 6 
#
# 1 155.5202 31.3113 75.5744 -0.0001 9.7867 -0.0001
# 2 31.3113 31.9462 23.1462 0.0000 -1.0704 0.0003
# 3 75.5744 23.1462 102.9836 -0.0005 1.3728 0.0004
# 4 -0.0001 0.0000 -0.0005 16.8213 -0.0001 -1.7440
# 5 9.7867 -1.0704 1.3728 -0.0001 28.9770 0.0001
# 6 -0.0001 0.0003 0.0004 -1.7440 0.0001 17.4358
#
#
#
# Elastic Compliance Matrix: (Units=1/GPa)
#
#
# Indices 1 2 3 4 5 6 
#
# 1 0.011204 -0.006192 -0.006781 0.000000 -0.003692 0.000000
# 2 -0.006192 0.040906 -0.004701 0.000000 0.003825 -0.000001
# 3 -0.006781 -0.004701 0.015725 0.000000 0.001372 0.000000
# 4 0.000000 0.000000 0.000000 0.060072 0.000000 0.006009
# 5 -0.003692 0.003825 0.001372 0.000000 0.035833 0.000000
# 6 0.000000 -0.000001 0.000000 0.006009 0.000000 0.057954
#
#
# Mechanical properties :
#
#
# Convention : Reuss Voigt Hill
#
# Bulk Modulus (GPa) = 30.78187 61.16822 45.97504
# Shear Modulus (GPa) = 18.66565 23.34135 21.00350
#
# Velocity S-wave (km/s) = 3.35203 3.74842 3.55575
# Velocity P-wave (km/s) = 5.78887 7.45355 6.67332
#
# Compressibility (1/GPa) = 0.03248666
#
# Stress axis : x y z
#
# Youngs Moduli (GPa) = 89.25052 24.44650 63.59268
#
# Poissons Ratio (x) = 0.15137 0.43125
# Poissons Ratio (y) = 0.55264 0.29894
# Poissons Ratio (z) = 0.60525 0.11492
#
# Static dielectric constant tensor:
#      x y z
#    x 3.562700 0.000000 0.229930 
#    y 0.000000 3.030680 0.000000 
#    z 0.229930 0.000000 3.274230 
# 
# 
# High freq. dielectric constant tensor:
#      x y z
#    x 1.648150 0.000000 0.009420 
#    y 0.000000 1.628930 0.000000 
#    z 0.009420 0.000000 1.621220 
# 
# From -- ./inp_files/287346.got.cif
#   From: 2010.06.25/outbox.cif.g09.slc.cpg/sg12_144_cif.got.tgz:287346.got - 2010.06.28 00:19:55.
