data_PCOD8089026
_publ_section_title
;
Structure prediction by ZEFSAII (Michael W. Deem and Ramdas Pophale) SiO2 
 PCOD8089026
Probable space group: C 2/M
;
_chemical_formula_sum "Si O2"
_cell_formula_units_Z 40
_cell_length_a 10.331387
_cell_length_b 18.540623
_cell_length_c 26.450340
_cell_angle_alpha 90.000000
_cell_angle_beta 152.136212
_cell_angle_gamma 90.000000
_cell_volume 2367.969619
_symmetry_space_group_name_H-M "C 2/M"
_symmetry_group_IT_number 12
_symmetry_cell_setting 'monoclinic'
loop_
_space_group_symop_operation_xyz
x,y,z
-x,y,-z
-x,-y,-z
x,-y,z
1/2+x,1/2+y,z
1/2-x,1/2+y,-z
1/2-x,1/2-y,-z
1/2+x,1/2-y,z
loop_
_atom_site_type_symbol
_atom_site_label
_atom_site_fract_x
_atom_site_fract_y
_atom_site_fract_z
Si Si1 0.325342 0.914115 0.264775
Si Si2 0.228383 0.163785 0.936183
Si Si3 0.629745 0.086114 0.268178
Si Si4 0.783858 0.667689 0.071470
Si Si5 0.341623 0.421249 0.497664
O O1 0.422154 0.891884 0.241880
O O2 0.547096 0.882848 0.383177
O O3 0.029867 0.880041 0.175206
O O4 0.309508 0.000000 0.263747
O O5 0.162804 0.247523 0.905125
O O6 0.500000 0.139311 0.000000
O O7 0.275653 0.143786 0.010703
O O8 0.534877 0.125206 0.184409
O O9 0.942498 0.116021 0.388666
O O10 0.631525 0.000000 0.261452
O O11 0.500000 0.644261 0.000000
O O12 0.500000 0.431238 0.500000
O O13 0.273522 0.500000 0.496509
#
# Coordination Sequence:
#
# PCOD8089026 Si02
#       5
#     8   8   8   8   8
#     4   9  16  29  50  73  97 123 155 195 237 281
#     4  10  21  33  46  67  99 133 157 187 236 289
#     4   9  16  28  51  77  94 115 158 207 237 266
#     4  10  19  33  49  68  95 127 163 197 233 274
#     4   7  12  24  44  72  98 117 145 194 245 275
#
# _framework density 16.892108
#
# number of rings (size 3 to 8) (size 9 to 14) (size 15 to 20)
#    0.000    3.000    2.000    2.400    0.000    1.600 
#    0.000    1.000    0.000    1.200    0.000    4.200 
#    0.000    0.000    0.000    0.000    0.000    0.000 
#
# Total GULP energy -247788.204359 kJ/mol
# GULP energy per Si atom -12389.410218 kJ/mol
# Density = 1.685366 g / cm^3
# Si number density = 16.892108 Si / 1000 Ang^3
#
#
#
# Elastic Constant Matrix: (Units=GPa)
#
#
# Indices 1 2 3 4 5 6 
#
# 1 78.8106 21.4094 59.9491 0.0048 3.1574 0.0012
# 2 21.4094 30.0103 49.7417 -0.0080 -1.4796 -0.0017
# 3 59.9491 49.7417 186.7706 0.0028 -0.2615 -0.0016
# 4 0.0048 -0.0080 0.0028 3.5889 0.0071 -0.2953
# 5 3.1574 -1.4796 -0.2615 0.0071 24.6436 0.0004
# 6 0.0012 -0.0017 -0.0016 -0.2953 0.0004 13.8704
#
#
#
# Elastic Compliance Matrix: (Units=1/GPa)
#
#
# Indices 1 2 3 4 5 6 
#
# 1 0.017470 -0.005895 -0.004041 -0.000028 -0.002635 -0.000003
# 2 -0.005895 0.061933 -0.014596 0.000149 0.004319 0.000010
# 3 -0.004041 -0.014596 0.010538 -0.000035 -0.000247 -0.000001
# 4 -0.000028 0.000149 -0.000035 0.279124 -0.000069 0.005943
# 5 -0.002635 0.004319 -0.000247 -0.000069 0.041173 -0.000002
# 6 -0.000003 0.000010 -0.000001 0.005943 -0.000002 0.072223
#
#
# Mechanical properties :
#
#
# Convention : Reuss Voigt Hill
#
# Bulk Modulus (GPa) = 24.46366 61.97687 43.22027
# Shear Modulus (GPa) = 9.17179 19.38666 14.27923
#
# Velocity S-wave (km/s) = 2.33268 3.39141 2.91059
# Velocity P-wave (km/s) = 4.66572 7.21838 6.07758
#
# Compressibility (1/GPa) = 0.04087696
#
# Stress axis : x y z
#
# Youngs Moduli (GPa) = 57.24262 16.14647 94.89218
#
# Poissons Ratio (x) = 0.09518 0.38347
# Poissons Ratio (y) = 0.33742 1.38507
# Poissons Ratio (z) = 0.23133 0.23568
#
# Static dielectric constant tensor:
#      x y z
#    x 2.880390 0.000000 -0.020640 
#    y 0.000000 2.796140 -0.000010 
#    z -0.020640 -0.000010 3.566570 
# 
# 
# High freq. dielectric constant tensor:
#      x y z
#    x 1.613350 0.000000 -0.003930 
#    y 0.000000 1.616880 0.000000 
#    z -0.003930 0.000000 1.675860 
# 
# From -- ./inp_files/120132.got.cif
#   From: 2010.06.25/outbox.cif.g09.slc.cpg/sg12_61_cif.got.tgz:120132.got - 2010.06.28 00:19:55.
