data_PCOD8089707
_publ_section_title
;
Structure prediction by ZEFSAII (Michael W. Deem and Ramdas Pophale) SiO2 
 PCOD8089707
Probable space group: C 2/M
;
_chemical_formula_sum "Si O2"
_cell_formula_units_Z 48
_cell_length_a 20.502925
_cell_length_b 9.056826
_cell_length_c 31.850036
_cell_angle_alpha 90.000000
_cell_angle_beta 153.160165
_cell_angle_gamma 90.000000
_cell_volume 2670.284957
_symmetry_space_group_name_H-M "C 2/M"
_symmetry_group_IT_number 12
_symmetry_cell_setting 'monoclinic'
loop_
_space_group_symop_operation_xyz
x,y,z
-x,y,-z
-x,-y,-z
x,-y,z
1/2+x,1/2+y,z
1/2-x,1/2+y,-z
1/2-x,1/2-y,-z
1/2+x,1/2-y,z
loop_
_atom_site_type_symbol
_atom_site_label
_atom_site_fract_x
_atom_site_fract_y
_atom_site_fract_z
Si Si1 0.378602 0.172074 0.050581
Si Si2 0.719798 0.174674 0.438497
Si Si3 0.865214 0.674751 0.948557
Si Si4 0.846052 0.327049 0.431383
Si Si5 0.403295 0.831050 0.755247
Si Si6 0.078166 0.331953 0.774404
O O1 0.531296 0.203685 0.161394
O O2 0.343448 0.000000 0.030895
O O3 0.250000 0.250000 0.000000
O O4 0.388465 0.233124 0.009131
O O5 0.750000 0.250000 0.500000
O O6 0.824730 0.240381 0.462895
O O7 0.554047 0.211011 0.331950
O O8 0.747464 0.000000 0.456917
O O9 0.860229 0.500000 0.943518
O O10 0.716224 0.732643 0.843021
O O11 0.000000 0.737959 0.000000
O O12 0.829299 0.500000 0.430896
O O13 0.729134 0.277728 0.329572
O O14 0.000000 0.287846 0.500000
O O15 0.531015 0.803569 0.795224
O O16 0.348148 0.000000 0.719654
O O17 0.124267 0.500000 0.793768
#
# Coordination Sequence:
#
# PCOD8089707 Si02
#       6
#     8   8   8   8   8   8
#     4  10  19  33  54  78 105 137 178 225 263 313
#     4  10  21  38  60  84 111 143 184 228 272 329
#     4  10  21  35  51  76 111 143 175 216 266 320
#     4  10  21  37  57  82 114 145 180 228 278 327
#     4   9  18  33  54  79 106 138 182 226 268 321
#     4   9  18  34  55  78 105 137 176 221 265 316
#
# _framework density 17.97561
#
# number of rings (size 3 to 8) (size 9 to 14) (size 15 to 20)
#    0.000    2.333    1.667    2.000    0.000    5.667 
#    3.000    0.000    0.000    0.000    0.000    0.000 
#    0.000    0.000    0.000    0.000    0.000    0.000 
#
# Total GULP energy -297610.550575 kJ/mol
# GULP energy per Si atom -12400.439607 kJ/mol
# Density = 1.793470 g / cm^3
# Si number density = 17.975610 Si / 1000 Ang^3
#
#
#
# Elastic Constant Matrix: (Units=GPa)
#
#
# Indices 1 2 3 4 5 6 
#
# 1 128.0821 55.8047 80.7875 -0.0001 0.8028 0.0000
# 2 55.8047 67.2958 52.6452 0.0001 2.9250 0.0003
# 3 80.7875 52.6452 116.4839 0.0025 2.1524 0.0001
# 4 -0.0001 0.0001 0.0025 36.0691 -0.0001 1.5861
# 5 0.8028 2.9250 2.1524 -0.0001 31.6556 0.0000
# 6 0.0000 0.0003 0.0001 1.5861 0.0000 25.1447
#
#
#
# Elastic Compliance Matrix: (Units=1/GPa)
#
#
# Indices 1 2 3 4 5 6 
#
# 1 0.015768 -0.007028 -0.007774 0.000001 0.000778 0.000000
# 2 -0.007028 0.026183 -0.006927 0.000000 -0.001770 0.000000
# 3 -0.007774 -0.006927 0.017113 -0.000001 -0.000326 0.000000
# 4 0.000001 0.000000 -0.000001 0.027802 0.000000 -0.001754
# 5 0.000778 -0.001770 -0.000326 0.000000 0.031756 0.000000
# 6 0.000000 0.000000 0.000000 -0.001754 0.000000 0.039880
#
#
# Mechanical properties :
#
#
# Convention : Reuss Voigt Hill
#
# Bulk Modulus (GPa) = 64.07283 76.70405 70.38844
# Shear Modulus (GPa) = 24.13567 26.74885 25.44226
#
# Velocity S-wave (km/s) = 3.66825 3.86173 3.76623
# Velocity P-wave (km/s) = 7.32551 7.91503 7.62597
#
# Compressibility (1/GPa) = 0.01560724
#
# Stress axis : x y z
#
# Youngs Moduli (GPa) = 63.41924 38.19244 58.43438
#
# Poissons Ratio (x) = 0.26841 0.45428
# Poissons Ratio (y) = 0.44569 0.40476
# Poissons Ratio (z) = 0.49303 0.26455
#
# Static dielectric constant tensor:
#      x y z
#    x 3.376490 0.000000 -0.177850 
#    y 0.000000 3.285640 0.000000 
#    z -0.177850 0.000000 3.461190 
# 
# 
# High freq. dielectric constant tensor:
#      x y z
#    x 1.683820 0.000000 -0.007290 
#    y 0.000000 1.695780 0.000000 
#    z -0.007290 0.000000 1.701320 
# 
# From -- ./inp_files/274069.got.cif
#   From: 2010.06.25/outbox.cif.g09.slc.cpg/sg12_138_cif.got.tgz:274069.got - 2010.06.28 00:19:55.
