data_PCOD8089044
_publ_section_title
;
Structure prediction by ZEFSAII (Michael W. Deem and Ramdas Pophale) SiO2 
 PCOD8089044
Probable space group: C 2/M
;
_chemical_formula_sum "Si O2"
_cell_formula_units_Z 56
_cell_length_a 13.128001
_cell_length_b 10.464504
_cell_length_c 22.026307
_cell_angle_alpha 90.000000
_cell_angle_beta 87.382079
_cell_angle_gamma 90.000000
_cell_volume 3022.772355
_symmetry_space_group_name_H-M "C 2/M"
_symmetry_group_IT_number 12
_symmetry_cell_setting 'monoclinic'
loop_
_space_group_symop_operation_xyz
x,y,z
-x,y,-z
-x,-y,-z
x,-y,z
1/2+x,1/2+y,z
1/2-x,1/2+y,-z
1/2-x,1/2-y,-z
1/2+x,1/2-y,z
loop_
_atom_site_type_symbol
_atom_site_label
_atom_site_fract_x
_atom_site_fract_y
_atom_site_fract_z
Si Si1 0.112371 0.855895 0.019398
Si Si2 0.729669 0.645801 0.777188
Si Si3 0.109061 0.859162 0.515103
Si Si4 0.601094 0.855048 0.323302
Si Si5 0.880967 0.356511 0.294134
Si Si6 0.245324 0.792613 0.404596
Si Si7 0.219630 0.644581 0.086032
O O1 0.136069 0.750649 0.070243
O O2 0.123383 0.000000 0.045992
O O3 0.183320 0.837998 0.959302
O O4 0.000000 0.828594 0.000000
O O5 0.688899 0.500000 0.767423
O O6 0.837332 0.664024 0.740803
O O7 0.651455 0.752037 0.754847
O O8 0.744725 0.673178 0.847217
O O9 0.187312 0.874949 0.456619
O O10 0.161676 0.783819 0.567899
O O11 0.000000 0.794620 0.500000
O O12 0.085189 0.000000 0.540983
O O13 0.487447 0.800642 0.316834
O O14 0.657690 0.795153 0.378905
O O15 0.589767 0.000000 0.342558
O O16 0.894247 0.500000 0.265302
O O17 0.797206 0.373372 0.349632
O O18 0.174680 0.500000 0.081717
#
# Coordination Sequence:
#
# PCOD8089044 Si02
#       7
#     8   8   8   8   8   8   8
#     4   9  18  32  50  73 102 134 166 204 249 290
#     4   9  19  35  52  72 100 132 164 200 245 294
#     4  10  20  32  48  71  96 123 158 198 239 286
#     4   9  18  33  51  70  95 129 164 197 241 294
#     4  10  20  34  52  74  98 125 162 205 243 285
#     4  10  19  33  50  69  96 127 158 196 243 289
#     4   9  18  33  51  72 100 132 167 204 241 290
#
# _framework density 18.526039000000001
#
# number of rings (size 3 to 8) (size 9 to 14) (size 15 to 20)
#    0.000    2.571    0.000    1.714    0.000    2.571 
#    0.000    3.571    0.000    6.857    0.000    0.000 
#    0.000    0.000    0.000    0.000    0.000    0.000 
#
# Total GULP energy -347037.105410 kJ/mol
# GULP energy per Si atom -12394.182336 kJ/mol
# Density = 1.848387 g / cm^3
# Si number density = 18.526039 Si / 1000 Ang^3
#
#
#
# Elastic Constant Matrix: (Units=GPa)
#
#
# Indices 1 2 3 4 5 6 
#
# 1 110.4506 56.9902 24.0898 0.0000 26.0553 0.0000
# 2 56.9902 111.5280 48.6757 0.0000 26.7570 0.0000
# 3 24.0898 48.6757 80.8513 0.0000 20.0885 0.0000
# 4 0.0000 0.0000 0.0000 40.7501 0.0000 -5.6357
# 5 26.0553 26.7570 20.0885 0.0000 21.1962 0.0000
# 6 0.0000 0.0000 0.0000 -5.6357 0.0000 24.3625
#
#
#
# Elastic Compliance Matrix: (Units=1/GPa)
#
#
# Indices 1 2 3 4 5 6 
#
# 1 0.014320 -0.005052 0.002046 0.000000 -0.013164 0.000000
# 2 -0.005052 0.016284 -0.006192 0.000000 -0.008478 0.000000
# 3 0.002046 -0.006192 0.018534 0.000000 -0.012263 0.000000
# 4 0.000000 0.000000 0.000000 0.025351 0.000000 0.005864
# 5 -0.013164 -0.008478 -0.012263 0.000000 0.085684 0.000000
# 6 0.000000 0.000000 0.000000 0.005864 0.000000 0.042403
#
#
# Mechanical properties :
#
#
# Convention : Reuss Voigt Hill
#
# Bulk Modulus (GPa) = 32.53005 62.48237 47.50621
# Shear Modulus (GPa) = 21.62443 28.80003 25.21223
#
# Velocity S-wave (km/s) = 3.42020 3.94708 3.69305
# Velocity P-wave (km/s) = 5.76145 7.38733 6.62446
#
# Compressibility (1/GPa) = 0.03074081
#
# Stress axis : x y z
#
# Youngs Moduli (GPa) = 69.83397 61.40868 53.95571
#
# Poissons Ratio (x) = 0.31023 -0.11037
# Poissons Ratio (y) = 0.35279 0.33410
# Poissons Ratio (z) = -0.14285 0.38025
#
# Static dielectric constant tensor:
#      x y z
#    x 3.478730 0.000000 0.034100 
#    y 0.000000 3.429380 0.000000 
#    z 0.034100 0.000000 3.300430 
# 
# 
# High freq. dielectric constant tensor:
#      x y z
#    x 1.721720 0.000000 -0.001070 
#    y 0.000000 1.718220 0.000000 
#    z -0.001070 0.000000 1.709490 
# 
# From -- ./inp_files/304256.got.cif
#   From: 2010.06.25/outbox.cif.g09.slc.cpg/sg12_153_cif.got.tgz:304256.got - 2010.06.28 00:19:55.
