data_PCOD8089866
_publ_section_title
;
Structure prediction by ZEFSAII (Michael W. Deem and Ramdas Pophale) SiO2 
 PCOD8089866
Probable space group: C 2/M
;
_chemical_formula_sum "Si O2"
_cell_formula_units_Z 64
_cell_length_a 31.322925
_cell_length_b 9.984370
_cell_length_c 14.642910
_cell_angle_alpha 90.000000
_cell_angle_beta 135.035476
_cell_angle_gamma 90.000000
_cell_volume 3236.132556
_symmetry_space_group_name_H-M "C 2/M"
_symmetry_group_IT_number 12
_symmetry_cell_setting 'monoclinic'
loop_
_space_group_symop_operation_xyz
x,y,z
-x,y,-z
-x,-y,-z
x,-y,z
1/2+x,1/2+y,z
1/2-x,1/2+y,-z
1/2-x,1/2-y,-z
1/2+x,1/2-y,z
loop_
_atom_site_type_symbol
_atom_site_label
_atom_site_fract_x
_atom_site_fract_y
_atom_site_fract_z
Si Si1 0.965942 0.349876 0.711267
Si Si2 0.645571 0.344043 0.135561
Si Si3 0.567320 0.149036 0.136144
Si Si4 0.274179 0.856532 0.966521
Si Si5 0.938965 0.847394 0.369255
Si Si6 0.888180 0.847308 0.479288
Si Si7 0.254404 0.652562 0.278699
Si Si8 0.597860 0.763783 0.880832
O O1 0.950621 0.500000 0.655517
O O2 0.933686 0.319396 0.758083
O O3 0.939573 0.245737 0.599459
O O4 0.038764 0.339089 0.829309
O O5 0.653431 0.500000 0.174848
O O6 0.601312 0.269684 0.138221
O O7 0.708812 0.265721 0.245248
O O8 0.619849 0.339162 0.993169
O O9 0.595872 0.000000 0.160943
O O10 0.500000 0.147033 0.000000
O O11 0.345672 0.859974 0.052669
O O12 0.257904 0.000000 0.985350
O O13 0.250000 0.750000 0.000000
O O14 0.238800 0.836394 0.819373
O O15 0.887636 0.826231 0.368576
O O16 0.916473 0.799089 0.237968
O O17 0.000000 0.775138 0.500000
O O18 0.955452 0.000000 0.377420
O O19 0.821590 0.815207 0.418474
O O20 0.906284 0.000000 0.529884
O O21 0.234475 0.500000 0.276145
#
# Coordination Sequence:
#
# PCOD8089866 Si02
#       8
#     8   8   8   8   8   8   8   8
#     4  11  23  39  61  88 117 153 195 240 294 350
#     4  11  23  37  61  95 122 146 188 253 301 335
#     4  10  21  40  63  86 117 158 192 229 292 370
#     4  10  21  36  57  81 112 152 199 246 289 342
#     4  10  19  33  54  81 118 161 196 228 278 346
#     4  10  21  39  61  85 116 158 203 242 282 337
#     4   9  20  39  60  80 112 161 201 232 285 359
#     4  11  21  37  57  86 122 156 194 237 292 351
#
# _framework density 19.776692000000001
#
# number of rings (size 3 to 8) (size 9 to 14) (size 15 to 20)
#    0.000    1.750    2.500    1.875    0.000    6.250 
#    0.000    3.750    0.000    0.000    0.000    0.000 
#    0.000    0.000    0.000    0.000    0.000    0.000 
#
# Total GULP energy -396534.209874 kJ/mol
# GULP energy per Si atom -12391.694059 kJ/mol
# Density = 1.973168 g / cm^3
# Si number density = 19.776692 Si / 1000 Ang^3
#
#
#
# Elastic Constant Matrix: (Units=GPa)
#
#
# Indices 1 2 3 4 5 6 
#
# 1 85.5863 53.9939 20.3125 0.0000 7.0164 0.0000
# 2 53.9939 126.3069 21.2056 0.0000 2.3861 0.0000
# 3 20.3125 21.2056 57.2520 0.0000 11.6323 0.0000
# 4 0.0000 0.0000 0.0000 12.4751 0.0000 -3.1960
# 5 7.0164 2.3861 11.6323 0.0000 28.3778 0.0000
# 6 0.0000 0.0000 0.0000 -3.1960 0.0000 27.9864
#
#
#
# Elastic Compliance Matrix: (Units=1/GPa)
#
#
# Indices 1 2 3 4 5 6 
#
# 1 0.016768 -0.006616 -0.003021 0.000000 -0.002351 0.000000
# 2 -0.006616 0.011063 -0.002066 0.000000 0.001552 0.000000
# 3 -0.003021 -0.002066 0.020853 0.000000 -0.007627 0.000000
# 4 0.000000 0.000000 0.000000 0.082576 0.000000 0.009430
# 5 -0.002351 0.001552 -0.007627 0.000000 0.038816 0.000000
# 6 0.000000 0.000000 0.000000 0.009430 0.000000 0.036809
#
#
# Mechanical properties :
#
#
# Convention : Reuss Voigt Hill
#
# Bulk Modulus (GPa) = 39.55914 51.12990 45.34452
# Shear Modulus (GPa) = 20.94538 25.34340 23.14439
#
# Velocity S-wave (km/s) = 3.25790 3.58366 3.42466
# Velocity P-wave (km/s) = 5.84793 6.55997 6.21416
#
# Compressibility (1/GPa) = 0.02527861
#
# Stress axis : x y z
#
# Youngs Moduli (GPa) = 59.63784 90.39080 47.95444
#
# Poissons Ratio (x) = 0.59806 0.14486
# Poissons Ratio (y) = 0.39459 0.09906
# Poissons Ratio (z) = 0.18015 0.18671
#
# Static dielectric constant tensor:
#      x y z
#    x 3.900030 0.000000 0.319110 
#    y 0.000000 3.510740 0.000000 
#    z 0.319110 0.000000 3.999150 
# 
# 
# High freq. dielectric constant tensor:
#      x y z
#    x 1.776700 0.000000 0.009710 
#    y 0.000000 1.760070 0.000000 
#    z 0.009710 0.000000 1.763830 
# 
# From -- ./inp_files/249938.got.cif
#   From: 2010.06.25/outbox.cif.g09.slc.cpg/sg12_125_cif.got.tgz:249938.got - 2010.06.28 00:19:55.
