data_PCOD8089765
_publ_section_title
;
Structure prediction by ZEFSAII (Michael W. Deem and Ramdas Pophale) SiO2 
 PCOD8089765
Probable space group: C 2/M
;
_chemical_formula_sum "Si O2"
_cell_formula_units_Z 56
_cell_length_a 8.652550
_cell_length_b 18.656600
_cell_length_c 28.485186
_cell_angle_alpha 90.000000
_cell_angle_beta 141.064501
_cell_angle_gamma 90.000000
_cell_volume 2889.768371
_symmetry_space_group_name_H-M "C 2/M"
_symmetry_group_IT_number 12
_symmetry_cell_setting 'monoclinic'
loop_
_space_group_symop_operation_xyz
x,y,z
-x,y,-z
-x,-y,-z
x,-y,z
1/2+x,1/2+y,z
1/2-x,1/2+y,-z
1/2-x,1/2-y,-z
1/2+x,1/2-y,z
loop_
_atom_site_type_symbol
_atom_site_label
_atom_site_fract_x
_atom_site_fract_y
_atom_site_fract_z
Si Si1 0.965101 0.418111 0.863094
Si Si2 0.351890 0.171458 0.012254
Si Si3 0.701726 0.837689 0.586773
Si Si4 0.379642 0.776507 0.335759
Si Si5 0.652294 0.419419 0.703187
Si Si6 0.126776 0.917933 0.113741
Si Si7 0.987557 0.333740 0.263755
O O1 0.901768 0.500000 0.864785
O O2 0.765247 0.387159 0.778282
O O3 0.963509 0.360502 0.904790
O O4 0.233595 0.417683 0.902808
O O5 0.500000 0.180134 0.000000
O O6 0.250000 0.250000 0.000000
O O7 0.144339 0.111328 0.958000
O O8 0.500000 0.851574 0.500000
O O9 0.566760 0.818050 0.603267
O O10 0.899089 0.779287 0.617143
O O11 0.858724 0.910136 0.631999
O O12 0.104853 0.741774 0.272948
O O13 0.394736 0.830201 0.295342
O O14 0.735293 0.500000 0.723411
O O15 0.782358 0.387666 0.687447
O O16 0.258325 0.862384 0.180021
O O17 0.117245 0.000000 0.131236
#
# Coordination Sequence:
#
# PCOD8089765 Si02
#       7
#     8   8   8   8   8   8   8
#     4   9  19  39  61  79 106 144 183 220 269 331
#     4  12  26  39  55  81 112 144 182 230 275 316
#     4  10  19  33  54  79 109 141 177 222 273 328
#     4   9  19  33  53  82 110 141 178 222 271 322
#     4   9  19  36  57  78 105 144 182 220 268 322
#     4  10  21  38  60  82 109 146 182 221 272 326
#     4   9  18  34  56  81 110 140 179 224 266 319
#
# _framework density 19.378717000000002
#
# number of rings (size 3 to 8) (size 9 to 14) (size 15 to 20)
#    0.000    2.286    0.000    3.429    0.000    9.429 
#    0.000    2.857    0.000    0.857    0.000    0.000 
#    0.000    0.000    0.000    0.000    0.000    0.000 
#
# Total GULP energy -347007.399657 kJ/mol
# GULP energy per Si atom -12393.121416 kJ/mol
# Density = 1.933461 g / cm^3
# Si number density = 19.378717 Si / 1000 Ang^3
#
#
#
# Elastic Constant Matrix: (Units=GPa)
#
#
# Indices 1 2 3 4 5 6 
#
# 1 117.7839 39.9174 47.3226 -0.0002 -23.9062 -0.0001
# 2 39.9174 79.9385 49.1132 -0.0002 -16.9253 -0.0001
# 3 47.3226 49.1132 107.9728 0.0005 -10.8880 0.0003
# 4 -0.0002 -0.0002 0.0005 20.3588 -0.0003 -1.0981
# 5 -23.9062 -16.9253 -10.8880 -0.0003 29.7038 0.0000
# 6 -0.0001 -0.0001 0.0003 -1.0981 0.0000 19.7753
#
#
#
# Elastic Compliance Matrix: (Units=1/GPa)
#
#
# Indices 1 2 3 4 5 6 
#
# 1 0.012166 -0.002402 -0.003520 0.000000 0.007132 0.000000
# 2 -0.002402 0.019490 -0.007152 0.000000 0.006551 0.000000
# 3 -0.003520 -0.007152 0.013874 0.000000 -0.001823 0.000000
# 4 0.000000 0.000000 0.000000 0.049266 0.000001 0.002736
# 5 0.007132 0.006551 -0.001823 0.000001 0.042470 0.000000
# 6 0.000000 0.000000 0.000000 0.002736 0.000000 0.050720
#
#
# Mechanical properties :
#
#
# Convention : Reuss Voigt Hill
#
# Bulk Modulus (GPa) = 51.59641 64.26686 57.93164
# Shear Modulus (GPa) = 22.66579 25.25705 23.96142
#
# Velocity S-wave (km/s) = 3.42369 3.61410 3.52018
# Velocity P-wave (km/s) = 6.50476 7.11697 6.81774
#
# Compressibility (1/GPa) = 0.01938119
#
# Stress axis : x y z
#
# Youngs Moduli (GPa) = 82.19432 51.30772 72.07795
#
# Poissons Ratio (x) = 0.12325 0.25374
# Poissons Ratio (y) = 0.19745 0.51550
# Poissons Ratio (z) = 0.28935 0.36695
#
# Static dielectric constant tensor:
#      x y z
#    x 3.570550 0.000000 0.004650 
#    y 0.000000 3.592380 0.000000 
#    z 0.004650 0.000000 3.486050 
# 
# 
# High freq. dielectric constant tensor:
#      x y z
#    x 1.750690 0.000000 0.002150 
#    y 0.000000 1.749090 0.000000 
#    z 0.002150 0.000000 1.746150 
# 
# From -- ./inp_files/372820.got.cif
#   From: 2010.06.25/outbox.cif.g09.slc.cpg/sg12_187_cif.got.tgz:372820.got - 2010.06.28 00:19:55.
