data_PCOD8089204
_publ_section_title
;
Structure prediction by ZEFSAII (Michael W. Deem and Ramdas Pophale) SiO2 
 PCOD8089204
Probable space group: C 2/M
;
_chemical_formula_sum "Si O2"
_cell_formula_units_Z 64
_cell_length_a 20.045758
_cell_length_b 9.298066
_cell_length_c 31.432323
_cell_angle_alpha 90.000000
_cell_angle_beta 36.701557
_cell_angle_gamma 90.000000
_cell_volume 3501.356104
_symmetry_space_group_name_H-M "C 2/M"
_symmetry_group_IT_number 12
_symmetry_cell_setting 'monoclinic'
loop_
_space_group_symop_operation_xyz
x,y,z
-x,y,-z
-x,-y,-z
x,-y,z
1/2+x,1/2+y,z
1/2-x,1/2+y,-z
1/2-x,1/2-y,-z
1/2+x,1/2-y,z
loop_
_atom_site_type_symbol
_atom_site_label
_atom_site_fract_x
_atom_site_fract_y
_atom_site_fract_z
Si Si1 0.332827 0.831622 0.691544
Si Si2 0.806170 0.669414 0.168674
Si Si3 0.058124 0.168475 0.150833
Si Si4 0.224194 0.331963 0.910232
Si Si5 0.443870 0.169254 0.933084
Si Si6 0.206345 0.831009 0.585296
Si Si7 0.085218 0.333704 0.577405
Si Si8 0.321051 0.329590 0.305687
O O1 0.284269 0.747833 0.756339
O O2 0.463704 0.796872 0.621130
O O3 0.274732 0.776463 0.677775
O O4 0.309674 0.000000 0.710149
O O5 0.782364 0.500000 0.182554
O O6 0.793303 0.733096 0.127694
O O7 0.928869 0.707861 0.122129
O O8 0.150461 0.202225 0.139141
O O9 0.093449 0.251421 0.090484
O O10 0.940524 0.227799 0.228449
O O11 0.052055 0.000000 0.143272
O O12 0.200688 0.500000 0.919325
O O13 0.133441 0.268508 0.989531
O O14 0.425283 0.000000 0.936250
O O15 0.108793 0.756717 0.607891
O O16 0.327057 0.792334 0.504251
O O17 0.203671 0.768642 0.634601
O O18 0.182408 0.000000 0.596749
O O19 0.095698 0.500000 0.584574
O O20 0.322620 0.500000 0.307184
#
# Coordination Sequence:
#
# PCOD8089204 Si02
#       8
#     8   8   8   8   8   8   8   8
#     4  10  20  35  52  73 105 136 166 208 254 295
#     4  10  20  34  53  75  99 132 173 210 249 300
#     4  10  19  33  52  74 101 133 168 206 249 298
#     4   9  19  33  52  75  99 130 170 212 251 299
#     4  10  19  34  53  74 101 131 165 210 259 301
#     4   9  18  34  56  79 103 134 171 204 241 297
#     4   9  19  34  53  79 107 134 163 205 255 293
#     4   9  18  32  52  75 100 134 171 206 243 290
#
# _framework density 18.278632000000002
#
# number of rings (size 3 to 8) (size 9 to 14) (size 15 to 20)
#    0.000    2.500    1.250    0.750    1.750    2.500 
#    0.000    5.000    0.000    1.500    0.000    4.375 
#    0.000    0.000    0.000    0.000    0.000    0.000 
#
# Total GULP energy -396841.283389 kJ/mol
# GULP energy per Si atom -12401.290106 kJ/mol
# Density = 1.823703 g / cm^3
# Si number density = 18.278632 Si / 1000 Ang^3
#
#
#
# Elastic Constant Matrix: (Units=GPa)
#
#
# Indices 1 2 3 4 5 6 
#
# 1 88.9460 25.8518 45.6671 0.0017 15.0641 0.0044
# 2 25.8518 25.7964 22.6892 0.0031 1.7265 0.0057
# 3 45.6671 22.6892 100.3085 0.0002 8.2106 -0.0003
# 4 0.0017 0.0031 0.0002 24.2648 0.0000 3.5478
# 5 15.0641 1.7265 8.2106 0.0000 40.3751 -0.0001
# 6 0.0044 0.0057 -0.0003 3.5478 -0.0001 24.1009
#
#
#
# Elastic Compliance Matrix: (Units=1/GPa)
#
#
# Indices 1 2 3 4 5 6 
#
# 1 0.018794 -0.014152 -0.004913 0.000001 -0.005408 0.000000
# 2 -0.014152 0.059050 -0.007260 -0.000005 0.004231 -0.000011
# 3 -0.004913 -0.007260 0.013904 0.000001 -0.000684 0.000003
# 4 0.000001 -0.000005 0.000001 0.042118 0.000000 -0.006200
# 5 -0.005408 0.004231 -0.000684 0.000000 0.026744 0.000000
# 6 0.000000 -0.000011 0.000003 -0.006200 0.000000 0.042405
#
#
# Mechanical properties :
#
#
# Convention : Reuss Voigt Hill
#
# Bulk Modulus (GPa) = 25.57628 44.82968 35.20298
# Shear Modulus (GPa) = 18.60833 25.80434 22.20634
#
# Velocity S-wave (km/s) = 3.19413 3.76136 3.48929
# Velocity P-wave (km/s) = 5.25606 6.59111 5.96108
#
# Compressibility (1/GPa) = 0.03909873
#
# Stress axis : x y z
#
# Youngs Moduli (GPa) = 53.20834 16.93490 71.92145
#
# Poissons Ratio (x) = 0.23965 0.35332
# Poissons Ratio (y) = 0.75298 0.52217
# Poissons Ratio (z) = 0.26139 0.12295
#
# Static dielectric constant tensor:
#      x y z
#    x 3.544790 0.000000 0.059700 
#    y 0.000000 3.045670 0.000000 
#    z 0.059700 0.000000 3.530120 
# 
# 
# High freq. dielectric constant tensor:
#      x y z
#    x 1.720310 0.000000 -0.001020 
#    y 0.000000 1.672130 0.000000 
#    z -0.001020 0.000000 1.717470 
# 
# From -- ./inp_files/276601.got.cif
#   From: 2010.06.25/outbox.cif.g09.slc.cpg/sg12_139_cif.got.tgz:276601.got - 2010.06.28 00:19:55.
