data_PCOD8089337
_publ_section_title
;
Structure prediction by ZEFSAII (Michael W. Deem and Ramdas Pophale) SiO2 
 PCOD8089337
Probable space group: C 2/M
;
_chemical_formula_sum "Si O2"
_cell_formula_units_Z 64
_cell_length_a 14.432965
_cell_length_b 9.385322
_cell_length_c 30.143656
_cell_angle_alpha 90.000000
_cell_angle_beta 120.012604
_cell_angle_gamma 90.000000
_cell_volume 3535.705795
_symmetry_space_group_name_H-M "C 2/M"
_symmetry_group_IT_number 12
_symmetry_cell_setting 'monoclinic'
loop_
_space_group_symop_operation_xyz
x,y,z
-x,y,-z
-x,-y,-z
x,-y,z
1/2+x,1/2+y,z
1/2-x,1/2+y,-z
1/2-x,1/2-y,-z
1/2+x,1/2-y,z
loop_
_atom_site_type_symbol
_atom_site_label
_atom_site_fract_x
_atom_site_fract_y
_atom_site_fract_z
Si Si1 0.041863 0.838955 0.906874
Si Si2 0.221120 0.161667 0.884261
Si Si3 0.222394 0.331480 0.714402
Si Si4 0.386904 0.839104 0.996084
Si Si5 0.705665 0.669079 0.363389
Si Si6 0.441627 0.831362 0.443073
Si Si7 0.513047 0.168718 0.364332
Si Si8 0.192991 0.169552 0.172050
O O1 0.100748 0.833541 0.873674
O O2 0.924136 0.775409 0.870543
O O3 0.033880 0.000000 0.922762
O O4 0.111257 0.752084 0.958841
O O5 0.300271 0.223205 0.941081
O O6 0.223021 0.260389 0.841495
O O7 0.255080 0.000000 0.880021
O O8 0.221652 0.500000 0.713145
O O9 0.287488 0.280455 0.686474
O O10 0.280958 0.273537 0.772428
O O11 0.098648 0.281691 0.684868
O O12 0.355662 0.000000 0.001756
O O13 0.500000 0.830436 0.000000
O O14 0.687168 0.500000 0.362889
O O15 0.817628 0.716693 0.412769
O O16 0.609478 0.749299 0.364231
O O17 0.500000 0.763331 0.500000
O O18 0.505793 0.784891 0.414257
O O19 0.443684 0.000000 0.446001
O O20 0.531675 0.000000 0.363717
O O21 0.202497 0.000000 0.172014
#
# Coordination Sequence:
#
# PCOD8089337 Si02
#       8
#     8   8   8   8   8   8   8   8
#     4  10  21  34  51  74  97 122 157 199 237 280
#     4  10  21  36  51  73 102 127 154 193 243 290
#     4   8  17  34  51  67  94 130 163 195 241 299
#     4  10  19  33  53  72  97 131 157 186 234 291
#     4   9  17  31  52  74  97 130 169 206 243 287
#     4   8  15  29  48  71 102 139 171 197 238 297
#     4   9  17  31  51  72  96 129 167 205 242 287
#     4  10  20  35  53  72  94 124 162 201 239 285
#
# _framework density 18.101054000000001
#
# number of rings (size 3 to 8) (size 9 to 14) (size 15 to 20)
#    0.000    2.750    1.250    1.875    0.000    2.750 
#    0.000    5.000    0.000    0.750    0.000    0.000 
#    0.000    0.000    0.000    0.000    0.000    0.000 
#
# Total GULP energy -396694.822165 kJ/mol
# GULP energy per Si atom -12396.713193 kJ/mol
# Density = 1.805986 g / cm^3
# Si number density = 18.101054 Si / 1000 Ang^3
#
#
#
# Elastic Constant Matrix: (Units=GPa)
#
#
# Indices 1 2 3 4 5 6 
#
# 1 116.7561 34.1012 43.5856 0.0000 -12.1880 0.0000
# 2 34.1012 37.5253 32.9164 0.0000 -6.6499 0.0000
# 3 43.5856 32.9164 124.1980 0.0000 -16.2435 0.0000
# 4 0.0000 0.0000 0.0000 16.8422 0.0000 -3.9938
# 5 -12.1880 -6.6499 -16.2435 0.0000 19.4816 0.0000
# 6 0.0000 0.0000 0.0000 -3.9938 0.0000 32.7869
#
#
#
# Elastic Compliance Matrix: (Units=1/GPa)
#
#
# Indices 1 2 3 4 5 6 
#
# 1 0.012115 -0.009218 -0.001379 0.000000 0.003283 0.000000
# 2 -0.009218 0.042120 -0.007635 0.000000 0.002245 0.000000
# 3 -0.001379 -0.007635 0.011342 0.000000 0.005988 0.000000
# 4 0.000000 0.000000 0.000000 0.061141 0.000000 0.007448
# 5 0.003283 0.002245 0.005988 0.000000 0.059143 0.000000
# 6 0.000000 0.000000 0.000000 0.007448 0.000000 0.031407
#
#
# Mechanical properties :
#
#
# Convention : Reuss Voigt Hill
#
# Bulk Modulus (GPa) = 34.34784 55.52064 44.93424
# Shear Modulus (GPa) = 18.97993 25.01387 21.99690
#
# Velocity S-wave (km/s) = 3.24165 3.72143 3.48979
# Velocity P-wave (km/s) = 5.74699 7.01459 6.41219
#
# Compressibility (1/GPa) = 0.02911391
#
# Stress axis : x y z
#
# Youngs Moduli (GPa) = 82.54487 23.74159 88.16576
#
# Poissons Ratio (x) = 0.21884 0.12159
# Poissons Ratio (y) = 0.76087 0.67312
# Poissons Ratio (z) = 0.11384 0.18126
#
# Static dielectric constant tensor:
#      x y z
#    x 3.316880 0.000000 0.005300 
#    y 0.000000 3.019540 0.000000 
#    z 0.005300 0.000000 3.758100 
# 
# 
# High freq. dielectric constant tensor:
#      x y z
#    x 1.707570 0.000000 -0.000690 
#    y 0.000000 1.666030 0.000000 
#    z -0.000690 0.000000 1.701530 
# 
# From -- ./inp_files/375040.got.cif
#   From: 2010.06.25/outbox.cif.g09.slc.cpg/sg12_188_cif.got.tgz:375040.got - 2010.06.28 00:19:55.
