data_PCOD8089175
_publ_section_title
;
Structure prediction by ZEFSAII (Michael W. Deem and Ramdas Pophale) SiO2 
 PCOD8089175
Probable space group: C 2/M
;
_chemical_formula_sum "Si O2"
_cell_formula_units_Z 56
_cell_length_a 19.768576
_cell_length_b 9.168511
_cell_length_c 20.934279
_cell_angle_alpha 90.000000
_cell_angle_beta 125.013663
_cell_angle_gamma 90.000000
_cell_volume 3107.593396
_symmetry_space_group_name_H-M "C 2/M"
_symmetry_group_IT_number 12
_symmetry_cell_setting 'monoclinic'
loop_
_space_group_symop_operation_xyz
x,y,z
-x,y,-z
-x,-y,-z
x,-y,z
1/2+x,1/2+y,z
1/2-x,1/2+y,-z
1/2-x,1/2-y,-z
1/2+x,1/2-y,z
loop_
_atom_site_type_symbol
_atom_site_label
_atom_site_fract_x
_atom_site_fract_y
_atom_site_fract_z
Si Si1 0.411823 0.171783 0.470236
Si Si2 0.198781 0.668215 0.825849
Si Si3 0.771148 0.674372 0.298577
Si Si4 0.381421 0.829106 0.724301
Si Si5 0.181280 0.169538 0.003131
Si Si6 0.932459 0.672212 0.142470
Si Si7 0.665940 0.169744 0.442014
O O1 0.500000 0.242421 0.500000
O O2 0.338636 0.233702 0.385773
O O3 0.397178 0.212539 0.536008
O O4 0.414927 0.000000 0.460590
O O5 0.177296 0.500000 0.806047
O O6 0.201982 0.735945 0.756566
O O7 0.124482 0.732717 0.829588
O O8 0.289622 0.689364 0.907504
O O9 0.763097 0.500000 0.295116
O O10 0.682385 0.740196 0.267407
O O11 0.473227 0.785588 0.794813
O O12 0.373359 0.782239 0.646096
O O13 0.364659 0.000000 0.724355
O O14 0.094727 0.247579 0.938404
O O15 0.176610 0.000000 0.982171
O O16 0.250000 0.250000 0.000000
O O17 0.919544 0.500000 0.126804
O O18 0.750000 0.250000 0.500000
O O19 0.686023 0.000000 0.454513
#
# Coordination Sequence:
#
# PCOD8089175 Si02
#       7
#     8   8   8   8   8   8   8
#     4   9  18  30  49  77 100 122 163 210 245 284
#     4   8  16  30  51  75  97 125 163 207 250 287
#     4  10  19  33  52  73 100 131 165 206 249 295
#     4  10  21  34  50  72 104 136 164 203 252 300
#     4   9  16  30  51  76 103 131 165 206 252 298
#     4   9  18  33  52  75 100 131 170 208 248 295
#     4  10  19  33  52  74  99 132 167 203 247 295
#
# _framework density 18.020374
#
# number of rings (size 3 to 8) (size 9 to 14) (size 15 to 20)
#    0.000    2.714    1.429    1.286    2.000    0.571 
#    0.000    4.286    0.000    6.000    0.000    0.000 
#    0.000    0.000    0.000    0.000    0.000    0.000 
#
# Total GULP energy -347028.777993 kJ/mol
# GULP energy per Si atom -12393.884928 kJ/mol
# Density = 1.797936 g / cm^3
# Si number density = 18.020374 Si / 1000 Ang^3
#
#
#
# Elastic Constant Matrix: (Units=GPa)
#
#
# Indices 1 2 3 4 5 6 
#
# 1 106.1640 21.3708 43.5662 0.0000 13.4552 0.0000
# 2 21.3708 31.2207 25.2887 0.0000 7.3490 0.0000
# 3 43.5662 25.2887 97.6232 0.0000 17.3207 0.0000
# 4 0.0000 0.0000 0.0000 25.3266 0.0000 3.9789
# 5 13.4552 7.3490 17.3207 0.0000 33.9551 0.0000
# 6 0.0000 0.0000 0.0000 3.9789 0.0000 22.9207
#
#
#
# Elastic Compliance Matrix: (Units=1/GPa)
#
#
# Indices 1 2 3 4 5 6 
#
# 1 0.012207 -0.004779 -0.003887 0.000000 -0.001820 0.000000
# 2 -0.004779 0.042847 -0.008419 0.000000 -0.003085 0.000000
# 3 -0.003887 -0.008419 0.014912 0.000000 -0.004244 0.000000
# 4 0.000000 0.000000 0.000000 0.040591 0.000000 -0.007046
# 5 -0.001820 -0.003085 -0.004244 0.000000 0.033005 0.000000
# 6 0.000000 0.000000 0.000000 -0.007046 0.000000 0.044852
#
#
# Mechanical properties :
#
#
# Convention : Reuss Voigt Hill
#
# Bulk Modulus (GPa) = 27.93597 46.16213 37.04905
# Shear Modulus (GPa) = 21.32050 26.09261 23.70656
#
# Velocity S-wave (km/s) = 3.44340 3.80932 3.63097
# Velocity P-wave (km/s) = 5.59870 6.70971 6.17922
#
# Compressibility (1/GPa) = 0.03579615
#
# Stress axis : x y z
#
# Youngs Moduli (GPa) = 81.91956 23.33883 67.06035
#
# Poissons Ratio (x) = 0.11154 0.26064
# Poissons Ratio (y) = 0.39151 0.56459
# Poissons Ratio (z) = 0.31839 0.19649
#
# Static dielectric constant tensor:
#      x y z
#    x 3.209000 0.000000 0.076980 
#    y 0.000000 2.990830 0.000000 
#    z 0.076980 0.000000 4.302190 
# 
# 
# High freq. dielectric constant tensor:
#      x y z
#    x 1.685180 0.000000 0.002100 
#    y 0.000000 1.664010 0.000000 
#    z 0.002100 0.000000 1.712930 
# 
# From -- ./inp_files/319706.got.cif
#   From: 2010.06.25/outbox.cif.g09.slc.cpg/sg12_160_cif.got.tgz:319706.got - 2010.06.28 00:19:55.
