data_PCOD8089367
_publ_section_title
;
Structure prediction by ZEFSAII (Michael W. Deem and Ramdas Pophale) SiO2 
 PCOD8089367
Probable space group: C 2/M
;
_chemical_formula_sum "Si O2"
_cell_formula_units_Z 64
_cell_length_a 17.566754
_cell_length_b 13.639528
_cell_length_c 19.546733
_cell_angle_alpha 90.000000
_cell_angle_beta 55.426615
_cell_angle_gamma 90.000000
_cell_volume 3856.345471
_symmetry_space_group_name_H-M "C 2/M"
_symmetry_group_IT_number 12
_symmetry_cell_setting 'monoclinic'
loop_
_space_group_symop_operation_xyz
x,y,z
-x,y,-z
-x,-y,-z
x,-y,z
1/2+x,1/2+y,z
1/2-x,1/2+y,-z
1/2-x,1/2-y,-z
1/2+x,1/2-y,z
loop_
_atom_site_type_symbol
_atom_site_label
_atom_site_fract_x
_atom_site_fract_y
_atom_site_fract_z
Si Si1 0.151847 0.109921 0.723311
Si Si2 0.906110 0.116825 0.014271
Si Si3 0.081437 0.111565 0.408352
Si Si4 0.630356 0.747375 0.613266
Si Si5 0.579812 0.262682 0.272817
Si Si6 0.291728 0.388321 0.535243
Si Si7 0.257800 0.114159 0.806453
Si Si8 0.436871 0.388592 0.848423
O O1 0.175259 0.185912 0.652025
O O2 0.218208 0.134905 0.751897
O O3 0.046676 0.119718 0.800776
O O4 0.170645 0.000000 0.686588
O O5 0.816351 0.154736 0.100850
O O6 0.911912 0.000000 0.014922
O O7 0.895532 0.151923 0.940981
O O8 0.000000 0.160425 0.000000
O O9 0.093472 0.176748 0.335170
O O10 0.177724 0.116069 0.401065
O O11 0.000000 0.149696 0.500000
O O12 0.058633 0.000000 0.397010
O O13 0.524671 0.776966 0.679207
O O14 0.635987 0.678064 0.543920
O O15 0.688441 0.847133 0.576853
O O16 0.645773 0.169584 0.235889
O O17 0.602635 0.328909 0.195433
O O18 0.294290 0.500000 0.507037
O O19 0.277623 0.000000 0.808590
O O20 0.406094 0.500000 0.851701
#
# Coordination Sequence:
#
# PCOD8089367 Si02
#       8
#     8   8   8   8   8   8   8   8
#     4   9  16  29  49  71  94 122 158 200 241 278
#     4   9  15  29  51  74  98 124 159 199 238 280
#     4  10  19  33  53  74  96 124 159 203 250 285
#     4  10  20  32  48  70  95 123 159 201 242 283
#     4  11  21  32  48  73 105 129 155 196 243 293
#     4  10  20  34  51  68  89 125 166 201 238 284
#     4  10  20  32  49  72 100 134 161 190 236 289
#     4   9  17  29  50  76  98 122 157 203 245 278
#
# _framework density 16.596024
#
# number of rings (size 3 to 8) (size 9 to 14) (size 15 to 20)
#    0.000    2.250    2.500    1.500    0.000    2.000 
#    0.000    0.000    0.000    0.375    0.000    0.000 
#    0.000    1.500    0.000    0.000    0.000    0.000 
#
# Total GULP energy -396762.507935 kJ/mol
# GULP energy per Si atom -12398.828373 kJ/mol
# Density = 1.655825 g / cm^3
# Si number density = 16.596024 Si / 1000 Ang^3
#
#
#
# Elastic Constant Matrix: (Units=GPa)
#
#
# Indices 1 2 3 4 5 6 
#
# 1 87.3018 46.8647 46.7013 0.0000 3.0124 0.0000
# 2 46.8647 61.0678 34.7294 0.0000 -0.5288 0.0000
# 3 46.7013 34.7294 92.9219 0.0000 3.8614 0.0000
# 4 0.0000 0.0000 0.0000 19.3551 0.0000 -3.6826
# 5 3.0124 -0.5288 3.8614 0.0000 19.8914 0.0000
# 6 0.0000 0.0000 0.0000 -3.6826 0.0000 15.8045
#
#
#
# Elastic Compliance Matrix: (Units=1/GPa)
#
#
# Indices 1 2 3 4 5 6 
#
# 1 0.021940 -0.013523 -0.005867 0.000000 -0.002543 0.000000
# 2 -0.013523 0.029215 -0.004275 0.000000 0.003654 0.000000
# 3 -0.005867 -0.004275 0.015400 0.000000 -0.002215 0.000000
# 4 0.000000 0.000000 0.000000 0.054063 0.000000 0.012597
# 5 -0.002543 0.003654 -0.002215 0.000000 0.051185 0.000000
# 6 0.000000 0.000000 0.000000 0.012597 0.000000 0.066208
#
#
# Mechanical properties :
#
#
# Convention : Reuss Voigt Hill
#
# Bulk Modulus (GPa) = 52.01089 55.32025 53.66557
# Shear Modulus (GPa) = 17.13801 18.54327 17.84064
#
# Velocity S-wave (km/s) = 3.21698 3.34628 3.28227
# Velocity P-wave (km/s) = 6.72354 6.95240 6.83893
#
# Compressibility (1/GPa) = 0.01922674
#
# Stress axis : x y z
#
# Youngs Moduli (GPa) = 45.57926 34.22843 64.93452
#
# Poissons Ratio (x) = 0.46285 0.38097
# Poissons Ratio (y) = 0.61635 0.27759
# Poissons Ratio (z) = 0.26741 0.14632
#
# Static dielectric constant tensor:
#      x y z
#    x 3.057160 0.000000 0.126000 
#    y 0.000000 2.868940 0.000000 
#    z 0.126000 0.000000 3.194100 
# 
# 
# High freq. dielectric constant tensor:
#      x y z
#    x 1.639580 0.000000 0.012310 
#    y 0.000000 1.611100 0.000000 
#    z 0.012310 0.000000 1.639970 
# 
# From -- ./inp_files/270298.got.cif
#   From: 2010.06.25/outbox.cif.g09.slc.cpg/sg12_136_cif.got.tgz:270298.got - 2010.06.28 00:19:55.
