data_PCOD8089394
_publ_section_title
;
Structure prediction by ZEFSAII (Michael W. Deem and Ramdas Pophale) SiO2 
 PCOD8089394
Probable space group: C 2/M
;
_chemical_formula_sum "Si O2"
_cell_formula_units_Z 64
_cell_length_a 14.496416
_cell_length_b 8.932251
_cell_length_c 27.326706
_cell_angle_alpha 90.000000
_cell_angle_beta 107.132979
_cell_angle_gamma 90.000000
_cell_volume 3381.393526
_symmetry_space_group_name_H-M "C 2/M"
_symmetry_group_IT_number 12
_symmetry_cell_setting 'monoclinic'
loop_
_space_group_symop_operation_xyz
x,y,z
-x,y,-z
-x,-y,-z
x,-y,z
1/2+x,1/2+y,z
1/2-x,1/2+y,-z
1/2-x,1/2-y,-z
1/2+x,1/2-y,z
loop_
_atom_site_type_symbol
_atom_site_label
_atom_site_fract_x
_atom_site_fract_y
_atom_site_fract_z
Si Si1 0.720366 0.670277 0.616306
Si Si2 0.472252 0.175283 0.134663
Si Si3 0.397392 0.177089 0.325434
Si Si4 0.819475 0.320505 0.867064
Si Si5 0.774708 0.678047 0.055181
Si Si6 0.111345 0.830581 0.505752
Si Si7 0.411573 0.169511 0.595684
Si Si8 0.858697 0.678001 0.210276
O O1 0.684250 0.500000 0.617832
O O2 0.696495 0.763926 0.660999
O O3 0.668764 0.741628 0.560277
O O4 0.835007 0.678122 0.627676
O O5 0.575205 0.241918 0.133643
O O6 0.385928 0.220342 0.084319
O O7 0.440864 0.228579 0.184254
O O8 0.485913 0.000000 0.137481
O O9 0.491021 0.244975 0.368020
O O10 0.395101 0.230620 0.269060
O O11 0.400273 0.000000 0.327363
O O12 0.816159 0.500000 0.870174
O O13 0.797086 0.249323 0.916261
O O14 0.741454 0.262711 0.815737
O O15 0.759585 0.500000 0.052146
O O16 0.750000 0.750000 0.000000
O O17 0.133565 0.748134 0.458693
O O18 0.000000 0.817695 0.500000
O O19 0.146797 0.000000 0.504434
O O20 0.432751 0.000000 0.583410
O O21 0.839748 0.500000 0.203793
#
# Coordination Sequence:
#
# PCOD8089394 Si02
#       8
#     8   8   8   8   8   8   8   8
#     4  10  21  36  53  75 103 133 168 209 258 312
#     4   8  17  34  56  77 104 143 180 213 259 312
#     4  10  21  36  54  76 103 134 171 214 261 310
#     4  10  19  34  57  83 105 138 185 223 259 310
#     4  10  20  36  55  80 115 151 181 218 262 306
#     4  10  19  33  53  75 102 135 164 204 262 313
#     4  10  21  35  53  77 101 132 173 212 249 308
#     4   9  19  37  55  74 104 139 172 215 268 315
#
# _framework density 18.927106999999999
#
# number of rings (size 3 to 8) (size 9 to 14) (size 15 to 20)
#    0.000    2.375    1.250    1.875    0.000    3.250 
#    0.000   11.250    0.000    0.000    0.000    0.000 
#    0.000    0.000    0.000    0.000    0.000    0.000 
#
# Total GULP energy -396732.744211 kJ/mol
# GULP energy per Si atom -12397.898257 kJ/mol
# Density = 1.888403 g / cm^3
# Si number density = 18.927107 Si / 1000 Ang^3
#
#
#
# Elastic Constant Matrix: (Units=GPa)
#
#
# Indices 1 2 3 4 5 6 
#
# 1 119.7392 29.1859 49.8247 0.0000 -13.3987 0.0000
# 2 29.1859 45.1106 40.1355 0.0000 -4.7567 0.0000
# 3 49.8247 40.1355 140.0121 0.0000 -12.9935 0.0000
# 4 0.0000 0.0000 0.0000 30.9754 0.0000 -2.7069
# 5 -13.3987 -4.7567 -12.9935 0.0000 19.2835 0.0000
# 6 0.0000 0.0000 0.0000 -2.7069 0.0000 27.0414
#
#
#
# Elastic Compliance Matrix: (Units=1/GPa)
#
#
# Indices 1 2 3 4 5 6 
#
# 1 0.010921 -0.004689 -0.002075 0.000000 0.005033 0.000000
# 2 -0.004689 0.031822 -0.007496 0.000000 -0.000459 0.000000
# 3 -0.002075 -0.007496 0.010373 0.000000 0.003698 0.000000
# 4 0.000000 0.000000 0.000000 0.032569 0.000000 0.003260
# 5 0.005033 -0.000459 0.003698 0.000000 0.057734 0.000000
# 6 0.000000 0.000000 0.000000 0.003260 0.000000 0.037307
#
#
# Mechanical properties :
#
#
# Convention : Reuss Voigt Hill
#
# Bulk Modulus (GPa) = 40.65710 60.35045 50.50378
# Shear Modulus (GPa) = 22.99442 27.84111 25.41776
#
# Velocity S-wave (km/s) = 3.48931 3.83948 3.66858
# Velocity P-wave (km/s) = 6.14502 7.18404 6.68475
#
# Compressibility (1/GPa) = 0.02459595
#
# Stress axis : x y z
#
# Youngs Moduli (GPa) = 91.56604 31.42450 96.40609
#
# Poissons Ratio (x) = 0.14734 0.20006
# Poissons Ratio (y) = 0.42932 0.72268
# Poissons Ratio (z) = 0.19002 0.23556
#
# Static dielectric constant tensor:
#      x y z
#    x 3.653590 0.000000 -0.009350 
#    y 0.000000 3.308320 0.000000 
#    z -0.009350 0.000000 3.542270 
# 
# 
# High freq. dielectric constant tensor:
#      x y z
#    x 1.741990 0.000000 -0.003400 
#    y 0.000000 1.716000 0.000000 
#    z -0.003400 0.000000 1.735430 
# 
# From -- ./inp_files/359882.got.cif
#   From: 2010.06.25/outbox.cif.g09.slc.cpg/sg12_180_cif.got.tgz:359882.got - 2010.06.28 00:19:55.
