data_PCOD8089122
_publ_section_title
;
Structure prediction by ZEFSAII (Michael W. Deem and Ramdas Pophale) SiO2 
 PCOD8089122
Probable space group: C 2/M
;
_chemical_formula_sum "Si O2"
_cell_formula_units_Z 48
_cell_length_a 30.174507
_cell_length_b 8.701602
_cell_length_c 19.733094
_cell_angle_alpha 90.000000
_cell_angle_beta 149.189033
_cell_angle_gamma 90.000000
_cell_volume 2653.874130
_symmetry_space_group_name_H-M "C 2/M"
_symmetry_group_IT_number 12
_symmetry_cell_setting 'monoclinic'
loop_
_space_group_symop_operation_xyz
x,y,z
-x,y,-z
-x,-y,-z
x,-y,z
1/2+x,1/2+y,z
1/2-x,1/2+y,-z
1/2-x,1/2-y,-z
1/2+x,1/2-y,z
loop_
_atom_site_type_symbol
_atom_site_label
_atom_site_fract_x
_atom_site_fract_y
_atom_site_fract_z
Si Si1 0.381934 0.170281 0.179068
Si Si2 0.600624 0.179984 0.140436
Si Si3 0.146202 0.179657 0.064960
Si Si4 0.159494 0.818074 0.358956
Si Si5 0.268708 0.669882 0.128464
Si Si6 0.001056 0.682286 0.218846
O O1 0.359458 0.273766 0.214864
O O2 0.464932 0.231087 0.245744
O O3 0.400655 0.000000 0.231118
O O4 0.302149 0.166920 0.023066
O O5 0.654353 0.270031 0.153588
O O6 0.631891 0.241459 0.252955
O O7 0.620054 0.000000 0.160351
O O8 0.500000 0.217627 0.000000
O O9 0.236788 0.218866 0.146722
O O10 0.126890 0.000000 0.032970
O O11 0.067440 0.274292 0.929095
O O12 0.250000 0.750000 0.500000
O O13 0.089846 0.773329 0.324923
O O14 0.165141 0.000000 0.358444
O O15 0.283194 0.500000 0.177477
O O16 0.016303 0.500000 0.234067
#
# Coordination Sequence:
#
# PCOD8089122 Si02
#       6
#     8   8   8   8   8   8
#     4   8  15  26  42  65  97 134 171 212 261 315
#     4  11  22  37  58  80 108 142 180 225 273 321
#     4  11  20  30  49  76 106 139 178 219 266 321
#     4  12  25  40  58  80 109 143 183 225 270 322
#     4   9  16  26  41  65 100 136 171 213 263 314
#     4  10  19  33  51  74 104 139 178 221 269 317
#
# _framework density 18.086766000000001
#
# number of rings (size 3 to 8) (size 9 to 14) (size 15 to 20)
#    0.000    1.833    1.667    5.500    0.000    5.333 
#    0.000    0.000    0.000    0.000    0.000    1.167 
#    0.000    9.333    0.000    0.000    0.000    0.000 
#
# Total GULP energy -297572.617393 kJ/mol
# GULP energy per Si atom -12398.859058 kJ/mol
# Density = 1.804560 g / cm^3
# Si number density = 18.086766 Si / 1000 Ang^3
#
#
#
# Elastic Constant Matrix: (Units=GPa)
#
#
# Indices 1 2 3 4 5 6 
#
# 1 137.9756 35.5042 35.2675 0.0000 11.4918 0.0000
# 2 35.5042 74.1894 19.1062 0.0000 -6.3671 0.0000
# 3 35.2675 19.1062 61.8024 0.0000 3.8592 0.0000
# 4 0.0000 0.0000 0.0000 20.0792 0.0000 1.2182
# 5 11.4918 -6.3671 3.8592 0.0000 13.2430 0.0000
# 6 0.0000 0.0000 0.0000 1.2182 0.0000 37.9363
#
#
#
# Elastic Compliance Matrix: (Units=1/GPa)
#
#
# Indices 1 2 3 4 5 6 
#
# 1 0.010296 -0.004835 -0.003746 0.000000 -0.010168 0.000000
# 2 -0.004835 0.017923 -0.003648 0.000000 0.013876 0.000000
# 3 -0.003746 -0.003648 0.019711 0.000000 -0.004248 0.000000
# 4 0.000000 0.000000 0.000000 0.049900 0.000000 -0.001602
# 5 -0.010168 0.013876 -0.004248 0.000000 0.092245 0.000000
# 6 0.000000 0.000000 0.000000 -0.001602 0.000000 0.026411
#
#
# Mechanical properties :
#
#
# Convention : Reuss Voigt Hill
#
# Bulk Modulus (GPa) = 42.60361 50.41370 46.50865
# Shear Modulus (GPa) = 20.09890 26.52432 23.31161
#
# Velocity S-wave (km/s) = 3.33716 3.83365 3.59399
# Velocity P-wave (km/s) = 6.20122 6.89417 6.55685
#
# Compressibility (1/GPa) = 0.02347219
#
# Stress axis : x y z
#
# Youngs Moduli (GPa) = 97.12307 55.79279 50.73256
#
# Poissons Ratio (x) = 0.26978 0.19003
# Poissons Ratio (y) = 0.46962 0.18508
# Poissons Ratio (z) = 0.36380 0.20355
#
# Static dielectric constant tensor:
#      x y z
#    x 3.803720 0.000000 0.091810 
#    y 0.000000 3.503700 0.000000 
#    z 0.091810 0.000000 2.628200 
# 
# 
# High freq. dielectric constant tensor:
#      x y z
#    x 1.724310 0.000000 0.008110 
#    y 0.000000 1.715320 0.000000 
#    z 0.008110 0.000000 1.627910 
# 
# From -- ./inp_files/248814.got.cif
#   From: 2010.06.25/outbox.cif.g09.slc.cpg/sg12_125_cif.got.tgz:248814.got - 2010.06.28 00:19:55.
