data_PCOD8089610
_publ_section_title
;
Structure prediction by ZEFSAII (Michael W. Deem and Ramdas Pophale) SiO2 
 PCOD8089610
Probable space group: C 2/M
;
_chemical_formula_sum "Si O2"
_cell_formula_units_Z 56
_cell_length_a 19.662397
_cell_length_b 9.060282
_cell_length_c 21.948385
_cell_angle_alpha 90.000000
_cell_angle_beta 131.943728
_cell_angle_gamma 90.000000
_cell_volume 2908.291124
_symmetry_space_group_name_H-M "C 2/M"
_symmetry_group_IT_number 12
_symmetry_cell_setting 'monoclinic'
loop_
_space_group_symop_operation_xyz
x,y,z
-x,y,-z
-x,-y,-z
x,-y,z
1/2+x,1/2+y,z
1/2-x,1/2+y,-z
1/2-x,1/2-y,-z
1/2+x,1/2-y,z
loop_
_atom_site_type_symbol
_atom_site_label
_atom_site_fract_x
_atom_site_fract_y
_atom_site_fract_z
Si Si1 0.090996 0.825110 0.934440
Si Si2 0.888553 0.175043 0.824880
Si Si3 0.774678 0.175152 0.640634
Si Si4 0.284912 0.324894 0.882299
Si Si5 0.607070 0.325455 0.806905
Si Si6 0.914991 0.824784 0.491415
Si Si7 0.922721 0.174758 0.634470
O O1 0.121204 0.777078 0.885252
O O2 0.990560 0.758149 0.886571
O O3 0.086094 0.000000 0.937653
O O4 0.163040 0.763051 0.026668
O O5 0.833716 0.231112 0.733242
O O6 0.840421 0.229920 0.857133
O O7 0.894198 0.000000 0.825501
O O8 0.677296 0.252958 0.588667
O O9 0.829276 0.226353 0.612198
O O10 0.759828 0.000000 0.632513
O O11 0.274376 0.500000 0.877830
O O12 0.185988 0.252603 0.815961
O O13 0.614156 0.500000 0.802803
O O14 0.510179 0.265672 0.724103
O O15 0.928449 0.766636 0.568681
O O16 0.000000 0.773809 0.500000
O O17 0.904485 0.000000 0.483140
O O18 0.925753 0.000000 0.637077
#
# Coordination Sequence:
#
# PCOD8089610 Si02
#       7
#     8   8   8   8   8   8   8
#     4   9  16  31  53  75  99 135 177 209 244 298
#     4   9  17  31  52  77 102 132 171 212 251 295
#     4  10  19  35  58  78  99 131 174 214 246 291
#     4  10  20  31  49  78 108 132 164 215 261 291
#     4  10  19  33  54  75 100 138 176 204 244 306
#     4  10  22  37  54  78 107 134 162 203 257 311
#     4   9  18  35  56  75  99 136 175 206 244 302
#
# _framework density 19.255293999999999
#
# number of rings (size 3 to 8) (size 9 to 14) (size 15 to 20)
#    0.000    2.429    1.429    1.286    2.000    2.000 
#    0.000    1.429    0.000    3.429    0.000    0.000 
#    0.000    0.000    0.000    0.000    0.000    0.000 
#
# Total GULP energy -347161.296432 kJ/mol
# GULP energy per Si atom -12398.617730 kJ/mol
# Density = 1.921147 g / cm^3
# Si number density = 19.255294 Si / 1000 Ang^3
#
#
#
# Elastic Constant Matrix: (Units=GPa)
#
#
# Indices 1 2 3 4 5 6 
#
# 1 127.1941 23.2488 44.6687 0.0000 14.7960 0.0000
# 2 23.2488 14.1532 11.1920 0.0000 3.7343 0.0000
# 3 44.6687 11.1920 92.5590 0.0000 5.9951 0.0000
# 4 0.0000 0.0000 0.0000 20.2312 0.0000 9.1817
# 5 14.7960 3.7343 5.9951 0.0000 39.5048 0.0000
# 6 0.0000 0.0000 0.0000 9.1817 0.0000 20.9022
#
#
#
# Elastic Compliance Matrix: (Units=1/GPa)
#
#
# Indices 1 2 3 4 5 6 
#
# 1 0.012625 -0.017009 -0.003872 0.000000 -0.002533 0.000000
# 2 -0.017009 0.102479 -0.004008 0.000000 -0.002708 0.000000
# 3 -0.003872 -0.004008 0.013168 0.000000 -0.000169 0.000000
# 4 0.000000 0.000000 0.000000 0.061736 0.000000 -0.027119
# 5 -0.002533 -0.002708 -0.000169 0.000000 0.026544 0.000000
# 6 0.000000 0.000000 0.000000 -0.027119 0.000000 0.059754
#
#
# Mechanical properties :
#
#
# Convention : Reuss Voigt Hill
#
# Bulk Modulus (GPa) = 12.73963 43.56948 28.15455
# Shear Modulus (GPa) = 14.19446 26.44741 20.32093
#
# Velocity S-wave (km/s) = 2.71804 3.71012 3.25213
# Velocity P-wave (km/s) = 4.05966 6.40544 5.36239
#
# Compressibility (1/GPa) = 0.07849524
#
# Stress axis : x y z
#
# Youngs Moduli (GPa) = 79.20490 9.75808 75.94035
#
# Poissons Ratio (x) = 0.16597 0.29406
# Poissons Ratio (y) = 1.34718 0.30435
# Poissons Ratio (z) = 0.30670 0.03911
#
# Static dielectric constant tensor:
#      x y z
#    x 3.708760 0.000000 -0.085310 
#    y 0.000000 2.913000 0.000000 
#    z -0.085310 0.000000 3.748530 
# 
# 
# High freq. dielectric constant tensor:
#      x y z
#    x 1.766170 0.000000 0.000580 
#    y 0.000000 1.689530 0.000000 
#    z 0.000580 0.000000 1.762490 
# 
# From -- ./inp_files/213387.got.cif
#   From: 2010.06.25/outbox.cif.g09.slc.cpg/sg12_107_cif.got.tgz:213387.got - 2010.06.28 00:19:55.
