data_PCOD8089295
_publ_section_title
;
Structure prediction by ZEFSAII (Michael W. Deem and Ramdas Pophale) SiO2 
 PCOD8089295
Probable space group: C 2/M
;
_chemical_formula_sum "Si O2"
_cell_formula_units_Z 64
_cell_length_a 18.454030
_cell_length_b 13.569359
_cell_length_c 14.859551
_cell_angle_alpha 90.000000
_cell_angle_beta 58.626239
_cell_angle_gamma 90.000000
_cell_volume 3176.924936
_symmetry_space_group_name_H-M "C 2/M"
_symmetry_group_IT_number 12
_symmetry_cell_setting 'monoclinic'
loop_
_space_group_symop_operation_xyz
x,y,z
-x,y,-z
-x,-y,-z
x,-y,z
1/2+x,1/2+y,z
1/2-x,1/2+y,-z
1/2-x,1/2-y,-z
1/2+x,1/2-y,z
loop_
_atom_site_type_symbol
_atom_site_label
_atom_site_fract_x
_atom_site_fract_y
_atom_site_fract_z
Si Si1 0.443099 0.184509 0.612391
Si Si2 0.031647 0.267121 0.212181
Si Si3 0.315100 0.116145 0.931269
Si Si4 0.829774 0.889300 0.846157
Si Si5 0.763429 0.384923 0.762669
Si Si6 0.271663 0.609646 0.529202
Si Si7 0.160682 0.222437 0.682587
Si Si8 0.614348 0.393012 0.376260
O O1 0.500000 0.131835 0.500000
O O2 0.478930 0.168437 0.689274
O O3 0.351548 0.136965 0.655414
O O4 0.449002 0.302450 0.592885
O O5 0.092639 0.334409 0.109556
O O6 0.081889 0.165424 0.192876
O O7 0.939258 0.240094 0.234423
O O8 0.276661 0.146577 0.858321
O O9 0.328150 0.000000 0.930014
O O10 0.249804 0.157008 0.048863
O O11 0.812903 0.883781 0.749250
O O12 0.842493 0.000000 0.873390
O O13 0.738096 0.500000 0.770915
O O14 0.695148 0.314748 0.757230
O O15 0.234057 0.500000 0.541467
O O16 0.197505 0.676617 0.618174
O O17 0.313518 0.640927 0.407641
O O18 0.347416 0.611653 0.550362
O O19 0.568138 0.500000 0.392672
#
# Coordination Sequence:
#
# PCOD8089295 Si02
#       8
#     8   8   8   8   8   8   8   8
#     4  10  19  33  52  78 109 142 182 234 272 326
#     4  10  21  33  54  83 112 141 182 233 280 325
#     4   9  19  38  61  84 109 144 189 235 282 331
#     4   9  18  34  59  84 109 140 183 232 281 331
#     4  10  21  37  56  78 110 152 190 226 277 336
#     4  10  21  36  56  77 108 152 187 219 270 332
#     4  11  22  37  55  80 115 153 184 229 276 337
#     4   9  17  32  54  81 106 139 179 223 274 327
#
# _framework density 20.145265999999999
#
# number of rings (size 3 to 8) (size 9 to 14) (size 15 to 20)
#    0.000    2.250    1.250    1.500    1.750    2.000 
#    0.000    3.125    0.000    2.250    0.000    3.500 
#    0.000    0.000    0.000    0.000    0.000    0.000 
#
# Total GULP energy -396456.816271 kJ/mol
# GULP energy per Si atom -12389.275508 kJ/mol
# Density = 2.009941 g / cm^3
# Si number density = 20.145266 Si / 1000 Ang^3
#
#
#
# Elastic Constant Matrix: (Units=GPa)
#
#
# Indices 1 2 3 4 5 6 
#
# 1 91.5726 18.9558 31.7254 0.0000 -17.3863 0.0000
# 2 18.9558 67.0567 17.5481 0.0000 -1.8002 0.0000
# 3 31.7254 17.5481 107.8302 0.0000 -17.1681 0.0000
# 4 0.0000 0.0000 0.0000 18.5421 0.0000 9.6731
# 5 -17.3863 -1.8002 -17.1681 0.0000 27.1124 0.0000
# 6 0.0000 0.0000 0.0000 9.6731 0.0000 9.1171
#
#
#
# Elastic Compliance Matrix: (Units=1/GPa)
#
#
# Indices 1 2 3 4 5 6 
#
# 1 0.013734 -0.003060 -0.002417 0.000000 0.007074 0.000000
# 2 -0.003060 0.016268 -0.002099 0.000000 -0.002211 0.000000
# 3 -0.002417 -0.002099 0.011185 0.000000 0.005394 0.000000
# 4 0.000000 0.000000 0.000000 0.120787 0.000000 -0.128154
# 5 0.007074 -0.002211 0.005394 0.000000 0.044688 0.000000
# 6 0.000000 0.000000 0.000000 -0.128154 0.000000 0.245654
#
#
# Mechanical properties :
#
#
# Convention : Reuss Voigt Hill
#
# Bulk Modulus (GPa) = 38.40920 44.76867 41.58894
# Shear Modulus (GPa) = 10.50098 24.16966 17.33532
#
# Velocity S-wave (km/s) = 2.28560 3.46753 2.93664
# Velocity P-wave (km/s) = 5.10615 6.18893 5.67343
#
# Compressibility (1/GPa) = 0.02603543
#
# Stress axis : x y z
#
# Youngs Moduli (GPa) = 72.81189 61.47135 89.40398
#
# Poissons Ratio (x) = 0.18811 0.21605
# Poissons Ratio (y) = 0.22281 0.18767
# Poissons Ratio (z) = 0.17595 0.12904
#
# Static dielectric constant tensor:
#      x y z
#    x 3.279110 0.000000 0.078580 
#    y 0.000000 3.963370 0.000000 
#    z 0.078580 0.000000 3.886380 
# 
# 
# High freq. dielectric constant tensor:
#      x y z
#    x 1.744550 0.000000 0.000280 
#    y 0.000000 1.799840 0.000000 
#    z 0.000280 0.000000 1.792900 
# 
# From -- ./inp_files/225257.got.cif
#   From: 2010.06.25/outbox.cif.g09.slc.cpg/sg12_113_cif.got.tgz:225257.got - 2010.06.28 00:19:55.
