data_PCOD8089787
_publ_section_title
;
Structure prediction by ZEFSAII (Michael W. Deem and Ramdas Pophale) SiO2 
 PCOD8089787
Probable space group: C 2/M
;
_chemical_formula_sum "Si O2"
_cell_formula_units_Z 56
_cell_length_a 15.288666
_cell_length_b 9.353564
_cell_length_c 24.708935
_cell_angle_alpha 90.000000
_cell_angle_beta 132.952661
_cell_angle_gamma 90.000000
_cell_volume 2586.202560
_symmetry_space_group_name_H-M "C 2/M"
_symmetry_group_IT_number 12
_symmetry_cell_setting 'monoclinic'
loop_
_space_group_symop_operation_xyz
x,y,z
-x,y,-z
-x,-y,-z
x,-y,z
1/2+x,1/2+y,z
1/2-x,1/2+y,-z
1/2-x,1/2-y,-z
1/2+x,1/2-y,z
loop_
_atom_site_type_symbol
_atom_site_label
_atom_site_fract_x
_atom_site_fract_y
_atom_site_fract_z
Si Si1 0.985920 0.663957 0.239040
Si Si2 0.253604 0.331335 0.153309
Si Si3 0.386971 0.660836 0.990727
Si Si4 0.970691 0.335217 0.867799
Si Si5 0.942091 0.657597 0.416298
Si Si6 0.644689 0.344620 0.476142
Si Si7 0.255040 0.154916 0.635967
O O1 0.942915 0.500000 0.227159
O O2 0.884561 0.766566 0.221271
O O3 0.024737 0.698234 0.193676
O O4 0.109223 0.695098 0.323956
O O5 0.263752 0.500000 0.147243
O O6 0.214969 0.253546 0.081398
O O7 0.160555 0.297362 0.162765
O O8 0.339350 0.500000 0.982975
O O9 0.500000 0.652933 0.000000
O O10 0.425273 0.739033 0.062010
O O11 0.999808 0.500000 0.893276
O O12 0.939088 0.500000 0.388768
O O13 0.807025 0.719081 0.355998
O O14 0.000000 0.647010 0.500000
O O15 0.021224 0.762737 0.412817
O O16 0.640749 0.500000 0.445489
O O17 0.750000 0.250000 0.500000
O O18 0.667048 0.367130 0.548736
O O19 0.259627 0.000000 0.669137
#
# Coordination Sequence:
#
# PCOD8089787 Si02
#       7
#     8   8   8   8   8   8   8
#     4  10  21  38  57  77 109 149 184 220 269 330
#     4  10  20  35  55  80 110 142 181 228 274 319
#     4   9  17  31  54  81 107 138 180 228 275 321
#     4   9  19  36  56  78 107 142 181 224 273 327
#     4   9  17  31  53  77 102 132 169 212 258 308
#     4  10  19  33  54  80 108 137 174 220 267 316
#     4   9  19  36  55  75 105 141 177 215 266 323
#
# _framework density 21.653369000000001
#
# number of rings (size 3 to 8) (size 9 to 14) (size 15 to 20)
#    0.000    2.571    0.000    1.714    0.000    6.286 
#    2.571    0.000    0.000    0.000    0.000    0.000 
#    0.000    0.000    0.000    0.000    0.000    0.000 
#
# Total GULP energy -347015.313730 kJ/mol
# GULP energy per Si atom -12393.404062 kJ/mol
# Density = 2.160408 g / cm^3
# Si number density = 21.653369 Si / 1000 Ang^3
#
#
#
# Elastic Constant Matrix: (Units=GPa)
#
#
# Indices 1 2 3 4 5 6 
#
# 1 62.9575 39.6328 0.6778 0.0000 23.0187 0.0000
# 2 39.6328 159.9885 15.8027 0.0000 29.4006 0.0000
# 3 0.6778 15.8027 36.3498 0.0000 26.3786 0.0000
# 4 0.0000 0.0000 0.0000 27.3668 0.0000 12.6493
# 5 23.0187 29.4006 26.3786 0.0000 35.9067 0.0000
# 6 0.0000 0.0000 0.0000 12.6493 0.0000 34.3198
#
#
#
# Elastic Compliance Matrix: (Units=1/GPa)
#
#
# Indices 1 2 3 4 5 6 
#
# 1 0.032321 -0.003678 0.029659 0.000000 -0.039497 0.000000
# 2 -0.003678 0.007885 -0.000825 0.000000 -0.003492 0.000000
# 3 0.029659 -0.000825 0.087011 0.000000 -0.082260 0.000000
# 4 0.000000 0.000000 0.000000 0.044044 0.000000 -0.016233
# 5 -0.039497 -0.003492 -0.082260 0.000000 0.116461 0.000000
# 6 0.000000 0.000000 0.000000 -0.016233 0.000000 0.035121
#
#
# Mechanical properties :
#
#
# Convention : Reuss Voigt Hill
#
# Bulk Modulus (GPa) = 5.63291 41.28028 23.45659
# Shear Modulus (GPa) = 15.07356 33.06415 24.06886
#
# Velocity S-wave (km/s) = 2.64129 3.91189 3.33761
# Velocity P-wave (km/s) = 3.45093 6.28565 5.07042
#
# Compressibility (1/GPa) = 0.17752807
#
# Stress axis : x y z
#
# Youngs Moduli (GPa) = 30.93993 126.82635 11.49281
#
# Poissons Ratio (x) = 0.46645 -0.34086
# Poissons Ratio (y) = 0.11379 0.00948
# Poissons Ratio (z) = -0.91764 0.10463
#
# Static dielectric constant tensor:
#      x y z
#    x 4.011110 0.000000 -0.116950 
#    y 0.000000 4.286900 0.000000 
#    z -0.116950 0.000000 4.227110 
# 
# 
# High freq. dielectric constant tensor:
#      x y z
#    x 1.832880 0.000000 0.022140 
#    y 0.000000 1.859770 0.000000 
#    z 0.022140 0.000000 1.829310 
# 
# From -- ./inp_files/377721.got.cif
#   From: 2010.06.25/outbox.cif.g09.slc.cpg/sg12_189_cif.got.tgz:377721.got - 2010.06.28 00:19:55.
