data_PCOD8089550
_publ_section_title
;
Structure prediction by ZEFSAII (Michael W. Deem and Ramdas Pophale) SiO2 
 PCOD8089550
Probable space group: C 2/M
;
_chemical_formula_sum "Si O2"
_cell_formula_units_Z 56
_cell_length_a 29.945061
_cell_length_b 8.625988
_cell_length_c 16.762214
_cell_angle_alpha 90.000000
_cell_angle_beta 133.911549
_cell_angle_gamma 90.000000
_cell_volume 3119.219712
_symmetry_space_group_name_H-M "C 2/M"
_symmetry_group_IT_number 12
_symmetry_cell_setting 'monoclinic'
loop_
_space_group_symop_operation_xyz
x,y,z
-x,y,-z
-x,-y,-z
x,-y,z
1/2+x,1/2+y,z
1/2-x,1/2+y,-z
1/2-x,1/2-y,-z
1/2+x,1/2-y,z
loop_
_atom_site_type_symbol
_atom_site_label
_atom_site_fract_x
_atom_site_fract_y
_atom_site_fract_z
Si Si1 0.131504 0.182261 0.371621
Si Si2 0.531236 0.681558 0.651177
Si Si3 0.913417 0.679449 0.426159
Si Si4 0.944061 0.682436 0.984204
Si Si5 0.673349 0.181131 0.261934
Si Si6 0.990407 0.817431 0.198853
Si Si7 0.300815 0.179501 0.394170
O O1 0.167254 0.219952 0.334703
O O2 0.164048 0.275484 0.481994
O O3 0.060928 0.242524 0.277124
O O4 0.135258 0.000000 0.394732
O O5 0.543098 0.500000 0.656394
O O6 0.582025 0.773300 0.661391
O O7 0.461797 0.718282 0.536019
O O8 0.537580 0.734827 0.750765
O O9 0.931103 0.500000 0.459054
O O10 0.844623 0.713722 0.372525
O O11 0.950462 0.500000 0.997141
O O12 0.879151 0.733964 0.865483
O O13 0.947030 0.747360 0.077064
O O14 0.000000 0.751786 0.000000
O O15 0.739637 0.218110 0.305331
O O16 0.667480 0.000000 0.275011
O O17 0.990090 0.000000 0.190268
O O18 0.282244 0.000000 0.375734
#
# Coordination Sequence:
#
# PCOD8089550 Si02
#       7
#     8   8   8   8   8   8   8
#     4  11  21  35  54  79 111 145 180 216 263 319
#     4  10  19  33  53  80 110 139 174 216 266 318
#     4  10  20  33  52  79 108 140 177 216 265 318
#     4  10  21  37  56  78 105 139 180 224 267 312
#     4  11  23  38  55  77 107 144 184 222 266 318
#     4  10  21  34  54  82 110 141 176 217 266 315
#     4  11  23  37  54  78 110 146 181 220 266 318
#
# _framework density 17.953208
#
# number of rings (size 3 to 8) (size 9 to 14) (size 15 to 20)
#    0.000    1.571    2.857    3.429    0.000    4.857 
#    0.000    0.000    0.000    0.857    0.000    0.000 
#    0.000    0.000    0.000    0.000    0.000    0.000 
#
# Total GULP energy -347301.563389 kJ/mol
# GULP energy per Si atom -12403.627264 kJ/mol
# Density = 1.791235 g / cm^3
# Si number density = 17.953208 Si / 1000 Ang^3
#
#
#
# Elastic Constant Matrix: (Units=GPa)
#
#
# Indices 1 2 3 4 5 6 
#
# 1 128.8090 26.6013 57.4805 0.0000 -6.9617 0.0000
# 2 26.6013 33.6830 18.6989 0.0000 -2.0597 0.0000
# 3 57.4805 18.6989 90.0926 0.0000 -1.0580 0.0000
# 4 0.0000 0.0000 0.0000 28.0350 0.0000 -2.0807
# 5 -6.9617 -2.0597 -1.0580 0.0000 28.8393 0.0000
# 6 0.0000 0.0000 0.0000 -2.0807 0.0000 30.2723
#
#
#
# Elastic Compliance Matrix: (Units=1/GPa)
#
#
# Indices 1 2 3 4 5 6 
#
# 1 0.011918 -0.005729 -0.006389 0.000000 0.002233 0.000000
# 2 -0.005729 0.036442 -0.003896 0.000000 0.001077 0.000000
# 3 -0.006389 -0.003896 0.015970 0.000000 -0.001235 0.000000
# 4 0.000000 0.000000 0.000000 0.035853 0.000000 0.002464
# 5 0.002233 0.001077 -0.001235 0.000000 0.035246 0.000000
# 6 0.000000 0.000000 0.000000 0.002464 0.000000 0.033203
#
#
# Mechanical properties :
#
#
# Convention : Reuss Voigt Hill
#
# Bulk Modulus (GPa) = 30.95708 50.90509 40.93108
# Shear Modulus (GPa) = 23.64898 27.41625 25.53261
#
# Velocity S-wave (km/s) = 3.63334 3.91205 3.77527
# Velocity P-wave (km/s) = 5.90611 6.98723 6.46929
#
# Compressibility (1/GPa) = 0.03230279
#
# Stress axis : x y z
#
# Youngs Moduli (GPa) = 83.90484 27.44104 62.61819
#
# Poissons Ratio (x) = 0.15722 0.40005
# Poissons Ratio (y) = 0.48071 0.24393
# Poissons Ratio (z) = 0.53604 0.10690
#
# Static dielectric constant tensor:
#      x y z
#    x 3.608370 0.000000 -0.080990 
#    y 0.000000 3.283010 0.000000 
#    z -0.080990 0.000000 3.249080 
# 
# 
# High freq. dielectric constant tensor:
#      x y z
#    x 1.699240 0.000000 -0.006040 
#    y 0.000000 1.701830 0.000000 
#    z -0.006040 0.000000 1.672590 
# 
# From -- ./inp_files/295183.got.cif
#   From: 2010.06.25/outbox.cif.g09.slc.cpg/sg12_148_cif.got.tgz:295183.got - 2010.06.28 00:19:55.
