data_PCOD8089114
_publ_section_title
;
Structure prediction by ZEFSAII (Michael W. Deem and Ramdas Pophale) SiO2 
 PCOD8089114
Probable space group: C 2/M
;
_chemical_formula_sum "Si O2"
_cell_formula_units_Z 64
_cell_length_a 23.299522
_cell_length_b 8.424530
_cell_length_c 18.086967
_cell_angle_alpha 90.000000
_cell_angle_beta 88.427920
_cell_angle_gamma 90.000000
_cell_volume 3548.909630
_symmetry_space_group_name_H-M "C 2/M"
_symmetry_group_IT_number 12
_symmetry_cell_setting 'monoclinic'
loop_
_space_group_symop_operation_xyz
x,y,z
-x,y,-z
-x,-y,-z
x,-y,z
1/2+x,1/2+y,z
1/2-x,1/2+y,-z
1/2-x,1/2-y,-z
1/2+x,1/2-y,z
loop_
_atom_site_type_symbol
_atom_site_label
_atom_site_fract_x
_atom_site_fract_y
_atom_site_fract_z
Si Si1 0.686343 0.315436 0.002883
Si Si2 0.116229 0.313572 0.871725
Si Si3 0.320256 0.179203 0.577545
Si Si4 0.302120 0.815528 0.422119
Si Si5 0.881278 0.317700 0.863853
Si Si6 0.996875 0.814999 0.915147
Si Si7 0.805455 0.315583 0.261187
Si Si8 0.825155 0.183808 0.727755
O O1 0.685502 0.500000 0.981675
O O2 0.648650 0.216308 0.946991
O O3 0.750000 0.250000 0.000000
O O4 0.659395 0.292455 0.084619
O O5 0.104355 0.500000 0.863008
O O6 0.154173 0.239911 0.803228
O O7 0.056411 0.220834 0.872351
O O8 0.343158 0.217906 0.492531
O O9 0.251901 0.198851 0.572899
O O10 0.345350 0.290122 0.641632
O O11 0.335535 0.000000 0.599063
O O12 0.333071 0.783602 0.341804
O O13 0.281180 0.000000 0.424283
O O14 0.868418 0.500000 0.882516
O O15 0.947831 0.282232 0.875303
O O16 0.867099 0.281671 0.779167
O O17 0.982035 0.000000 0.911172
O O18 0.000000 0.758369 0.000000
O O19 0.801787 0.500000 0.243372
O O20 0.740050 0.250200 0.260060
O O21 0.830173 0.000000 0.747064
#
# Coordination Sequence:
#
# PCOD8089114 Si02
#       8
#     8   8   8   8   8   8   8   8
#     4  12  24  38  54  76 106 140 173 208 256 311
#     4  11  21  35  56  79 102 132 174 221 262 306
#     4   9  15  24  42  69 100 135 176 213 246 296
#     4   8  14  26  43  65  99 140 174 207 252 303
#     4  12  24  38  57  79 101 130 173 220 263 309
#     4  11  23  40  59  76  99 133 171 215 264 317
#     4   8  16  30  49  74 104 138 171 206 253 304
#     4  10  19  33  51  73 108 144 171 206 258 315
#
# _framework density 18.033708000000001
#
# number of rings (size 3 to 8) (size 9 to 14) (size 15 to 20)
#    0.000    1.875    1.250    5.250    0.000    2.000 
#    0.000    5.625    0.000    0.000    0.000    0.875 
#    0.000    7.000    0.000    0.000    0.000    0.000 
#
# Total GULP energy -396665.920511 kJ/mol
# GULP energy per Si atom -12395.810016 kJ/mol
# Density = 1.799266 g / cm^3
# Si number density = 18.033708 Si / 1000 Ang^3
#
#
#
# Elastic Constant Matrix: (Units=GPa)
#
#
# Indices 1 2 3 4 5 6 
#
# 1 81.0702 15.9976 38.9758 0.0000 10.6611 0.0000
# 2 15.9976 51.1346 22.8531 0.0000 -1.2258 0.0000
# 3 38.9758 22.8531 127.8640 0.0000 17.3702 0.0000
# 4 0.0000 0.0000 0.0000 24.6228 0.0000 1.6293
# 5 10.6611 -1.2258 17.3702 0.0000 10.9255 0.0000
# 6 0.0000 0.0000 0.0000 1.6293 0.0000 22.1592
#
#
#
# Elastic Compliance Matrix: (Units=1/GPa)
#
#
# Indices 1 2 3 4 5 6 
#
# 1 0.015935 -0.004172 -0.002469 0.000000 -0.012092 0.000000
# 2 -0.004172 0.023383 -0.004869 0.000000 0.014435 0.000000
# 3 -0.002469 -0.004869 0.011722 0.000000 -0.016774 0.000000
# 4 0.000000 0.000000 0.000000 0.040811 0.000000 -0.003001
# 5 -0.012092 0.014435 -0.016774 0.000000 0.131617 0.000000
# 6 0.000000 0.000000 0.000000 -0.003001 0.000000 0.045349
#
#
# Mechanical properties :
#
#
# Convention : Reuss Voigt Hill
#
# Bulk Modulus (GPa) = 35.68623 46.19133 40.93878
# Shear Modulus (GPa) = 16.60147 23.69098 20.14623
#
# Velocity S-wave (km/s) = 3.03740 3.62844 3.34599
# Velocity P-wave (km/s) = 5.66857 6.57446 6.13825
#
# Compressibility (1/GPa) = 0.02802202
#
# Stress axis : x y z
#
# Youngs Moduli (GPa) = 62.75300 42.76549 85.30723
#
# Poissons Ratio (x) = 0.17841 0.21063
# Poissons Ratio (y) = 0.26180 0.41533
# Poissons Ratio (z) = 0.15495 0.20821
#
# Static dielectric constant tensor:
#      x y z
#    x 2.928170 0.000000 -0.042210 
#    y 0.000000 3.206940 0.000000 
#    z -0.042210 0.000000 3.754300 
# 
# 
# High freq. dielectric constant tensor:
#      x y z
#    x 1.647860 0.000000 0.006570 
#    y 0.000000 1.698270 0.000000 
#    z 0.006570 0.000000 1.714170 
# 
# From -- ./inp_files/281361.got.cif
#   From: 2010.06.25/outbox.cif.g09.slc.cpg/sg12_141_cif.got.tgz:281361.got - 2010.06.28 00:19:55.
