data_PCOD8089004
_publ_section_title
;
Structure prediction by ZEFSAII (Michael W. Deem and Ramdas Pophale) SiO2 
 PCOD8089004
Probable space group: C 2/M
;
_chemical_formula_sum "Si O2"
_cell_formula_units_Z 48
_cell_length_a 20.331863
_cell_length_b 8.931756
_cell_length_c 14.014366
_cell_angle_alpha 90.000000
_cell_angle_beta 89.499510
_cell_angle_gamma 90.000000
_cell_volume 2544.901110
_symmetry_space_group_name_H-M "C 2/M"
_symmetry_group_IT_number 12
_symmetry_cell_setting 'monoclinic'
loop_
_space_group_symop_operation_xyz
x,y,z
-x,y,-z
-x,-y,-z
x,-y,z
1/2+x,1/2+y,z
1/2-x,1/2+y,-z
1/2-x,1/2-y,-z
1/2+x,1/2-y,z
loop_
_atom_site_type_symbol
_atom_site_label
_atom_site_fract_x
_atom_site_fract_y
_atom_site_fract_z
Si Si1 0.642594 0.322268 0.256290
Si Si2 0.314126 0.677053 0.955959
Si Si3 0.436175 0.833128 0.437039
Si Si4 0.059094 0.821732 0.936493
Si Si5 0.309660 0.177879 0.556278
Si Si6 0.992588 0.823582 0.260824
O O1 0.645145 0.500000 0.271257
O O2 0.673252 0.275889 0.153929
O O3 0.686426 0.243529 0.336959
O O4 0.567353 0.261163 0.263552
O O5 0.307992 0.500000 0.963412
O O6 0.250000 0.750000 0.000000
O O7 0.373097 0.739202 0.021103
O O8 0.500000 0.833086 0.500000
O O9 0.375429 0.773902 0.499686
O O10 0.448012 0.722339 0.349946
O O11 0.421897 0.000000 0.398212
O O12 0.046878 0.761510 0.830059
O O13 0.059085 0.000000 0.940242
O O14 0.000000 0.757056 0.000000
O O15 0.250000 0.250000 0.500000
O O16 0.301042 0.000000 0.562289
O O17 0.997854 0.000000 0.255444
#
# Coordination Sequence:
#
# PCOD8089004 Si02
#       6
#     8   8   8   8   8   8
#     4  10  20  36  59  86 115 151 192 239 292 342
#     4  10  21  37  58  84 118 154 191 236 287 342
#     4  10  21  38  57  81 114 149 184 231 292 343
#     4   9  16  32  57  83 109 143 188 234 277 323
#     4  11  24  41  61  84 116 155 192 236 288 348
#     4  10  19  32  59  91 113 144 195 243 279 331
#
# _framework density 18.861243000000002
#
# number of rings (size 3 to 8) (size 9 to 14) (size 15 to 20)
#    0.000    2.000    3.333    0.500    0.000    3.667 
#    0.000    4.167    0.000    1.000    0.000    0.000 
#    0.000    0.000    0.000    0.000    0.000    0.000 
#
# Total GULP energy -297579.622682 kJ/mol
# GULP energy per Si atom -12399.150945 kJ/mol
# Density = 1.881831 g / cm^3
# Si number density = 18.861243 Si / 1000 Ang^3
#
#
#
# Elastic Constant Matrix: (Units=GPa)
#
#
# Indices 1 2 3 4 5 6 
#
# 1 143.3958 32.4899 72.1084 0.0000 6.4740 0.0000
# 2 32.4899 34.2937 39.3107 0.0000 3.9702 0.0000
# 3 72.1084 39.3107 155.6272 0.0000 10.0149 0.0000
# 4 0.0000 0.0000 0.0000 19.5104 0.0000 -1.8184
# 5 6.4740 3.9702 10.0149 0.0000 38.5078 0.0000
# 6 0.0000 0.0000 0.0000 -1.8184 0.0000 27.7240
#
#
#
# Elastic Compliance Matrix: (Units=1/GPa)
#
#
# Indices 1 2 3 4 5 6 
#
# 1 0.009843 -0.005752 -0.003091 0.000000 -0.000258 0.000000
# 2 -0.005752 0.044498 -0.008484 0.000000 -0.001414 0.000000
# 3 -0.003091 -0.008484 0.010080 0.000000 -0.001227 0.000000
# 4 0.000000 0.000000 0.000000 0.051570 0.000000 0.003382
# 5 -0.000258 -0.001414 -0.001227 0.000000 0.026477 0.000000
# 6 0.000000 0.000000 0.000000 0.003382 0.000000 0.036292
#
#
# Mechanical properties :
#
#
# Convention : Reuss Voigt Hill
#
# Bulk Modulus (GPa) = 33.59436 69.01497 51.30467
# Shear Modulus (GPa) = 22.38776 29.77562 26.08169
#
# Velocity S-wave (km/s) = 3.44898 3.97755 3.72266
# Velocity P-wave (km/s) = 5.80609 7.60032 6.76297
#
# Compressibility (1/GPa) = 0.02976690
#
# Stress axis : x y z
#
# Youngs Moduli (GPa) = 101.59458 22.47279 99.20830
#
# Poissons Ratio (x) = 0.12927 0.30667
# Poissons Ratio (y) = 0.58438 0.84167
# Poissons Ratio (z) = 0.31404 0.19066
#
# Static dielectric constant tensor:
#      x y z
#    x 3.566330 0.000000 0.140890 
#    y 0.000000 3.195780 0.000000 
#    z 0.140890 0.000000 3.585400 
# 
# 
# High freq. dielectric constant tensor:
#      x y z
#    x 1.736850 0.000000 0.003140 
#    y 0.000000 1.705230 0.000000 
#    z 0.003140 0.000000 1.747300 
# 
# From -- ./inp_files/221607.got.cif
#   From: 2010.06.25/outbox.cif.g09.slc.cpg/sg12_111_cif.got.tgz:221607.got - 2010.06.28 00:19:55.
