data_PCOD8089483
_publ_section_title
;
Structure prediction by ZEFSAII (Michael W. Deem and Ramdas Pophale) SiO2 
 PCOD8089483
Probable space group: C 2/M
;
_chemical_formula_sum "Si O2"
_cell_formula_units_Z 64
_cell_length_a 15.368167
_cell_length_b 8.960861
_cell_length_c 28.589387
_cell_angle_alpha 90.000000
_cell_angle_beta 57.672395
_cell_angle_gamma 90.000000
_cell_volume 3326.867977
_symmetry_space_group_name_H-M "C 2/M"
_symmetry_group_IT_number 12
_symmetry_cell_setting 'monoclinic'
loop_
_space_group_symop_operation_xyz
x,y,z
-x,y,-z
-x,-y,-z
x,-y,z
1/2+x,1/2+y,z
1/2-x,1/2+y,-z
1/2-x,1/2-y,-z
1/2+x,1/2-y,z
loop_
_atom_site_type_symbol
_atom_site_label
_atom_site_fract_x
_atom_site_fract_y
_atom_site_fract_z
Si Si1 0.331976 0.322332 0.941878
Si Si2 0.888385 0.323214 0.740930
Si Si3 0.327513 0.832506 0.444275
Si Si4 0.882525 0.674753 0.329478
Si Si5 0.535289 0.830937 0.439655
Si Si6 0.811987 0.826550 0.669722
Si Si7 0.970125 0.823696 0.059042
Si Si8 0.262381 0.177219 0.867224
O O1 0.318122 0.500000 0.946519
O O2 0.446486 0.274309 0.926077
O O3 0.316352 0.259223 0.894776
O O4 0.250000 0.250000 0.000000
O O5 0.887646 0.500000 0.737779
O O6 0.838006 0.263121 0.708415
O O7 0.822037 0.269110 0.804005
O O8 0.004278 0.258866 0.713628
O O9 0.250000 0.750000 0.500000
O O10 0.333458 0.756095 0.391176
O O11 0.442126 0.827174 0.430657
O O12 0.285470 0.000000 0.452936
O O13 0.895290 0.500000 0.335707
O O14 0.808168 0.705170 0.306999
O O15 0.500000 0.766712 0.500000
O O16 0.624237 0.726881 0.393667
O O17 0.577199 0.000000 0.433658
O O18 0.833930 0.000000 0.671676
O O19 0.855645 0.768658 0.105249
O O20 0.970088 0.000000 0.054807
O O21 0.000000 0.754287 0.000000
O O22 0.269532 0.000000 0.873330
#
# Coordination Sequence:
#
# PCOD8089483 Si02
#       8
#     8   8   8   8   8   8   8   8
#     4  11  21  35  58  85 119 155 189 235 284 335
#     4  10  21  41  63  80 111 155 196 230 275 345
#     4  10  19  33  53  77 110 144 180 225 281 340
#     4   9  19  37  57  78 110 151 182 226 290 336
#     4  10  20  35  56  82 113 148 187 232 281 338
#     4  11  22  36  58  84 112 146 188 236 287 336
#     4   9  17  33  56  82 117 153 184 228 286 337
#     4  10  21  38  61  86 111 152 198 231 277 341
#
# _framework density 19.237314000000001
#
# number of rings (size 3 to 8) (size 9 to 14) (size 15 to 20)
#    0.000    2.000    2.500    1.500    0.000    2.250 
#    0.000    3.750    0.000    0.000    0.000    0.000 
#    0.000    0.000    0.000    0.000    0.000    0.000 
#
# Total GULP energy -396773.174545 kJ/mol
# GULP energy per Si atom -12399.161705 kJ/mol
# Density = 1.919353 g / cm^3
# Si number density = 19.237314 Si / 1000 Ang^3
#
#
#
# Elastic Constant Matrix: (Units=GPa)
#
#
# Indices 1 2 3 4 5 6 
#
# 1 140.1132 23.3674 74.4188 0.0001 -3.8397 0.0001
# 2 23.3674 31.7017 29.9589 0.0001 -2.7642 0.0001
# 3 74.4188 29.9589 162.0139 0.0000 -6.2870 0.0000
# 4 0.0001 0.0001 0.0000 23.3731 0.0000 7.8173
# 5 -3.8397 -2.7642 -6.2870 0.0000 33.4580 0.0000
# 6 0.0001 0.0001 0.0000 7.8173 0.0000 25.3733
#
#
#
# Elastic Compliance Matrix: (Units=1/GPa)
#
#
# Indices 1 2 3 4 5 6 
#
# 1 0.009766 -0.003579 -0.003820 0.000000 0.000107 0.000000
# 2 -0.003579 0.039649 -0.005617 0.000000 0.001809 0.000000
# 3 -0.003820 -0.005617 0.008996 0.000000 0.000788 0.000000
# 4 0.000000 0.000000 0.000000 0.047699 0.000000 -0.014696
# 5 0.000107 0.001809 0.000788 0.000000 0.030198 0.000000
# 6 0.000000 0.000000 0.000000 -0.014696 0.000000 0.043939
#
#
# Mechanical properties :
#
#
# Convention : Reuss Voigt Hill
#
# Bulk Modulus (GPa) = 30.88534 65.47990 48.18262
# Shear Modulus (GPa) = 23.03380 30.17981 26.60680
#
# Velocity S-wave (km/s) = 3.46403 3.96513 3.72302
# Velocity P-wave (km/s) = 5.66472 7.42124 6.60166
#
# Compressibility (1/GPa) = 0.03237782
#
# Stress axis : x y z
#
# Youngs Moduli (GPa) = 102.39873 25.22157 111.15854
#
# Poissons Ratio (x) = 0.09027 0.42460
# Poissons Ratio (y) = 0.36651 0.62441
# Poissons Ratio (z) = 0.39114 0.14168
#
# Static dielectric constant tensor:
#      x y z
#    x 3.946810 0.000000 -0.216640 
#    y 0.000000 3.296460 0.000000 
#    z -0.216640 0.000000 3.804460 
# 
# 
# High freq. dielectric constant tensor:
#      x y z
#    x 1.763770 0.000000 0.000460 
#    y 0.000000 1.717740 0.000000 
#    z 0.000460 0.000000 1.751300 
# 
# From -- ./inp_files/374998.got.cif
#   From: 2010.06.25/outbox.cif.g09.slc.cpg/sg12_188_cif.got.tgz:374998.got - 2010.06.28 00:19:55.
