data_PCOD8089689
_publ_section_title
;
Structure prediction by ZEFSAII (Michael W. Deem and Ramdas Pophale) SiO2 
 PCOD8089689
Probable space group: C 2/M
;
_chemical_formula_sum "Si O2"
_cell_formula_units_Z 56
_cell_length_a 29.605271
_cell_length_b 8.657641
_cell_length_c 16.854590
_cell_angle_alpha 90.000000
_cell_angle_beta 46.167132
_cell_angle_gamma 90.000000
_cell_volume 3116.310367
_symmetry_space_group_name_H-M "C 2/M"
_symmetry_group_IT_number 12
_symmetry_cell_setting 'monoclinic'
loop_
_space_group_symop_operation_xyz
x,y,z
-x,y,-z
-x,-y,-z
x,-y,z
1/2+x,1/2+y,z
1/2-x,1/2+y,-z
1/2-x,1/2-y,-z
1/2+x,1/2-y,z
loop_
_atom_site_type_symbol
_atom_site_label
_atom_site_fract_x
_atom_site_fract_y
_atom_site_fract_z
Si Si1 0.485908 0.318441 0.787779
Si Si2 0.662390 0.819676 0.766256
Si Si3 0.462358 0.818964 0.656074
Si Si4 0.446511 0.317547 0.007172
Si Si5 0.195914 0.820822 0.416253
Si Si6 0.414915 0.320769 0.562972
Si Si7 0.881161 0.319760 0.355240
O O1 0.476821 0.500000 0.789447
O O2 0.448360 0.234914 0.762692
O O3 0.559194 0.280481 0.692755
O O4 0.458199 0.254576 0.904228
O O5 0.621903 0.731690 0.881168
O O6 0.734147 0.770238 0.691945
O O7 0.640599 0.769450 0.705455
O O8 0.652692 0.000000 0.791236
O O9 0.533654 0.776868 0.547346
O O10 0.414138 0.733290 0.655466
O O11 0.452082 0.000000 0.660604
O O12 0.451900 0.500000 0.000439
O O13 0.500000 0.247111 0.000000
O O14 0.152829 0.788659 0.392114
O O15 0.174618 0.718622 0.516546
O O16 0.194036 0.000000 0.444126
O O17 0.433515 0.500000 0.534602
O O18 0.897983 0.500000 0.339229
#
# Coordination Sequence:
#
# PCOD8089689 Si02
#       7
#     8   8   8   8   8   8   8
#     4  11  21  35  55  77 108 142 178 220 268 321
#     4  10  22  37  53  78 110 145 182 220 266 313
#     4  11  21  33  52  80 110 135 174 223 271 317
#     4  10  21  37  56  78 103 140 185 225 265 312
#     4  10  21  36  54  77 110 148 180 214 261 323
#     4  10  19  33  54  77 107 144 178 211 265 323
#     4  11  21  32  51  80 111 143 179 218 263 313
#
# _framework density 17.969968999999999
#
# number of rings (size 3 to 8) (size 9 to 14) (size 15 to 20)
#    0.000    1.571    2.857    3.857    0.000    3.143 
#    0.000    0.000    0.000    0.857    0.000    0.000 
#    0.000    0.000    0.000    0.000    0.000    0.000 
#
# Total GULP energy -347312.705739 kJ/mol
# GULP energy per Si atom -12404.025205 kJ/mol
# Density = 1.792907 g / cm^3
# Si number density = 17.969969 Si / 1000 Ang^3
#
#
#
# Elastic Constant Matrix: (Units=GPa)
#
#
# Indices 1 2 3 4 5 6 
#
# 1 79.8284 13.4458 47.4255 -0.0001 13.9199 0.0000
# 2 13.4458 43.1709 18.2514 -0.0003 7.2996 -0.0001
# 3 47.4255 18.2514 115.4504 0.0000 12.5434 0.0000
# 4 -0.0001 -0.0003 0.0000 28.5282 0.0001 0.0390
# 5 13.9199 7.2996 12.5434 0.0001 32.8647 0.0000
# 6 0.0000 -0.0001 0.0000 0.0390 0.0000 22.6469
#
#
#
# Elastic Compliance Matrix: (Units=1/GPa)
#
#
# Indices 1 2 3 4 5 6 
#
# 1 0.017422 -0.001977 -0.006354 0.000000 -0.004515 0.000000
# 2 -0.001977 0.025613 -0.002827 0.000000 -0.003773 0.000000
# 3 -0.006354 -0.002827 0.011849 0.000000 -0.001204 0.000000
# 4 0.000000 0.000000 0.000000 0.035053 0.000000 -0.000060
# 5 -0.004515 -0.003773 -0.001204 0.000000 0.033637 0.000000
# 6 0.000000 0.000000 0.000000 -0.000060 0.000000 0.044156
#
#
# Mechanical properties :
#
#
# Convention : Reuss Voigt Hill
#
# Bulk Modulus (GPa) = 30.70412 44.07723 37.39067
# Shear Modulus (GPa) = 24.88782 27.42976 26.15879
#
# Velocity S-wave (km/s) = 3.72555 3.91118 3.81950
# Velocity P-wave (km/s) = 5.96907 6.70656 6.34853
#
# Compressibility (1/GPa) = 0.03256892
#
# Stress axis : x y z
#
# Youngs Moduli (GPa) = 57.39968 39.04341 84.39247
#
# Poissons Ratio (x) = 0.07717 0.53619
# Poissons Ratio (y) = 0.11345 0.23860
# Poissons Ratio (z) = 0.36469 0.11038
#
# Static dielectric constant tensor:
#      x y z
#    x 3.470260 0.000000 0.236010 
#    y 0.000000 3.265190 0.000000 
#    z 0.236010 0.000000 3.293180 
# 
# 
# High freq. dielectric constant tensor:
#      x y z
#    x 1.693210 0.000000 0.017760 
#    y 0.000000 1.698500 0.000000 
#    z 0.017760 0.000000 1.679460 
# 
# From -- ./inp_files/248894.got.cif
#   From: 2010.06.25/outbox.cif.g09.slc.cpg/sg12_125_cif.got.tgz:248894.got - 2010.06.28 00:19:55.
