data_PCOD8089418
_publ_section_title
;
Structure prediction by ZEFSAII (Michael W. Deem and Ramdas Pophale) SiO2 
 PCOD8089418
Probable space group: C 2/M
;
_chemical_formula_sum "Si O2"
_cell_formula_units_Z 48
_cell_length_a 20.101647
_cell_length_b 9.632386
_cell_length_c 24.556965
_cell_angle_alpha 90.000000
_cell_angle_beta 145.364454
_cell_angle_gamma 90.000000
_cell_volume 2702.460565
_symmetry_space_group_name_H-M "C 2/M"
_symmetry_group_IT_number 12
_symmetry_cell_setting 'monoclinic'
loop_
_space_group_symop_operation_xyz
x,y,z
-x,y,-z
-x,-y,-z
x,-y,z
1/2+x,1/2+y,z
1/2-x,1/2+y,-z
1/2-x,1/2-y,-z
1/2+x,1/2-y,z
loop_
_atom_site_type_symbol
_atom_site_label
_atom_site_fract_x
_atom_site_fract_y
_atom_site_fract_z
Si Si1 0.742223 0.338263 0.413137
Si Si2 0.416957 0.340025 0.591717
Si Si3 0.854475 0.158484 0.091505
Si Si4 0.600006 0.664490 0.215283
Si Si5 0.330160 0.656733 0.201822
Si Si6 0.375253 0.336325 0.890951
O O1 0.775024 0.500000 0.433591
O O2 0.641195 0.307463 0.389090
O O3 0.859403 0.253885 0.506149
O O4 0.696470 0.283772 0.323705
O O5 0.396831 0.500000 0.562758
O O6 0.554456 0.303620 0.686005
O O7 0.866687 0.168507 0.164079
O O8 0.972065 0.222065 0.144355
O O9 0.833698 0.000000 0.058696
O O10 0.750000 0.250000 0.000000
O O11 0.592657 0.500000 0.214111
O O12 0.633226 0.714382 0.177229
O O13 0.289696 0.500000 0.188379
O O14 0.225690 0.761303 0.143570
O O15 0.355221 0.500000 0.882849
O O16 0.500000 0.293435 0.000000
#
# Coordination Sequence:
#
# PCOD8089418 Si02
#       6
#     8   8   8   8   8   8
#     4   9  16  30  53  77 100 132 170 209 255 305
#     4   9  17  31  51  77 105 132 164 208 260 307
#     4  10  19  33  53  76 101 131 170 215 258 303
#     4   9  17  33  54  74 101 136 172 210 257 305
#     4  10  20  35  54  76 105 139 170 206 261 316
#     4  10  21  36  54  76 103 138 177 216 254 298
#
# _framework density 17.761590999999999
#
# number of rings (size 3 to 8) (size 9 to 14) (size 15 to 20)
#    0.000    2.500    1.667    1.000    0.000    3.000 
#    0.000    3.333    0.000    5.000    0.000    0.000 
#    0.000    0.000    0.000    0.000    0.000    0.000 
#
# Total GULP energy -297602.578021 kJ/mol
# GULP energy per Si atom -12400.107418 kJ/mol
# Density = 1.772116 g / cm^3
# Si number density = 17.761591 Si / 1000 Ang^3
#
#
#
# Elastic Constant Matrix: (Units=GPa)
#
#
# Indices 1 2 3 4 5 6 
#
# 1 43.3133 16.6463 13.5164 0.0001 2.0865 0.0000
# 2 16.6463 49.7483 43.5169 -0.0002 4.8755 0.0000
# 3 13.5164 43.5169 112.2959 -0.0006 -3.8029 0.0000
# 4 0.0001 -0.0002 -0.0006 33.8014 -0.0001 2.4253
# 5 2.0865 4.8755 -3.8029 -0.0001 32.6561 0.0000
# 6 0.0000 0.0000 0.0000 2.4253 0.0000 23.2574
#
#
#
# Elastic Compliance Matrix: (Units=1/GPa)
#
#
# Indices 1 2 3 4 5 6 
#
# 1 0.026508 -0.009140 0.000342 0.000000 -0.000289 0.000000
# 2 -0.009140 0.034752 -0.012572 0.000000 -0.006068 0.000000
# 3 0.000342 -0.012572 0.013853 0.000000 0.003468 0.000000
# 4 0.000000 0.000000 0.000000 0.029808 0.000000 -0.003108
# 5 -0.000289 -0.006068 0.003468 0.000000 0.031951 0.000000
# 6 0.000000 0.000000 0.000000 -0.003108 0.000000 0.043321
#
#
# Mechanical properties :
#
#
# Convention : Reuss Voigt Hill
#
# Bulk Modulus (GPa) = 30.89178 39.19073 35.04125
# Shear Modulus (GPa) = 21.39267 26.72150 24.05708
#
# Velocity S-wave (km/s) = 3.47426 3.88294 3.68427
# Velocity P-wave (km/s) = 5.79001 6.49736 6.15386
#
# Compressibility (1/GPa) = 0.03237107
#
# Stress axis : x y z
#
# Youngs Moduli (GPa) = 37.72489 28.77535 72.18422
#
# Poissons Ratio (x) = 0.26301 -0.02466
# Poissons Ratio (y) = 0.34481 0.90753
# Poissons Ratio (z) = -0.01289 0.36178
#
# Static dielectric constant tensor:
#      x y z
#    x 3.238960 0.000000 -0.153860 
#    y 0.000000 3.162750 0.000000 
#    z -0.153860 0.000000 3.495260 
# 
# 
# High freq. dielectric constant tensor:
#      x y z
#    x 1.673600 0.000000 -0.005580 
#    y 0.000000 1.665110 0.000000 
#    z -0.005580 0.000000 1.699850 
# 
# From -- ./inp_files/153543.got.cif
#   From: 2010.06.25/outbox.cif.g09.slc.cpg/sg12_77_cif.got.tgz:153543.got - 2010.06.28 00:19:55.
