data_PCOD8089069
_publ_section_title
;
Structure prediction by ZEFSAII (Michael W. Deem and Ramdas Pophale) SiO2 
 PCOD8089069
Probable space group: C 2/M
;
_chemical_formula_sum "Si O2"
_cell_formula_units_Z 52
_cell_length_a 21.499535
_cell_length_b 20.580648
_cell_length_c 7.187848
_cell_angle_alpha 90.000000
_cell_angle_beta 70.341066
_cell_angle_gamma 90.000000
_cell_volume 2995.056780
_symmetry_space_group_name_H-M "C 2/M"
_symmetry_group_IT_number 12
_symmetry_cell_setting 'monoclinic'
loop_
_space_group_symop_operation_xyz
x,y,z
-x,y,-z
-x,-y,-z
x,-y,z
1/2+x,1/2+y,z
1/2-x,1/2+y,-z
1/2-x,1/2-y,-z
1/2+x,1/2-y,z
loop_
_atom_site_type_symbol
_atom_site_label
_atom_site_fract_x
_atom_site_fract_y
_atom_site_fract_z
Si Si1 0.774214 0.926561 0.574611
Si Si2 0.000000 0.168010 0.500000
Si Si3 0.552104 0.738428 0.797235
Si Si4 0.174532 0.686195 0.598019
Si Si5 0.114762 0.926478 0.259529
Si Si6 0.253892 0.718746 0.194852
Si Si7 0.856976 0.121555 0.156844
O O1 0.708221 0.882878 0.614768
O O2 0.812423 0.909944 0.728949
O O3 0.830275 0.918927 0.359022
O O4 0.747778 0.000000 0.600406
O O5 0.012964 0.216481 0.655527
O O6 0.063053 0.123222 0.398895
O O7 0.596701 0.803051 0.711912
O O8 0.591094 0.675601 0.831771
O O9 0.500000 0.762980 0.000000
O O10 0.184637 0.702378 0.367196
O O11 0.208107 0.738241 0.695800
O O12 0.095330 0.000000 0.335791
O O13 0.112557 0.923010 0.036523
O O14 0.293678 0.653149 0.122364
O O15 0.250000 0.750000 0.000000
#
# Coordination Sequence:
#
# PCOD8089069 Si02
#       7
#     8   4   8   8   8   8   8
#     4  10  20  36  55  78 108 138 171 216 262 316
#     4  12  23  36  50  72 107 142 188 212 254 308
#     4  11  22  36  54  74 106 142 177 226 259 304
#     4   9  20  33  51  79 101 133 178 215 266 314
#     4  11  22  34  51  75 108 146 178 210 250 308
#     4   9  17  28  51  76 102 127 164 218 270 307
#     4  10  19  33  50  75 103 137 173 211 257 310
#
# _framework density 17.361941000000002
#
# number of rings (size 3 to 8) (size 9 to 14) (size 15 to 20)
#    0.000    1.846    3.077    2.538    2.154    0.000 
#    0.000    0.769    0.000    0.462    0.000    0.538 
#    0.000    0.000    0.000    0.000    0.000    0.000 
#
# Total GULP energy -322125.827572 kJ/mol
# GULP energy per Si atom -12389.454907 kJ/mol
# Density = 1.732242 g / cm^3
# Si number density = 17.361941 Si / 1000 Ang^3
#
#
#
# Elastic Constant Matrix: (Units=GPa)
#
#
# Indices 1 2 3 4 5 6 
#
# 1 81.9417 45.1043 45.8200 0.0000 -9.3416 0.0000
# 2 45.1043 67.9441 24.9088 0.0000 -9.9116 0.0000
# 3 45.8200 24.9088 102.7023 0.0000 1.0826 0.0000
# 4 0.0000 0.0000 0.0000 14.5668 0.0000 -4.5612
# 5 -9.3416 -9.9116 1.0826 0.0000 28.4828 0.0000
# 6 0.0000 0.0000 0.0000 -4.5612 0.0000 28.9379
#
#
#
# Elastic Compliance Matrix: (Units=1/GPa)
#
#
# Indices 1 2 3 4 5 6 
#
# 1 0.023717 -0.012407 -0.007612 0.000000 0.003750 0.000000
# 2 -0.012407 0.023652 -0.000245 0.000000 0.004171 0.000000
# 3 -0.007612 -0.000245 0.013225 0.000000 -0.003084 0.000000
# 4 0.000000 0.000000 0.000000 0.072213 0.000000 0.011382
# 5 0.003750 0.004171 -0.003084 0.000000 0.037908 0.000000
# 6 0.000000 0.000000 0.000000 0.011382 0.000000 0.036351
#
#
# Mechanical properties :
#
#
# Convention : Reuss Voigt Hill
#
# Bulk Modulus (GPa) = 49.83351 53.80603 51.81977
# Shear Modulus (GPa) = 19.66323 23.51450 21.58887
#
# Velocity S-wave (km/s) = 3.36899 3.68417 3.53010
# Velocity P-wave (km/s) = 6.62559 7.01110 6.82107
#
# Compressibility (1/GPa) = 0.02006682
#
# Stress axis : x y z
#
# Youngs Moduli (GPa) = 42.16424 42.27886 75.61582
#
# Poissons Ratio (x) = 0.52454 0.57556
# Poissons Ratio (y) = 0.52312 0.01855
# Poissons Ratio (z) = 0.32094 0.01037
#
# Static dielectric constant tensor:
#      x y z
#    x 3.219720 0.000000 -0.134210 
#    y 0.000000 3.137890 0.000000 
#    z -0.134210 0.000000 3.398660 
# 
# 
# High freq. dielectric constant tensor:
#      x y z
#    x 1.648220 0.000000 0.005790 
#    y 0.000000 1.648590 0.000000 
#    z 0.005790 0.000000 1.688380 
# 
# From -- ./inp_files/29020.got.cif
#   From: 2010.06.25/outbox.cif.g09.slc.cpg/sg12_15_cif.got.tgz:29020.got - 2010.06.28 00:19:55.
