data_PCOD8089031
_publ_section_title
;
Structure prediction by ZEFSAII (Michael W. Deem and Ramdas Pophale) SiO2 
 PCOD8089031
Probable space group: C 2/M
;
_chemical_formula_sum "Si O2"
_cell_formula_units_Z 48
_cell_length_a 9.528765
_cell_length_b 25.553050
_cell_length_c 12.150643
_cell_angle_alpha 90.000000
_cell_angle_beta 67.016466
_cell_angle_gamma 90.000000
_cell_volume 2723.689913
_symmetry_space_group_name_H-M "C 2/M"
_symmetry_group_IT_number 12
_symmetry_cell_setting 'monoclinic'
loop_
_space_group_symop_operation_xyz
x,y,z
-x,y,-z
-x,-y,-z
x,-y,z
1/2+x,1/2+y,z
1/2-x,1/2+y,-z
1/2-x,1/2-y,-z
1/2+x,1/2-y,z
loop_
_atom_site_type_symbol
_atom_site_label
_atom_site_fract_x
_atom_site_fract_y
_atom_site_fract_z
Si Si1 0.203769 0.362139 0.158987
Si Si2 0.909230 0.208694 0.228235
Si Si3 0.445206 0.558163 0.141047
Si Si4 0.316916 0.359630 0.882892
Si Si5 0.369971 0.832025 0.269371
Si Si6 0.343772 0.697988 0.486507
O O1 0.284920 0.309311 0.177242
O O2 0.282826 0.412075 0.193064
O O3 0.027030 0.361731 0.246799
O O4 0.217026 0.364732 0.023295
O O5 0.901749 0.270785 0.241110
O O6 0.878013 0.177589 0.353194
O O7 0.078611 0.192364 0.138131
O O8 0.426703 0.500000 0.197311
O O9 0.572456 0.590363 0.169380
O O10 0.500000 0.555158 0.000000
O O11 0.203042 0.357185 0.816072
O O12 0.257210 0.841471 0.408024
O O13 0.500000 0.711414 0.500000
O O14 0.250000 0.750000 0.500000
#
# Coordination Sequence:
#
# PCOD8089031 Si02
#       6
#     8   8   8   8   8   8
#     4  10  21  31  49  78 102 132 167 202 251 308
#     4  10  20  33  49  69 103 144 175 199 234 290
#     4   8  16  34  55  71  95 131 169 208 250 303
#     4  10  19  33  49  75 104 131 170 201 246 312
#     4  11  21  31  48  73 109 134 164 210 248 285
#     4  10  21  34  50  68  96 139 183 213 234 275
#
# _framework density 17.623151
#
# number of rings (size 3 to 8) (size 9 to 14) (size 15 to 20)
#    0.000    2.167    1.667    3.000    7.000    4.000 
#    0.000    0.833    0.000    4.000    0.000   18.667 
#    0.000    0.000    0.000    0.000    0.000    0.000 
#
# Total GULP energy -297512.353812 kJ/mol
# GULP energy per Si atom -12396.348076 kJ/mol
# Density = 1.758304 g / cm^3
# Si number density = 17.623151 Si / 1000 Ang^3
#
#
#
# Elastic Constant Matrix: (Units=GPa)
#
#
# Indices 1 2 3 4 5 6 
#
# 1 129.7154 32.9783 29.1177 0.0000 -12.2114 0.0000
# 2 32.9783 88.0213 15.1124 0.0000 -3.4470 0.0000
# 3 29.1177 15.1124 71.2263 0.0000 -4.2959 0.0000
# 4 0.0000 0.0000 0.0000 9.4514 0.0000 -1.1734
# 5 -12.2114 -3.4470 -4.2959 0.0000 29.0962 0.0000
# 6 0.0000 0.0000 0.0000 -1.1734 0.0000 4.7630
#
#
#
# Elastic Compliance Matrix: (Units=1/GPa)
#
#
# Indices 1 2 3 4 5 6 
#
# 1 0.009425 -0.002884 -0.003050 0.000000 0.003164 0.000000
# 2 -0.002884 0.012704 -0.001512 0.000000 0.000072 0.000000
# 3 -0.003050 -0.001512 0.015659 0.000000 0.000853 0.000000
# 4 0.000000 0.000000 0.000000 0.109143 0.000000 0.026888
# 5 0.003164 0.000072 0.000853 0.000000 0.035831 0.000000
# 6 0.000000 0.000000 0.000000 0.026888 0.000000 0.216576
#
#
# Mechanical properties :
#
#
# Convention : Reuss Voigt Hill
#
# Bulk Modulus (GPa) = 43.67706 49.26440 46.47073
# Shear Modulus (GPa) = 11.85224 22.77909 17.31567
#
# Velocity S-wave (km/s) = 2.59615 3.59913 3.13797
# Velocity P-wave (km/s) = 5.81587 6.72954 6.28932
#
# Compressibility (1/GPa) = 0.02289531
#
# Stress axis : x y z
#
# Youngs Moduli (GPa) = 106.10297 78.71733 63.86092
#
# Poissons Ratio (x) = 0.22698 0.19479
# Poissons Ratio (y) = 0.30595 0.09658
# Poissons Ratio (z) = 0.32365 0.11904
#
# Static dielectric constant tensor:
#      x y z
#    x 3.342860 0.000000 0.012970 
#    y 0.000000 1.709000 0.000000 
#    z 0.012970 0.000000 4.011780 
# 
# 
# High freq. dielectric constant tensor:
#      x y z
#    x 1.693890 0.000000 -0.000930 
#    y 0.000000 1.636780 0.000000 
#    z -0.000930 0.000000 1.677660 
# 
# From -- ./inp_files/122550.got.cif
#   From: 2010.06.25/outbox.cif.g09.slc.cpg/sg12_62_cif.got.tgz:122550.got - 2010.06.28 00:19:55.
