data_PCOD8089519
_publ_section_title
;
Structure prediction by ZEFSAII (Michael W. Deem and Ramdas Pophale) SiO2 
 PCOD8089519
Probable space group: C 2/M
;
_chemical_formula_sum "Si O2"
_cell_formula_units_Z 56
_cell_length_a 15.010560
_cell_length_b 27.352474
_cell_length_c 10.990377
_cell_angle_alpha 90.000000
_cell_angle_beta 137.696022
_cell_angle_gamma 90.000000
_cell_volume 3037.122948
_symmetry_space_group_name_H-M "C 2/M"
_symmetry_group_IT_number 12
_symmetry_cell_setting 'monoclinic'
loop_
_space_group_symop_operation_xyz
x,y,z
-x,y,-z
-x,-y,-z
x,-y,z
1/2+x,1/2+y,z
1/2-x,1/2+y,-z
1/2-x,1/2-y,-z
1/2+x,1/2-y,z
loop_
_atom_site_type_symbol
_atom_site_label
_atom_site_fract_x
_atom_site_fract_y
_atom_site_fract_z
Si Si1 0.881479 0.773375 0.687797
Si Si2 0.363488 0.554991 0.420971
Si Si3 0.607075 0.945502 0.005948
Si Si4 0.260866 0.356503 0.450962
Si Si5 0.085142 0.266703 0.707577
Si Si6 0.322606 0.789037 0.843764
Si Si7 0.543255 0.148314 0.820749
O O1 0.750000 0.750000 0.500000
O O2 0.858044 0.831691 0.649914
O O3 0.896289 0.753479 0.839925
O O4 0.010951 0.758118 0.745483
O O5 0.500000 0.573983 0.500000
O O6 0.380651 0.500000 0.490232
O O7 0.253746 0.555885 0.205844
O O8 0.318014 0.589442 0.485886
O O9 0.572734 0.000000 0.922578
O O10 0.500000 0.929785 0.000000
O O11 0.601947 0.906380 0.891180
O O12 0.262567 0.326225 0.325843
O O13 0.113591 0.356595 0.355699
O O14 0.223362 0.238923 0.834236
O O15 0.105073 0.323906 0.765920
O O16 0.000000 0.263145 0.500000
O O17 0.428341 0.820393 0.027850
#
# Coordination Sequence:
#
# PCOD8089519 Si02
#       7
#     8   8   8   8   8   8   8
#     4  10  20  33  50  70 102 145 180 212 263 321
#     4  10  21  33  50  77 109 140 175 223 274 329
#     4  10  19  33  53  79 106 136 177 225 280 327
#     4  11  19  32  53  70 104 146 171 216 271 317
#     4  12  22  35  51  74 107 148 184 217 274 328
#     4  11  21  35  48  77 108 137 183 222 261 322
#     4  12  21  34  54  78 105 141 180 227 268 320
#
# _framework density 18.438503999999998
#
# number of rings (size 3 to 8) (size 9 to 14) (size 15 to 20)
#    0.000    1.143    8.571    0.857    2.000    0.000 
#    0.000    0.000    0.000    0.429    0.000    1.000 
#    0.000    0.000    0.000   23.143    0.000    0.000 
#
# Total GULP energy -347096.426918 kJ/mol
# GULP energy per Si atom -12396.300961 kJ/mol
# Density = 1.839654 g / cm^3
# Si number density = 18.438504 Si / 1000 Ang^3
#
#
#
# Elastic Constant Matrix: (Units=GPa)
#
#
# Indices 1 2 3 4 5 6 
#
# 1 88.2920 26.1709 15.2739 0.0000 15.2334 0.0000
# 2 26.1709 113.6349 19.4947 0.0000 4.3577 0.0000
# 3 15.2739 19.4947 45.3301 0.0000 11.6683 0.0000
# 4 0.0000 0.0000 0.0000 27.0924 0.0000 0.4650
# 5 15.2334 4.3577 11.6683 0.0000 21.0999 0.0000
# 6 0.0000 0.0000 0.0000 0.4650 0.0000 33.2364
#
#
#
# Elastic Compliance Matrix: (Units=1/GPa)
#
#
# Indices 1 2 3 4 5 6 
#
# 1 0.013835 -0.002631 -0.001281 0.000000 -0.008736 0.000000
# 2 -0.002631 0.010004 -0.003933 0.000000 0.002009 0.000000
# 3 -0.001281 -0.003933 0.027676 0.000000 -0.013568 0.000000
# 4 0.000000 0.000000 0.000000 0.036920 0.000000 -0.000517
# 5 -0.008736 0.002009 -0.013568 0.000000 0.060789 0.000000
# 6 0.000000 0.000000 0.000000 -0.000517 0.000000 0.030095
#
#
# Mechanical properties :
#
#
# Convention : Reuss Voigt Hill
#
# Bulk Modulus (GPa) = 27.91416 41.01509 34.46462
# Shear Modulus (GPa) = 24.16044 28.70690 26.43367
#
# Velocity S-wave (km/s) = 3.62377 3.95004 3.79042
# Velocity P-wave (km/s) = 5.71672 6.56478 6.15537
#
# Compressibility (1/GPa) = 0.03582412
#
# Stress axis : x y z
#
# Youngs Moduli (GPa) = 72.28028 99.96200 36.13274
#
# Poissons Ratio (x) = 0.26305 0.04629
# Poissons Ratio (y) = 0.19020 0.14210
# Poissons Ratio (z) = 0.09260 0.39311
#
# Static dielectric constant tensor:
#      x y z
#    x 3.366710 0.000000 0.053940 
#    y 0.000000 3.877060 0.000000 
#    z 0.053940 0.000000 3.473630 
# 
# 
# High freq. dielectric constant tensor:
#      x y z
#    x 1.691550 0.000000 0.028480 
#    y 0.000000 1.713180 0.000000 
#    z 0.028480 0.000000 1.703800 
# 
# From -- ./inp_files/150136.got.cif
#   From: 2010.06.25/outbox.cif.g09.slc.cpg/sg12_76_cif.got.tgz:150136.got - 2010.06.28 00:19:55.
