data_PCOD8089257
_publ_section_title
;
Structure prediction by ZEFSAII (Michael W. Deem and Ramdas Pophale) SiO2 
 PCOD8089257
Probable space group: C 2/M
;
_chemical_formula_sum "Si O2"
_cell_formula_units_Z 48
_cell_length_a 30.422462
_cell_length_b 8.799709
_cell_length_c 9.613801
_cell_angle_alpha 90.000000
_cell_angle_beta 85.650817
_cell_angle_gamma 90.000000
_cell_volume 2566.288037
_symmetry_space_group_name_H-M "C 2/M"
_symmetry_group_IT_number 12
_symmetry_cell_setting 'monoclinic'
loop_
_space_group_symop_operation_xyz
x,y,z
-x,y,-z
-x,-y,-z
x,-y,z
1/2+x,1/2+y,z
1/2-x,1/2+y,-z
1/2-x,1/2-y,-z
1/2+x,1/2-y,z
loop_
_atom_site_type_symbol
_atom_site_label
_atom_site_fract_x
_atom_site_fract_y
_atom_site_fract_z
Si Si1 0.196999 0.829248 0.648228
Si Si2 0.447709 0.180354 0.888253
Si Si3 0.717652 0.329884 0.318652
Si Si4 0.370098 0.822980 0.702468
Si Si5 0.109263 0.677799 0.616319
Si Si6 0.960303 0.819851 0.176006
O O1 0.238036 0.763943 0.726751
O O2 0.209127 0.826100 0.484201
O O3 0.154033 0.726120 0.684814
O O4 0.187076 0.000000 0.701301
O O5 0.405947 0.227692 0.806387
O O6 0.490384 0.259507 0.811209
O O7 0.455023 0.000000 0.888963
O O8 0.439350 0.241594 0.044986
O O9 0.724747 0.500000 0.262646
O O10 0.675607 0.260059 0.249890
O O11 0.387949 0.778101 0.546215
O O12 0.359915 0.000000 0.710669
O O13 0.101192 0.500000 0.641877
O O14 0.068401 0.772868 0.684678
O O15 0.960975 0.000000 0.156504
#
# Coordination Sequence:
#
# PCOD8089257 Si02
#       6
#     8   8   8   8   8   8
#     4   9  16  27  44  69 101 134 168 205 244 290
#     4  10  20  37  57  75  97 131 171 208 250 300
#     4   9  16  26  44  70 101 135 167 201 245 295
#     4   9  19  33  52  77 103 131 167 210 252 294
#     4  10  19  33  52  76 104 133 167 208 252 296
#     4  11  22  36  53  75 101 132 169 207 250 301
#
# _framework density 18.704056999999999
#
# number of rings (size 3 to 8) (size 9 to 14) (size 15 to 20)
#    0.000    2.333    0.000    4.500    0.000    6.667 
#    0.000    3.333    0.000    1.000    0.000    0.000 
#    0.000    0.000    0.000    0.000    0.000    0.000 
#
# Total GULP energy -297627.888516 kJ/mol
# GULP energy per Si atom -12401.162021 kJ/mol
# Density = 1.866149 g / cm^3
# Si number density = 18.704057 Si / 1000 Ang^3
#
#
#
# Elastic Constant Matrix: (Units=GPa)
#
#
# Indices 1 2 3 4 5 6 
#
# 1 82.9375 32.4383 23.4727 0.0000 37.8171 0.0000
# 2 32.4383 90.2111 16.8703 0.0000 14.0582 0.0000
# 3 23.4727 16.8703 28.9935 0.0000 18.9441 0.0000
# 4 0.0000 0.0000 0.0000 19.6570 0.0000 -1.8403
# 5 37.8171 14.0582 18.9441 0.0000 26.0786 0.0000
# 6 0.0000 0.0000 0.0000 -1.8403 0.0000 38.1718
#
#
#
# Elastic Compliance Matrix: (Units=1/GPa)
#
#
# Indices 1 2 3 4 5 6 
#
# 1 0.040552 -0.007020 0.013713 0.000000 -0.064982 0.000000
# 2 -0.007020 0.013759 -0.007857 0.000000 0.008470 0.000000
# 3 0.013713 -0.007857 0.072684 0.000000 -0.068450 0.000000
# 4 0.000000 0.000000 0.000000 0.051103 0.000000 0.002464
# 5 -0.064982 0.008470 -0.068450 0.000000 0.177736 0.000000
# 6 0.000000 0.000000 0.000000 0.002464 0.000000 0.026316
#
#
# Mechanical properties :
#
#
# Convention : Reuss Voigt Hill
#
# Bulk Modulus (GPa) = 8.02126 38.63388 23.32757
# Shear Modulus (GPa) = 11.73621 25.40554 18.57087
#
# Velocity S-wave (km/s) = 2.50765 3.68950 3.15442
# Velocity P-wave (km/s) = 3.56121 6.23298 5.07604
#
# Compressibility (1/GPa) = 0.12466863
#
# Stress axis : x y z
#
# Youngs Moduli (GPa) = 24.65981 72.68171 13.75812
#
# Poissons Ratio (x) = 0.51019 -0.18867
# Poissons Ratio (y) = 0.17310 0.10809
# Poissons Ratio (z) = -0.33816 0.57104
#
# Static dielectric constant tensor:
#      x y z
#    x 3.580350 0.000000 0.089490 
#    y 0.000000 3.547370 0.000000 
#    z 0.089490 0.000000 3.063020 
# 
# 
# High freq. dielectric constant tensor:
#      x y z
#    x 1.737950 0.000000 0.005690 
#    y 0.000000 1.739860 0.000000 
#    z 0.005690 0.000000 1.679680 
# 
# From -- ./inp_files/172312.got.cif
#   From: 2010.06.25/outbox.cif.g09.slc.cpg/sg12_87_cif.got.tgz:172312.got - 2010.06.28 00:19:55.
