data_PCOD8089335
_publ_section_title
;
Structure prediction by ZEFSAII (Michael W. Deem and Ramdas Pophale) SiO2 
 PCOD8089335
Probable space group: C 2/M
;
_chemical_formula_sum "Si O2"
_cell_formula_units_Z 48
_cell_length_a 21.291406
_cell_length_b 12.320707
_cell_length_c 12.550627
_cell_angle_alpha 90.000000
_cell_angle_beta 125.110855
_cell_angle_gamma 90.000000
_cell_volume 2693.272768
_symmetry_space_group_name_H-M "C 2/M"
_symmetry_group_IT_number 12
_symmetry_cell_setting 'monoclinic'
loop_
_space_group_symop_operation_xyz
x,y,z
-x,y,-z
-x,-y,-z
x,-y,z
1/2+x,1/2+y,z
1/2-x,1/2+y,-z
1/2-x,1/2-y,-z
1/2+x,1/2-y,z
loop_
_atom_site_type_symbol
_atom_site_label
_atom_site_fract_x
_atom_site_fract_y
_atom_site_fract_z
Si Si1 0.279283 0.370788 0.655394
Si Si2 0.977549 0.297410 0.363429
Si Si3 0.842732 0.620679 0.097011
Si Si4 0.862999 0.230857 0.545946
Si Si5 0.863809 0.875359 0.327763
Si Si6 0.773591 0.769519 0.872875
O O1 0.277219 0.500000 0.655461
O O2 0.195868 0.327925 0.538878
O O3 0.343534 0.327851 0.637138
O O4 0.303485 0.324357 0.794136
O O5 0.918910 0.373794 0.243508
O O6 0.937843 0.181713 0.348555
O O7 0.000000 0.350871 0.500000
O O8 0.052512 0.282659 0.363166
O O9 0.838969 0.500000 0.044465
O O10 0.767063 0.638343 0.095716
O O11 0.844183 0.711913 0.004712
O O12 0.861944 0.140460 0.452960
O O13 0.786429 0.827121 0.204132
O O14 0.868980 0.000000 0.302416
#
# Coordination Sequence:
#
# PCOD8089335 Si02
#       6
#     8   8   8   8   8   8
#     4  10  19  33  53  72  98 133 161 198 246 286
#     4   9  19  32  48  75 103 125 158 202 241 289
#     4  10  19  33  53  72  96 129 160 200 250 289
#     4   9  19  32  48  76 103 125 164 201 233 290
#     4   9  16  29  50  73 100 132 162 198 240 277
#     4   9  19  32  48  75 100 123 166 206 233 285
#
# _framework density 17.822182000000002
#
# number of rings (size 3 to 8) (size 9 to 14) (size 15 to 20)
#    0.000    2.667    0.000    2.500    0.000    4.667 
#    0.000    2.500    0.000    2.000    0.000    0.000 
#    0.000    0.000    0.000    0.000    0.000    0.000 
#
# Total GULP energy -297557.354155 kJ/mol
# GULP energy per Si atom -12398.223090 kJ/mol
# Density = 1.778162 g / cm^3
# Si number density = 17.822182 Si / 1000 Ang^3
#
#
#
# Elastic Constant Matrix: (Units=GPa)
#
#
# Indices 1 2 3 4 5 6 
#
# 1 103.3522 37.3779 33.0422 0.0000 -10.7522 0.0000
# 2 37.3779 108.1764 41.4366 0.0000 -8.9861 0.0000
# 3 33.0422 41.4366 93.0544 0.0000 -3.1894 0.0000
# 4 0.0000 0.0000 0.0000 15.2382 0.0000 -5.1205
# 5 -10.7522 -8.9861 -3.1894 0.0000 30.7740 0.0000
# 6 0.0000 0.0000 0.0000 -5.1205 0.0000 12.3098
#
#
#
# Elastic Compliance Matrix: (Units=1/GPa)
#
#
# Indices 1 2 3 4 5 6 
#
# 1 0.011917 -0.002752 -0.002901 0.000000 0.003059 0.000000
# 2 -0.002752 0.012018 -0.004302 0.000000 0.002102 0.000000
# 3 -0.002901 -0.004302 0.013663 0.000000 -0.000854 0.000000
# 4 0.000000 0.000000 0.000000 0.076288 0.000000 0.031734
# 5 0.003059 0.002102 -0.000854 0.000000 0.034089 0.000000
# 6 0.000000 0.000000 0.000000 0.031734 0.000000 0.094436
#
#
# Mechanical properties :
#
#
# Convention : Reuss Voigt Hill
#
# Bulk Modulus (GPa) = 56.53984 58.69962 57.61973
# Shear Modulus (GPa) = 18.64163 24.51282 21.57722
#
# Velocity S-wave (km/s) = 3.23767 3.71268 3.48328
# Velocity P-wave (km/s) = 6.76535 7.16843 6.96980
#
# Compressibility (1/GPa) = 0.01768664
#
# Stress axis : x y z
#
# Youngs Moduli (GPa) = 83.91547 83.21130 73.19056
#
# Poissons Ratio (x) = 0.22901 0.21233
# Poissons Ratio (y) = 0.23095 0.31487
# Poissons Ratio (z) = 0.24345 0.35798
#
# Static dielectric constant tensor:
#      x y z
#    x 3.196190 0.000000 -0.039370 
#    y 0.000000 3.071350 0.000000 
#    z -0.039370 0.000000 3.405870 
# 
# 
# High freq. dielectric constant tensor:
#      x y z
#    x 1.670110 0.000000 -0.002780 
#    y 0.000000 1.683000 0.000000 
#    z -0.002780 0.000000 1.689810 
# 
# From -- ./inp_files/164693.got.cif
#   From: 2010.06.25/outbox.cif.g09.slc.cpg/sg12_83_cif.got.tgz:164693.got - 2010.06.28 00:19:55.
