data_PCOD8089212
_publ_section_title
;
Structure prediction by ZEFSAII (Michael W. Deem and Ramdas Pophale) SiO2 
 PCOD8089212
Probable space group: C 2/M
;
_chemical_formula_sum "Si O2"
_cell_formula_units_Z 56
_cell_length_a 13.988322
_cell_length_b 10.233730
_cell_length_c 23.860965
_cell_angle_alpha 90.000000
_cell_angle_beta 60.382384
_cell_angle_gamma 90.000000
_cell_volume 2969.468700
_symmetry_space_group_name_H-M "C 2/M"
_symmetry_group_IT_number 12
_symmetry_cell_setting 'monoclinic'
loop_
_space_group_symop_operation_xyz
x,y,z
-x,y,-z
-x,-y,-z
x,-y,z
1/2+x,1/2+y,z
1/2-x,1/2+y,-z
1/2-x,1/2-y,-z
1/2+x,1/2-y,z
loop_
_atom_site_type_symbol
_atom_site_label
_atom_site_fract_x
_atom_site_fract_y
_atom_site_fract_z
Si Si1 0.481039 0.149928 0.298626
Si Si2 0.337736 0.154928 0.086718
Si Si3 0.074740 0.347266 0.055933
Si Si4 0.881487 0.140694 0.474106
Si Si5 0.734111 0.271532 0.599771
Si Si6 0.944882 0.353249 0.601003
Si Si7 0.149870 0.655685 0.154645
O O1 0.365342 0.225033 0.332047
O O2 0.552881 0.178775 0.333490
O O3 0.551435 0.193069 0.224796
O O4 0.449672 0.000000 0.303053
O O5 0.452417 0.203514 0.079494
O O6 0.251045 0.250784 0.141948
O O7 0.312991 0.000000 0.104442
O O8 0.342079 0.186853 0.018789
O O9 0.063509 0.500000 0.064000
O O10 0.117129 0.293186 0.102553
O O11 0.794783 0.152944 0.550100
O O12 0.815693 0.137574 0.434521
O O13 0.971855 0.254731 0.454026
O O14 0.940574 0.000000 0.462606
O O15 0.820633 0.344517 0.614711
O O16 0.988923 0.500000 0.577070
O O17 0.179020 0.500000 0.149129
#
# Coordination Sequence:
#
# PCOD8089212 Si02
#       7
#     8   8   8   8   8   8   8
#     4   9  20  36  51  72 103 137 171 205 246 299
#     4   9  17  32  52  75 102 132 168 207 248 298
#     4   8  16  31  52  75 101 134 167 202 251 304
#     4  10  21  35  54  81 104 125 164 212 254 301
#     4  10  20  34  55  75 101 134 167 206 251 297
#     4  10  21  37  55  75 102 135 167 204 255 305
#     4  10  19  33  52  74 102 135 169 207 251 294
#
# _framework density 18.858592999999999
#
# number of rings (size 3 to 8) (size 9 to 14) (size 15 to 20)
#    0.000    2.571    0.000    2.571    0.000    7.429 
#    0.000    5.714    0.000    0.000    0.000    0.000 
#    0.000    0.000    0.000    0.000    0.000    0.000 
#
# Total GULP energy -347010.402852 kJ/mol
# GULP energy per Si atom -12393.228673 kJ/mol
# Density = 1.881567 g / cm^3
# Si number density = 18.858593 Si / 1000 Ang^3
#
#
#
# Elastic Constant Matrix: (Units=GPa)
#
#
# Indices 1 2 3 4 5 6 
#
# 1 86.0255 33.6816 25.1290 0.0000 -12.0019 0.0000
# 2 33.6816 95.7330 43.7841 0.0000 -16.7908 0.0000
# 3 25.1290 43.7841 90.5945 0.0000 -21.5983 0.0000
# 4 0.0000 0.0000 0.0000 15.4613 0.0000 -9.3240
# 5 -12.0019 -16.7908 -21.5983 0.0000 25.8282 0.0000
# 6 0.0000 0.0000 0.0000 -9.3240 0.0000 21.3923
#
#
#
# Elastic Compliance Matrix: (Units=1/GPa)
#
#
# Indices 1 2 3 4 5 6 
#
# 1 0.013895 -0.003767 -0.001346 0.000000 0.002882 0.000000
# 2 -0.003767 0.014792 -0.005282 0.000000 0.003449 0.000000
# 3 -0.001346 -0.005282 0.016233 0.000000 0.009515 0.000000
# 4 0.000000 0.000000 0.000000 0.087739 0.000000 0.038242
# 5 0.002882 0.003449 0.009515 0.000000 0.050255 0.000000
# 6 0.000000 0.000000 0.000000 0.038242 0.000000 0.063414
#
#
# Mechanical properties :
#
#
# Convention : Reuss Voigt Hill
#
# Bulk Modulus (GPa) = 41.44481 53.06025 47.25253
# Shear Modulus (GPa) = 18.17118 23.85359 21.01239
#
# Velocity S-wave (km/s) = 3.10748 3.56035 3.34160
# Velocity P-wave (km/s) = 5.90758 6.71554 6.32447
#
# Compressibility (1/GPa) = 0.02412847
#
# Stress axis : x y z
#
# Youngs Moduli (GPa) = 71.96921 67.60579 61.60414
#
# Poissons Ratio (x) = 0.25470 0.08294
# Poissons Ratio (y) = 0.27114 0.32537
# Poissons Ratio (z) = 0.09690 0.35706
#
# Static dielectric constant tensor:
#      x y z
#    x 4.605330 0.000000 0.721990 
#    y 0.000000 3.199600 0.000000 
#    z 0.721990 0.000000 3.804250 
# 
# 
# High freq. dielectric constant tensor:
#      x y z
#    x 1.737770 0.000000 0.003490 
#    y 0.000000 1.713780 0.000000 
#    z 0.003490 0.000000 1.723110 
# 
# From -- ./inp_files/335128.got.cif
#   From: 2010.06.25/outbox.cif.g09.slc.cpg/sg12_168_cif.got.tgz:335128.got - 2010.06.28 00:19:55.
