data_PCOD8089230
_publ_section_title
;
Structure prediction by ZEFSAII (Michael W. Deem and Ramdas Pophale) SiO2 
 PCOD8089230
Probable space group: C 2/M
;
_chemical_formula_sum "Si O2"
_cell_formula_units_Z 56
_cell_length_a 20.223687
_cell_length_b 9.406679
_cell_length_c 19.520651
_cell_angle_alpha 90.000000
_cell_angle_beta 58.334209
_cell_angle_gamma 90.000000
_cell_volume 3160.706344
_symmetry_space_group_name_H-M "C 2/M"
_symmetry_group_IT_number 12
_symmetry_cell_setting 'monoclinic'
loop_
_space_group_symop_operation_xyz
x,y,z
-x,y,-z
-x,-y,-z
x,-y,z
1/2+x,1/2+y,z
1/2-x,1/2+y,-z
1/2-x,1/2-y,-z
1/2+x,1/2-y,z
loop_
_atom_site_type_symbol
_atom_site_label
_atom_site_fract_x
_atom_site_fract_y
_atom_site_fract_z
Si Si1 0.651497 0.335997 0.345558
Si Si2 0.004158 0.165833 0.651059
Si Si3 0.785567 0.338976 0.172147
Si Si4 0.198371 0.162805 0.079300
Si Si5 0.474508 0.668615 0.818462
Si Si6 0.079822 0.339191 0.497608
Si Si7 0.441187 0.668370 0.091438
O O1 0.647479 0.500000 0.370461
O O2 0.582351 0.303921 0.329688
O O3 0.734108 0.299107 0.266368
O O4 0.644972 0.239044 0.416696
O O5 0.068410 0.255710 0.574952
O O6 0.009049 0.219579 0.726975
O O7 0.025041 0.000000 0.632528
O O8 0.816733 0.500000 0.160864
O O9 0.729198 0.321738 0.138842
O O10 0.857479 0.234717 0.124345
O O11 0.112051 0.228869 0.123703
O O12 0.198595 0.000000 0.054638
O O13 0.250000 0.250000 0.000000
O O14 0.468453 0.500000 0.820472
O O15 0.527883 0.722407 0.851799
O O16 0.106883 0.500000 0.498074
O O17 0.000000 0.335998 0.500000
O O18 0.431697 0.500000 0.094870
O O19 0.500000 0.718949 0.000000
#
# Coordination Sequence:
#
# PCOD8089230 Si02
#       7
#     8   8   8   8   8   8   8
#     4   9  16  29  49  73  98 130 169 204 244 297
#     4   9  15  28  50  72  95 130 171 207 243 292
#     4  10  20  34  53  76 103 132 168 214 256 297
#     4  10  19  33  52  75 100 128 165 212 259 299
#     4   9  17  32  53  73  98 132 173 212 246 296
#     4   9  17  27  42  71 108 135 155 196 252 302
#     4  10  21  36  53  74 101 137 175 209 252 308
#
# _framework density 17.717558
#
# number of rings (size 3 to 8) (size 9 to 14) (size 15 to 20)
#    0.000    2.571    1.429    1.286    0.000    4.286 
#    0.000    2.143    0.000    0.857    0.000    0.000 
#    0.000    0.000    0.000    0.000    0.000    0.000 
#
# Total GULP energy -347185.097261 kJ/mol
# GULP energy per Si atom -12399.467759 kJ/mol
# Density = 1.767723 g / cm^3
# Si number density = 17.717558 Si / 1000 Ang^3
#
#
#
# Elastic Constant Matrix: (Units=GPa)
#
#
# Indices 1 2 3 4 5 6 
#
# 1 35.3924 15.3312 13.3404 0.0000 -0.7770 -0.0001
# 2 15.3312 62.9535 50.0129 0.0002 -0.0542 -0.0002
# 3 13.3404 50.0129 124.8824 0.0000 7.2477 -0.0001
# 4 0.0000 0.0002 0.0000 25.7801 0.0000 -2.6968
# 5 -0.7770 -0.0542 7.2477 0.0000 26.8297 0.0000
# 6 -0.0001 -0.0002 -0.0001 -2.6968 0.0000 19.2797
#
#
#
# Elastic Compliance Matrix: (Units=1/GPa)
#
#
# Indices 1 2 3 4 5 6 
#
# 1 0.031631 -0.007289 -0.000520 0.000000 0.001042 0.000000
# 2 -0.007289 0.025157 -0.009435 0.000000 0.002388 0.000000
# 3 -0.000520 -0.009435 0.012032 0.000000 -0.003284 0.000000
# 4 0.000000 0.000000 0.000000 0.039366 0.000000 0.005506
# 5 0.001042 0.002388 -0.003284 0.000000 0.038194 0.000000
# 6 0.000000 0.000000 0.000000 0.005506 0.000000 0.052638
#
#
# Mechanical properties :
#
#
# Convention : Reuss Voigt Hill
#
# Bulk Modulus (GPa) = 29.12719 42.28860 35.70789
# Shear Modulus (GPa) = 20.41218 24.01415 22.21316
#
# Velocity S-wave (km/s) = 3.39792 3.68555 3.54466
# Velocity P-wave (km/s) = 5.64535 6.48314 6.07869
#
# Compressibility (1/GPa) = 0.03433218
#
# Stress axis : x y z
#
# Youngs Moduli (GPa) = 31.61451 39.74958 83.10969
#
# Poissons Ratio (x) = 0.28973 0.04325
# Poissons Ratio (y) = 0.23044 0.78414
# Poissons Ratio (z) = 0.01645 0.37504
#
# Static dielectric constant tensor:
#      x y z
#    x 3.120200 0.000000 0.206240 
#    y 0.000000 3.280310 0.000000 
#    z 0.206240 0.000000 3.609220 
# 
# 
# High freq. dielectric constant tensor:
#      x y z
#    x 1.653750 0.000000 0.007010 
#    y 0.000000 1.666660 0.000000 
#    z 0.007010 0.000000 1.701240 
# 
# From -- ./inp_files/281015.got.cif
#   From: 2010.06.25/outbox.cif.g09.slc.cpg/sg12_141_cif.got.tgz:281015.got - 2010.06.28 00:19:55.
