data_PCOD8089436
_publ_section_title
;
Structure prediction by ZEFSAII (Michael W. Deem and Ramdas Pophale) SiO2 
 PCOD8089436
Probable space group: C 2/M
;
_chemical_formula_sum "Si O2"
_cell_formula_units_Z 56
_cell_length_a 16.789436
_cell_length_b 22.098551
_cell_length_c 13.154959
_cell_angle_alpha 90.000000
_cell_angle_beta 141.968054
_cell_angle_gamma 90.000000
_cell_volume 3007.053384
_symmetry_space_group_name_H-M "C 2/M"
_symmetry_group_IT_number 12
_symmetry_cell_setting 'monoclinic'
loop_
_space_group_symop_operation_xyz
x,y,z
-x,y,-z
-x,-y,-z
x,-y,z
1/2+x,1/2+y,z
1/2-x,1/2+y,-z
1/2-x,1/2-y,-z
1/2+x,1/2-y,z
loop_
_atom_site_type_symbol
_atom_site_label
_atom_site_fract_x
_atom_site_fract_y
_atom_site_fract_z
Si Si1 0.710048 0.567032 0.228548
Si Si2 0.465875 0.809294 0.186914
Si Si3 0.238313 0.699131 0.402209
Si Si4 0.018246 0.825732 0.709653
Si Si5 0.755391 0.215089 0.187374
Si Si6 0.115631 0.665460 0.685776
Si Si7 0.490407 0.567779 0.154147
O O1 0.767001 0.500000 0.303615
O O2 0.829955 0.610286 0.325314
O O3 0.630420 0.587726 0.248997
O O4 0.613196 0.566198 0.038238
O O5 0.604244 0.835722 0.289122
O O6 0.473546 0.738091 0.223015
O O7 0.434303 0.852191 0.251948
O O8 0.361182 0.815629 0.992069
O O9 0.250000 0.750000 0.500000
O O10 0.368852 0.659315 0.531749
O O11 0.223025 0.722559 0.272632
O O12 0.112842 0.822101 0.706727
O O13 0.062586 0.882979 0.820336
O O14 0.775425 0.285055 0.177283
O O15 0.000000 0.693724 0.500000
O O16 0.500487 0.500000 0.212283
#
# Coordination Sequence:
#
# PCOD8089436 Si02
#       7
#     8   8   8   8   8   8   8
#     4   9  19  33  50  77 108 141 180 219 265 318
#     4  10  21  33  49  78 107 142 182 206 260 329
#     4  10  21  33  49  75 104 132 174 218 267 313
#     4  10  19  33  53  76 106 135 174 216 269 314
#     4  11  20  35  52  74 106 145 175 216 263 322
#     4  11  21  32  52  75 111 143 176 217 263 318
#     4   9  18  33  54  78 104 137 181 226 264 315
#
# _framework density 18.622882000000001
#
# number of rings (size 3 to 8) (size 9 to 14) (size 15 to 20)
#    0.000    2.000    0.000    7.714    6.000    0.286 
#    0.000    0.000    0.000    1.714    0.000    0.000 
#    0.000    5.714    0.000    0.000    0.000    0.000 
#
# Total GULP energy -346869.574252 kJ/mol
# GULP energy per Si atom -12388.199080 kJ/mol
# Density = 1.858050 g / cm^3
# Si number density = 18.622882 Si / 1000 Ang^3
#
#
#
# Elastic Constant Matrix: (Units=GPa)
#
#
# Indices 1 2 3 4 5 6 
#
# 1 125.5814 20.2748 27.9248 0.0000 0.8017 0.0000
# 2 20.2748 52.1434 -7.6645 0.0000 1.8550 0.0000
# 3 27.9248 -7.6645 81.8778 0.0000 3.5182 0.0000
# 4 0.0000 0.0000 0.0000 11.7153 0.0000 2.0991
# 5 0.8017 1.8550 3.5182 0.0000 32.3483 0.0000
# 6 0.0000 0.0000 0.0000 2.0991 0.0000 26.8756
#
#
#
# Elastic Compliance Matrix: (Units=1/GPa)
#
#
# Indices 1 2 3 4 5 6 
#
# 1 0.009451 -0.004224 -0.003636 0.000000 0.000403 0.000000
# 2 -0.004224 0.021389 0.003507 0.000000 -0.001503 0.000000
# 3 -0.003636 0.003507 0.013851 0.000000 -0.001617 0.000000
# 4 0.000000 0.000000 0.000000 0.086570 0.000000 -0.006761
# 5 0.000403 -0.001503 -0.001617 0.000000 0.031166 0.000000
# 6 0.000000 0.000000 0.000000 -0.006761 0.000000 0.037737
#
#
# Mechanical properties :
#
#
# Convention : Reuss Voigt Hill
#
# Bulk Modulus (GPa) = 27.78804 37.85253 32.82029
# Shear Modulus (GPa) = 22.63850 28.79235 25.71542
#
# Velocity S-wave (km/s) = 3.49037 3.93628 3.72001
# Velocity P-wave (km/s) = 5.58546 6.40539 6.00943
#
# Compressibility (1/GPa) = 0.03598670
#
# Stress axis : x y z
#
# Youngs Moduli (GPa) = 105.81161 46.75281 72.19597
#
# Poissons Ratio (x) = 0.19746 0.26250
# Poissons Ratio (y) = 0.44690 -0.25321
# Poissons Ratio (z) = 0.38472 -0.16397
#
# Static dielectric constant tensor:
#      x y z
#    x 3.837600 0.000000 0.321570 
#    y 0.000000 3.172960 0.000000 
#    z 0.321570 0.000000 3.535520 
# 
# 
# High freq. dielectric constant tensor:
#      x y z
#    x 1.733860 0.000000 0.012870 
#    y 0.000000 1.664570 0.000000 
#    z 0.012870 0.000000 1.725180 
# 
# From -- ./inp_files/227645.got.cif
#   From: 2010.06.25/outbox.cif.g09.slc.cpg/sg12_114_cif.got.tgz:227645.got - 2010.06.28 00:19:55.
