data_PCOD8089008
_publ_section_title
;
Structure prediction by ZEFSAII (Michael W. Deem and Ramdas Pophale) SiO2 
 PCOD8089008
Probable space group: C 2/M
;
_chemical_formula_sum "Si O2"
_cell_formula_units_Z 32
_cell_length_a 7.892646
_cell_length_b 22.066587
_cell_length_c 10.045177
_cell_angle_alpha 90.000000
_cell_angle_beta 125.596109
_cell_angle_gamma 90.000000
_cell_volume 1422.593650
_symmetry_space_group_name_H-M "C 2/M"
_symmetry_group_IT_number 12
_symmetry_cell_setting 'monoclinic'
loop_
_space_group_symop_operation_xyz
x,y,z
-x,y,-z
-x,-y,-z
x,-y,z
1/2+x,1/2+y,z
1/2-x,1/2+y,-z
1/2-x,1/2-y,-z
1/2+x,1/2-y,z
loop_
_atom_site_type_symbol
_atom_site_label
_atom_site_fract_x
_atom_site_fract_y
_atom_site_fract_z
Si Si1 0.795105 0.432593 0.244861
Si Si2 0.149037 0.066900 0.876327
Si Si3 0.000000 0.777679 0.500000
Si Si4 0.550228 0.180739 0.310247
Si Si5 0.000000 0.346245 0.000000
O O1 0.876096 0.500000 0.322759
O O2 0.594249 0.413988 0.242799
O O3 0.975812 0.382608 0.342646
O O4 0.722683 0.434257 0.060939
O O5 0.177832 0.000000 0.826451
O O6 0.297299 0.113580 0.866542
O O7 0.800337 0.819656 0.432885
O O8 0.045474 0.736010 0.649718
O O9 0.464239 0.191538 0.119419
#
# Coordination Sequence:
#
# PCOD8089008 Si02
#       5
#     8   8   4   8   4
#     4   8  15  31  56  85 117 149 182 227 286 345
#     4   8  14  26  50  88 125 146 169 226 297 340
#     4  10  24  44  58  74 116 164 190 230 292 342
#     4  10  22  40  61  83 111 152 195 234 285 339
#     4  10  19  32  60  92 112 140 197 246 266 326
#
# _framework density 22.494125
#
# number of rings (size 3 to 8) (size 9 to 14) (size 15 to 20)
#    0.000    3.000    0.000    1.875    0.000    6.000 
#    0.000    3.750    0.000    0.000    0.000    0.000 
#    0.000    0.000    0.000    2.625    0.000    0.000 
#
# Total GULP energy -198299.849867 kJ/mol
# GULP energy per Si atom -12393.740617 kJ/mol
# Density = 2.244293 g / cm^3
# Si number density = 22.494125 Si / 1000 Ang^3
#
#
#
# Elastic Constant Matrix: (Units=GPa)
#
#
# Indices 1 2 3 4 5 6 
#
# 1 121.0588 68.5088 41.1534 0.0000 22.7526 0.0000
# 2 68.5088 115.7628 49.7094 0.0000 27.3176 0.0000
# 3 41.1534 49.7094 65.5230 0.0000 0.9989 0.0000
# 4 0.0000 0.0000 0.0000 27.0811 0.0000 4.9831
# 5 22.7526 27.3176 0.9989 0.0000 41.8886 0.0000
# 6 0.0000 0.0000 0.0000 4.9831 0.0000 57.5618
#
#
#
# Elastic Compliance Matrix: (Units=1/GPa)
#
#
# Indices 1 2 3 4 5 6 
#
# 1 0.013389 -0.005087 -0.004492 0.000000 -0.003848 0.000000
# 2 -0.005087 0.018272 -0.010531 0.000000 -0.008901 0.000000
# 3 -0.004492 -0.010531 0.025940 0.000000 0.008689 0.000000
# 4 0.000000 0.000000 0.000000 0.037524 0.000000 -0.003248
# 5 -0.003848 -0.008901 0.008689 0.000000 0.031561 0.000000
# 6 0.000000 0.000000 0.000000 -0.003248 0.000000 0.017654
#
#
# Mechanical properties :
#
#
# Convention : Reuss Voigt Hill
#
# Bulk Modulus (GPa) = 57.53270 69.00977 63.27123
# Shear Modulus (GPa) = 26.26703 34.83784 30.55243
#
# Velocity S-wave (km/s) = 3.42091 3.93969 3.68943
# Velocity P-wave (km/s) = 6.42151 7.17220 6.80721
#
# Compressibility (1/GPa) = 0.01738142
#
# Stress axis : x y z
#
# Youngs Moduli (GPa) = 74.68574 54.72967 38.55079
#
# Poissons Ratio (x) = 0.27842 0.17315
# Poissons Ratio (y) = 0.37994 0.40598
# Poissons Ratio (z) = 0.33545 0.57636
#
# Static dielectric constant tensor:
#      x y z
#    x 4.549220 0.000000 0.141530 
#    y 0.000000 4.186380 0.000000 
#    z 0.141530 0.000000 3.606230 
# 
# 
# High freq. dielectric constant tensor:
#      x y z
#    x 1.898700 0.000000 0.004100 
#    y 0.000000 1.870310 0.000000 
#    z 0.004100 0.000000 1.852240 
# 
# From -- ./inp_files/120532.got.cif
#   From: 2010.06.25/outbox.cif.g09.slc.cpg/sg12_61_cif.got.tgz:120532.got - 2010.06.28 00:19:55.
