data_PCOD8089438
_publ_section_title
;
Structure prediction by ZEFSAII (Michael W. Deem and Ramdas Pophale) SiO2 
 PCOD8089438
Probable space group: C 2/M
;
_chemical_formula_sum "Si O2"
_cell_formula_units_Z 40
_cell_length_a 18.888170
_cell_length_b 8.860908
_cell_length_c 14.971407
_cell_angle_alpha 90.000000
_cell_angle_beta 70.186237
_cell_angle_gamma 90.000000
_cell_volume 2357.369970
_symmetry_space_group_name_H-M "C 2/M"
_symmetry_group_IT_number 12
_symmetry_cell_setting 'monoclinic'
loop_
_space_group_symop_operation_xyz
x,y,z
-x,y,-z
-x,-y,-z
x,-y,z
1/2+x,1/2+y,z
1/2-x,1/2+y,-z
1/2-x,1/2-y,-z
1/2+x,1/2-y,z
loop_
_atom_site_type_symbol
_atom_site_label
_atom_site_fract_x
_atom_site_fract_y
_atom_site_fract_z
Si Si1 0.759315 0.670840 0.902224
Si Si2 0.979162 0.823417 0.409566
Si Si3 0.238063 0.678724 0.736364
Si Si4 0.118158 0.329395 0.281371
Si Si5 0.315582 0.678601 0.413854
O O1 0.728923 0.500000 0.921775
O O2 0.712269 0.760194 0.845368
O O3 0.847588 0.672965 0.834385
O O4 0.750000 0.750000 0.000000
O O5 0.894563 0.774968 0.424112
O O6 0.000000 0.769218 0.500000
O O7 0.035318 0.741225 0.316578
O O8 0.991329 0.000000 0.392388
O O9 0.231877 0.500000 0.734199
O O10 0.324751 0.731273 0.680446
O O11 0.184611 0.753275 0.685430
O O12 0.115821 0.500000 0.319358
O O13 0.304883 0.500000 0.414728
O O14 0.250000 0.750000 0.500000
#
# Coordination Sequence:
#
# PCOD8089438 Si02
#       5
#     8   8   8   8   8
#     4   9  18  32  54  84 109 137 176 222 269 317
#     4  10  21  35  52  75 105 141 180 219 266 321
#     4  10  19  33  53  76 106 141 177 219 265 312
#     4   9  19  33  52  78 106 134 175 220 262 316
#     4  11  22  35  52  77 108 142 181 223 266 321
#
# _framework density 16.968063000000001
#
# number of rings (size 3 to 8) (size 9 to 14) (size 15 to 20)
#    1.200    1.000    0.000    4.200    0.000    3.600 
#    0.000    0.000    0.000    1.200    0.000    8.400 
#    0.000    0.000    0.000    0.000    0.000    0.000 
#
# Total GULP energy -247866.194033 kJ/mol
# GULP energy per Si atom -12393.309702 kJ/mol
# Density = 1.692944 g / cm^3
# Si number density = 16.968063 Si / 1000 Ang^3
#
#
#
# Elastic Constant Matrix: (Units=GPa)
#
#
# Indices 1 2 3 4 5 6 
#
# 1 112.6349 62.6817 58.2400 0.0000 10.1503 0.0000
# 2 62.6817 117.0279 50.8335 0.0000 6.6474 0.0000
# 3 58.2400 50.8335 106.9930 0.0000 16.7321 0.0000
# 4 0.0000 0.0000 0.0000 33.2281 0.0000 0.3692
# 5 10.1503 6.6474 16.7321 0.0000 26.2777 0.0000
# 6 0.0000 0.0000 0.0000 0.3692 0.0000 27.7391
#
#
#
# Elastic Compliance Matrix: (Units=1/GPa)
#
#
# Indices 1 2 3 4 5 6 
#
# 1 0.014785 -0.005587 -0.005244 0.000000 -0.000959 0.000000
# 2 -0.005587 0.012887 -0.003231 0.000000 0.000955 0.000000
# 3 -0.005244 -0.003231 0.014761 0.000000 -0.006556 0.000000
# 4 0.000000 0.000000 0.000000 0.030099 0.000000 -0.000401
# 5 -0.000959 0.000955 -0.006556 0.000000 0.042358 0.000000
# 6 0.000000 0.000000 0.000000 -0.000401 0.000000 0.036056
#
#
# Mechanical properties :
#
#
# Convention : Reuss Voigt Hill
#
# Bulk Modulus (GPa) = 69.88198 75.57403 72.72801
# Shear Modulus (GPa) = 27.19774 28.44235 27.82005
#
# Velocity S-wave (km/s) = 4.00794 4.09862 4.05353
# Velocity P-wave (km/s) = 7.91782 8.18742 8.05375
#
# Compressibility (1/GPa) = 0.01430984
#
# Stress axis : x y z
#
# Youngs Moduli (GPa) = 67.63528 77.60058 67.74622
#
# Poissons Ratio (x) = 0.43355 0.35524
# Poissons Ratio (y) = 0.37788 0.21887
# Poissons Ratio (z) = 0.35466 0.25071
#
# Static dielectric constant tensor:
#      x y z
#    x 3.056140 0.000000 0.063270 
#    y 0.000000 3.229950 0.000000 
#    z 0.063270 0.000000 3.051020 
# 
# 
# High freq. dielectric constant tensor:
#      x y z
#    x 1.628560 0.000000 0.003470 
#    y 0.000000 1.672460 0.000000 
#    z 0.003470 0.000000 1.641830 
# 
# From -- ./inp_files/220228.got.cif
#   From: 2010.06.25/outbox.cif.g09.slc.cpg/sg12_111_cif.got.tgz:220228.got - 2010.06.28 00:19:55.
