data_PCOD8089979
_publ_section_title
;
Structure prediction by ZEFSAII (Michael W. Deem and Ramdas Pophale) SiO2 
 PCOD8089979
Probable space group: C 2/M
;
_chemical_formula_sum "Si O2"
_cell_formula_units_Z 56
_cell_length_a 21.909070
_cell_length_b 9.439899
_cell_length_c 20.090158
_cell_angle_alpha 90.000000
_cell_angle_beta 49.105546
_cell_angle_gamma 90.000000
_cell_volume 3140.860621
_symmetry_space_group_name_H-M "C 2/M"
_symmetry_group_IT_number 12
_symmetry_cell_setting 'monoclinic'
loop_
_space_group_symop_operation_xyz
x,y,z
-x,y,-z
-x,-y,-z
x,-y,z
1/2+x,1/2+y,z
1/2-x,1/2+y,-z
1/2-x,1/2-y,-z
1/2+x,1/2-y,z
loop_
_atom_site_type_symbol
_atom_site_label
_atom_site_fract_x
_atom_site_fract_y
_atom_site_fract_z
Si Si1 0.193319 0.161353 0.126004
Si Si2 0.520310 0.161227 0.911812
Si Si3 0.641331 0.842115 0.053365
Si Si4 0.834283 0.832814 0.244425
Si Si5 0.270694 0.162713 0.551713
Si Si6 0.200529 0.835477 0.272173
Si Si7 0.904173 0.339302 0.559677
O O1 0.129777 0.248747 0.127590
O O2 0.173053 0.187119 0.216715
O O3 0.181497 0.000000 0.114566
O O4 0.284326 0.213188 0.044881
O O5 0.437092 0.165809 0.933858
O O6 0.578487 0.262888 0.827797
O O7 0.555070 0.000000 0.890529
O O8 0.500000 0.218974 0.000000
O O9 0.658750 0.000000 0.065679
O O10 0.796608 0.800433 0.344137
O O11 0.779435 0.758309 0.228047
O O12 0.839248 0.000000 0.227715
O O13 0.250000 0.250000 0.500000
O O14 0.361330 0.193094 0.517946
O O15 0.264304 0.000000 0.534903
O O16 0.126972 0.778457 0.367920
O O17 0.218283 0.000000 0.275742
O O18 0.876761 0.500000 0.598410
O O19 0.000000 0.327257 0.500000
#
# Coordination Sequence:
#
# PCOD8089979 Si02
#       7
#     8   8   8   8   8   8   8
#     4   9  18  33  51  72 101 135 170 213 261 304
#     4  10  20  35  54  77 107 141 178 221 265 310
#     4   9  18  32  50  72 100 136 175 212 254 307
#     4  10  21  36  54  79 109 140 178 220 264 319
#     4   9  19  36  57  80 106 142 180 221 274 326
#     4  10  19  33  55  79 103 135 174 216 263 314
#     4   9  19  37  57  79 109 139 175 225 272 321
#
# _framework density 17.829508000000001
#
# number of rings (size 3 to 8) (size 9 to 14) (size 15 to 20)
#    0.000    2.571    0.000    2.571    0.000    7.429 
#    2.571    2.857    0.000    0.000    0.000    0.000 
#    0.000    0.000    0.000    0.000    0.000    0.000 
#
# Total GULP energy -346997.896862 kJ/mol
# GULP energy per Si atom -12392.782031 kJ/mol
# Density = 1.778893 g / cm^3
# Si number density = 17.829508 Si / 1000 Ang^3
#
#
#
# Elastic Constant Matrix: (Units=GPa)
#
#
# Indices 1 2 3 4 5 6 
#
# 1 101.2312 56.1448 47.8684 0.0008 15.3598 -0.0001
# 2 56.1448 90.6271 48.9691 0.0052 19.2561 -0.0047
# 3 47.8684 48.9691 70.3896 -0.0001 11.5047 0.0000
# 4 0.0008 0.0052 -0.0001 54.2380 -0.0003 -0.5658
# 5 15.3598 19.2561 11.5047 -0.0003 23.6185 0.0005
# 6 -0.0001 -0.0047 0.0000 -0.5658 0.0005 33.5273
#
#
#
# Elastic Compliance Matrix: (Units=1/GPa)
#
#
# Indices 1 2 3 4 5 6 
#
# 1 0.016951 -0.006329 -0.006700 0.000000 -0.002600 -0.000001
# 2 -0.006329 0.022073 -0.009543 -0.000002 -0.009232 0.000003
# 3 -0.006700 -0.009543 0.025444 0.000001 -0.000256 -0.000001
# 4 0.000000 -0.000002 0.000001 0.018441 0.000001 0.000311
# 5 -0.002600 -0.009232 -0.000256 0.000001 0.051682 -0.000002
# 6 -0.000001 0.000003 -0.000001 0.000311 -0.000002 0.029832
#
#
# Mechanical properties :
#
#
# Convention : Reuss Voigt Hill
#
# Bulk Modulus (GPa) = 51.74766 63.13472 57.44119
# Shear Modulus (GPa) = 23.14738 29.56113 26.35425
#
# Velocity S-wave (km/s) = 3.60705 4.07626 3.84881
# Velocity P-wave (km/s) = 6.81428 7.59221 7.21374
#
# Compressibility (1/GPa) = 0.01932454
#
# Stress axis : x y z
#
# Youngs Moduli (GPa) = 58.99346 45.30411 39.30249
#
# Poissons Ratio (x) = 0.28672 0.26331
# Poissons Ratio (y) = 0.37336 0.37507
# Poissons Ratio (z) = 0.39524 0.43234
#
# Static dielectric constant tensor:
#      x y z
#    x 3.306700 0.000000 0.001050 
#    y 0.000000 3.536710 0.000000 
#    z 0.001050 0.000000 3.263320 
# 
# 
# High freq. dielectric constant tensor:
#      x y z
#    x 1.692680 0.000000 0.001800 
#    y 0.000000 1.695890 0.000000 
#    z 0.001800 0.000000 1.675310 
# 
# From -- ./inp_files/281613.got.cif
#   From: 2010.06.25/outbox.cif.g09.slc.cpg/sg12_141_cif.got.tgz:281613.got - 2010.06.28 00:19:55.
