data_PCOD8089272
_publ_section_title
;
Structure prediction by ZEFSAII (Michael W. Deem and Ramdas Pophale) SiO2 
 PCOD8089272
Probable space group: C 2/M
;
_chemical_formula_sum "Si O2"
_cell_formula_units_Z 64
_cell_length_a 26.308721
_cell_length_b 12.449807
_cell_length_c 15.564666
_cell_angle_alpha 90.000000
_cell_angle_beta 140.281844
_cell_angle_gamma 90.000000
_cell_volume 3257.698576
_symmetry_space_group_name_H-M "C 2/M"
_symmetry_group_IT_number 12
_symmetry_cell_setting 'monoclinic'
loop_
_space_group_symop_operation_xyz
x,y,z
-x,y,-z
-x,-y,-z
x,-y,z
1/2+x,1/2+y,z
1/2-x,1/2+y,-z
1/2-x,1/2-y,-z
1/2+x,1/2-y,z
loop_
_atom_site_type_symbol
_atom_site_label
_atom_site_fract_x
_atom_site_fract_y
_atom_site_fract_z
Si Si1 0.166574 0.876638 0.067067
Si Si2 0.189486 0.221883 0.786979
Si Si3 0.415275 0.111662 0.423781
Si Si4 0.564119 0.758911 0.387072
Si Si5 0.204750 0.877804 0.627331
Si Si6 0.017769 0.626702 0.151001
Si Si7 0.913455 0.120720 0.210720
Si Si8 0.879429 0.296871 0.869058
O O1 0.231955 0.794870 0.112912
O O2 0.133987 0.825715 0.114147
O O3 0.195937 0.000000 0.121961
O O4 0.097950 0.878243 0.906627
O O5 0.116944 0.302011 0.683267
O O6 0.186974 0.138401 0.705128
O O7 0.168119 0.161922 0.848276
O O8 0.500000 0.083396 0.500000
O O9 0.414414 0.146209 0.521061
O O10 0.365125 0.000000 0.355375
O O11 0.644831 0.687630 0.486642
O O12 0.538118 0.816018 0.266045
O O13 0.492074 0.689106 0.333150
O O14 0.296099 0.846637 0.731203
O O15 0.191843 0.000000 0.584996
O O16 0.040506 0.500000 0.181155
O O17 0.065890 0.696035 0.143585
O O18 0.923744 0.637767 0.004404
O O19 0.929535 0.000000 0.264016
#
# Coordination Sequence:
#
# PCOD8089272 Si02
#       8
#     8   8   8   8   8   8   8   8
#     4  10  21  38  59  85 119 154 191 245 301 351
#     4  10  20  35  57  81 115 153 201 238 283 349
#     4  10  19  33  52  76 110 149 189 234 283 340
#     4  11  22  37  56  87 122 156 199 241 294 359
#     4  10  21  37  59  88 120 157 196 245 298 350
#     4  11  22  40  66  90 117 154 196 251 304 353
#     4  11  21  36  55  81 120 159 196 242 290 344
#     4  10  21  41  64  89 117 148 200 248 302 358
#
# _framework density 19.645771
#
# number of rings (size 3 to 8) (size 9 to 14) (size 15 to 20)
#    0.000    1.625    2.500    3.375    0.000    0.500 
#    0.000    5.000    0.000    0.000    0.000    0.000 
#    0.000    0.000    0.000    0.000    0.000    0.000 
#
# Total GULP energy -396434.396640 kJ/mol
# GULP energy per Si atom -12388.574895 kJ/mol
# Density = 1.960106 g / cm^3
# Si number density = 19.645771 Si / 1000 Ang^3
#
#
#
# Elastic Constant Matrix: (Units=GPa)
#
#
# Indices 1 2 3 4 5 6 
#
# 1 59.1435 35.8067 12.0528 0.0000 9.0629 0.0000
# 2 35.8067 110.2853 21.0209 0.0000 -0.1629 0.0000
# 3 12.0528 21.0209 69.6062 0.0000 9.5332 0.0000
# 4 0.0000 0.0000 0.0000 88.3020 0.0000 9.4872
# 5 9.0629 -0.1629 9.5332 0.0000 31.7842 0.0000
# 6 0.0000 0.0000 0.0000 9.4872 0.0000 24.6211
#
#
#
# Elastic Compliance Matrix: (Units=1/GPa)
#
#
# Indices 1 2 3 4 5 6 
#
# 1 0.022319 -0.007087 -0.000884 0.000000 -0.006135 0.000000
# 2 -0.007087 0.011900 -0.002765 0.000000 0.002911 0.000000
# 3 -0.000884 -0.002765 0.015979 0.000000 -0.004555 0.000000
# 4 0.000000 0.000000 0.000000 0.011814 0.000000 -0.004552
# 5 -0.006135 0.002911 -0.004555 0.000000 0.034593 0.000000
# 6 0.000000 0.000000 0.000000 -0.004552 0.000000 0.042370
#
#
# Mechanical properties :
#
#
# Convention : Reuss Voigt Hill
#
# Bulk Modulus (GPa) = 34.81354 41.86621 38.33987
# Shear Modulus (GPa) = 29.40819 40.28508 34.84664
#
# Velocity S-wave (km/s) = 3.87321 4.53324 4.21616
# Velocity P-wave (km/s) = 6.14503 6.98263 6.57718
#
# Compressibility (1/GPa) = 0.02872446
#
# Stress axis : x y z
#
# Youngs Moduli (GPa) = 44.80508 84.03589 62.58402
#
# Poissons Ratio (x) = 0.59555 0.05534
# Poissons Ratio (y) = 0.31753 0.17306
# Poissons Ratio (z) = 0.03962 0.23238
#
# Static dielectric constant tensor:
#      x y z
#    x 3.255790 0.000000 0.072080 
#    y 0.000000 3.941860 0.000000 
#    z 0.072080 0.000000 3.596690 
# 
# 
# High freq. dielectric constant tensor:
#      x y z
#    x 1.749000 0.000000 0.009150 
#    y 0.000000 1.776570 0.000000 
#    z 0.009150 0.000000 1.766450 
# 
# From -- ./inp_files/245935.got.cif
#   From: 2010.06.25/outbox.cif.g09.slc.cpg/sg12_123_cif.got.tgz:245935.got - 2010.06.28 00:19:55.
