data_PCOD8089840
_publ_section_title
;
Structure prediction by ZEFSAII (Michael W. Deem and Ramdas Pophale) SiO2 
 PCOD8089840
Probable space group: C 2/M
;
_chemical_formula_sum "Si O2"
_cell_formula_units_Z 56
_cell_length_a 15.681119
_cell_length_b 9.338919
_cell_length_c 23.368004
_cell_angle_alpha 90.000000
_cell_angle_beta 125.008589
_cell_angle_gamma 90.000000
_cell_volume 2802.942597
_symmetry_space_group_name_H-M "C 2/M"
_symmetry_group_IT_number 12
_symmetry_cell_setting 'monoclinic'
loop_
_space_group_symop_operation_xyz
x,y,z
-x,y,-z
-x,-y,-z
x,-y,z
1/2+x,1/2+y,z
1/2-x,1/2+y,-z
1/2-x,1/2-y,-z
1/2+x,1/2-y,z
loop_
_atom_site_type_symbol
_atom_site_label
_atom_site_fract_x
_atom_site_fract_y
_atom_site_fract_z
Si Si1 0.400893 0.160754 0.501597
Si Si2 0.221197 0.830127 0.636011
Si Si3 0.027485 0.844557 0.137940
Si Si4 0.318746 0.343645 0.987118
Si Si5 0.975454 0.833500 0.363181
Si Si6 0.934186 0.835881 0.722413
Si Si7 0.394414 0.842484 0.923130
O O1 0.500000 0.148565 0.500000
O O2 0.314594 0.256461 0.436891
O O3 0.434046 0.240456 0.572371
O O4 0.358422 0.000000 0.498698
O O5 0.139806 0.794133 0.656679
O O6 0.334241 0.765580 0.692136
O O7 0.229376 0.000000 0.629914
O O8 0.999769 0.813129 0.193589
O O9 0.095350 0.715753 0.137716
O O10 0.085010 0.000000 0.156699
O O11 0.929031 0.856147 0.059377
O O12 0.268839 0.500000 0.959430
O O13 0.319489 0.268367 0.925906
O O14 0.250000 0.250000 0.000000
O O15 0.988493 0.797456 0.300579
O O16 0.997189 0.000000 0.384550
O O17 0.895897 0.000000 0.700893
O O18 0.343428 0.000000 0.899468
O O19 0.500000 0.852434 0.000000
#
# Coordination Sequence:
#
# PCOD8089840 Si02
#       7
#     8   8   8   8   8   8   8
#     4   9  17  31  54  81 107 139 181 231 280 324
#     4  10  20  35  55  81 110 142 185 230 277 328
#     4   9  19  36  55  75 105 143 178 215 267 327
#     4  10  19  33  54  81 110 139 176 221 269 320
#     4   9  19  36  56  78 108 145 182 226 276 328
#     4  10  21  38  57  77 109 149 186 221 270 332
#     4   9  17  31  53  77 101 132 170 214 261 308
#
# _framework density 19.979002999999999
#
# number of rings (size 3 to 8) (size 9 to 14) (size 15 to 20)
#    0.000    2.571    0.000    1.714    0.000    6.286 
#    2.571    0.000    0.000    0.000    0.000    0.000 
#    0.000    0.000    0.000    0.000    0.000    0.000 
#
# Total GULP energy -346941.911480 kJ/mol
# GULP energy per Si atom -12390.782553 kJ/mol
# Density = 1.993353 g / cm^3
# Si number density = 19.979003 Si / 1000 Ang^3
#
#
#
# Elastic Constant Matrix: (Units=GPa)
#
#
# Indices 1 2 3 4 5 6 
#
# 1 81.5785 46.2987 16.6023 0.0000 -26.9844 0.0000
# 2 46.2987 141.3747 22.2603 0.0000 -21.4868 0.0000
# 3 16.6023 22.2603 50.1102 0.0000 -31.7756 0.0000
# 4 0.0000 0.0000 0.0000 23.5447 0.0000 -2.2840
# 5 -26.9844 -21.4868 -31.7756 0.0000 35.3643 0.0000
# 6 0.0000 0.0000 0.0000 -2.2840 0.0000 33.2205
#
#
#
# Elastic Compliance Matrix: (Units=1/GPa)
#
#
# Indices 1 2 3 4 5 6 
#
# 1 0.019689 -0.004764 0.007634 0.000000 0.018988 0.000000
# 2 -0.004764 0.008970 -0.002918 0.000000 -0.000807 0.000000
# 3 0.007634 -0.002918 0.049490 0.000000 0.048520 0.000000
# 4 0.000000 0.000000 0.000000 0.042758 0.000000 0.002940
# 5 0.018988 -0.000807 0.048520 0.000000 0.085872 0.000000
# 6 0.000000 0.000000 0.000000 0.002940 0.000000 0.030304
#
#
# Mechanical properties :
#
#
# Convention : Reuss Voigt Hill
#
# Bulk Modulus (GPa) = 12.81184 49.26510 31.03847
# Shear Modulus (GPa) = 18.99707 30.95271 24.97489
#
# Velocity S-wave (km/s) = 3.08693 3.94034 3.53945
# Velocity P-wave (km/s) = 4.37403 6.73896 5.68092
#
# Compressibility (1/GPa) = 0.07805282
#
# Stress axis : x y z
#
# Youngs Moduli (GPa) = 50.78919 111.47743 20.20591
#
# Poissons Ratio (x) = 0.53109 -0.15424
# Poissons Ratio (y) = 0.24196 0.05896
# Poissons Ratio (z) = -0.38770 0.32531
#
# Static dielectric constant tensor:
#      x y z
#    x 3.298520 0.000000 -0.374850 
#    y 0.000000 4.033680 0.000000 
#    z -0.374850 0.000000 3.432350 
# 
# 
# High freq. dielectric constant tensor:
#      x y z
#    x 1.761890 0.000000 -0.025080 
#    y 0.000000 1.794350 0.000000 
#    z -0.025080 0.000000 1.756980 
# 
# From -- ./inp_files/342588.got.cif
#   From: 2010.06.25/outbox.cif.g09.slc.cpg/sg12_172_cif.got.tgz:342588.got - 2010.06.28 00:19:55.
