data_PCOD8089608
_publ_section_title
;
Structure prediction by ZEFSAII (Michael W. Deem and Ramdas Pophale) SiO2 
 PCOD8089608
Probable space group: C 2/M
;
_chemical_formula_sum "Si O2"
_cell_formula_units_Z 64
_cell_length_a 28.674325
_cell_length_b 9.028640
_cell_length_c 15.676984
_cell_angle_alpha 90.000000
_cell_angle_beta 62.517107
_cell_angle_gamma 90.000000
_cell_volume 3600.596506
_symmetry_space_group_name_H-M "C 2/M"
_symmetry_group_IT_number 12
_symmetry_cell_setting 'monoclinic'
loop_
_space_group_symop_operation_xyz
x,y,z
-x,y,-z
-x,-y,-z
x,-y,z
1/2+x,1/2+y,z
1/2-x,1/2+y,-z
1/2-x,1/2-y,-z
1/2+x,1/2-y,z
loop_
_atom_site_type_symbol
_atom_site_label
_atom_site_fract_x
_atom_site_fract_y
_atom_site_fract_z
Si Si1 0.327078 0.173828 0.402148
Si Si2 0.366436 0.829615 0.847708
Si Si3 0.539352 0.674955 0.153170
Si Si4 0.804942 0.332178 0.065429
Si Si5 0.779663 0.173956 0.597700
Si Si6 0.415859 0.168741 0.046098
Si Si7 0.287823 0.829180 0.768698
Si Si8 0.434209 0.174532 0.223516
O O1 0.279629 0.217735 0.378710
O O2 0.321032 0.255850 0.497217
O O3 0.381072 0.227699 0.314312
O O4 0.326910 0.000000 0.420310
O O5 0.418558 0.731079 0.812656
O O6 0.341742 0.805246 0.775574
O O7 0.382478 0.000000 0.850394
O O8 0.323858 0.783850 0.955403
O O9 0.536941 0.500000 0.158248
O O10 0.482701 0.740965 0.226152
O O11 0.554838 0.726973 0.045463
O O12 0.782784 0.500000 0.084381
O O13 0.853097 0.319077 0.090896
O O14 0.760303 0.219765 0.131594
O O15 0.791747 0.233198 0.680955
O O16 0.787979 0.000000 0.591002
O O17 0.431538 0.220595 0.126851
O O18 0.434101 0.000000 0.013149
O O19 0.279908 0.000000 0.751129
O O20 0.441772 0.000000 0.227703
#
# Coordination Sequence:
#
# PCOD8089608 Si02
#       8
#     8   8   8   8   8   8   8   8
#     4   9  19  36  56  78 103 133 168 201 241 299
#     4   9  20  37  52  68  97 138 177 209 246 297
#     4  11  22  33  48  73 103 133 170 216 257 290
#     4   9  17  31  50  73 103 135 169 208 248 293
#     4  10  20  35  55  79 107 134 161 200 250 298
#     4   9  18  33  51  72 102 140 174 201 241 301
#     4  11  21  32  51  77 102 132 171 209 247 298
#     4  10  19  33  54  74  98 136 174 205 244 299
#
# _framework density 17.774830999999999
#
# number of rings (size 3 to 8) (size 9 to 14) (size 15 to 20)
#    0.000    2.250    0.000    4.125    0.000    8.000 
#    0.000    1.250    0.000    0.750    0.000    5.250 
#    0.000    0.000    0.000    0.000    0.000    0.000 
#
# Total GULP energy -396896.401106 kJ/mol
# GULP energy per Si atom -12403.012535 kJ/mol
# Density = 1.773437 g / cm^3
# Si number density = 17.774831 Si / 1000 Ang^3
#
#
#
# Elastic Constant Matrix: (Units=GPa)
#
#
# Indices 1 2 3 4 5 6 
#
# 1 93.8535 40.0174 53.9924 0.0000 -6.5576 0.0000
# 2 40.0174 62.1268 36.7203 0.0000 -7.3296 0.0000
# 3 53.9924 36.7203 80.5661 0.0000 -0.3647 0.0000
# 4 0.0000 0.0000 0.0000 29.0841 0.0000 -1.2469
# 5 -6.5576 -7.3296 -0.3647 0.0000 27.6620 0.0000
# 6 0.0000 0.0000 0.0000 -1.2469 0.0000 26.3211
#
#
#
# Elastic Compliance Matrix: (Units=1/GPa)
#
#
# Indices 1 2 3 4 5 6 
#
# 1 0.019279 -0.006099 -0.010127 0.000000 0.002821 0.000000
# 2 -0.006099 0.024900 -0.007238 0.000000 0.005056 0.000000
# 3 -0.010127 -0.007238 0.022480 0.000000 -0.004022 0.000000
# 4 0.000000 0.000000 0.000000 0.034453 0.000000 0.001632
# 5 0.002821 0.005056 -0.004022 0.000000 0.038106 0.000000
# 6 0.000000 0.000000 0.000000 0.001632 0.000000 0.038070
#
#
# Mechanical properties :
#
#
# Convention : Reuss Voigt Hill
#
# Bulk Modulus (GPa) = 50.68785 55.33406 53.01095
# Shear Modulus (GPa) = 21.66451 23.66785 22.66618
#
# Velocity S-wave (km/s) = 3.49496 3.65298 3.57485
# Velocity P-wave (km/s) = 6.69813 6.99932 6.85038
#
# Compressibility (1/GPa) = 0.01972859
#
# Stress axis : x y z
#
# Youngs Moduli (GPa) = 51.87109 40.16123 44.48444
#
# Poissons Ratio (x) = 0.24496 0.45050
# Poissons Ratio (y) = 0.31638 0.32199
# Poissons Ratio (z) = 0.52530 0.29070
#
# Static dielectric constant tensor:
#      x y z
#    x 3.365430 0.000000 0.025590 
#    y 0.000000 3.208480 0.000000 
#    z 0.025590 0.000000 3.169610 
# 
# 
# High freq. dielectric constant tensor:
#      x y z
#    x 1.688560 0.000000 0.002380 
#    y 0.000000 1.685230 0.000000 
#    z 0.002380 0.000000 1.667230 
# 
# From -- ./inp_files/243849.got.cif
#   From: 2010.06.25/outbox.cif.g09.slc.cpg/sg12_122_cif.got.tgz:243849.got - 2010.06.28 00:19:55.
