data_PCOD8089485
_publ_section_title
;
Structure prediction by ZEFSAII (Michael W. Deem and Ramdas Pophale) SiO2 
 PCOD8089485
Probable space group: C 2/M
;
_chemical_formula_sum "Si O2"
_cell_formula_units_Z 64
_cell_length_a 30.471171
_cell_length_b 9.133952
_cell_length_c 15.096515
_cell_angle_alpha 90.000000
_cell_angle_beta 128.346631
_cell_angle_gamma 90.000000
_cell_volume 3295.270825
_symmetry_space_group_name_H-M "C 2/M"
_symmetry_group_IT_number 12
_symmetry_cell_setting 'monoclinic'
loop_
_space_group_symop_operation_xyz
x,y,z
-x,y,-z
-x,-y,-z
x,-y,z
1/2+x,1/2+y,z
1/2-x,1/2+y,-z
1/2-x,1/2-y,-z
1/2+x,1/2-y,z
loop_
_atom_site_type_symbol
_atom_site_label
_atom_site_fract_x
_atom_site_fract_y
_atom_site_fract_z
Si Si1 0.148221 0.333213 0.216707
Si Si2 0.384956 0.673919 0.500491
Si Si3 0.203418 0.330517 0.101546
Si Si4 0.169885 0.173551 0.747118
Si Si5 0.308117 0.328510 0.564777
Si Si6 0.882828 0.173926 0.134797
Si Si7 0.949679 0.839638 0.873587
Si Si8 0.008514 0.826032 0.263545
O O1 0.150672 0.500000 0.253300
O O2 0.190442 0.310834 0.188956
O O3 0.157779 0.217479 0.306796
O O4 0.085778 0.281128 0.114952
O O5 0.386043 0.500000 0.498037
O O6 0.364124 0.738338 0.379975
O O7 0.340677 0.726398 0.518650
O O8 0.447586 0.729142 0.605592
O O9 0.198765 0.500000 0.067458
O O10 0.266172 0.267972 0.166879
O O11 0.158944 0.240141 0.989615
O O12 0.137360 0.224275 0.793657
O O13 0.172643 0.000000 0.741387
O O14 0.297600 0.500000 0.547751
O O15 0.250000 0.250000 0.500000
O O16 0.945927 0.235812 0.202207
O O17 0.880572 0.000000 0.121294
O O18 0.969097 0.772575 0.803526
O O19 0.920258 0.000000 0.820889
O O20 0.000000 0.872190 0.000000
O O21 0.005064 0.000000 0.260561
#
# Coordination Sequence:
#
# PCOD8089485 Si02
#       8
#     8   8   8   8   8   8   8   8
#     4  11  22  35  53  79 109 144 187 225 267 325
#     4   9  17  32  54  78 111 145 175 218 279 332
#     4  10  21  37  54  76 112 148 180 222 283 337
#     4   9  18  33  54  81 108 139 178 227 278 326
#     4  11  21  35  56  80 111 149 185 222 272 327
#     4  10  20  34  57  85 107 134 183 233 272 323
#     4  10  19  33  53  77 110 147 180 222 277 331
#     4   9  17  31  51  80 112 141 175 220 275 330
#
# _framework density 19.421771
#
# number of rings (size 3 to 8) (size 9 to 14) (size 15 to 20)
#    0.000    2.125    1.250    2.625    0.000    4.750 
#    0.000    3.125    0.000    1.500    0.000    0.875 
#    0.000    0.000    0.000    0.000    0.000    0.000 
#
# Total GULP energy -396609.025157 kJ/mol
# GULP energy per Si atom -12394.032036 kJ/mol
# Density = 1.937757 g / cm^3
# Si number density = 19.421771 Si / 1000 Ang^3
#
#
#
# Elastic Constant Matrix: (Units=GPa)
#
#
# Indices 1 2 3 4 5 6 
#
# 1 122.2838 31.2251 39.2843 0.0000 12.9638 0.0000
# 2 31.2251 34.6187 20.7093 0.0000 -0.8527 0.0000
# 3 39.2843 20.7093 107.9388 0.0000 8.4406 0.0000
# 4 0.0000 0.0000 0.0000 21.8607 0.0000 0.1964
# 5 12.9638 -0.8527 8.4406 0.0000 35.6650 0.0000
# 6 0.0000 0.0000 0.0000 0.1964 0.0000 22.0432
#
#
#
# Elastic Compliance Matrix: (Units=1/GPa)
#
#
# Indices 1 2 3 4 5 6 
#
# 1 0.011672 -0.009342 -0.002146 0.000000 -0.003958 0.000000
# 2 -0.009342 0.040295 -0.004760 0.000000 0.005486 0.000000
# 3 -0.002146 -0.004760 0.011112 0.000000 -0.001964 0.000000
# 4 0.000000 0.000000 0.000000 0.045748 0.000000 -0.000408
# 5 -0.003958 0.005486 -0.001964 0.000000 0.030073 0.000000
# 6 0.000000 0.000000 0.000000 -0.000408 0.000000 0.045369
#
#
# Mechanical properties :
#
#
# Convention : Reuss Voigt Hill
#
# Bulk Modulus (GPa) = 32.69742 49.69763 41.19752
# Shear Modulus (GPa) = 22.03033 27.48861 24.75947
#
# Velocity S-wave (km/s) = 3.37161 3.76620 3.57435
# Velocity P-wave (km/s) = 5.65941 6.67506 6.18811
#
# Compressibility (1/GPa) = 0.03058345
#
# Stress axis : x y z
#
# Youngs Moduli (GPa) = 85.67378 24.81720 89.98900
#
# Poissons Ratio (x) = 0.23183 0.19314
# Poissons Ratio (y) = 0.80033 0.42835
# Poissons Ratio (z) = 0.18388 0.11813
#
# Static dielectric constant tensor:
#      x y z
#    x 3.744390 0.000000 -0.026410 
#    y 0.000000 3.095610 0.000000 
#    z -0.026410 0.000000 3.711530 
# 
# 
# High freq. dielectric constant tensor:
#      x y z
#    x 1.765290 0.000000 0.007620 
#    y 0.000000 1.708800 0.000000 
#    z 0.007620 0.000000 1.770740 
# 
# From -- ./inp_files/250113.got.cif
#   From: 2010.06.25/outbox.cif.g09.slc.cpg/sg12_126_cif.got.tgz:250113.got - 2010.06.28 00:19:55.
