data_PCOD8089993
_publ_section_title
;
Structure prediction by ZEFSAII (Michael W. Deem and Ramdas Pophale) SiO2 
 PCOD8089993
Probable space group: C 2/M
;
_chemical_formula_sum "Si O2"
_cell_formula_units_Z 56
_cell_length_a 26.830861
_cell_length_b 8.718421
_cell_length_c 14.404872
_cell_angle_alpha 90.000000
_cell_angle_beta 122.877068
_cell_angle_gamma 90.000000
_cell_volume 2829.938225
_symmetry_space_group_name_H-M "C 2/M"
_symmetry_group_IT_number 12
_symmetry_cell_setting 'monoclinic'
loop_
_space_group_symop_operation_xyz
x,y,z
-x,y,-z
-x,-y,-z
x,-y,z
1/2+x,1/2+y,z
1/2-x,1/2+y,-z
1/2-x,1/2-y,-z
1/2+x,1/2-y,z
loop_
_atom_site_type_symbol
_atom_site_label
_atom_site_fract_x
_atom_site_fract_y
_atom_site_fract_z
Si Si1 0.498250 0.817209 0.393334
Si Si2 0.385522 0.819866 0.163222
Si Si3 0.845039 0.180163 0.944566
Si Si4 0.716965 0.676155 0.827794
Si Si5 0.889503 0.319882 0.603316
Si Si6 0.151829 0.681065 0.242758
Si Si7 0.787150 0.174163 0.387927
O O1 0.500000 0.751763 0.500000
O O2 0.438412 0.760893 0.282837
O O3 0.554083 0.747145 0.392701
O O4 0.501167 0.000000 0.398635
O O5 0.323035 0.781144 0.147379
O O6 0.390231 0.000000 0.149801
O O7 0.391222 0.731737 0.070842
O O8 0.784178 0.268463 0.903523
O O9 0.871513 0.229644 0.871500
O O10 0.834092 0.000000 0.935709
O O11 0.713738 0.500000 0.857979
O O12 0.693599 0.692760 0.699404
O O13 0.895886 0.500000 0.607484
O O14 0.887789 0.266906 0.709298
O O15 0.828301 0.280021 0.491607
O O16 0.148448 0.500000 0.219294
O O17 0.219588 0.728979 0.332625
O O18 0.794853 0.000000 0.429260
#
# Coordination Sequence:
#
# PCOD8089993 Si02
#       7
#     8   8   8   8   8   8   8
#     4   9  19  35  55  81 109 137 176 220 259 308
#     4  11  21  35  56  79 107 142 178 220 267 312
#     4  11  22  36  55  79 107 139 177 219 267 322
#     4  10  20  35  54  80 113 143 176 217 263 317
#     4  10  19  33  55  79 105 142 184 224 264 311
#     4   9  19  35  53  77 109 141 178 222 267 316
#     4   9  18  31  49  77 111 141 170 216 271 320
#
# _framework density 19.788418
#
# number of rings (size 3 to 8) (size 9 to 14) (size 15 to 20)
#    0.000    2.143    0.000    4.714    0.000    4.571 
#    0.000    2.143    0.000    8.143    0.000    0.000 
#    0.000    0.000    0.000    0.000    0.000    0.000 
#
# Total GULP energy -347237.814552 kJ/mol
# GULP energy per Si atom -12401.350520 kJ/mol
# Density = 1.974338 g / cm^3
# Si number density = 19.788418 Si / 1000 Ang^3
#
#
#
# Elastic Constant Matrix: (Units=GPa)
#
#
# Indices 1 2 3 4 5 6 
#
# 1 108.4586 20.3028 56.0257 0.0000 -27.5179 0.0000
# 2 20.3028 40.6824 27.7501 0.0000 -8.2345 0.0000
# 3 56.0257 27.7501 140.0575 0.0000 -19.8986 0.0000
# 4 0.0000 0.0000 0.0000 30.1114 0.0000 -4.0146
# 5 -27.5179 -8.2345 -19.8986 0.0000 25.3841 0.0000
# 6 0.0000 0.0000 0.0000 -4.0146 0.0000 18.8213
#
#
#
# Elastic Compliance Matrix: (Units=1/GPa)
#
#
# Indices 1 2 3 4 5 6 
#
# 1 0.014659 -0.002338 -0.003658 0.000000 0.012266 0.000000
# 2 -0.002338 0.029470 -0.004395 0.000000 0.003580 0.000000
# 3 -0.003658 -0.004395 0.009800 0.000000 0.002290 0.000000
# 4 0.000000 0.000000 0.000000 0.034182 0.000000 0.007291
# 5 0.012266 0.003580 0.002290 0.000000 0.055648 0.000000
# 6 0.000000 0.000000 0.000000 0.007291 0.000000 0.054687
#
#
# Mechanical properties :
#
#
# Convention : Reuss Voigt Hill
#
# Bulk Modulus (GPa) = 30.16900 55.26172 42.71536
# Shear Modulus (GPa) = 21.71293 27.20467 24.45880
#
# Velocity S-wave (km/s) = 3.31608 3.71182 3.51952
# Velocity P-wave (km/s) = 5.47181 6.80860 6.17648
#
# Compressibility (1/GPa) = 0.03314661
#
# Stress axis : x y z
#
# Youngs Moduli (GPa) = 68.21524 33.93274 102.04596
#
# Poissons Ratio (x) = 0.07933 0.37331
# Poissons Ratio (y) = 0.15948 0.44851
# Poissons Ratio (z) = 0.24955 0.14914
#
# Static dielectric constant tensor:
#      x y z
#    x 3.722470 0.000000 -0.268410 
#    y 0.000000 3.327470 0.000000 
#    z -0.268410 0.000000 3.762940 
# 
# 
# High freq. dielectric constant tensor:
#      x y z
#    x 1.761280 0.000000 -0.020420 
#    y 0.000000 1.751410 0.000000 
#    z -0.020420 0.000000 1.776640 
# 
# From -- ./inp_files/238916.got.cif
#   From: 2010.06.25/outbox.cif.g09.slc.cpg/sg12_120_cif.got.tgz:238916.got - 2010.06.28 00:19:55.
