data_PCOD8089470
_publ_section_title
;
Structure prediction by ZEFSAII (Michael W. Deem and Ramdas Pophale) SiO2 
 PCOD8089470
Probable space group: C 2/M
;
_chemical_formula_sum "Si O2"
_cell_formula_units_Z 64
_cell_length_a 22.641999
_cell_length_b 8.669056
_cell_length_c 24.424020
_cell_angle_alpha 90.000000
_cell_angle_beta 45.292226
_cell_angle_gamma 90.000000
_cell_volume 3407.159776
_symmetry_space_group_name_H-M "C 2/M"
_symmetry_group_IT_number 12
_symmetry_cell_setting 'monoclinic'
loop_
_space_group_symop_operation_xyz
x,y,z
-x,y,-z
-x,-y,-z
x,-y,z
1/2+x,1/2+y,z
1/2-x,1/2+y,-z
1/2-x,1/2-y,-z
1/2+x,1/2-y,z
loop_
_atom_site_type_symbol
_atom_site_label
_atom_site_fract_x
_atom_site_fract_y
_atom_site_fract_z
Si Si1 0.839627 0.818671 0.457826
Si Si2 0.096807 0.820621 0.280963
Si Si3 0.002366 0.817337 0.157067
Si Si4 0.316137 0.318292 0.996383
Si Si5 0.733615 0.677938 0.852570
Si Si6 0.467026 0.179369 0.293157
Si Si7 0.439839 0.322231 0.084903
Si Si8 0.525768 0.318897 0.543169
O O1 0.750000 0.750000 0.500000
O O2 0.899133 0.780839 0.368597
O O3 0.887572 0.759083 0.483156
O O4 0.827640 0.000000 0.470758
O O5 0.193250 0.778346 0.221531
O O6 0.051711 0.777810 0.367210
O O7 0.057996 0.721742 0.256812
O O8 0.085202 0.000000 0.274928
O O9 0.963869 0.722417 0.231876
O O10 0.952568 0.755389 0.136950
O O11 0.994304 0.000000 0.173614
O O12 0.096078 0.764803 0.084194
O O13 0.311874 0.500000 0.001379
O O14 0.296038 0.254456 0.069858
O O15 0.250000 0.250000 0.000000
O O16 0.761512 0.500000 0.838402
O O17 0.656526 0.699749 0.863009
O O18 0.447447 0.000000 0.314345
O O19 0.467837 0.500000 0.068969
O O20 0.500000 0.242839 0.000000
O O21 0.500000 0.246918 0.500000
O O22 0.536663 0.500000 0.528553
#
# Coordination Sequence:
#
# PCOD8089470 Si02
#       8
#     8   8   8   8   8   8   8   8
#     4  10  20  37  62  89 119 152 187 226 277 338
#     4  10  20  35  56  81 109 142 179 223 276 331
#     4  10  19  34  55  77 104 140 182 226 272 327
#     4  10  20  31  48  73 100 134 175 220 266 319
#     4  10  19  33  53  77 105 139 180 222 270 328
#     4  11  22  37  57  81 111 145 184 230 276 324
#     4   9  16  32  56  76 101 142 186 224 271 330
#     4   8  16  34  59  83 109 145 183 221 271 329
#
# _framework density 18.783974000000001
#
# number of rings (size 3 to 8) (size 9 to 14) (size 15 to 20)
#    0.000    2.250    1.250    3.375    0.000    3.000 
#    2.250    0.625    0.000   13.500    0.000    0.000 
#    0.000    0.000    0.000    0.000    0.000    0.000 
#
# Total GULP energy -396570.769442 kJ/mol
# GULP energy per Si atom -12392.836545 kJ/mol
# Density = 1.874122 g / cm^3
# Si number density = 18.783974 Si / 1000 Ang^3
#
#
#
# Elastic Constant Matrix: (Units=GPa)
#
#
# Indices 1 2 3 4 5 6 
#
# 1 137.3439 23.5041 59.1677 -0.0005 18.6112 -0.0005
# 2 23.5041 36.1439 18.9058 0.0005 1.0249 -0.0041
# 3 59.1677 18.9058 91.3903 -0.0004 9.9437 0.0001
# 4 -0.0005 0.0005 -0.0004 25.8888 0.0004 -5.7776
# 5 18.6112 1.0249 9.9437 0.0004 35.1357 -0.0004
# 6 -0.0005 -0.0041 0.0001 -5.7776 -0.0004 22.5255
#
#
#
# Elastic Compliance Matrix: (Units=1/GPa)
#
#
# Indices 1 2 3 4 5 6 
#
# 1 0.011052 -0.003993 -0.005886 0.000000 -0.004072 -0.000001
# 2 -0.003993 0.032497 -0.004400 0.000001 0.002412 0.000006
# 3 -0.005886 -0.004400 0.015796 0.000000 -0.001224 -0.000001
# 4 0.000000 0.000001 0.000000 0.040972 0.000000 0.010509
# 5 -0.004072 0.002412 -0.001224 0.000000 0.030894 0.000001
# 6 -0.000001 0.000006 -0.000001 0.010509 0.000001 0.047090
#
#
# Mechanical properties :
#
#
# Convention : Reuss Voigt Hill
#
# Bulk Modulus (GPa) = 32.48113 52.00370 42.24241
# Shear Modulus (GPa) = 23.02868 27.59669 25.31269
#
# Velocity S-wave (km/s) = 3.50519 3.83712 3.67491
# Velocity P-wave (km/s) = 5.80614 6.88307 6.36741
#
# Compressibility (1/GPa) = 0.03078710
#
# Stress axis : x y z
#
# Youngs Moduli (GPa) = 90.48344 30.77233 63.30582
#
# Poissons Ratio (x) = 0.12286 0.37263
# Poissons Ratio (y) = 0.36126 0.27856
# Poissons Ratio (z) = 0.53260 0.13540
#
# Static dielectric constant tensor:
#      x y z
#    x 4.431470 -0.000050 0.889210 
#    y -0.000050 3.168720 -0.000050 
#    z 0.889210 -0.000050 4.375410 
# 
# 
# High freq. dielectric constant tensor:
#      x y z
#    x 1.741470 0.000000 0.002250 
#    y 0.000000 1.699140 0.000000 
#    z 0.002250 0.000000 1.727520 
# 
# From -- ./inp_files/345939.got.cif
#   From: 2010.06.25/outbox.cif.g09.slc.cpg/sg12_173_cif.got.tgz:345939.got - 2010.06.28 00:19:55.
