data_PCOD8089193
_publ_section_title
;
Structure prediction by ZEFSAII (Michael W. Deem and Ramdas Pophale) SiO2 
 PCOD8089193
Probable space group: C 2/M
;
_chemical_formula_sum "Si O2"
_cell_formula_units_Z 48
_cell_length_a 30.994309
_cell_length_b 8.843564
_cell_length_c 9.623411
_cell_angle_alpha 90.000000
_cell_angle_beta 90.821102
_cell_angle_gamma 90.000000
_cell_volume 2637.507586
_symmetry_space_group_name_H-M "C 2/M"
_symmetry_group_IT_number 12
_symmetry_cell_setting 'monoclinic'
loop_
_space_group_symop_operation_xyz
x,y,z
-x,y,-z
-x,-y,-z
x,-y,z
1/2+x,1/2+y,z
1/2-x,1/2+y,-z
1/2-x,1/2-y,-z
1/2+x,1/2-y,z
loop_
_atom_site_type_symbol
_atom_site_label
_atom_site_fract_x
_atom_site_fract_y
_atom_site_fract_z
Si Si1 0.997515 0.166061 0.664338
Si Si2 0.916879 0.322484 0.312446
Si Si3 0.154743 0.179366 0.873607
Si Si4 0.595642 0.679599 0.391379
Si Si5 0.667010 0.676364 0.187439
Si Si6 0.260263 0.177143 0.146772
O O1 0.948527 0.218829 0.695264
O O2 0.000000 0.153699 0.500000
O O3 0.033187 0.283443 0.720817
O O4 0.006802 0.000000 0.729872
O O5 0.910252 0.500000 0.306220
O O6 0.888477 0.243742 0.193943
O O7 0.902510 0.262623 0.461584
O O8 0.196712 0.243169 0.791006
O O9 0.155262 0.000000 0.862859
O O10 0.157149 0.239907 0.032604
O O11 0.598645 0.500000 0.419339
O O12 0.634933 0.745896 0.300966
O O13 0.657331 0.500000 0.180055
O O14 0.716865 0.706954 0.236253
O O15 0.268934 0.000000 0.130462
O O16 0.250000 0.250000 0.000000
#
# Coordination Sequence:
#
# PCOD8089193 Si02
#       6
#     8   8   8   8   8   8
#     4   8  15  29  50  71  92 124 163 197 233 283
#     4  11  21  32  48  72 100 129 161 198 241 288
#     4  10  19  33  52  73  97 128 165 202 241 283
#     4   9  17  33  54  74  96 124 160 200 240 284
#     4   8  16  31  53  76  96 122 159 201 240 282
#     4   9  16  29  49  73  99 128 162 196 235 286
#
# _framework density 18.199000999999999
#
# number of rings (size 3 to 8) (size 9 to 14) (size 15 to 20)
#    0.000    2.833    0.000    4.500    0.000    3.000 
#    0.000    6.667    0.000    5.000    0.000    0.000 
#    0.000    0.000    0.000    0.000    0.000    0.000 
#
# Total GULP energy -297387.099959 kJ/mol
# GULP energy per Si atom -12391.129165 kJ/mol
# Density = 1.815758 g / cm^3
# Si number density = 18.199001 Si / 1000 Ang^3
#
#
#
# Elastic Constant Matrix: (Units=GPa)
#
#
# Indices 1 2 3 4 5 6 
#
# 1 53.7701 14.1209 -1.6206 0.0000 -6.3838 0.0000
# 2 14.1209 75.9444 8.6421 0.0000 2.5319 0.0000
# 3 -1.6206 8.6421 24.5598 0.0000 -1.3484 0.0000
# 4 0.0000 0.0000 0.0000 16.7086 0.0000 4.5335
# 5 -6.3838 2.5319 -1.3484 0.0000 30.4474 0.0000
# 6 0.0000 0.0000 0.0000 4.5335 0.0000 30.3976
#
#
#
# Elastic Compliance Matrix: (Units=1/GPa)
#
#
# Indices 1 2 3 4 5 6 
#
# 1 0.020389 -0.004305 0.003122 0.000000 0.004771 0.000000
# 2 -0.004305 0.014682 -0.005581 0.000000 -0.002371 0.000000
# 3 0.003122 -0.005581 0.043053 0.000000 0.003025 0.000000
# 4 0.000000 0.000000 0.000000 0.062373 0.000000 -0.009302
# 5 0.004771 -0.002371 0.003025 0.000000 0.034175 0.000000
# 6 0.000000 0.000000 0.000000 -0.009302 0.000000 0.034285
#
#
# Mechanical properties :
#
#
# Convention : Reuss Voigt Hill
#
# Bulk Modulus (GPa) = 15.48074 21.83988 18.66031
# Shear Modulus (GPa) = 20.49044 24.38619 22.43832
#
# Velocity S-wave (km/s) = 3.35910 3.66454 3.51514
# Velocity P-wave (km/s) = 4.85485 5.47099 5.17210
#
# Compressibility (1/GPa) = 0.06459640
#
# Stress axis : x y z
#
# Youngs Moduli (GPa) = 49.04627 68.10992 23.22735
#
# Poissons Ratio (x) = 0.29324 -0.07252
# Poissons Ratio (y) = 0.21116 0.12962
# Poissons Ratio (z) = -0.15314 0.38009
#
# Static dielectric constant tensor:
#      x y z
#    x 4.161820 0.000000 -0.203410 
#    y 0.000000 3.290350 0.000000 
#    z -0.203410 0.000000 3.060300 
# 
# 
# High freq. dielectric constant tensor:
#      x y z
#    x 1.728510 0.000000 -0.001370 
#    y 0.000000 1.691910 0.000000 
#    z -0.001370 0.000000 1.656410 
# 
# From -- ./inp_files/179270.got.cif
#   From: 2010.06.25/outbox.cif.g09.slc.cpg/sg12_90_cif.got.tgz:179270.got - 2010.06.28 00:19:55.
