data_PCOD8089509
_publ_section_title
;
Structure prediction by ZEFSAII (Michael W. Deem and Ramdas Pophale) SiO2 
 PCOD8089509
Probable space group: C 2/M
;
_chemical_formula_sum "Si O2"
_cell_formula_units_Z 64
_cell_length_a 25.476067
_cell_length_b 20.166224
_cell_length_c 11.876878
_cell_angle_alpha 90.000000
_cell_angle_beta 147.776875
_cell_angle_gamma 90.000000
_cell_volume 3253.597853
_symmetry_space_group_name_H-M "C 2/M"
_symmetry_group_IT_number 12
_symmetry_cell_setting 'monoclinic'
loop_
_space_group_symop_operation_xyz
x,y,z
-x,y,-z
-x,-y,-z
x,-y,z
1/2+x,1/2+y,z
1/2-x,1/2+y,-z
1/2-x,1/2-y,-z
1/2+x,1/2-y,z
loop_
_atom_site_type_symbol
_atom_site_label
_atom_site_fract_x
_atom_site_fract_y
_atom_site_fract_z
Si Si1 0.178716 0.353123 0.095563
Si Si2 0.531909 0.076591 0.679629
Si Si3 0.176551 0.077960 0.272400
Si Si4 0.943779 0.148272 0.131431
Si Si5 0.271746 0.717418 0.919170
Si Si6 0.858585 0.641619 0.482527
Si Si7 0.989513 0.285435 0.108071
Si Si8 0.860831 0.078487 0.538473
O O1 0.218661 0.279796 0.146258
O O2 0.261573 0.401563 0.293998
O O3 0.130428 0.384190 0.895087
O O4 0.089527 0.345331 0.023189
O O5 0.500000 0.103359 0.500000
O O6 0.440153 0.087451 0.596844
O O7 0.560286 0.000000 0.728028
O O8 0.278282 0.109350 0.417514
O O9 0.147092 0.101171 0.345166
O O10 0.188471 0.000000 0.292914
O O11 0.093937 0.098239 0.033110
O O12 0.951431 0.220450 0.096852
O O13 0.047940 0.116384 0.358019
O O14 0.865183 0.164823 0.089931
O O15 0.182319 0.674419 0.706442
O O16 0.250000 0.750000 0.000000
O O17 0.906891 0.697863 0.647167
O O18 0.000000 0.266954 0.000000
O O19 0.876231 0.000000 0.554778
#
# Coordination Sequence:
#
# PCOD8089509 Si02
#       8
#     8   8   8   8   8   8   8   8
#     4  10  21  35  53  80 108 140 181 221 273 334
#     4  10  20  35  55  76 101 137 181 231 279 322
#     4  10  20  34  54  80 112 151 188 222 267 326
#     4  10  21  35  54  81 108 141 186 224 264 325
#     4  10  21  38  59  80 104 138 180 232 284 325
#     4  10  20  34  54  81 108 138 183 232 278 329
#     4  10  19  33  53  78 110 141 175 225 278 327
#     4  11  21  35  55  80 116 154 182 217 269 331
#
# _framework density 19.670531
#
# number of rings (size 3 to 8) (size 9 to 14) (size 15 to 20)
#    0.000    1.875    0.000    4.500    0.000    1.000 
#    0.000    9.375    0.000    9.000    0.000    0.000 
#    0.000    0.000    0.000    0.000    0.000    0.000 
#
# Total GULP energy -396573.537281 kJ/mol
# GULP energy per Si atom -12392.923040 kJ/mol
# Density = 1.962576 g / cm^3
# Si number density = 19.670531 Si / 1000 Ang^3
#
#
#
# Elastic Constant Matrix: (Units=GPa)
#
#
# Indices 1 2 3 4 5 6 
#
# 1 83.3609 16.5682 31.5739 0.0000 2.7751 0.0000
# 2 16.5682 70.2765 34.0883 0.0000 5.1864 0.0000
# 3 31.5739 34.0883 114.1963 0.0000 14.7506 0.0000
# 4 0.0000 0.0000 0.0000 35.7969 0.0000 2.6144
# 5 2.7751 5.1864 14.7506 0.0000 26.9478 0.0000
# 6 0.0000 0.0000 0.0000 2.6144 0.0000 32.1738
#
#
#
# Elastic Compliance Matrix: (Units=1/GPa)
#
#
# Indices 1 2 3 4 5 6 
#
# 1 0.013568 -0.001622 -0.003365 0.000000 0.000757 0.000000
# 2 -0.001622 0.016839 -0.004499 0.000000 -0.000611 0.000000
# 3 -0.003365 -0.004499 0.011701 0.000000 -0.005192 0.000000
# 4 0.000000 0.000000 0.000000 0.028102 0.000000 -0.002284
# 5 0.000757 -0.000611 -0.005192 0.000000 0.039991 0.000000
# 6 0.000000 0.000000 0.000000 -0.002284 0.000000 0.031267
#
#
# Mechanical properties :
#
#
# Convention : Reuss Voigt Hill
#
# Bulk Modulus (GPa) = 43.22385 48.03271 45.62828
# Shear Modulus (GPa) = 29.73495 31.35724 30.54610
#
# Velocity S-wave (km/s) = 3.89221 3.99698 3.94494
# Velocity P-wave (km/s) = 6.49775 6.76556 6.63300
#
# Compressibility (1/GPa) = 0.02313537
#
# Stress axis : x y z
#
# Youngs Moduli (GPa) = 73.70427 59.38428 85.46352
#
# Poissons Ratio (x) = 0.09635 0.28756
# Poissons Ratio (y) = 0.11958 0.38451
# Poissons Ratio (z) = 0.24800 0.26718
#
# Static dielectric constant tensor:
#      x y z
#    x 3.658150 0.000000 0.204400 
#    y 0.000000 3.511770 0.000000 
#    z 0.204400 0.000000 3.652940 
# 
# 
# High freq. dielectric constant tensor:
#      x y z
#    x 1.758300 0.000000 0.015530 
#    y 0.000000 1.771800 0.000000 
#    z 0.015530 0.000000 1.770130 
# 
# From -- ./inp_files/184741.got.cif
#   From: 2010.06.25/outbox.cif.g09.slc.cpg/sg12_93_cif.got.tgz:184741.got - 2010.06.28 00:19:55.
