data_PCOD8089596
_publ_section_title
;
Structure prediction by ZEFSAII (Michael W. Deem and Ramdas Pophale) SiO2 
 PCOD8089596
Probable space group: C 2/M
;
_chemical_formula_sum "Si O2"
_cell_formula_units_Z 56
_cell_length_a 30.312346
_cell_length_b 21.786272
_cell_length_c 9.238139
_cell_angle_alpha 90.000000
_cell_angle_beta 150.047604
_cell_angle_gamma 90.000000
_cell_volume 3046.010445
_symmetry_space_group_name_H-M "C 2/M"
_symmetry_group_IT_number 12
_symmetry_cell_setting 'monoclinic'
loop_
_space_group_symop_operation_xyz
x,y,z
-x,y,-z
-x,-y,-z
x,-y,z
1/2+x,1/2+y,z
1/2-x,1/2+y,-z
1/2-x,1/2-y,-z
1/2+x,1/2-y,z
loop_
_atom_site_type_symbol
_atom_site_label
_atom_site_fract_x
_atom_site_fract_y
_atom_site_fract_z
Si Si1 0.905832 0.933394 0.157286
Si Si2 0.770238 0.429228 0.170745
Si Si3 0.286107 0.167111 0.983123
Si Si4 0.956280 0.810253 0.221389
Si Si5 0.118337 0.753817 0.551415
Si Si6 0.101823 0.652080 0.279245
Si Si7 0.322617 0.207965 0.781866
O O1 0.909211 0.876383 0.051913
O O2 0.000000 0.939614 0.500000
O O3 0.884739 0.000000 0.022262
O O4 0.830108 0.919065 0.060819
O O5 0.795108 0.500000 0.226871
O O6 0.836737 0.399440 0.475835
O O7 0.784248 0.400081 0.050916
O O8 0.197574 0.199082 0.785557
O O9 0.287095 0.164839 0.811423
O O10 0.370580 0.204559 0.286581
O O11 0.000000 0.820012 0.500000
O O12 0.028116 0.792388 0.305623
O O13 0.887612 0.755902 0.040933
O O14 0.116912 0.718178 0.395829
O O15 0.129182 0.661561 0.190326
O O16 0.000000 0.631009 0.000000
O O17 0.250000 0.250000 0.500000
#
# Coordination Sequence:
#
# PCOD8089596 Si02
#       7
#     8   8   8   8   8   8   8
#     4   9  18  32  54  85 112 143 190 240 285 335
#     4  10  22  41  61  81 113 159 204 242 279 344
#     4  10  20  34  56  82 113 144 193 236 291 343
#     4  11  19  31  54  82 115 148 189 233 288 346
#     4  10  19  33  53  83 113 150 183 237 290 349
#     4  11  22  37  56  84 121 154 193 238 297 351
#     4  12  22  33  53  88 119 144 181 242 305 347
#
# _framework density 18.384702999999998
#
# number of rings (size 3 to 8) (size 9 to 14) (size 15 to 20)
#    0.000    1.571    4.286    2.571    2.000    0.286 
#    0.000    0.714    0.000    1.714    0.000    1.000 
#    0.000    0.429    0.000    0.000    0.000    0.000 
#
# Total GULP energy -347053.609422 kJ/mol
# GULP energy per Si atom -12394.771765 kJ/mol
# Density = 1.834286 g / cm^3
# Si number density = 18.384703 Si / 1000 Ang^3
#
#
#
# Elastic Constant Matrix: (Units=GPa)
#
#
# Indices 1 2 3 4 5 6 
#
# 1 106.4751 66.3857 32.3870 0.0000 -0.4873 0.0000
# 2 66.3857 142.4394 33.7244 0.0000 0.2470 0.0000
# 3 32.3870 33.7244 70.6340 0.0000 8.3084 0.0000
# 4 0.0000 0.0000 0.0000 17.2345 0.0000 3.1241
# 5 -0.4873 0.2470 8.3084 0.0000 28.7855 0.0000
# 6 0.0000 0.0000 0.0000 3.1241 0.0000 23.8072
#
#
#
# Elastic Compliance Matrix: (Units=1/GPa)
#
#
# Indices 1 2 3 4 5 6 
#
# 1 0.014121 -0.005650 -0.003945 0.000000 0.001426 0.000000
# 2 -0.005650 0.010207 -0.002341 0.000000 0.000492 0.000000
# 3 -0.003945 -0.002341 0.017690 0.000000 -0.005153 0.000000
# 4 0.000000 0.000000 0.000000 0.059437 0.000000 -0.007800
# 5 0.001426 0.000492 -0.005153 0.000000 0.036247 0.000000
# 6 0.000000 0.000000 0.000000 -0.007800 0.000000 0.043028
#
#
# Mechanical properties :
#
#
# Convention : Reuss Voigt Hill
#
# Bulk Modulus (GPa) = 55.10555 64.94920 60.02737
# Shear Modulus (GPa) = 23.73615 26.43553 25.08584
#
# Velocity S-wave (km/s) = 3.59706 3.79609 3.69792
# Velocity P-wave (km/s) = 6.87681 7.39042 7.13823
#
# Compressibility (1/GPa) = 0.01814699
#
# Stress axis : x y z
#
# Youngs Moduli (GPa) = 70.81740 97.97227 56.52895
#
# Poissons Ratio (x) = 0.55351 0.22301
# Poissons Ratio (y) = 0.40009 0.13232
# Poissons Ratio (z) = 0.27937 0.22933
#
# Static dielectric constant tensor:
#      x y z
#    x 3.371970 0.000000 0.207880 
#    y 0.000000 4.250670 0.000000 
#    z 0.207880 0.000000 3.666040 
# 
# 
# High freq. dielectric constant tensor:
#      x y z
#    x 1.702160 0.000000 0.019120 
#    y 0.000000 1.702920 0.000000 
#    z 0.019120 0.000000 1.710800 
# 
# From -- ./inp_files/77392.got.cif
#   From: 2010.06.25/outbox.cif.g09.slc.cpg/sg12_39_cif.got.tgz:77392.got - 2010.06.28 00:19:55.
