data_PCOD8089846
_publ_section_title
;
Structure prediction by ZEFSAII (Michael W. Deem and Ramdas Pophale) SiO2 
 PCOD8089846
Probable space group: C 2/M
;
_chemical_formula_sum "Si O2"
_cell_formula_units_Z 56
_cell_length_a 26.950981
_cell_length_b 8.736608
_cell_length_c 14.209584
_cell_angle_alpha 90.000000
_cell_angle_beta 121.624956
_cell_angle_gamma 90.000000
_cell_volume 2848.936320
_symmetry_space_group_name_H-M "C 2/M"
_symmetry_group_IT_number 12
_symmetry_cell_setting 'monoclinic'
loop_
_space_group_symop_operation_xyz
x,y,z
-x,y,-z
-x,-y,-z
x,-y,z
1/2+x,1/2+y,z
1/2-x,1/2+y,-z
1/2-x,1/2-y,-z
1/2+x,1/2-y,z
loop_
_atom_site_type_symbol
_atom_site_label
_atom_site_fract_x
_atom_site_fract_y
_atom_site_fract_z
Si Si1 0.218926 0.676048 0.321135
Si Si2 0.883636 0.820290 0.094772
Si Si3 0.774252 0.676410 0.888798
Si Si4 0.107736 0.319422 0.318111
Si Si5 0.652063 0.819866 0.761836
Si Si6 0.340402 0.820654 0.439950
Si Si7 0.007558 0.320503 0.897583
O O1 0.226350 0.500000 0.356095
O O2 0.205890 0.698482 0.198525
O O3 0.164102 0.750280 0.321281
O O4 0.278240 0.757245 0.411177
O O5 0.892341 0.768314 0.212404
O O6 0.937847 0.773108 0.085406
O O7 0.873939 0.000000 0.077337
O O8 0.826673 0.730842 0.005198
O O9 0.759092 0.500000 0.895659
O O10 0.718302 0.779793 0.855717
O O11 0.107974 0.500000 0.301711
O O12 0.111616 0.277299 0.433129
O O13 0.048474 0.254768 0.214262
O O14 0.639928 0.758678 0.643093
O O15 0.641227 0.000000 0.760072
O O16 0.332137 0.000000 0.423612
O O17 0.017781 0.500000 0.888990
O O18 0.000000 0.286884 0.000000
#
# Coordination Sequence:
#
# PCOD8089846 Si02
#       7
#     8   8   8   8   8   8   8
#     4   9  17  30  52  81 111 141 171 208 257 315
#     4  12  24  37  54  77 106 140 178 221 267 313
#     4  10  19  33  54  81 111 142 176 215 264 318
#     4   9  17  32  54  79 106 138 178 217 256 308
#     4  10  20  35  54  78 108 141 177 217 264 315
#     4   9  18  32  52  79 109 139 173 216 260 306
#     4  10  21  39  61  81 104 138 177 216 260 313
#
# _framework density 19.656459999999999
#
# number of rings (size 3 to 8) (size 9 to 14) (size 15 to 20)
#    0.000    2.143    0.000    3.857    0.000    3.714 
#    0.000    2.143    0.000    4.286    0.000    0.000 
#    0.000    0.000    0.000    0.000    0.000    0.000 
#
# Total GULP energy -347191.407654 kJ/mol
# GULP energy per Si atom -12399.693131 kJ/mol
# Density = 1.961172 g / cm^3
# Si number density = 19.656460 Si / 1000 Ang^3
#
#
#
# Elastic Constant Matrix: (Units=GPa)
#
#
# Indices 1 2 3 4 5 6 
#
# 1 86.6305 18.2113 38.7192 0.0000 -15.8234 0.0000
# 2 18.2113 39.4250 19.8968 0.0000 -4.1409 0.0000
# 3 38.7192 19.8968 117.1689 0.0000 -0.8178 0.0000
# 4 0.0000 0.0000 0.0000 18.0199 0.0000 1.1776
# 5 -15.8234 -4.1409 -0.8178 0.0000 18.6987 0.0000
# 6 0.0000 0.0000 0.0000 1.1776 0.0000 28.1095
#
#
#
# Elastic Compliance Matrix: (Units=1/GPa)
#
#
# Indices 1 2 3 4 5 6 
#
# 1 0.016968 -0.004005 -0.004835 0.000000 0.013261 0.000000
# 2 -0.004005 0.029363 -0.003642 0.000000 0.002954 0.000000
# 3 -0.004835 -0.003642 0.010720 0.000000 -0.004429 0.000000
# 4 0.000000 0.000000 0.000000 0.055647 0.000000 -0.002331
# 5 0.013261 0.002954 -0.004429 0.000000 0.065162 0.000000
# 6 0.000000 0.000000 0.000000 -0.002331 0.000000 0.035673
#
#
# Mechanical properties :
#
#
# Convention : Reuss Voigt Hill
#
# Bulk Modulus (GPa) = 31.16499 44.09766 37.63132
# Shear Modulus (GPa) = 20.06490 24.05877 22.06184
#
# Velocity S-wave (km/s) = 3.19843 3.50231 3.35381
# Velocity P-wave (km/s) = 5.43408 6.23200 5.84667
#
# Compressibility (1/GPa) = 0.03208729
#
# Stress axis : x y z
#
# Youngs Moduli (GPa) = 58.93400 34.05646 93.28511
#
# Poissons Ratio (x) = 0.13641 0.45099
# Poissons Ratio (y) = 0.23605 0.33975
# Poissons Ratio (z) = 0.28492 0.12403
#
# Static dielectric constant tensor:
#      x y z
#    x 3.690270 0.000000 -0.249960 
#    y 0.000000 3.364940 0.000000 
#    z -0.249960 0.000000 3.805160 
# 
# 
# High freq. dielectric constant tensor:
#      x y z
#    x 1.760750 0.000000 -0.021730 
#    y 0.000000 1.745190 0.000000 
#    z -0.021730 0.000000 1.771080 
# 
# From -- ./inp_files/238332.got.cif
#   From: 2010.06.25/outbox.cif.g09.slc.cpg/sg12_120_cif.got.tgz:238332.got - 2010.06.28 00:19:55.
