data_PCOD8089588
_publ_section_title
;
Structure prediction by ZEFSAII (Michael W. Deem and Ramdas Pophale) SiO2 
 PCOD8089588
Probable space group: C 2/M
;
_chemical_formula_sum "Si O2"
_cell_formula_units_Z 64
_cell_length_a 18.144531
_cell_length_b 14.885901
_cell_length_c 17.728057
_cell_angle_alpha 90.000000
_cell_angle_beta 138.475256
_cell_angle_gamma 90.000000
_cell_volume 3174.376871
_symmetry_space_group_name_H-M "C 2/M"
_symmetry_group_IT_number 12
_symmetry_cell_setting 'monoclinic'
loop_
_space_group_symop_operation_xyz
x,y,z
-x,y,-z
-x,-y,-z
x,-y,z
1/2+x,1/2+y,z
1/2-x,1/2+y,-z
1/2-x,1/2-y,-z
1/2+x,1/2-y,z
loop_
_atom_site_type_symbol
_atom_site_label
_atom_site_fract_x
_atom_site_fract_y
_atom_site_fract_z
Si Si1 0.724373 0.641424 0.897901
Si Si2 0.061628 0.894461 0.974033
Si Si3 0.694652 0.153414 0.878673
Si Si4 0.291983 0.896296 0.658919
Si Si5 0.958567 0.599893 0.648410
Si Si6 0.639577 0.722651 0.455445
Si Si7 0.993066 0.098481 0.759494
Si Si8 0.115446 0.603421 0.114970
O O1 0.676407 0.741396 0.855608
O O2 0.616106 0.579754 0.821279
O O3 0.792102 0.613617 0.877243
O O4 0.801092 0.626970 0.030043
O O5 0.004785 0.858670 0.852936
O O6 0.046150 0.000000 0.962132
O O7 0.191967 0.871438 0.077981
O O8 0.000000 0.852002 0.000000
O O9 0.590408 0.101427 0.763698
O O10 0.389310 0.885874 0.671995
O O11 0.177971 0.840809 0.554063
O O12 0.339903 0.854201 0.773066
O O13 0.255793 0.000000 0.639911
O O14 0.931195 0.500000 0.593184
O O15 0.924344 0.684727 0.568136
O O16 0.750000 0.750000 0.500000
O O17 0.570113 0.667152 0.341622
O O18 0.933525 0.000000 0.715167
O O19 0.090032 0.500000 0.112589
O O20 0.000000 0.650531 0.000000
#
# Coordination Sequence:
#
# PCOD8089588 Si02
#       8
#     8   8   8   8   8   8   8   8
#     4  10  20  33  52  82 116 149 190 225 271 342
#     4   9  19  35  54  82 114 145 186 235 288 339
#     4  10  19  33  53  82 113 148 191 232 275 333
#     4   9  19  35  57  86 117 149 184 229 283 336
#     4  10  19  34  58  83 110 147 190 235 283 329
#     4  10  20  36  56  82 113 141 194 240 271 333
#     4  10  19  35  60  82 110 149 186 232 283 333
#     4  10  20  35  55  85 123 152 178 220 282 350
#
# _framework density 20.161436999999999
#
# number of rings (size 3 to 8) (size 9 to 14) (size 15 to 20)
#    0.000    2.250    1.250    1.875    0.000    3.500 
#    4.500    0.625    0.000    2.250    0.000    0.875 
#    0.000    0.500    0.000    0.000    0.000    0.000 
#
# Total GULP energy -396560.646893 kJ/mol
# GULP energy per Si atom -12392.520215 kJ/mol
# Density = 2.011555 g / cm^3
# Si number density = 20.161437 Si / 1000 Ang^3
#
#
#
# Elastic Constant Matrix: (Units=GPa)
#
#
# Indices 1 2 3 4 5 6 
#
# 1 88.0437 12.8811 38.3126 0.0000 -7.1789 0.0000
# 2 12.8811 97.5276 61.0538 0.0000 2.9229 0.0000
# 3 38.3126 61.0538 137.3842 0.0000 -3.4704 0.0000
# 4 0.0000 0.0000 0.0000 23.4160 0.0000 1.6105
# 5 -7.1789 2.9229 -3.4704 0.0000 18.7019 0.0000
# 6 0.0000 0.0000 0.0000 1.6105 0.0000 19.4359
#
#
#
# Elastic Compliance Matrix: (Units=1/GPa)
#
#
# Indices 1 2 3 4 5 6 
#
# 1 0.013300 0.000509 -0.003827 0.000000 0.004316 0.000000
# 2 0.000509 0.014445 -0.006644 0.000000 -0.003295 0.000000
# 3 -0.003827 -0.006644 0.011341 0.000000 0.001674 0.000000
# 4 0.000000 0.000000 0.000000 0.042951 0.000000 -0.003559
# 5 0.004316 -0.003295 0.001674 0.000000 0.055953 0.000000
# 6 0.000000 0.000000 0.000000 -0.003559 0.000000 0.051746
#
#
# Mechanical properties :
#
#
# Convention : Reuss Voigt Hill
#
# Bulk Modulus (GPa) = 52.18393 60.82781 56.50587
# Shear Modulus (GPa) = 23.14320 26.35797 24.75058
#
# Velocity S-wave (km/s) = 3.39173 3.61965 3.50754
# Velocity P-wave (km/s) = 6.42477 6.90688 6.67018
#
# Compressibility (1/GPa) = 0.01916299
#
# Stress axis : x y z
#
# Youngs Moduli (GPa) = 75.18520 69.23046 88.17512
#
# Poissons Ratio (x) = -0.03527 0.33740
# Poissons Ratio (y) = -0.03830 0.58588
# Poissons Ratio (z) = 0.28770 0.46000
#
# Static dielectric constant tensor:
#      x y z
#    x 3.499640 0.000000 -0.035810 
#    y 0.000000 4.148370 0.000000 
#    z -0.035810 0.000000 3.822070 
# 
# 
# High freq. dielectric constant tensor:
#      x y z
#    x 1.757950 0.000000 0.014520 
#    y 0.000000 1.799160 0.000000 
#    z 0.014520 0.000000 1.778960 
# 
# From -- ./inp_files/278200.got.cif
#   From: 2010.06.25/outbox.cif.g09.slc.cpg/sg12_140_cif.got.tgz:278200.got - 2010.06.28 00:19:55.
