data_PCOD8089732
_publ_section_title
;
Structure prediction by ZEFSAII (Michael W. Deem and Ramdas Pophale) SiO2 
 PCOD8089732
Probable space group: C 2/M
;
_chemical_formula_sum "Si O2"
_cell_formula_units_Z 64
_cell_length_a 21.162311
_cell_length_b 16.934131
_cell_length_c 12.013624
_cell_angle_alpha 90.000000
_cell_angle_beta 129.293996
_cell_angle_gamma 90.000000
_cell_volume 3331.874084
_symmetry_space_group_name_H-M "C 2/M"
_symmetry_group_IT_number 12
_symmetry_cell_setting 'monoclinic'
loop_
_space_group_symop_operation_xyz
x,y,z
-x,y,-z
-x,-y,-z
x,-y,z
1/2+x,1/2+y,z
1/2-x,1/2+y,-z
1/2-x,1/2-y,-z
1/2+x,1/2-y,z
loop_
_atom_site_type_symbol
_atom_site_label
_atom_site_fract_x
_atom_site_fract_y
_atom_site_fract_z
Si Si1 0.338709 0.091445 0.718653
Si Si2 0.352554 0.909429 0.988352
Si Si3 0.048707 0.147512 0.191789
Si Si4 0.007214 0.324897 0.133484
Si Si5 0.088874 0.909197 0.646437
Si Si6 0.207387 0.836189 0.949374
Si Si7 0.382344 0.589571 0.953296
Si Si8 0.660161 0.588555 0.492570
O O1 0.330929 0.116894 0.838950
O O2 0.406406 0.141308 0.726093
O O3 0.252641 0.110818 0.564076
O O4 0.361236 0.000000 0.733881
O O5 0.275316 0.896590 0.981449
O O6 0.378597 0.000000 0.023836
O O7 0.430128 0.857581 0.117484
O O8 0.111625 0.129819 0.161712
O O9 0.097274 0.146072 0.361256
O O10 0.005295 0.231346 0.132147
O O11 0.973277 0.086542 0.108338
O O12 0.000000 0.358508 0.000000
O O13 0.125412 0.849034 0.780799
O O14 0.152117 0.905325 0.615821
O O15 0.000000 0.882363 0.500000
O O16 0.083797 0.000000 0.687126
O O17 0.250000 0.750000 0.000000
O O18 0.181620 0.859418 0.045732
O O19 0.350175 0.500000 0.907503
O O20 0.639979 0.500000 0.429475
#
# Coordination Sequence:
#
# PCOD8089732 Si02
#       8
#     8   8   8   8   8   8   8   8
#     4   9  18  32  53  79 107 140 181 229 281 337
#     4  10  19  35  57  81 110 144 186 233 283 341
#     4  11  21  35  55  83 116 150 187 234 284 344
#     4  10  19  33  54  78 114 143 182 229 286 333
#     4  10  20  36  58  84 116 154 196 242 296 357
#     4  12  24  36  58  86 121 154 191 248 298 348
#     4  11  22  37  55  78 112 157 196 228 277 350
#     4  10  19  33  54  79 110 146 188 237 285 338
#
# _framework density 19.208410000000001
#
# number of rings (size 3 to 8) (size 9 to 14) (size 15 to 20)
#    0.000    1.625    2.500    4.500    1.750    3.000 
#    0.000    0.000    0.000    0.000    0.000    0.000 
#    0.000    8.500    0.000    0.000    0.000    0.000 
#
# Total GULP energy -396679.032205 kJ/mol
# GULP energy per Si atom -12396.219756 kJ/mol
# Density = 1.916469 g / cm^3
# Si number density = 19.208410 Si / 1000 Ang^3
#
#
#
# Elastic Constant Matrix: (Units=GPa)
#
#
# Indices 1 2 3 4 5 6 
#
# 1 86.9261 24.3749 11.6731 0.0000 7.2916 0.0000
# 2 24.3749 88.3634 28.3202 0.0000 5.4385 0.0000
# 3 11.6731 28.3202 59.4385 0.0000 9.3913 0.0000
# 4 0.0000 0.0000 0.0000 24.5118 0.0000 8.5512
# 5 7.2916 5.4385 9.3913 0.0000 26.1789 0.0000
# 6 0.0000 0.0000 0.0000 8.5512 0.0000 31.0213
#
#
#
# Elastic Compliance Matrix: (Units=1/GPa)
#
#
# Indices 1 2 3 4 5 6 
#
# 1 0.012689 -0.003154 -0.000566 0.000000 -0.002676 0.000000
# 2 -0.003154 0.014147 -0.006144 0.000000 0.000144 0.000000
# 3 -0.000566 -0.006144 0.020816 0.000000 -0.006033 0.000000
# 4 0.000000 0.000000 0.000000 0.045137 0.000000 -0.012442
# 5 -0.002676 0.000144 -0.006033 0.000000 0.041079 0.000000
# 6 0.000000 0.000000 0.000000 -0.012442 0.000000 0.035666
#
#
# Mechanical properties :
#
#
# Convention : Reuss Voigt Hill
#
# Bulk Modulus (GPa) = 35.81214 40.38493 38.09854
# Shear Modulus (GPa) = 25.18000 27.69970 26.43985
#
# Velocity S-wave (km/s) = 3.62454 3.80157 3.71411
# Velocity P-wave (km/s) = 6.01672 6.35134 6.18629
#
# Compressibility (1/GPa) = 0.02792349
#
# Stress axis : x y z
#
# Youngs Moduli (GPa) = 78.80866 70.68549 48.04011
#
# Poissons Ratio (x) = 0.22294 0.02721
# Poissons Ratio (y) = 0.24856 0.29515
# Poissons Ratio (z) = 0.04464 0.43428
#
# Static dielectric constant tensor:
#      x y z
#    x 3.647880 0.000000 0.191500 
#    y 0.000000 3.345790 0.000000 
#    z 0.191500 0.000000 3.296340 
# 
# 
# High freq. dielectric constant tensor:
#      x y z
#    x 1.752010 0.000000 0.021090 
#    y 0.000000 1.736420 0.000000 
#    z 0.021090 0.000000 1.717370 
# 
# From -- ./inp_files/168801.got.cif
#   From: 2010.06.25/outbox.cif.g09.slc.cpg/sg12_85_cif.got.tgz:168801.got - 2010.06.28 00:19:55.
