data_PCOD8089145
_publ_section_title
;
Structure prediction by ZEFSAII (Michael W. Deem and Ramdas Pophale) SiO2 
 PCOD8089145
Probable space group: C 2/M
;
_chemical_formula_sum "Si O2"
_cell_formula_units_Z 48
_cell_length_a 14.123844
_cell_length_b 27.023654
_cell_length_c 11.217094
_cell_angle_alpha 90.000000
_cell_angle_beta 142.757835
_cell_angle_gamma 90.000000
_cell_volume 2590.989141
_symmetry_space_group_name_H-M "C 2/M"
_symmetry_group_IT_number 12
_symmetry_cell_setting 'monoclinic'
loop_
_space_group_symop_operation_xyz
x,y,z
-x,y,-z
-x,-y,-z
x,-y,z
1/2+x,1/2+y,z
1/2-x,1/2+y,-z
1/2-x,1/2-y,-z
1/2+x,1/2-y,z
loop_
_atom_site_type_symbol
_atom_site_label
_atom_site_fract_x
_atom_site_fract_y
_atom_site_fract_z
Si Si1 0.676828 0.400145 0.821068
Si Si2 0.331693 0.256503 0.275720
Si Si3 0.316215 0.394985 0.452072
Si Si4 0.678022 0.000000 0.039649
Si Si5 0.169726 0.708408 0.339393
Si Si6 0.671225 0.000000 0.314890
Si Si7 0.673493 0.812934 0.922252
O O1 0.496640 0.390374 0.668213
O O2 0.713040 0.389936 0.718624
O O3 0.717783 0.455091 0.900021
O O4 0.796872 0.370519 0.026689
O O5 0.500000 0.267614 0.500000
O O6 0.196867 0.272954 0.231485
O O7 0.317249 0.199988 0.210809
O O8 0.317127 0.288268 0.139952
O O9 0.232917 0.347332 0.427892
O O10 0.254765 0.448447 0.439277
O O11 0.664935 0.000000 0.167643
O O12 0.504583 0.000000 0.808900
O O13 0.250000 0.750000 0.500000
O O14 0.987541 0.706929 0.184319
#
# Coordination Sequence:
#
# PCOD8089145 Si02
#       7
#     8   8   8   4   8   4   8
#     4  10  19  33  51  77 106 146 181 224 283 327
#     4  11  22  39  53  77 110 146 187 235 268 330
#     4  10  20  32  51  75 112 141 182 229 271 339
#     4   9  17  29  51  73 107 136 181 226 272 342
#     4  12  23  36  56  80 113 152 188 228 279 325
#     4   9  17  31  49  75 104 143 178 223 283 326
#     4  11  23  35  58  77 109 151 187 225 283 327
#
# _framework density 18.525744
#
# number of rings (size 3 to 8) (size 9 to 14) (size 15 to 20)
#    0.000    1.500    3.333    3.000    2.333    3.333 
#    0.000    0.000    0.000    0.000    0.000    1.750 
#    0.000    2.667    0.000    0.000    0.000    0.000 
#
# Total GULP energy -297390.804618 kJ/mol
# GULP energy per Si atom -12391.283526 kJ/mol
# Density = 1.848358 g / cm^3
# Si number density = 18.525744 Si / 1000 Ang^3
#
#
#
# Elastic Constant Matrix: (Units=GPa)
#
#
# Indices 1 2 3 4 5 6 
#
# 1 53.7904 40.5074 29.2487 0.0000 5.8113 0.0000
# 2 40.5074 149.2076 52.3139 0.0000 7.3955 0.0000
# 3 29.2487 52.3139 94.5895 0.0000 16.2649 0.0000
# 4 0.0000 0.0000 0.0000 37.4221 0.0000 4.6271
# 5 5.8113 7.3955 16.2649 0.0000 19.2433 0.0000
# 6 0.0000 0.0000 0.0000 4.6271 0.0000 21.6877
#
#
#
# Elastic Compliance Matrix: (Units=1/GPa)
#
#
# Indices 1 2 3 4 5 6 
#
# 1 0.025157 -0.005112 -0.004661 0.000000 -0.001693 0.000000
# 2 -0.005112 0.009364 -0.003797 0.000000 0.001154 0.000000
# 3 -0.004661 -0.003797 0.015936 0.000000 -0.010603 0.000000
# 4 0.000000 0.000000 0.000000 0.027446 0.000000 -0.005856
# 5 -0.001693 0.001154 -0.010603 0.000000 0.060996 0.000000
# 6 0.000000 0.000000 0.000000 -0.005856 0.000000 0.047358
#
#
# Mechanical properties :
#
#
# Convention : Reuss Voigt Hill
#
# Bulk Modulus (GPa) = 42.88334 60.19196 51.53765
# Shear Modulus (GPa) = 22.60716 27.37178 24.98947
#
# Velocity S-wave (km/s) = 3.49708 3.84800 3.67673
# Velocity P-wave (km/s) = 6.28525 7.23217 6.77527
#
# Compressibility (1/GPa) = 0.02331908
#
# Stress axis : x y z
#
# Youngs Moduli (GPa) = 39.74973 106.79500 62.75061
#
# Poissons Ratio (x) = 0.54591 0.29247
# Poissons Ratio (y) = 0.20319 0.23823
# Poissons Ratio (z) = 0.18527 0.40545
#
# Static dielectric constant tensor:
#      x y z
#    x 3.299280 0.000000 0.111410 
#    y 0.000000 3.842050 0.000000 
#    z 0.111410 0.000000 3.458630 
# 
# 
# High freq. dielectric constant tensor:
#      x y z
#    x 1.674380 0.000000 0.033150 
#    y 0.000000 1.732060 0.000000 
#    z 0.033150 0.000000 1.717220 
# 
# From -- ./inp_files/150351.got.cif
#   From: 2010.06.25/outbox.cif.g09.slc.cpg/sg12_76_cif.got.tgz:150351.got - 2010.06.28 00:19:55.
