data_PCOD8089153
_publ_section_title
;
Structure prediction by ZEFSAII (Michael W. Deem and Ramdas Pophale) SiO2 
 PCOD8089153
Probable space group: C 2/M
;
_chemical_formula_sum "Si O2"
_cell_formula_units_Z 64
_cell_length_a 28.704466
_cell_length_b 8.115004
_cell_length_c 13.261346
_cell_angle_alpha 90.000000
_cell_angle_beta 86.438571
_cell_angle_gamma 90.000000
_cell_volume 3083.090578
_symmetry_space_group_name_H-M "C 2/M"
_symmetry_group_IT_number 12
_symmetry_cell_setting 'monoclinic'
loop_
_space_group_symop_operation_xyz
x,y,z
-x,y,-z
-x,-y,-z
x,-y,z
1/2+x,1/2+y,z
1/2-x,1/2+y,-z
1/2-x,1/2-y,-z
1/2+x,1/2-y,z
loop_
_atom_site_type_symbol
_atom_site_label
_atom_site_fract_x
_atom_site_fract_y
_atom_site_fract_z
Si Si1 0.807812 0.806764 0.296824
Si Si2 0.469953 0.304557 0.096451
Si Si3 0.634714 0.303344 0.899670
Si Si4 0.797368 0.803995 0.699460
Si Si5 0.852608 0.195860 0.495237
Si Si6 0.951722 0.803585 0.548612
Si Si7 0.951282 0.804467 0.771761
Si Si8 0.642895 0.695696 0.121220
O O1 0.833396 0.730682 0.194733
O O2 0.753691 0.769734 0.298965
O O3 0.829249 0.730122 0.397000
O O4 0.816718 0.000000 0.296980
O O5 0.466351 0.500000 0.085652
O O6 0.417714 0.231908 0.106996
O O7 0.498097 0.251459 0.192892
O O8 0.500000 0.232234 0.000000
O O9 0.634020 0.500000 0.895774
O O10 0.655269 0.244480 0.005772
O O11 0.826017 0.738331 0.598538
O O12 0.820914 0.736973 0.799789
O O13 0.795151 0.000000 0.699479
O O14 0.906778 0.253341 0.489865
O O15 0.849426 0.000000 0.495702
O O16 0.945327 0.731515 0.661340
O O17 0.000000 0.729085 0.500000
O O18 0.954525 0.000000 0.549951
O O19 0.909062 0.737873 0.846686
O O20 0.947909 0.000000 0.768859
O O21 0.643293 0.500000 0.125798
#
# Coordination Sequence:
#
# PCOD8089153 Si02
#       8
#     8   8   8   8   8   8   8   8
#     4  10  21  33  46  67  96 122 147 189 241 274
#     4   9  14  20  34  56  84 119 149 170 206 270
#     4   9  17  27  39  61  94 124 146 179 231 278
#     4  10  19  33  52  67  84 119 164 196 220 263
#     4   9  17  30  45  64  91 122 152 184 226 275
#     4   9  16  23  35  59  90 121 147 176 222 274
#     4   9  14  21  34  55  84 117 151 181 213 264
#     4   9  15  26  43  62  85 117 155 189 222 265
#
# _framework density 20.758392000000001
#
# number of rings (size 3 to 8) (size 9 to 14) (size 15 to 20)
#    0.000    2.750    2.500    0.375    1.750    0.500 
#    0.000    0.000    0.000    0.000    0.000    0.000 
#    0.000    5.500    0.000    0.125    0.000    0.000 
#
# Total GULP energy -396569.853742 kJ/mol
# GULP energy per Si atom -12392.807929 kJ/mol
# Density = 2.071115 g / cm^3
# Si number density = 20.758392 Si / 1000 Ang^3
#
#
#
# Elastic Constant Matrix: (Units=GPa)
#
#
# Indices 1 2 3 4 5 6 
#
# 1 174.6254 -2.7519 99.1365 0.0000 5.0512 0.0000
# 2 -2.7519 3.7058 2.7303 0.0000 -0.0961 0.0000
# 3 99.1365 2.7303 193.0738 0.0000 11.4794 0.0000
# 4 0.0000 0.0000 0.0000 2.6376 0.0000 0.7599
# 5 5.0512 -0.0961 11.4794 0.0000 43.0360 0.0000
# 6 0.0000 0.0000 0.0000 0.7599 0.0000 15.0135
#
#
#
# Elastic Compliance Matrix: (Units=1/GPa)
#
#
# Indices 1 2 3 4 5 6 
#
# 1 0.008404 0.009535 -0.004464 0.000000 0.000225 0.000000
# 2 0.009535 0.283625 -0.009021 0.000000 0.001921 0.000000
# 3 -0.004464 -0.009021 0.007691 0.000000 -0.001548 0.000000
# 4 0.000000 0.000000 0.000000 0.384749 0.000000 -0.019473
# 5 0.000225 0.001921 -0.001548 0.000000 0.023627 0.000000
# 6 0.000000 0.000000 0.000000 -0.019473 0.000000 0.067592
#
#
# Mechanical properties :
#
#
# Convention : Reuss Voigt Hill
#
# Bulk Modulus (GPa) = 3.42675 63.29276 33.35976
# Shear Modulus (GPa) = 5.67627 30.29008 17.98318
#
# Velocity S-wave (km/s) = 1.65541 3.82406 2.94651
# Velocity P-wave (km/s) = 2.30395 7.07490 5.26130
#
# Compressibility (1/GPa) = 0.29182143
#
# Stress axis : x y z
#
# Youngs Moduli (GPa) = 118.98691 3.52579 130.02503
#
# Poissons Ratio (x) = -0.03362 0.58037
# Poissons Ratio (y) = -1.13458 1.17296
# Poissons Ratio (z) = 0.53110 0.03181
#
# Static dielectric constant tensor:
#      x y z
#    x 3.922200 0.000000 0.063380 
#    y 0.000000 2.884760 0.000000 
#    z 0.063380 0.000000 4.221220 
# 
# 
# High freq. dielectric constant tensor:
#      x y z
#    x 1.820140 0.000000 0.007890 
#    y 0.000000 1.727070 0.000000 
#    z 0.007890 0.000000 1.827180 
# 
# From -- ./inp_files/182075.got.cif
#   From: 2010.06.25/outbox.cif.g09.slc.cpg/sg12_92_cif.got.tgz:182075.got - 2010.06.28 00:19:55.
