data_PCOD8089636
_publ_section_title
;
Structure prediction by ZEFSAII (Michael W. Deem and Ramdas Pophale) SiO2 
 PCOD8089636
Probable space group: C 2/M
;
_chemical_formula_sum "Si O2"
_cell_formula_units_Z 56
_cell_length_a 28.681646
_cell_length_b 13.974170
_cell_length_c 15.522316
_cell_angle_alpha 90.000000
_cell_angle_beta 27.069684
_cell_angle_gamma 90.000000
_cell_volume 2831.186411
_symmetry_space_group_name_H-M "C 2/M"
_symmetry_group_IT_number 12
_symmetry_cell_setting 'monoclinic'
loop_
_space_group_symop_operation_xyz
x,y,z
-x,y,-z
-x,-y,-z
x,-y,z
1/2+x,1/2+y,z
1/2-x,1/2+y,-z
1/2-x,1/2-y,-z
1/2+x,1/2-y,z
loop_
_atom_site_type_symbol
_atom_site_label
_atom_site_fract_x
_atom_site_fract_y
_atom_site_fract_z
Si Si1 0.374179 0.390831 0.518083
Si Si2 0.496498 0.895528 0.600485
Si Si3 0.918292 0.269950 0.209700
Si Si4 0.981882 0.262175 0.772537
Si Si5 0.271635 0.895837 0.939523
Si Si6 0.758852 0.776848 0.854353
Si Si7 0.726938 0.607635 0.496169
O O1 0.390855 0.500000 0.522970
O O2 0.484111 0.346239 0.308761
O O3 0.323898 0.323763 0.672397
O O4 0.296742 0.388069 0.565914
O O5 0.500000 0.845948 0.500000
O O6 0.538601 0.829775 0.608198
O O7 0.377328 0.913084 0.815329
O O8 0.553376 0.000000 0.504815
O O9 0.976347 0.290339 0.203091
O O10 0.843639 0.359122 0.316141
O O11 0.851852 0.172772 0.320488
O O12 0.000000 0.259863 0.000000
O O13 0.860906 0.276078 0.971669
O O14 0.286830 0.835332 0.825456
O O15 0.221158 0.000000 0.002577
O O16 0.206713 0.833771 0.115208
O O17 0.715853 0.500000 0.549942
#
# Coordination Sequence:
#
# PCOD8089636 Si02
#       7
#     8   8   8   8   8   8   8
#     4  10  20  36  56  78 108 145 182 222 271 325
#     4   9  17  31  51  74 104 141 179 223 273 321
#     4  10  20  36  57  81 112 145 179 223 272 324
#     4  10  21  34  54  83 110 139 184 229 269 321
#     4   9  18  31  48  73 105 142 183 225 271 325
#     4  10  19  33  54  76 107 147 184 224 274 326
#     4   9  20  37  56  80 110 143 180 222 269 325
#
# _framework density 19.779695
#
# number of rings (size 3 to 8) (size 9 to 14) (size 15 to 20)
#    0.000    2.429    0.000    2.143    0.000    2.286 
#    0.000    0.000    0.000   19.286    0.000    0.000 
#    0.000    0.000    0.000    0.000    0.000    0.000 
#
# Total GULP energy -346964.147565 kJ/mol
# GULP energy per Si atom -12391.576699 kJ/mol
# Density = 1.973468 g / cm^3
# Si number density = 19.779695 Si / 1000 Ang^3
#
#
#
# Elastic Constant Matrix: (Units=GPa)
#
#
# Indices 1 2 3 4 5 6 
#
# 1 79.2108 43.7074 28.3325 0.0000 23.2448 0.0000
# 2 43.7074 119.3593 21.6647 0.0000 16.3896 0.0000
# 3 28.3325 21.6647 73.6502 0.0000 17.7217 0.0000
# 4 0.0000 0.0000 0.0000 20.4862 0.0000 1.9761
# 5 23.2448 16.3896 17.7217 0.0000 24.3822 0.0000
# 6 0.0000 0.0000 0.0000 1.9761 0.0000 27.1839
#
#
#
# Elastic Compliance Matrix: (Units=1/GPa)
#
#
# Indices 1 2 3 4 5 6 
#
# 1 0.020642 -0.005074 -0.003071 0.000000 -0.014036 0.000000
# 2 -0.005074 0.010612 -0.000748 0.000000 -0.001753 0.000000
# 3 -0.003071 -0.000748 0.017154 0.000000 -0.009037 0.000000
# 4 0.000000 0.000000 0.000000 0.049158 0.000000 -0.003573
# 5 -0.014036 -0.001753 -0.009037 0.000000 0.062141 0.000000
# 6 0.000000 0.000000 0.000000 -0.003573 0.000000 0.037046
#
#
# Mechanical properties :
#
#
# Convention : Reuss Voigt Hill
#
# Bulk Modulus (GPa) = 32.65610 51.06994 41.86302
# Shear Modulus (GPa) = 22.24731 26.31152 24.27941
#
# Velocity S-wave (km/s) = 3.35737 3.65119 3.50736
# Velocity P-wave (km/s) = 5.61917 6.60684 6.13292
#
# Compressibility (1/GPa) = 0.03062215
#
# Stress axis : x y z
#
# Youngs Moduli (GPa) = 48.44598 94.22855 58.29684
#
# Poissons Ratio (x) = 0.47811 0.17901
# Poissons Ratio (y) = 0.24581 0.04361
# Poissons Ratio (z) = 0.14876 0.07049
#
# Static dielectric constant tensor:
#      x y z
#    x 3.541410 0.000000 0.025090 
#    y 0.000000 3.969180 0.000000 
#    z 0.025090 0.000000 3.450290 
# 
# 
# High freq. dielectric constant tensor:
#      x y z
#    x 1.759650 0.000000 0.005790 
#    y 0.000000 1.779130 0.000000 
#    z 0.005790 0.000000 1.762460 
# 
# From -- ./inp_files/246554.got.cif
#   From: 2010.06.25/outbox.cif.g09.slc.cpg/sg12_124_cif.got.tgz:246554.got - 2010.06.28 00:19:55.
