data_PCOD8089282
_publ_section_title
;
Structure prediction by ZEFSAII (Michael W. Deem and Ramdas Pophale) SiO2 
 PCOD8089282
Probable space group: C 2/M
;
_chemical_formula_sum "Si O2"
_cell_formula_units_Z 64
_cell_length_a 20.162857
_cell_length_b 14.653769
_cell_length_c 11.950342
_cell_angle_alpha 90.000000
_cell_angle_beta 74.556348
_cell_angle_gamma 90.000000
_cell_volume 3403.380325
_symmetry_space_group_name_H-M "C 2/M"
_symmetry_group_IT_number 12
_symmetry_cell_setting 'monoclinic'
loop_
_space_group_symop_operation_xyz
x,y,z
-x,y,-z
-x,-y,-z
x,-y,z
1/2+x,1/2+y,z
1/2-x,1/2+y,-z
1/2-x,1/2-y,-z
1/2+x,1/2-y,z
loop_
_atom_site_type_symbol
_atom_site_label
_atom_site_fract_x
_atom_site_fract_y
_atom_site_fract_z
Si Si1 0.444168 0.392332 0.189126
Si Si2 0.435778 0.737854 0.384493
Si Si3 0.911228 0.894108 0.962950
Si Si4 0.901243 0.395847 0.819019
Si Si5 0.157949 0.608287 0.926716
Si Si6 0.059265 0.602974 0.776752
Si Si7 0.905669 0.761246 0.645416
Si Si8 0.188927 0.893057 0.180935
O O1 0.439110 0.500000 0.215982
O O2 0.410039 0.340147 0.309700
O O3 0.522624 0.355313 0.134659
O O4 0.403598 0.360859 0.094592
O O5 0.422842 0.837346 0.339000
O O6 0.515326 0.714389 0.369833
O O7 0.392566 0.742143 0.518206
O O8 0.841497 0.871395 0.928705
O O9 0.928019 0.000000 0.963296
O O10 0.881641 0.500000 0.795324
O O11 0.888610 0.334559 0.714704
O O12 0.978066 0.392197 0.834277
O O13 0.855846 0.354676 0.941437
O O14 0.155297 0.500000 0.936936
O O15 0.099579 0.642281 0.866720
O O16 0.232664 0.641610 0.851838
O O17 0.083449 0.500000 0.739771
O O18 0.855427 0.840911 0.707564
O O19 0.183212 0.000000 0.210920
#
# Coordination Sequence:
#
# PCOD8089282 Si02
#       8
#     8   8   8   8   8   8   8   8
#     4   9  16  29  49  73 102 133 168 206 245 293
#     4  10  20  33  49  74 102 137 179 210 245 294
#     4   8  15  28  47  72 100 131 164 200 245 294
#     4   9  18  34  54  76 102 130 165 218 264 297
#     4   9  18  33  55  79 102 130 166 207 263 321
#     4   9  18  34  54  76 101 128 167 218 262 300
#     4  10  21  33  48  74 105 136 176 209 243 305
#     4  10  19  33  52  77 109 137 162 203 257 309
#
# _framework density 18.804832999999999
#
# number of rings (size 3 to 8) (size 9 to 14) (size 15 to 20)
#    0.000    2.750    1.250    1.125    0.000    4.000 
#    2.250    4.375    0.000    0.000    0.000    5.250 
#    0.000    0.000    0.000    0.000    0.000    0.000 
#
# Total GULP energy -396616.899804 kJ/mol
# GULP energy per Si atom -12394.278119 kJ/mol
# Density = 1.876203 g / cm^3
# Si number density = 18.804833 Si / 1000 Ang^3
#
#
#
# Elastic Constant Matrix: (Units=GPa)
#
#
# Indices 1 2 3 4 5 6 
#
# 1 55.7390 28.0415 45.5106 0.0000 -2.1030 0.0000
# 2 28.0415 75.6149 62.9855 0.0000 -0.0953 0.0000
# 3 45.5106 62.9855 169.8425 0.0000 8.5361 0.0000
# 4 0.0000 0.0000 0.0000 29.1691 0.0000 1.9307
# 5 -2.1030 -0.0953 8.5361 0.0000 19.5460 0.0000
# 6 0.0000 0.0000 0.0000 1.9307 0.0000 15.1030
#
#
#
# Elastic Compliance Matrix: (Units=1/GPa)
#
#
# Indices 1 2 3 4 5 6 
#
# 1 0.024729 -0.004982 -0.005022 0.000000 0.004829 0.000000
# 2 -0.004982 0.020346 -0.006327 0.000000 0.002326 0.000000
# 3 -0.005022 -0.006327 0.009824 0.000000 -0.004862 0.000000
# 4 0.000000 0.000000 0.000000 0.034575 0.000000 -0.004420
# 5 0.004829 0.002326 -0.004862 0.000000 0.053815 0.000000
# 6 0.000000 0.000000 0.000000 -0.004420 0.000000 0.066777
#
#
# Mechanical properties :
#
#
# Convention : Reuss Voigt Hill
#
# Bulk Modulus (GPa) = 44.96800 63.80794 54.38797
# Shear Modulus (GPa) = 19.98873 23.74088 21.86480
#
# Velocity S-wave (km/s) = 3.26384 3.55701 3.41357
# Velocity P-wave (km/s) = 6.17806 7.13268 6.67246
#
# Compressibility (1/GPa) = 0.02223804
#
# Stress axis : x y z
#
# Youngs Moduli (GPa) = 40.43775 49.15049 101.79003
#
# Poissons Ratio (x) = 0.24486 0.51116
# Poissons Ratio (y) = 0.20145 0.64404
# Poissons Ratio (z) = 0.20307 0.31098
#
# Static dielectric constant tensor:
#      x y z
#    x 3.329400 0.000000 0.148710 
#    y 0.000000 3.408580 0.000000 
#    z 0.148710 0.000000 3.475970 
# 
# 
# High freq. dielectric constant tensor:
#      x y z
#    x 1.702070 0.000000 0.013690 
#    y 0.000000 1.727330 0.000000 
#    z 0.013690 0.000000 1.720380 
# 
# From -- ./inp_files/167227.got.cif
#   From: 2010.06.25/outbox.cif.g09.slc.cpg/sg12_84_cif.got.tgz:167227.got - 2010.06.28 00:19:55.
