data_PCOD8089087
_publ_section_title
;
Structure prediction by ZEFSAII (Michael W. Deem and Ramdas Pophale) SiO2 
 PCOD8089087
Probable space group: C 2/M
;
_chemical_formula_sum "Si O2"
_cell_formula_units_Z 56
_cell_length_a 18.778724
_cell_length_b 9.781056
_cell_length_c 24.888793
_cell_angle_alpha 90.000000
_cell_angle_beta 44.931381
_cell_angle_gamma 90.000000
_cell_volume 3228.642177
_symmetry_space_group_name_H-M "C 2/M"
_symmetry_group_IT_number 12
_symmetry_cell_setting 'monoclinic'
loop_
_space_group_symop_operation_xyz
x,y,z
-x,y,-z
-x,-y,-z
x,-y,z
1/2+x,1/2+y,z
1/2-x,1/2+y,-z
1/2-x,1/2-y,-z
1/2+x,1/2-y,z
loop_
_atom_site_type_symbol
_atom_site_label
_atom_site_fract_x
_atom_site_fract_y
_atom_site_fract_z
Si Si1 0.327375 0.647463 0.184776
Si Si2 0.389999 0.161375 0.713132
Si Si3 0.310020 0.650474 0.318055
Si Si4 0.407658 0.162936 0.583870
Si Si5 0.155513 0.654299 0.061933
Si Si6 0.508874 0.153184 0.936142
Si Si7 0.000827 0.336950 0.238560
O O1 0.362790 0.500000 0.141836
O O2 0.225774 0.698873 0.209300
O O3 0.300155 0.625473 0.260519
O O4 0.413213 0.758697 0.138304
O O5 0.418138 0.223262 0.639416
O O6 0.460006 0.214585 0.724279
O O7 0.400717 0.000000 0.704603
O O8 0.332690 0.500000 0.332446
O O9 0.196513 0.705041 0.391821
O O10 0.394759 0.760576 0.287680
O O11 0.500000 0.223832 0.500000
O O12 0.412970 0.000000 0.583700
O O13 0.192534 0.500000 0.055246
O O14 0.097130 0.656501 0.036911
O O15 0.082506 0.706152 0.149190
O O16 0.250000 0.750000 0.000000
O O17 0.552104 0.000000 0.916701
O O18 0.500000 0.217413 0.000000
O O19 0.982219 0.500000 0.245250
#
# Coordination Sequence:
#
# PCOD8089087 Si02
#       7
#     8   8   8   8   8   8   8
#     4   9  17  31  50  69  89 119 161 205 236 273
#     4   8  16  29  47  72  97 123 162 199 232 280
#     4   9  17  30  50  75  97 122 161 202 236 278
#     4   8  14  28  51  76 101 128 159 197 237 278
#     4  10  22  36  49  68  95 129 165 202 247 291
#     4  10  21  35  48  66  94 123 157 200 245 293
#     4  10  19  33  51  70  98 132 161 196 244 295
#
# _framework density 17.344752
#
# number of rings (size 3 to 8) (size 9 to 14) (size 15 to 20)
#    0.000    2.857    1.429    1.714    2.000    1.429 
#    0.000    1.429    0.000    1.286    0.000    0.000 
#    0.000    0.000    0.000    0.000    0.000    0.000 
#
# Total GULP energy -346878.935761 kJ/mol
# GULP energy per Si atom -12388.533420 kJ/mol
# Density = 1.730527 g / cm^3
# Si number density = 17.344752 Si / 1000 Ang^3
#
#
#
# Elastic Constant Matrix: (Units=GPa)
#
#
# Indices 1 2 3 4 5 6 
#
# 1 103.4904 31.8554 43.3077 0.0000 -11.5414 0.0001
# 2 31.8554 51.9535 41.9331 0.0000 -16.1699 0.0001
# 3 43.3077 41.9331 99.6189 0.0000 -19.8933 0.0000
# 4 0.0000 0.0000 0.0000 14.8092 0.0000 -6.6366
# 5 -11.5414 -16.1699 -19.8933 0.0000 28.3528 0.0000
# 6 0.0001 0.0001 0.0000 -6.6366 0.0000 22.7682
#
#
#
# Elastic Compliance Matrix: (Units=1/GPa)
#
#
# Indices 1 2 3 4 5 6 
#
# 1 0.012618 -0.005038 -0.003388 0.000000 -0.000114 0.000000
# 2 -0.005038 0.033449 -0.009873 0.000000 0.010098 0.000000
# 3 -0.003388 -0.009873 0.016592 0.000000 0.004632 0.000000
# 4 0.000000 0.000000 0.000000 0.077672 0.000000 0.022640
# 5 -0.000114 0.010098 0.004632 0.000000 0.044233 0.000000
# 6 0.000000 0.000000 0.000000 0.022640 0.000000 0.050520
#
#
# Mechanical properties :
#
#
# Convention : Reuss Voigt Hill
#
# Bulk Modulus (GPa) = 38.37078 54.36169 46.36623
# Shear Modulus (GPa) = 17.83367 22.38379 20.10873
#
# Velocity S-wave (km/s) = 3.21002 3.59628 3.40862
# Velocity P-wave (km/s) = 5.99244 6.97526 6.50245
#
# Compressibility (1/GPa) = 0.02606150
#
# Stress axis : x y z
#
# Youngs Moduli (GPa) = 79.24888 29.89638 60.27068
#
# Poissons Ratio (x) = 0.15062 0.20417
# Poissons Ratio (y) = 0.39927 0.59505
# Poissons Ratio (z) = 0.26847 0.29517
#
# Static dielectric constant tensor:
#      x y z
#    x 3.486930 0.000000 0.033040 
#    y 0.000000 2.949570 0.000000 
#    z 0.033040 0.000000 3.373260 
# 
# 
# High freq. dielectric constant tensor:
#      x y z
#    x 1.673470 0.000000 -0.006620 
#    y 0.000000 1.637380 0.000000 
#    z -0.006620 0.000000 1.658710 
# 
# From -- ./inp_files/315377.got.cif
#   From: 2010.06.25/outbox.cif.g09.slc.cpg/sg12_158_cif.got.tgz:315377.got - 2010.06.28 00:19:55.
