data_PCOD8089067
_publ_section_title
;
Structure prediction by ZEFSAII (Michael W. Deem and Ramdas Pophale) SiO2 
 PCOD8089067
Probable space group: C 2/M
;
_chemical_formula_sum "Si O2"
_cell_formula_units_Z 40
_cell_length_a 8.455289
_cell_length_b 14.978325
_cell_length_c 21.884173
_cell_angle_alpha 90.000000
_cell_angle_beta 45.561190
_cell_angle_gamma 90.000000
_cell_volume 1978.878817
_symmetry_space_group_name_H-M "C 2/M"
_symmetry_group_IT_number 12
_symmetry_cell_setting 'monoclinic'
loop_
_space_group_symop_operation_xyz
x,y,z
-x,y,-z
-x,-y,-z
x,-y,z
1/2+x,1/2+y,z
1/2-x,1/2+y,-z
1/2-x,1/2-y,-z
1/2+x,1/2-y,z
loop_
_atom_site_type_symbol
_atom_site_label
_atom_site_fract_x
_atom_site_fract_y
_atom_site_fract_z
Si Si1 0.664436 0.642975 0.796911
Si Si2 0.395377 0.675351 0.751611
Si Si3 0.745203 0.683230 0.556860
Si Si4 0.337387 0.000000 0.238126
Si Si5 0.015959 0.500000 0.671477
Si Si6 0.857528 0.000000 0.098899
Si Si7 0.709536 0.000000 0.487942
O O1 0.473325 0.650106 0.798121
O O2 0.727127 0.742358 0.801163
O O3 0.579361 0.587953 0.878788
O O4 0.868624 0.589528 0.711985
O O5 0.602269 0.711840 0.654391
O O6 0.274983 0.588930 0.757346
O O7 0.750000 0.750000 0.500000
O O8 0.642194 0.587501 0.564955
O O9 0.000000 0.666824 0.500000
O O10 0.314946 0.000000 0.317525
O O11 0.598489 0.000000 0.151133
O O12 0.153091 0.500000 0.573715
O O13 0.000000 0.000000 0.000000
O O14 0.500000 0.000000 0.500000
#
# Coordination Sequence:
#
# PCOD8089067 Si02
#       7
#     8   8   8   4   4   4   4
#     4  10  21  37  64  88 119 161 195 246 305 365
#     4  12  21  40  60  90 124 165 214 245 293 370
#     4  11  23  35  53  81 118 162 208 261 297 325
#     4  10  23  39  63  88 119 162 200 247 303 371
#     4  10  19  36  55  83 115 159 210 255 305 362
#     4  10  23  46  69  97 122 143 188 251 313 379
#     4  10  19  33  50  74 109 156 202 253 306 340
#
# _framework density 20.213466
#
# number of rings (size 3 to 8) (size 9 to 14) (size 15 to 20)
#    0.000    1.600    0.000    9.000    0.000    1.600 
#    0.000    7.500    0.000    0.000    0.000    0.000 
#    0.000    0.000    0.000    0.000    0.000    0.000 
#
# Total GULP energy -247886.362408 kJ/mol
# GULP energy per Si atom -12394.318120 kJ/mol
# Density = 2.016746 g / cm^3
# Si number density = 20.213466 Si / 1000 Ang^3
#
#
#
# Elastic Constant Matrix: (Units=GPa)
#
#
# Indices 1 2 3 4 5 6 
#
# 1 143.7770 64.3659 43.4940 0.0005 20.8495 -0.0002
# 2 64.3659 167.9723 25.8064 0.0002 16.7990 -0.0002
# 3 43.4940 25.8064 127.8752 -0.0005 22.1418 -0.0003
# 4 0.0005 0.0002 -0.0005 11.0351 -0.0001 1.1791
# 5 20.8495 16.7990 22.1418 -0.0001 22.9523 0.0005
# 6 -0.0002 -0.0002 -0.0003 1.1791 0.0005 35.9588
#
#
#
# Elastic Compliance Matrix: (Units=1/GPa)
#
#
# Indices 1 2 3 4 5 6 
#
# 1 0.009484 -0.002879 -0.001822 -0.000001 -0.004750 0.000000
# 2 -0.002879 0.007334 -0.000029 0.000000 -0.002724 0.000000
# 3 -0.001822 -0.000029 0.009791 0.000000 -0.007769 0.000000
# 4 -0.000001 0.000000 0.000000 0.090938 0.000001 -0.002982
# 5 -0.004750 -0.002724 -0.007769 0.000001 0.057372 -0.000001
# 6 0.000000 0.000000 0.000000 -0.002982 -0.000001 0.027907
#
#
# Mechanical properties :
#
#
# Convention : Reuss Voigt Hill
#
# Bulk Modulus (GPa) = 58.31718 78.55079 68.43398
# Shear Modulus (GPa) = 22.93546 34.38647 28.66096
#
# Velocity S-wave (km/s) = 3.37213 4.12899 3.76961
# Velocity P-wave (km/s) = 6.63890 7.85344 7.27157
#
# Compressibility (1/GPa) = 0.01714761
#
# Stress axis : x y z
#
# Youngs Moduli (GPa) = 105.43733 136.35913 102.13509
#
# Poissons Ratio (x) = 0.39262 0.18612
# Poissons Ratio (y) = 0.30359 0.00296
# Poissons Ratio (z) = 0.19214 0.00395
#
# Static dielectric constant tensor:
#      x y z
#    x 4.127230 0.000000 0.155550 
#    y 0.000000 5.376270 0.000010 
#    z 0.155550 0.000010 3.307870 
# 
# 
# High freq. dielectric constant tensor:
#      x y z
#    x 1.794500 0.000000 0.016680 
#    y 0.000000 1.817570 0.000000 
#    z 0.016680 0.000000 1.752880 
# 
# From -- ./inp_files/299717.got.cif
#   From: 2010.06.25/outbox.cif.g09.slc.cpg/sg12_150_cif.got.tgz:299717.got - 2010.06.28 00:19:55.
