data_PCOD8089423
_publ_section_title
;
Structure prediction by ZEFSAII (Michael W. Deem and Ramdas Pophale) SiO2 
 PCOD8089423
Probable space group: C 2/M
;
_chemical_formula_sum "Si O2"
_cell_formula_units_Z 48
_cell_length_a 18.269216
_cell_length_b 8.924053
_cell_length_c 15.043125
_cell_angle_alpha 90.000000
_cell_angle_beta 89.780848
_cell_angle_gamma 90.000000
_cell_volume 2452.544741
_symmetry_space_group_name_H-M "C 2/M"
_symmetry_group_IT_number 12
_symmetry_cell_setting 'monoclinic'
loop_
_space_group_symop_operation_xyz
x,y,z
-x,y,-z
-x,-y,-z
x,-y,z
1/2+x,1/2+y,z
1/2-x,1/2+y,-z
1/2-x,1/2-y,-z
1/2+x,1/2-y,z
loop_
_atom_site_type_symbol
_atom_site_label
_atom_site_fract_x
_atom_site_fract_y
_atom_site_fract_z
Si Si1 0.624593 0.824258 0.639783
Si Si2 0.177100 0.172086 0.972812
Si Si3 0.370055 0.676540 0.843021
Si Si4 0.537847 0.175697 0.298440
Si Si5 0.083121 0.169055 0.468491
Si Si6 0.782135 0.176965 0.213113
O O1 0.546514 0.785498 0.683665
O O2 0.632064 0.750670 0.542528
O O3 0.688152 0.756680 0.699694
O O4 0.635903 0.000000 0.629176
O O5 0.160999 0.214219 0.869574
O O6 0.196951 0.000000 0.975912
O O7 0.250000 0.250000 0.000000
O O8 0.117317 0.208118 0.050285
O O9 0.363984 0.500000 0.823715
O O10 0.440498 0.744895 0.793830
O O11 0.297655 0.758318 0.807665
O O12 0.589440 0.241138 0.376219
O O13 0.551903 0.000000 0.292144
O O14 0.000000 0.170073 0.500000
O O15 0.111799 0.000000 0.454465
O O16 0.776206 0.000000 0.230500
#
# Coordination Sequence:
#
# PCOD8089423 Si02
#       6
#     8   8   8   8   8   8
#     4  10  20  34  52  75 103 134 168 206 248 295
#     4   8  16  30  49  72  97 129 167 205 245 294
#     4  10  19  33  53  76 102 132 168 208 251 298
#     4  10  20  34  52  75 103 134 168 206 248 295
#     4   9  17  31  52  75  98 129 168 205 245 297
#     4  10  19  33  53  76 102 132 168 208 251 298
#
# _framework density 19.571508000000001
#
# number of rings (size 3 to 8) (size 9 to 14) (size 15 to 20)
#    0.000    2.500    0.000    2.500    0.000    5.333 
#    0.000    1.667    0.000    5.000    0.000    0.000 
#    0.000    0.000    0.000    0.000    0.000    0.000 
#
# Total GULP energy -297405.277410 kJ/mol
# GULP energy per Si atom -12391.886559 kJ/mol
# Density = 1.952696 g / cm^3
# Si number density = 19.571508 Si / 1000 Ang^3
#
#
#
# Elastic Constant Matrix: (Units=GPa)
#
#
# Indices 1 2 3 4 5 6 
#
# 1 18.5183 4.4057 -11.1017 0.0000 1.8598 0.0000
# 2 4.4057 62.9580 3.4140 0.0000 2.8049 0.0000
# 3 -11.1017 3.4140 24.7344 0.0000 -3.7463 0.0000
# 4 0.0000 0.0000 0.0000 31.0677 0.0000 -3.2596
# 5 1.8598 2.8049 -3.7463 0.0000 28.0664 0.0000
# 6 0.0000 0.0000 0.0000 -3.2596 0.0000 25.5406
#
#
#
# Elastic Compliance Matrix: (Units=1/GPa)
#
#
# Indices 1 2 3 4 5 6 
#
# 1 0.077098 -0.007347 0.035677 0.000000 0.000388 0.000000
# 2 -0.007347 0.016807 -0.005918 0.000000 -0.001983 0.000000
# 3 0.035677 -0.005918 0.058167 0.000000 0.005991 0.000000
# 4 0.000000 0.000000 0.000000 0.032625 0.000000 0.004164
# 5 0.000388 -0.001983 0.005991 0.000000 0.036602 0.000000
# 6 0.000000 0.000000 0.000000 0.004164 0.000000 0.039685
#
#
# Mechanical properties :
#
#
# Convention : Reuss Voigt Hill
#
# Bulk Modulus (GPa) = 5.07881 11.07187 8.07534
# Shear Modulus (GPa) = 17.74363 24.23445 20.98904
#
# Velocity S-wave (km/s) = 3.01426 3.52270 3.27835
# Velocity P-wave (km/s) = 3.83601 4.71331 4.29711
#
# Compressibility (1/GPa) = 0.19689667
#
# Stress axis : x y z
#
# Youngs Moduli (GPa) = 12.97049 59.49906 17.19186
#
# Poissons Ratio (x) = 0.43715 -0.61336
# Poissons Ratio (y) = 0.09530 0.10174
# Poissons Ratio (z) = -0.46275 0.35210
#
# Static dielectric constant tensor:
#      x y z
#    x 3.083650 0.000000 -0.187470 
#    y 0.000000 3.644410 0.000000 
#    z -0.187470 0.000000 4.199290 
# 
# 
# High freq. dielectric constant tensor:
#      x y z
#    x 1.713110 0.000000 -0.009360 
#    y 0.000000 1.777310 0.000000 
#    z -0.009360 0.000000 1.779870 
# 
# From -- ./inp_files/172152.got.cif
#   From: 2010.06.25/outbox.cif.g09.slc.cpg/sg12_87_cif.got.tgz:172152.got - 2010.06.28 00:19:55.
