data_PCOD8089937
_publ_section_title
;
Structure prediction by ZEFSAII (Michael W. Deem and Ramdas Pophale) SiO2 
 PCOD8089937
Probable space group: C 2/M
;
_chemical_formula_sum "Si O2"
_cell_formula_units_Z 48
_cell_length_a 31.018138
_cell_length_b 8.789326
_cell_length_c 18.140773
_cell_angle_alpha 90.000000
_cell_angle_beta 31.297000
_cell_angle_gamma 90.000000
_cell_volume 2569.160358
_symmetry_space_group_name_H-M "C 2/M"
_symmetry_group_IT_number 12
_symmetry_cell_setting 'monoclinic'
loop_
_space_group_symop_operation_xyz
x,y,z
-x,y,-z
-x,-y,-z
x,-y,z
1/2+x,1/2+y,z
1/2-x,1/2+y,-z
1/2-x,1/2-y,-z
1/2+x,1/2-y,z
loop_
_atom_site_type_symbol
_atom_site_label
_atom_site_fract_x
_atom_site_fract_y
_atom_site_fract_z
Si Si1 0.167330 0.320241 0.588418
Si Si2 0.994978 0.319295 0.090337
Si Si3 0.746621 0.179755 0.084709
Si Si4 0.915440 0.320946 0.594050
Si Si5 0.832720 0.680180 0.092441
Si Si6 0.684817 0.179292 0.395549
O O1 0.172791 0.500000 0.588791
O O2 0.250000 0.250000 0.500000
O O3 0.087263 0.255339 0.748829
O O4 0.159828 0.272005 0.514055
O O5 0.990575 0.500000 0.094232
O O6 0.000000 0.253368 0.000000
O O7 0.075955 0.266002 0.016555
O O8 0.658223 0.231363 0.245389
O O9 0.817309 0.246931 0.034793
O O10 0.757500 0.000000 0.065253
O O11 0.750000 0.250000 0.000000
O O12 0.926503 0.500000 0.581271
O O13 0.892363 0.272088 0.544207
O O14 0.000000 0.241947 0.500000
O O15 0.826405 0.500000 0.095106
O O16 0.768124 0.735873 0.248645
O O17 0.702419 0.000000 0.362320
#
# Coordination Sequence:
#
# PCOD8089937 Si02
#       6
#     8   8   8   8   8   8
#     4  10  20  34  52  74 101 133 171 213 256 303
#     4   9  18  32  51  76 103 133 172 214 252 300
#     4  10  20  34  53  77 106 137 171 212 255 302
#     4   8  15  29  50  73  95 125 166 207 246 293
#     4  10  19  33  55  77 100 134 172 211 257 305
#     4   9  18  32  50  73 101 130 162 208 259 303
#
# _framework density 18.683147999999999
#
# number of rings (size 3 to 8) (size 9 to 14) (size 15 to 20)
#    0.000    2.667    0.000    3.000    0.000    3.333 
#    0.000    6.667    0.000   21.000    0.000    0.000 
#    0.000    0.000    0.000    0.000    0.000    0.000 
#
# Total GULP energy -297541.164747 kJ/mol
# GULP energy per Si atom -12397.548531 kJ/mol
# Density = 1.864062 g / cm^3
# Si number density = 18.683148 Si / 1000 Ang^3
#
#
#
# Elastic Constant Matrix: (Units=GPa)
#
#
# Indices 1 2 3 4 5 6 
#
# 1 207.7113 51.6054 134.2473 -0.0001 -1.3744 -0.0001
# 2 51.6054 65.8161 60.9596 0.0056 -3.7267 -0.0011
# 3 134.2473 60.9596 189.6753 0.0021 -10.4470 -0.0004
# 4 -0.0001 0.0056 0.0021 22.8342 -0.0004 -0.3564
# 5 -1.3744 -3.7267 -10.4470 -0.0004 45.7273 -0.0002
# 6 -0.0001 -0.0011 -0.0004 -0.3564 -0.0002 28.1061
#
#
#
# Elastic Compliance Matrix: (Units=1/GPa)
#
#
# Indices 1 2 3 4 5 6 
#
# 1 0.009064 -0.001669 -0.005946 0.000001 -0.001222 0.000000
# 2 -0.001669 0.021942 -0.005849 -0.000005 0.000402 0.000001
# 3 -0.005946 -0.005849 0.011469 0.000000 0.001965 0.000000
# 4 0.000001 -0.000005 0.000000 0.043803 0.000000 0.000555
# 5 -0.001222 0.000402 0.001965 0.000000 0.022314 0.000000
# 6 0.000000 0.000001 0.000000 0.000555 0.000000 0.035587
#
#
# Mechanical properties :
#
#
# Convention : Reuss Voigt Hill
#
# Bulk Modulus (GPa) = 64.31921 106.31416 85.31668
# Shear Modulus (GPa) = 28.36264 33.75953 31.06109
#
# Velocity S-wave (km/s) = 3.90049 4.25544 4.08182
# Velocity P-wave (km/s) = 7.40177 9.00957 8.24495
#
# Compressibility (1/GPa) = 0.01554745
#
# Stress axis : x y z
#
# Youngs Moduli (GPa) = 110.32548 45.57428 87.19285
#
# Poissons Ratio (x) = 0.07605 0.51848
# Poissons Ratio (y) = 0.18409 0.50998
# Poissons Ratio (z) = 0.65604 0.26656
#
# Static dielectric constant tensor:
#      x y z
#    x 3.349130 0.000000 0.115490 
#    y 0.000000 3.128820 0.000000 
#    z 0.115490 0.000000 3.401740 
# 
# 
# High freq. dielectric constant tensor:
#      x y z
#    x 1.745030 0.000000 -0.000180 
#    y 0.000000 1.693920 0.000000 
#    z -0.000180 0.000000 1.724230 
# 
# From -- ./inp_files/274008.got.cif
#   From: 2010.06.25/outbox.cif.g09.slc.cpg/sg12_138_cif.got.tgz:274008.got - 2010.06.28 00:19:55.
