data_PCOD8089477
_publ_section_title
;
Structure prediction by ZEFSAII (Michael W. Deem and Ramdas Pophale) SiO2 
 PCOD8089477
Probable space group: C 2/M
;
_chemical_formula_sum "Si O2"
_cell_formula_units_Z 64
_cell_length_a 15.434582
_cell_length_b 9.171770
_cell_length_c 30.826058
_cell_angle_alpha 90.000000
_cell_angle_beta 50.866987
_cell_angle_gamma 90.000000
_cell_volume 3384.934209
_symmetry_space_group_name_H-M "C 2/M"
_symmetry_group_IT_number 12
_symmetry_cell_setting 'monoclinic'
loop_
_space_group_symop_operation_xyz
x,y,z
-x,y,-z
-x,-y,-z
x,-y,z
1/2+x,1/2+y,z
1/2-x,1/2+y,-z
1/2-x,1/2-y,-z
1/2+x,1/2-y,z
loop_
_atom_site_type_symbol
_atom_site_label
_atom_site_fract_x
_atom_site_fract_y
_atom_site_fract_z
Si Si1 0.695711 0.329261 0.830140
Si Si2 0.929924 0.172005 0.759747
Si Si3 0.073162 0.827849 0.631479
Si Si4 0.202300 0.835738 0.055226
Si Si5 0.397261 0.834665 0.061116
Si Si6 0.502210 0.827294 0.569269
Si Si7 0.004434 0.829347 0.828794
Si Si8 0.324374 0.827505 0.556911
O O1 0.716194 0.500000 0.830922
O O2 0.812051 0.247949 0.789784
O O3 0.617755 0.269937 0.893210
O O4 0.629221 0.297906 0.806278
O O5 0.011956 0.215017 0.695054
O O6 0.987825 0.232309 0.785445
O O7 0.908280 0.000000 0.768377
O O8 0.199142 0.763862 0.594896
O O9 0.006035 0.753174 0.613808
O O10 0.074114 0.000000 0.623217
O O11 0.284759 0.830051 0.069548
O O12 0.086972 0.763062 0.108811
O O13 0.183569 0.000000 0.044853
O O14 0.250000 0.750000 0.000000
O O15 0.422827 0.000000 0.068671
O O16 0.500000 0.774862 0.000000
O O17 0.389828 0.776244 0.579592
O O18 0.608976 0.777348 0.507019
O O19 0.502433 0.000000 0.576893
O O20 0.979166 0.000000 0.835062
O O21 0.320517 0.000000 0.559340
#
# Coordination Sequence:
#
# PCOD8089477 Si02
#       8
#     8   8   8   8   8   8   8   8
#     4  11  22  36  58  84 106 133 179 234 274 310
#     4  10  21  40  58  73 105 150 185 220 269 332
#     4  10  20  33  54  80 106 142 188 226 266 323
#     4  10  19  33  53  77 107 138 170 209 256 318
#     4  10  20  35  56  81 111 145 175 207 263 336
#     4   9  17  32  55  80 112 146 179 225 271 318
#     4   9  19  37  57  75 102 141 177 213 267 325
#     4   8  16  32  53  80 111 148 185 215 266 331
#
# _framework density 18.907309999999999
#
# number of rings (size 3 to 8) (size 9 to 14) (size 15 to 20)
#    0.000    2.375    1.250    2.250    0.000    2.250 
#    0.000    6.250    0.000    0.000    0.000    0.000 
#    0.000    0.000    0.000    0.000    0.000    0.000 
#
# Total GULP energy -396756.558644 kJ/mol
# GULP energy per Si atom -12398.642458 kJ/mol
# Density = 1.886428 g / cm^3
# Si number density = 18.907310 Si / 1000 Ang^3
#
#
#
# Elastic Constant Matrix: (Units=GPa)
#
#
# Indices 1 2 3 4 5 6 
#
# 1 114.9298 30.9763 58.7988 0.0002 11.1531 0.0003
# 2 30.9763 39.7031 40.2603 0.0002 7.7012 0.0004
# 3 58.7988 40.2603 114.4685 0.0001 14.7231 0.0001
# 4 0.0002 0.0002 0.0001 20.7514 0.0000 2.2327
# 5 11.1531 7.7012 14.7231 0.0000 31.5209 0.0000
# 6 0.0003 0.0004 0.0001 2.2327 0.0000 25.9700
#
#
#
# Elastic Compliance Matrix: (Units=1/GPa)
#
#
# Indices 1 2 3 4 5 6 
#
# 1 0.012445 -0.004909 -0.004526 0.000000 -0.001090 0.000000
# 2 -0.004909 0.041418 -0.011669 0.000000 -0.002932 -0.000001
# 3 -0.004526 -0.011669 0.015525 0.000000 -0.002799 0.000000
# 4 0.000000 0.000000 0.000000 0.048639 0.000000 -0.004182
# 5 -0.001090 -0.002932 -0.002799 0.000000 0.034135 0.000000
# 6 0.000000 -0.000001 0.000000 -0.004182 0.000000 0.038865
#
#
# Mechanical properties :
#
#
# Convention : Reuss Voigt Hill
#
# Bulk Modulus (GPa) = 36.79010 58.79690 47.79350
# Shear Modulus (GPa) = 20.63597 24.91954 22.77775
#
# Velocity S-wave (km/s) = 3.30726 3.63434 3.47465
# Velocity P-wave (km/s) = 5.83818 6.98400 6.43664
#
# Compressibility (1/GPa) = 0.02718122
#
# Stress axis : x y z
#
# Youngs Moduli (GPa) = 80.35131 24.14406 64.41212
#
# Poissons Ratio (x) = 0.11852 0.29153
# Poissons Ratio (y) = 0.39443 0.75161
# Poissons Ratio (z) = 0.36367 0.28173
#
# Static dielectric constant tensor:
#      x y z
#    x 3.764820 0.000000 0.002070 
#    y 0.000000 3.179510 0.000000 
#    z 0.002070 0.000000 3.649380 
# 
# 
# High freq. dielectric constant tensor:
#      x y z
#    x 1.748400 0.000000 -0.001640 
#    y 0.000000 1.701050 0.000000 
#    z -0.001640 0.000000 1.735960 
# 
# From -- ./inp_files/375489.got.cif
#   From: 2010.06.25/outbox.cif.g09.slc.cpg/sg12_188_cif.got.tgz:375489.got - 2010.06.28 00:19:55.
