data_PCOD8089799
_publ_section_title
;
Structure prediction by ZEFSAII (Michael W. Deem and Ramdas Pophale) SiO2 
 PCOD8089799
Probable space group: C 2/M
;
_chemical_formula_sum "Si O2"
_cell_formula_units_Z 56
_cell_length_a 18.365733
_cell_length_b 13.433254
_cell_length_c 13.761385
_cell_angle_alpha 90.000000
_cell_angle_beta 120.414018
_cell_angle_gamma 90.000000
_cell_volume 2927.893449
_symmetry_space_group_name_H-M "C 2/M"
_symmetry_group_IT_number 12
_symmetry_cell_setting 'monoclinic'
loop_
_space_group_symop_operation_xyz
x,y,z
-x,y,-z
-x,-y,-z
x,-y,z
1/2+x,1/2+y,z
1/2-x,1/2+y,-z
1/2-x,1/2-y,-z
1/2+x,1/2-y,z
loop_
_atom_site_type_symbol
_atom_site_label
_atom_site_fract_x
_atom_site_fract_y
_atom_site_fract_z
Si Si1 0.502199 0.787167 0.705864
Si Si2 0.235776 0.611240 0.017963
Si Si3 0.662001 0.884193 0.438812
Si Si4 0.729426 0.270587 0.625036
Si Si5 0.308831 0.775777 0.189956
Si Si6 0.935620 0.886029 0.544443
Si Si7 0.956439 0.385427 0.071396
O O1 0.437963 0.866092 0.612486
O O2 0.594052 0.801247 0.719242
O O3 0.467672 0.676183 0.659866
O O4 0.507273 0.809516 0.823988
O O5 0.267920 0.500000 0.053125
O O6 0.232372 0.634759 0.900105
O O7 0.144187 0.628462 0.004844
O O8 0.304906 0.678286 0.118794
O O9 0.717177 0.834174 0.561312
O O10 0.687027 0.828530 0.354862
O O11 0.683557 0.000000 0.450140
O O12 0.742170 0.243787 0.746153
O O13 0.652747 0.345573 0.554261
O O14 0.000000 0.874233 0.500000
O O15 0.925628 0.000000 0.570949
O O16 0.977594 0.500000 0.114817
O O17 0.000000 0.356494 0.000000
#
# Coordination Sequence:
#
# PCOD8089799 Si02
#       7
#     8   8   8   8   8   8   8
#     4  10  20  35  55  81 114 143 182 236 279 323
#     4   9  20  35  54  80 109 142 185 231 275 330
#     4  10  22  37  56  86 116 148 186 225 278 338
#     4  10  21  37  57  81 115 152 183 232 274 328
#     4  10  20  36  55  80 112 146 184 229 279 327
#     4  10  19  33  54  80 109 146 188 228 272 327
#     4   9  18  33  54  82 112 144 180 226 284 338
#
# _framework density 19.126379
#
# number of rings (size 3 to 8) (size 9 to 14) (size 15 to 20)
#    0.000    2.286    1.429    0.857    2.000    2.857 
#    0.000    0.714    0.000    0.429    0.000    0.000 
#    0.000    0.000    0.000    0.000    0.000    0.000 
#
# Total GULP energy -347153.489109 kJ/mol
# GULP energy per Si atom -12398.338897 kJ/mol
# Density = 1.908285 g / cm^3
# Si number density = 19.126379 Si / 1000 Ang^3
#
#
#
# Elastic Constant Matrix: (Units=GPa)
#
#
# Indices 1 2 3 4 5 6 
#
# 1 59.0224 40.3808 32.0562 0.0000 -7.7752 0.0000
# 2 40.3808 105.4494 30.3206 0.0000 -9.2729 0.0000
# 3 32.0562 30.3206 62.9769 0.0000 -13.2446 0.0000
# 4 0.0000 0.0000 0.0000 19.2801 0.0000 -4.0309
# 5 -7.7752 -9.2729 -13.2446 0.0000 32.0786 0.0000
# 6 0.0000 0.0000 0.0000 -4.0309 0.0000 23.1516
#
#
#
# Elastic Compliance Matrix: (Units=1/GPa)
#
#
# Indices 1 2 3 4 5 6 
#
# 1 0.027892 -0.007652 -0.010466 0.000000 0.000228 0.000000
# 2 -0.007652 0.013141 -0.002216 0.000000 0.001029 0.000000
# 3 -0.010466 -0.002216 0.023659 0.000000 0.006591 0.000000
# 4 0.000000 0.000000 0.000000 0.053826 0.000000 0.009372
# 5 0.000228 0.001029 0.006591 0.000000 0.034247 0.000000
# 6 0.000000 0.000000 0.000000 0.009372 0.000000 0.044825
#
#
# Mechanical properties :
#
#
# Convention : Reuss Voigt Hill
#
# Bulk Modulus (GPa) = 41.62145 48.10711 44.86428
# Shear Modulus (GPa) = 20.30338 23.21477 21.75908
#
# Velocity S-wave (km/s) = 3.26166 3.48768 3.37656
# Velocity P-wave (km/s) = 5.99942 6.43626 6.22168
#
# Compressibility (1/GPa) = 0.02402607
#
# Stress axis : x y z
#
# Youngs Moduli (GPa) = 35.85303 76.09840 42.26761
#
# Poissons Ratio (x) = 0.58227 0.44235
# Poissons Ratio (y) = 0.27433 0.09364
# Poissons Ratio (z) = 0.37522 0.16860
#
# Static dielectric constant tensor:
#      x y z
#    x 3.603540 0.000000 0.016740 
#    y 0.000000 3.507220 0.000000 
#    z 0.016740 0.000000 3.357380 
# 
# 
# High freq. dielectric constant tensor:
#      x y z
#    x 1.740750 0.000000 0.005210 
#    y 0.000000 1.737900 0.000000 
#    z 0.005210 0.000000 1.734260 
# 
# From -- ./inp_files/224864.got.cif
#   From: 2010.06.25/outbox.cif.g09.slc.cpg/sg12_113_cif.got.tgz:224864.got - 2010.06.28 00:19:55.
