data_PCOD8089582
_publ_section_title
;
Structure prediction by ZEFSAII (Michael W. Deem and Ramdas Pophale) SiO2 
 PCOD8089582
Probable space group: C 2/M
;
_chemical_formula_sum "Si O2"
_cell_formula_units_Z 64
_cell_length_a 24.801681
_cell_length_b 8.890112
_cell_length_c 15.406619
_cell_angle_alpha 90.000000
_cell_angle_beta 107.428233
_cell_angle_gamma 90.000000
_cell_volume 3241.054524
_symmetry_space_group_name_H-M "C 2/M"
_symmetry_group_IT_number 12
_symmetry_cell_setting 'monoclinic'
loop_
_space_group_symop_operation_xyz
x,y,z
-x,y,-z
-x,-y,-z
x,-y,z
1/2+x,1/2+y,z
1/2-x,1/2+y,-z
1/2-x,1/2-y,-z
1/2+x,1/2-y,z
loop_
_atom_site_type_symbol
_atom_site_label
_atom_site_fract_x
_atom_site_fract_y
_atom_site_fract_z
Si Si1 0.523841 0.824463 0.640155
Si Si2 0.122014 0.177538 0.596220
Si Si3 0.131816 0.676496 0.933349
Si Si4 0.818376 0.174317 0.879648
Si Si5 0.689519 0.173871 0.781213
Si Si6 0.972308 0.823434 0.179699
Si Si7 0.392716 0.175189 0.581746
Si Si8 0.398493 0.324490 0.762587
O O1 0.558984 0.740305 0.582970
O O2 0.545999 0.764741 0.742765
O O3 0.458405 0.788359 0.598006
O O4 0.537137 0.000000 0.639254
O O5 0.164970 0.228594 0.691164
O O6 0.141591 0.242399 0.511880
O O7 0.120741 0.000000 0.590902
O O8 0.120777 0.500000 0.933123
O O9 0.163018 0.724365 0.859873
O O10 0.071637 0.763589 0.913677
O O11 0.171851 0.725942 0.030979
O O12 0.755978 0.204762 0.814806
O O13 0.861886 0.227112 0.826644
O O14 0.827364 0.000000 0.908092
O O15 0.675750 0.000000 0.755979
O O16 0.036422 0.783033 0.184321
O O17 0.964882 0.000000 0.191128
O O18 0.375073 0.238025 0.667042
O O19 0.378895 0.000000 0.572307
O O20 0.391805 0.500000 0.739859
#
# Coordination Sequence:
#
# PCOD8089582 Si02
#       8
#     8   8   8   8   8   8   8   8
#     4  10  19  33  53  81 117 152 186 227 282 340
#     4  12  23  34  55  85 116 151 190 233 281 338
#     4  11  22  36  58  87 118 149 187 238 288 343
#     4  10  22  41  63  83 109 151 195 240 289 337
#     4  10  22  40  60  83 115 151 190 238 289 337
#     4  10  19  33  56  85 117 152 186 230 285 339
#     4  10  21  36  57  83 115 153 189 231 282 338
#     4   9  20  39  60  84 115 149 193 240 282 334
#
# _framework density 19.746659999999999
#
# number of rings (size 3 to 8) (size 9 to 14) (size 15 to 20)
#    0.000    1.750    1.250    3.375    0.000    5.500 
#    0.000    3.125    0.000    0.000    0.000    0.000 
#    0.000    0.000    0.000    0.000    0.000    0.000 
#
# Total GULP energy -396908.104908 kJ/mol
# GULP energy per Si atom -12403.378278 kJ/mol
# Density = 1.970172 g / cm^3
# Si number density = 19.746660 Si / 1000 Ang^3
#
#
#
# Elastic Constant Matrix: (Units=GPa)
#
#
# Indices 1 2 3 4 5 6 
#
# 1 71.3346 20.9263 27.1461 0.0000 -7.8987 0.0000
# 2 20.9263 84.5956 45.5887 0.0000 -2.9546 0.0000
# 3 27.1461 45.5887 97.6028 0.0000 0.5189 0.0000
# 4 0.0000 0.0000 0.0000 35.3295 0.0000 1.9172
# 5 -7.8987 -2.9546 0.5189 0.0000 12.4153 0.0000
# 6 0.0000 0.0000 0.0000 1.9172 0.0000 21.8845
#
#
#
# Elastic Compliance Matrix: (Units=1/GPa)
#
#
# Indices 1 2 3 4 5 6 
#
# 1 0.017253 -0.001705 -0.004059 0.000000 0.010740 0.000000
# 2 -0.001705 0.016174 -0.007097 0.000000 0.003061 0.000000
# 3 -0.004059 -0.007097 0.014715 0.000000 -0.004886 0.000000
# 4 0.000000 0.000000 0.000000 0.028440 0.000000 -0.002492
# 5 0.010740 0.003061 -0.004886 0.000000 0.088311 0.000000
# 6 0.000000 0.000000 0.000000 -0.002492 0.000000 0.045913
#
#
# Mechanical properties :
#
#
# Convention : Reuss Voigt Hill
#
# Bulk Modulus (GPa) = 44.60291 48.98389 46.79340
# Shear Modulus (GPa) = 20.49173 24.58401 22.53787
#
# Velocity S-wave (km/s) = 3.22488 3.53224 3.38205
# Velocity P-wave (km/s) = 6.04178 6.44171 6.24495
#
# Compressibility (1/GPa) = 0.02242006
#
# Stress axis : x y z
#
# Youngs Moduli (GPa) = 57.96258 61.82742 67.95674
#
# Poissons Ratio (x) = 0.10543 0.27584
# Poissons Ratio (y) = 0.09884 0.48226
# Poissons Ratio (z) = 0.23527 0.43877
#
# Static dielectric constant tensor:
#      x y z
#    x 3.531150 0.000000 -0.014200 
#    y 0.000000 3.527770 0.000000 
#    z -0.014200 0.000000 3.649560 
# 
# 
# High freq. dielectric constant tensor:
#      x y z
#    x 1.754070 0.000000 0.004310 
#    y 0.000000 1.771570 0.000000 
#    z 0.004310 0.000000 1.776620 
# 
# From -- ./inp_files/244271.got.cif
#   From: 2010.06.25/outbox.cif.g09.slc.cpg/sg12_123_cif.got.tgz:244271.got - 2010.06.28 00:19:55.
