data_PCOD8089144
_publ_section_title
;
Structure prediction by ZEFSAII (Michael W. Deem and Ramdas Pophale) SiO2 
 PCOD8089144
Probable space group: C 2/M
;
_chemical_formula_sum "Si O2"
_cell_formula_units_Z 64
_cell_length_a 26.031285
_cell_length_b 14.214105
_cell_length_c 9.450863
_cell_angle_alpha 90.000000
_cell_angle_beta 80.525389
_cell_angle_gamma 90.000000
_cell_volume 3449.224382
_symmetry_space_group_name_H-M "C 2/M"
_symmetry_group_IT_number 12
_symmetry_cell_setting 'monoclinic'
loop_
_space_group_symop_operation_xyz
x,y,z
-x,y,-z
-x,-y,-z
x,-y,z
1/2+x,1/2+y,z
1/2-x,1/2+y,-z
1/2-x,1/2-y,-z
1/2+x,1/2-y,z
loop_
_atom_site_type_symbol
_atom_site_label
_atom_site_fract_x
_atom_site_fract_y
_atom_site_fract_z
Si Si1 0.052850 0.109560 0.060202
Si Si2 0.364038 0.289584 0.472626
Si Si3 0.858612 0.214159 0.149187
Si Si4 0.732287 0.603924 0.379522
Si Si5 0.178285 0.603708 0.450157
Si Si6 0.450863 0.389252 0.609902
Si Si7 0.251594 0.391460 0.161329
Si Si8 0.198615 0.391421 0.897910
O O1 0.044941 0.139201 0.227485
O O2 0.068863 0.000000 0.040215
O O3 0.097620 0.174202 0.974611
O O4 0.000000 0.129602 0.000000
O O5 0.376812 0.306975 0.302047
O O6 0.304811 0.320944 0.529933
O O7 0.368218 0.179178 0.512002
O O8 0.400090 0.346887 0.561298
O O9 0.804133 0.167120 0.135428
O O10 0.849884 0.325730 0.128278
O O11 0.706489 0.500000 0.405664
O O12 0.789832 0.603728 0.419514
O O13 0.746878 0.628114 0.210971
O O14 0.154429 0.500000 0.429239
O O15 0.219031 0.635215 0.313388
O O16 0.500000 0.349642 0.500000
O O17 0.447027 0.500000 0.595013
O O18 0.268395 0.500000 0.152636
O O19 0.213383 0.366316 0.050789
O O20 0.180735 0.500000 0.888542
#
# Coordination Sequence:
#
# PCOD8089144 Si02
#       8
#     8   8   8   8   8   8   8   8
#     4  10  23  42  62  84 111 140 174 223 280 333
#     4  12  22  33  56  84 110 147 191 228 270 324
#     4  12  22  34  56  82 111 149 188 228 273 325
#     4  10  19  33  51  76 113 151 189 224 263 321
#     4  10  20  35  52  77 115 155 189 224 265 316
#     4  10  23  42  62  85 111 138 174 225 279 331
#     4  10  21  34  50  77 114 151 189 230 272 321
#     4  10  22  36  51  77 115 155 190 227 269 317
#
# _framework density 18.554895999999999
#
# number of rings (size 3 to 8) (size 9 to 14) (size 15 to 20)
#    0.000    1.500    2.500    3.000    3.500    2.500 
#    0.000    0.000    0.000    0.750    0.000    0.000 
#    0.000    0.000    0.000    0.000    0.000    0.000 
#
# Total GULP energy -396784.131741 kJ/mol
# GULP energy per Si atom -12399.504117 kJ/mol
# Density = 1.851266 g / cm^3
# Si number density = 18.554896 Si / 1000 Ang^3
#
#
#
# Elastic Constant Matrix: (Units=GPa)
#
#
# Indices 1 2 3 4 5 6 
#
# 1 51.2976 28.2261 48.0593 0.0000 0.0640 0.0000
# 2 28.2261 68.4849 56.2968 0.0000 -9.8747 0.0000
# 3 48.0593 56.2968 100.8809 0.0000 1.0049 0.0000
# 4 0.0000 0.0000 0.0000 27.0554 0.0000 -1.0212
# 5 0.0640 -9.8747 1.0049 0.0000 30.7508 0.0000
# 6 0.0000 0.0000 0.0000 -1.0212 0.0000 25.6239
#
#
#
# Elastic Compliance Matrix: (Units=1/GPa)
#
#
# Indices 1 2 3 4 5 6 
#
# 1 0.035275 -0.001332 -0.016062 0.000000 0.000024 0.000000
# 2 -0.001332 0.029878 -0.016140 0.000000 0.010125 0.000000
# 3 -0.016062 -0.016140 0.026631 0.000000 -0.006020 0.000000
# 4 0.000000 0.000000 0.000000 0.037017 0.000000 0.001475
# 5 0.000024 0.010125 -0.006020 0.000000 0.035967 0.000000
# 6 0.000000 0.000000 0.000000 0.001475 0.000000 0.039085
#
#
# Mechanical properties :
#
#
# Convention : Reuss Voigt Hill
#
# Bulk Modulus (GPa) = 40.45770 53.98088 47.21929
# Shear Modulus (GPa) = 17.91093 22.55811 20.23452
#
# Velocity S-wave (km/s) = 3.11029 3.49054 3.30589
# Velocity P-wave (km/s) = 5.89493 6.73802 6.33052
#
# Compressibility (1/GPa) = 0.02471717
#
# Stress axis : x y z
#
# Youngs Moduli (GPa) = 28.34889 33.46945 37.54969
#
# Poissons Ratio (x) = 0.04457 0.60312
# Poissons Ratio (y) = 0.03775 0.60605
# Poissons Ratio (z) = 0.45534 0.54019
#
# Static dielectric constant tensor:
#      x y z
#    x 3.060240 0.000000 -0.013940 
#    y 0.000000 3.615250 0.000000 
#    z -0.013940 0.000000 3.643180 
# 
# 
# High freq. dielectric constant tensor:
#      x y z
#    x 1.674600 0.000000 0.001990 
#    y 0.000000 1.724410 0.000000 
#    z 0.001990 0.000000 1.744380 
# 
# From -- ./inp_files/96906.got.cif
#   From: 2010.06.25/outbox.cif.g09.slc.cpg/sg12_49_cif.got.tgz:96906.got - 2010.06.28 00:19:55.
