data_PCOD8089976
_publ_section_title
;
Structure prediction by ZEFSAII (Michael W. Deem and Ramdas Pophale) SiO2 
 PCOD8089976
Probable space group: C 2/M
;
_chemical_formula_sum "Si O2"
_cell_formula_units_Z 48
_cell_length_a 16.195639
_cell_length_b 13.150270
_cell_length_c 15.172618
_cell_angle_alpha 90.000000
_cell_angle_beta 129.194543
_cell_angle_gamma 90.000000
_cell_volume 2504.364894
_symmetry_space_group_name_H-M "C 2/M"
_symmetry_group_IT_number 12
_symmetry_cell_setting 'monoclinic'
loop_
_space_group_symop_operation_xyz
x,y,z
-x,y,-z
-x,-y,-z
x,-y,z
1/2+x,1/2+y,z
1/2-x,1/2+y,-z
1/2-x,1/2-y,-z
1/2+x,1/2-y,z
loop_
_atom_site_type_symbol
_atom_site_label
_atom_site_fract_x
_atom_site_fract_y
_atom_site_fract_z
Si Si1 0.265894 0.615313 0.660800
Si Si2 0.344502 0.828465 0.059905
Si Si3 0.084805 0.295961 0.215853
Si Si4 0.589831 0.882374 0.406245
Si Si5 0.135424 0.313578 0.733779
Si Si6 0.733246 0.112346 0.170053
O O1 0.303890 0.500000 0.672603
O O2 0.370517 0.683669 0.736072
O O3 0.192971 0.653219 0.530568
O O4 0.200437 0.623252 0.706841
O O5 0.459464 0.779728 0.114746
O O6 0.350187 0.873830 0.162887
O O7 0.250000 0.750000 0.000000
O O8 0.314785 0.904294 0.960751
O O9 0.110542 0.366832 0.316835
O O10 0.138170 0.349415 0.168192
O O11 0.490054 0.815271 0.373327
O O12 0.565714 0.000000 0.409852
O O13 0.171422 0.194965 0.762790
O O14 0.774137 0.000000 0.227394
#
# Coordination Sequence:
#
# PCOD8089976 Si02
#       6
#     8   8   8   8   8   8
#     4  10  20  34  54  78 105 138 172 209 257 307
#     4   9  19  35  52  72 100 134 170 211 256 303
#     4  10  20  34  53  77 106 134 171 218 258 302
#     4  10  19  33  55  79 102 136 177 211 250 302
#     4   9  19  34  53  78 107 133 171 216 253 298
#     4  10  20  34  54  78 104 136 172 212 260 309
#
# _framework density 19.166535
#
# number of rings (size 3 to 8) (size 9 to 14) (size 15 to 20)
#    0.000    2.333    0.000    2.500    0.000    6.000 
#    0.000    7.500    0.000   23.000    0.000    0.000 
#    0.000    0.000    0.000    0.000    0.000    0.000 
#
# Total GULP energy -297434.886530 kJ/mol
# GULP energy per Si atom -12393.120272 kJ/mol
# Density = 1.912291 g / cm^3
# Si number density = 19.166535 Si / 1000 Ang^3
#
#
#
# Elastic Constant Matrix: (Units=GPa)
#
#
# Indices 1 2 3 4 5 6 
#
# 1 83.3447 32.2934 23.9040 0.0000 -2.9643 0.0000
# 2 32.2934 97.7303 40.1535 0.0000 12.7421 0.0000
# 3 23.9040 40.1535 69.2143 0.0000 -4.5060 0.0000
# 4 0.0000 0.0000 0.0000 22.4658 0.0000 -1.4079
# 5 -2.9643 12.7421 -4.5060 0.0000 21.5754 0.0000
# 6 0.0000 0.0000 0.0000 -1.4079 0.0000 17.4353
#
#
#
# Elastic Compliance Matrix: (Units=1/GPa)
#
#
# Indices 1 2 3 4 5 6 
#
# 1 0.014486 -0.004445 -0.002153 0.000000 0.004166 0.000000
# 2 -0.004445 0.017148 -0.009238 0.000000 -0.012667 0.000000
# 3 -0.002153 -0.009238 0.021174 0.000000 0.009582 0.000000
# 4 0.000000 0.000000 0.000000 0.044739 0.000000 0.003613
# 5 0.004166 -0.012667 0.009582 0.000000 0.056404 0.000000
# 6 0.000000 0.000000 0.000000 0.003613 0.000000 0.057647
#
#
# Mechanical properties :
#
#
# Convention : Reuss Voigt Hill
#
# Bulk Modulus (GPa) = 47.31047 49.22124 48.26586
# Shear Modulus (GPa) = 19.97478 22.55784 21.26631
#
# Velocity S-wave (km/s) = 3.23177 3.43438 3.33461
# Velocity P-wave (km/s) = 6.21798 6.43919 6.32955
#
# Compressibility (1/GPa) = 0.02113697
#
# Stress axis : x y z
#
# Youngs Moduli (GPa) = 69.02988 58.31547 47.22718
#
# Poissons Ratio (x) = 0.25924 0.10167
# Poissons Ratio (y) = 0.30687 0.43626
# Poissons Ratio (z) = 0.14861 0.53869
#
# Static dielectric constant tensor:
#      x y z
#    x 3.643320 0.000000 -0.280770 
#    y 0.000000 3.247110 0.000000 
#    z -0.280770 0.000000 3.991790 
# 
# 
# High freq. dielectric constant tensor:
#      x y z
#    x 1.753270 0.000000 -0.013220 
#    y 0.000000 1.724990 0.000000 
#    z -0.013220 0.000000 1.752390 
# 
# From -- ./inp_files/214995.got.cif
#   From: 2010.06.25/outbox.cif.g09.slc.cpg/sg12_108_cif.got.tgz:214995.got - 2010.06.28 00:19:55.
