data_PCOD8089663
_publ_section_title
;
Structure prediction by ZEFSAII (Michael W. Deem and Ramdas Pophale) SiO2 
 PCOD8089663
Probable space group: C 2/M
;
_chemical_formula_sum "Si O2"
_cell_formula_units_Z 56
_cell_length_a 21.364672
_cell_length_b 9.012777
_cell_length_c 15.785185
_cell_angle_alpha 90.000000
_cell_angle_beta 83.820500
_cell_angle_gamma 90.000000
_cell_volume 3021.855698
_symmetry_space_group_name_H-M "C 2/M"
_symmetry_group_IT_number 12
_symmetry_cell_setting 'monoclinic'
loop_
_space_group_symop_operation_xyz
x,y,z
-x,y,-z
-x,-y,-z
x,-y,z
1/2+x,1/2+y,z
1/2-x,1/2+y,-z
1/2-x,1/2-y,-z
1/2+x,1/2-y,z
loop_
_atom_site_type_symbol
_atom_site_label
_atom_site_fract_x
_atom_site_fract_y
_atom_site_fract_z
Si Si1 0.451554 0.824590 0.933247
Si Si2 0.979243 0.330723 0.411827
Si Si3 0.231531 0.667780 0.372025
Si Si4 0.691558 0.826682 0.053523
Si Si5 0.833796 0.335290 0.451558
Si Si6 0.184022 0.166612 0.224078
Si Si7 0.538709 0.332046 0.244538
O O1 0.379113 0.776621 0.967220
O O2 0.474299 0.751097 0.842306
O O3 0.454250 0.000000 0.919198
O O4 0.500000 0.774051 0.000000
O O5 0.003705 0.500000 0.401878
O O6 0.905087 0.319621 0.415099
O O7 0.000000 0.263240 0.500000
O O8 0.004226 0.241255 0.328389
O O9 0.235097 0.500000 0.336496
O O10 0.173777 0.685787 0.446126
O O11 0.296395 0.706836 0.409144
O O12 0.224157 0.784382 0.298315
O O13 0.698857 0.784593 0.149772
O O14 0.699603 0.000000 0.039136
O O15 0.750000 0.750000 0.000000
O O16 0.808231 0.500000 0.431095
O O17 0.111359 0.172501 0.258488
O O18 0.204042 0.000000 0.193774
O O19 0.514525 0.500000 0.236980
#
# Coordination Sequence:
#
# PCOD8089663 Si02
#       7
#     8   8   8   8   8   8   8
#     4   9  19  38  62  84 108 146 190 228 275 335
#     4  10  20  35  55  78 107 145 185 223 266 320
#     4  10  19  33  54  77 102 136 180 224 268 317
#     4  10  20  36  58  84 112 141 180 228 277 330
#     4   9  19  34  51  74 106 142 177 219 268 319
#     4  10  20  35  55  78 106 140 178 218 269 325
#     4  10  21  35  54  82 112 142 179 226 274 321
#
# _framework density 18.531659000000001
#
# number of rings (size 3 to 8) (size 9 to 14) (size 15 to 20)
#    0.000    2.286    0.000    2.571    0.000    5.143 
#    2.571    0.000    0.000    0.000    0.000    0.000 
#    0.000    0.000    0.000    0.000    0.000    0.000 
#
# Total GULP energy -347115.434724 kJ/mol
# GULP energy per Si atom -12396.979812 kJ/mol
# Density = 1.848948 g / cm^3
# Si number density = 18.531659 Si / 1000 Ang^3
#
#
#
# Elastic Constant Matrix: (Units=GPa)
#
#
# Indices 1 2 3 4 5 6 
#
# 1 79.0506 40.8556 62.5089 0.0000 -9.4905 0.0000
# 2 40.8556 74.5275 49.7730 0.0000 -3.6895 0.0000
# 3 62.5089 49.7730 118.0879 0.0000 -0.0140 0.0000
# 4 0.0000 0.0000 0.0000 32.3539 0.0000 -0.5991
# 5 -9.4905 -3.6895 -0.0140 0.0000 30.3515 0.0000
# 6 0.0000 0.0000 0.0000 -0.5991 0.0000 22.8176
#
#
#
# Elastic Compliance Matrix: (Units=1/GPa)
#
#
# Indices 1 2 3 4 5 6 
#
# 1 0.025228 -0.006346 -0.010678 0.000000 0.007112 0.000000
# 2 -0.006346 0.020428 -0.005251 0.000000 0.000496 0.000000
# 3 -0.010678 -0.005251 0.016334 0.000000 -0.003970 0.000000
# 4 0.000000 0.000000 0.000000 0.030923 0.000000 0.000812
# 5 0.007112 0.000496 -0.003970 0.000000 0.035230 0.000000
# 6 0.000000 0.000000 0.000000 0.000812 0.000000 0.043847
#
#
# Mechanical properties :
#
#
# Convention : Reuss Voigt Hill
#
# Bulk Modulus (GPa) = 57.34442 64.21566 60.78004
# Shear Modulus (GPa) = 22.48674 25.00651 23.74662
#
# Velocity S-wave (km/s) = 3.48720 3.67739 3.58356
# Velocity P-wave (km/s) = 6.87207 7.26348 7.07048
#
# Compressibility (1/GPa) = 0.01743849
#
# Stress axis : x y z
#
# Youngs Moduli (GPa) = 39.63899 48.95194 61.22355
#
# Poissons Ratio (x) = 0.31065 0.65377
# Poissons Ratio (y) = 0.25155 0.32148
# Poissons Ratio (z) = 0.42328 0.25705
#
# Static dielectric constant tensor:
#      x y z
#    x 3.554890 0.000000 -0.100740 
#    y 0.000000 3.408210 0.000000 
#    z -0.100740 0.000000 3.378590 
# 
# 
# High freq. dielectric constant tensor:
#      x y z
#    x 1.713590 0.000000 -0.000500 
#    y 0.000000 1.724400 0.000000 
#    z -0.000500 0.000000 1.715890 
# 
# From -- ./inp_files/231062.got.cif
#   From: 2010.06.25/outbox.cif.g09.slc.cpg/sg12_116_cif.got.tgz:231062.got - 2010.06.28 00:19:55.
