data_PCOD8089413
_publ_section_title
;
Structure prediction by ZEFSAII (Michael W. Deem and Ramdas Pophale) SiO2 
 PCOD8089413
Probable space group: C 2/M
;
_chemical_formula_sum "Si O2"
_cell_formula_units_Z 56
_cell_length_a 8.997524
_cell_length_b 18.652739
_cell_length_c 18.850725
_cell_angle_alpha 90.000000
_cell_angle_beta 76.193024
_cell_angle_gamma 90.000000
_cell_volume 3072.274231
_symmetry_space_group_name_H-M "C 2/M"
_symmetry_group_IT_number 12
_symmetry_cell_setting 'monoclinic'
loop_
_space_group_symop_operation_xyz
x,y,z
-x,y,-z
-x,-y,-z
x,-y,z
1/2+x,1/2+y,z
1/2-x,1/2+y,-z
1/2-x,1/2-y,-z
1/2+x,1/2-y,z
loop_
_atom_site_type_symbol
_atom_site_label
_atom_site_fract_x
_atom_site_fract_y
_atom_site_fract_z
Si Si1 0.595876 0.827550 0.658422
Si Si2 0.830041 0.676130 0.500000
Si Si3 0.971098 0.084891 0.217119
Si Si4 0.745703 0.327550 0.658422
Si Si5 0.311783 0.084891 0.217119
Si Si6 0.382058 0.414598 0.071769
Si Si7 0.953827 0.414598 0.928231
O O1 0.668879 0.862564 0.577315
O O2 0.666564 0.750000 0.666873
O O3 0.413436 0.819599 0.673130
O O4 0.636594 0.882662 0.714758
O O5 0.750000 0.750000 0.500000
O O6 0.753806 0.637436 0.577316
O O7 0.000000 0.697189 0.500000
O O8 0.141197 0.110077 0.217606
O O9 0.851351 0.117338 0.285241
O O10 0.933652 0.113609 0.142759
O O11 0.954486 0.000000 0.222642
O O12 0.423589 0.113609 0.142759
O O13 0.322872 0.000000 0.222642
O O14 0.382982 0.500000 0.070085
O O15 0.213253 0.384950 0.073494
O O16 0.500000 0.384202 0.000000
O O17 0.953066 0.500000 0.929916
O O18 0.000000 0.384201 0.000000
#
# Coordination Sequence:
#
# PCOD8089413 Si02
#       7
#     8   8   8   8   8   8   8
#     4  10  19  33  53  75  99 128 164 204 247 295
#     4   8  16  30  49  72  95 123 161 203 243 288
#     4  10  20  33  49  72 102 133 166 205 247 290
#     4  10  19  33  53  75  99 128 164 204 247 295
#     4  10  20  33  49  72 102 133 166 205 247 290
#     4   9  16  27  45  69  96 127 163 202 243 287
#     4   9  16  27  45  69  96 127 163 202 243 287
#
# _framework density 18.227539
#
# number of rings (size 3 to 8) (size 9 to 14) (size 15 to 20)
#    0.000    2.571    0.000    2.571    0.000    6.286 
#    0.000    0.714    0.000    5.143    0.000    6.000 
#    0.000    0.000    0.000    0.000    0.000    0.000 
#
# Total GULP energy -346981.694830 kJ/mol
# GULP energy per Si atom -12392.203387 kJ/mol
# Density = 1.818605 g / cm^3
# Si number density = 18.227539 Si / 1000 Ang^3
#
#
#
# Elastic Constant Matrix: (Units=GPa)
#
#
# Indices 1 2 3 4 5 6 
#
# 1 147.9640 24.0680 93.8308 0.0000 0.8475 0.0000
# 2 24.0680 15.4318 28.2601 0.0000 0.1975 0.0000
# 3 93.8308 28.2601 195.3349 0.0000 1.3849 0.0000
# 4 0.0000 0.0000 0.0000 -78.0479 0.0000 -4.8068
# 5 0.8475 0.1975 1.3849 0.0000 36.0842 0.0000
# 6 0.0000 0.0000 0.0000 -4.8068 0.0000 23.9276
#
#
#
# Elastic Compliance Matrix: (Units=1/GPa)
#
#
# Indices 1 2 3 4 5 6 
#
# 1 0.010731 -0.009927 -0.003718 0.000000 -0.000055 0.000000
# 2 -0.009927 0.097342 -0.009315 0.000000 0.000058 0.000000
# 3 -0.003718 -0.009315 0.008254 0.000000 -0.000178 0.000000
# 4 0.000000 0.000000 0.000000 -0.012656 0.000000 -0.002542
# 5 -0.000055 0.000058 -0.000178 0.000000 0.027721 0.000000
# 6 0.000000 0.000000 0.000000 -0.002542 0.000000 0.041282
#
#
# Mechanical properties :
#
#
# Convention : Reuss Voigt Hill
#
# Bulk Modulus (GPa) = 14.20314 72.33872 43.27093
# Shear Modulus (GPa) = 20.65573 10.56422 15.60998
#
# Velocity S-wave (km/s) = 3.36998 2.41005 2.92960
# Velocity P-wave (km/s) = 4.79076 6.89326 5.93584
#
# Compressibility (1/GPa) = 0.07040699
#
# Stress axis : x y z
#
# Youngs Moduli (GPa) = 93.18403 10.27311 121.14708
#
# Poissons Ratio (x) = 0.10198 0.45047
# Poissons Ratio (y) = 0.92505 1.12845
# Poissons Ratio (z) = 0.34649 0.09569
#
# Static dielectric constant tensor:
#      x y z
#    x 3.629560 0.000000 0.021860 
#    y 0.000000 2.743870 0.000000 
#    z 0.021860 0.000000 4.093270 
# 
# 
# High freq. dielectric constant tensor:
#      x y z
#    x 1.727620 0.000000 0.000280 
#    y 0.000000 1.641090 0.000000 
#    z 0.000280 0.000000 1.733530 
# 
# From -- ./inp_files/257057.got.cif
#   From: 2010.06.25/outbox.cif.g09.slc.cpg/sg12_129_cif.got.tgz:257057.got - 2010.06.28 00:19:55.
