data_PCOD8089790
_publ_section_title
;
Structure prediction by ZEFSAII (Michael W. Deem and Ramdas Pophale) SiO2 
 PCOD8089790
Probable space group: C 2/M
;
_chemical_formula_sum "Si O2"
_cell_formula_units_Z 60
_cell_length_a 22.293331
_cell_length_b 13.243818
_cell_length_c 21.417036
_cell_angle_alpha 90.000000
_cell_angle_beta 32.929439
_cell_angle_gamma 90.000000
_cell_volume 3437.412102
_symmetry_space_group_name_H-M "C 2/M"
_symmetry_group_IT_number 12
_symmetry_cell_setting 'monoclinic'
loop_
_space_group_symop_operation_xyz
x,y,z
-x,y,-z
-x,-y,-z
x,-y,z
1/2+x,1/2+y,z
1/2-x,1/2+y,-z
1/2-x,1/2-y,-z
1/2+x,1/2-y,z
loop_
_atom_site_type_symbol
_atom_site_label
_atom_site_fract_x
_atom_site_fract_y
_atom_site_fract_z
Si Si1 0.500000 0.251486 0.500000
Si Si2 0.238691 0.882315 0.072080
Si Si3 0.557614 0.384425 0.329451
Si Si4 0.546529 0.619049 0.892819
Si Si5 0.590720 0.286640 0.098355
Si Si6 0.208533 0.611549 0.341586
Si Si7 0.582486 0.712894 0.647534
Si Si8 0.300497 0.110213 0.505314
O O1 0.525643 0.318836 0.417275
O O2 0.608822 0.183792 0.409930
O O3 0.171534 0.854530 0.194386
O O4 0.171872 0.860535 0.066249
O O5 0.271158 0.000000 0.043754
O O6 0.347993 0.814471 0.977929
O O7 0.560689 0.500000 0.348663
O O8 0.465444 0.370410 0.357212
O O9 0.551765 0.500000 0.878647
O O10 0.462105 0.659984 0.915178
O O11 0.672498 0.660837 0.779668
O O12 0.500000 0.651998 0.000000
O O13 0.492268 0.255788 0.229395
O O14 0.193302 0.500000 0.323200
O O15 0.209081 0.595283 0.413860
O O16 0.595786 0.819235 0.600395
O O17 0.693524 0.664955 0.574076
O O18 0.315362 0.000000 0.460684
#
# Coordination Sequence:
#
# PCOD8089790 Si02
#       8
#     4   8   8   8   8   8   8   8
#     4  12  22  36  56  80 112 146 184 224 264 328
#     4   9  20  36  55  80 109 139 176 223 276 320
#     4  10  21  36  54  77 104 142 183 224 265 313
#     4  10  21  36  56  82 109 141 182 223 264 319
#     4  10  19  34  59  79 105 140 179 220 269 320
#     4  10  21  37  56  81 112 146 177 219 276 325
#     4  10  19  34  54  80 105 135 177 220 265 318
#     4  10  19  33  54  80 109 136 169 216 272 323
#
# _framework density 17.454992000000001
#
# number of rings (size 3 to 8) (size 9 to 14) (size 15 to 20)
#    0.000    2.000    2.667    1.200    1.867    1.600 
#    0.000    0.000    0.000    2.000    0.000    0.000 
#    0.000    0.000    0.000    0.000    0.000    0.000 
#
# Total GULP energy -371797.213385 kJ/mol
# GULP energy per Si atom -12393.240446 kJ/mol
# Density = 1.741526 g / cm^3
# Si number density = 17.454992 Si / 1000 Ang^3
#
#
#
# Elastic Constant Matrix: (Units=GPa)
#
#
# Indices 1 2 3 4 5 6 
#
# 1 82.6828 26.9971 48.7168 0.0000 4.0676 0.0000
# 2 26.9971 75.1483 32.9891 0.0000 1.5252 0.0000
# 3 48.7168 32.9891 83.7931 0.0000 2.0724 0.0000
# 4 0.0000 0.0000 0.0000 23.2948 0.0000 -10.8585
# 5 4.0676 1.5252 2.0724 0.0000 29.8873 0.0000
# 6 0.0000 0.0000 0.0000 -10.8585 0.0000 15.0837
#
#
#
# Elastic Compliance Matrix: (Units=1/GPa)
#
#
# Indices 1 2 3 4 5 6 
#
# 1 0.018826 -0.002348 -0.009978 0.000000 -0.001750 0.000000
# 2 -0.002348 0.016384 -0.005082 0.000000 -0.000164 0.000000
# 3 -0.009978 -0.005082 0.019730 0.000000 0.000249 0.000000
# 4 0.000000 0.000000 0.000000 0.064608 0.000000 0.046510
# 5 -0.001750 -0.000164 0.000249 0.000000 0.033688 0.000000
# 6 0.000000 0.000000 0.000000 0.046510 0.000000 0.099778
#
#
# Mechanical properties :
#
#
# Convention : Reuss Voigt Hill
#
# Bulk Modulus (GPa) = 49.68657 51.00334 50.34496
# Shear Modulus (GPa) = 16.97577 22.51458 19.74517
#
# Velocity S-wave (km/s) = 3.12195 3.59537 3.36699
# Velocity P-wave (km/s) = 6.44381 6.82048 6.63482
#
# Compressibility (1/GPa) = 0.02012616
#
# Stress axis : x y z
#
# Youngs Moduli (GPa) = 53.11810 61.03342 50.68521
#
# Poissons Ratio (x) = 0.14328 0.50573
# Poissons Ratio (y) = 0.12470 0.25756
# Poissons Ratio (z) = 0.53000 0.31015
#
# Static dielectric constant tensor:
#      x y z
#    x 3.145090 0.000000 0.025220 
#    y 0.000000 3.443340 0.000000 
#    z 0.025220 0.000000 3.466090 
# 
# 
# High freq. dielectric constant tensor:
#      x y z
#    x 1.668770 0.000000 0.002710 
#    y 0.000000 1.672080 0.000000 
#    z 0.002710 0.000000 1.684190 
# 
# From -- ./inp_files/349350.got.cif
#   From: 2010.06.25/outbox.cif.g09.slc.cpg/sg12_175_cif.got.tgz:349350.got - 2010.06.28 00:19:55.
