data_PCOD8089531
_publ_section_title
;
Structure prediction by ZEFSAII (Michael W. Deem and Ramdas Pophale) SiO2 
 PCOD8089531
Probable space group: C 2/M
;
_chemical_formula_sum "Si O2"
_cell_formula_units_Z 64
_cell_length_a 16.141106
_cell_length_b 9.456286
_cell_length_c 21.910131
_cell_angle_alpha 90.000000
_cell_angle_beta 82.805923
_cell_angle_gamma 90.000000
_cell_volume 3317.923870
_symmetry_space_group_name_H-M "C 2/M"
_symmetry_group_IT_number 12
_symmetry_cell_setting 'monoclinic'
loop_
_space_group_symop_operation_xyz
x,y,z
-x,y,-z
-x,-y,-z
x,-y,z
1/2+x,1/2+y,z
1/2-x,1/2+y,-z
1/2-x,1/2-y,-z
1/2+x,1/2-y,z
loop_
_atom_site_type_symbol
_atom_site_label
_atom_site_fract_x
_atom_site_fract_y
_atom_site_fract_z
Si Si1 0.651501 0.164334 0.565671
Si Si2 0.469314 0.657788 0.933539
Si Si3 0.133162 0.664174 0.302191
Si Si4 0.205982 0.664612 0.754747
Si Si5 0.606668 0.844615 0.879273
Si Si6 0.687123 0.838960 0.429670
Si Si7 0.051303 0.333314 0.687111
Si Si8 0.830435 0.657411 0.989923
O O1 0.634886 0.201120 0.495938
O O2 0.732350 0.242150 0.584184
O O3 0.573230 0.209666 0.615027
O O4 0.670224 0.000000 0.573269
O O5 0.445471 0.500000 0.913153
O O6 0.537416 0.722039 0.880661
O O7 0.500000 0.649902 0.000000
O O8 0.391626 0.764028 0.937279
O O9 0.146310 0.500000 0.283462
O O10 0.209231 0.751288 0.266348
O O11 0.130028 0.682954 0.375796
O O12 0.042294 0.723074 0.287768
O O13 0.222179 0.500000 0.738324
O O14 0.184334 0.690468 0.827994
O O15 0.125342 0.723374 0.724445
O O16 0.633623 0.852874 0.946226
O O17 0.570175 0.000000 0.864009
O O18 0.718601 0.000000 0.431712
O O19 0.046368 0.500000 0.694503
O O20 0.811953 0.500000 0.966239
O O21 0.750000 0.750000 0.000000
#
# Coordination Sequence:
#
# PCOD8089531 Si02
#       8
#     8   8   8   8   8   8   8   8
#     4   9  16  29  50  73  98 134 175 214 265 325
#     4   9  17  31  53  78 103 132 169 207 250 307
#     4  10  20  34  52  77 107 137 175 225 271 313
#     4  10  20  38  58  75 104 145 183 217 260 317
#     4   9  19  35  55  76 103 138 175 213 259 310
#     4   9  17  28  47  75 103 130 168 220 272 315
#     4   9  18  33  54  76 101 137 179 217 261 320
#     4  10  19  33  53  79 110 140 171 214 265 312
#
# _framework density 19.289171
#
# number of rings (size 3 to 8) (size 9 to 14) (size 15 to 20)
#    0.000    2.625    1.250    0.750    0.000    3.000 
#    2.250    3.750    0.000    0.000    0.000    4.375 
#    0.000    0.000    0.000    0.000    0.000    0.000 
#
# Total GULP energy -396513.692871 kJ/mol
# GULP energy per Si atom -12391.052902 kJ/mol
# Density = 1.924527 g / cm^3
# Si number density = 19.289171 Si / 1000 Ang^3
#
#
#
# Elastic Constant Matrix: (Units=GPa)
#
#
# Indices 1 2 3 4 5 6 
#
# 1 101.2643 46.0262 27.9497 0.0000 -35.3164 0.0000
# 2 46.0262 102.3095 29.0418 0.0000 -23.3187 0.0000
# 3 27.9497 29.0418 69.4810 0.0000 -28.3621 0.0000
# 4 0.0000 0.0000 0.0000 23.6366 0.0000 -8.8008
# 5 -35.3164 -23.3187 -28.3621 0.0000 26.6399 0.0000
# 6 0.0000 0.0000 0.0000 -8.8008 0.0000 29.5252
#
#
#
# Elastic Compliance Matrix: (Units=1/GPa)
#
#
# Indices 1 2 3 4 5 6 
#
# 1 0.020461 -0.004057 0.005461 0.000000 0.029388 0.000000
# 2 -0.004057 0.013082 -0.002400 0.000000 0.003518 0.000000
# 3 0.005461 -0.002400 0.027054 0.000000 0.033941 0.000000
# 4 0.000000 0.000000 0.000000 0.047589 0.000000 0.014185
# 5 0.029388 0.003518 0.033941 0.000000 0.115712 0.000000
# 6 0.000000 0.000000 0.000000 0.014185 0.000000 0.038098
#
#
# Mechanical properties :
#
#
# Convention : Reuss Voigt Hill
#
# Bulk Modulus (GPa) = 17.06332 53.23226 35.14779
# Shear Modulus (GPa) = 17.63526 27.29616 22.46571
#
# Velocity S-wave (km/s) = 3.02695 3.76587 3.41644
# Velocity P-wave (km/s) = 4.59149 6.82392 5.81583
#
# Compressibility (1/GPa) = 0.05860525
#
# Stress axis : x y z
#
# Youngs Moduli (GPa) = 48.87368 76.43816 36.96340
#
# Poissons Ratio (x) = 0.31009 -0.20186
# Poissons Ratio (y) = 0.19827 0.08872
# Poissons Ratio (z) = -0.26691 0.18348
#
# Static dielectric constant tensor:
#      x y z
#    x 3.596690 0.000000 -0.107770 
#    y 0.000000 3.566850 0.000000 
#    z -0.107770 0.000000 3.621310 
# 
# 
# High freq. dielectric constant tensor:
#      x y z
#    x 1.730950 0.000000 -0.014260 
#    y 0.000000 1.737480 0.000000 
#    z -0.014260 0.000000 1.749750 
# 
# From -- ./inp_files/359717.got.cif
#   From: 2010.06.25/outbox.cif.g09.slc.cpg/sg12_180_cif.got.tgz:359717.got - 2010.06.28 00:19:55.
