data_PCOD8089573
_publ_section_title
;
Structure prediction by ZEFSAII (Michael W. Deem and Ramdas Pophale) SiO2 
 PCOD8089573
Probable space group: C 2/M
;
_chemical_formula_sum "Si O2"
_cell_formula_units_Z 64
_cell_length_a 20.732316
_cell_length_b 8.894920
_cell_length_c 20.195502
_cell_angle_alpha 90.000000
_cell_angle_beta 66.578404
_cell_angle_gamma 90.000000
_cell_volume 3417.434720
_symmetry_space_group_name_H-M "C 2/M"
_symmetry_group_IT_number 12
_symmetry_cell_setting 'monoclinic'
loop_
_space_group_symop_operation_xyz
x,y,z
-x,y,-z
-x,-y,-z
x,-y,z
1/2+x,1/2+y,z
1/2-x,1/2+y,-z
1/2-x,1/2-y,-z
1/2+x,1/2-y,z
loop_
_atom_site_type_symbol
_atom_site_label
_atom_site_fract_x
_atom_site_fract_y
_atom_site_fract_z
Si Si1 0.801233 0.674261 0.066194
Si Si2 0.635467 0.322322 0.305551
Si Si3 0.146056 0.826056 0.080036
Si Si4 0.707840 0.821677 0.782432
Si Si5 0.418595 0.173894 0.542782
Si Si6 0.175735 0.323831 0.543629
Si Si7 0.049676 0.321836 0.223233
Si Si8 0.609762 0.821028 0.706511
O O1 0.818833 0.500000 0.047083
O O2 0.719143 0.705426 0.087270
O O3 0.818247 0.726760 0.133897
O O4 0.849417 0.771679 0.997663
O O5 0.631954 0.500000 0.296194
O O6 0.714198 0.259460 0.263221
O O7 0.611430 0.280955 0.388621
O O8 0.585110 0.245321 0.273492
O O9 0.085974 0.733161 0.141250
O O10 0.125769 0.000000 0.089863
O O11 0.654325 0.755207 0.749993
O O12 0.710262 0.000000 0.776909
O O13 0.500000 0.210137 0.500000
O O14 0.378838 0.216083 0.491734
O O15 0.407136 0.000000 0.567198
O O16 0.188091 0.500000 0.544365
O O17 0.250000 0.250000 0.500000
O O18 0.143667 0.259211 0.624891
O O19 0.054107 0.500000 0.225484
O O20 0.969707 0.263533 0.254508
O O21 0.611382 0.000000 0.706081
#
# Coordination Sequence:
#
# PCOD8089573 Si02
#       8
#     8   8   8   8   8   8   8   8
#     4   9  17  32  54  80 108 140 181 226 269 315
#     4  11  21  35  57  83 108 137 178 230 280 321
#     4  10  19  33  53  81 113 143 179 224 272 317
#     4   9  17  33  55  80 107 136 179 229 268 311
#     4  10  21  37  55  77 108 144 182 226 271 324
#     4  10  20  36  57  80 108 142 183 226 273 326
#     4  11  21  35  56  82 111 146 183 217 268 330
#     4   9  19  35  56  79 106 144 183 221 264 320
#
# _framework density 18.727497
#
# number of rings (size 3 to 8) (size 9 to 14) (size 15 to 20)
#    0.000    2.125    1.250    2.625    0.000    4.250 
#    0.000    3.125    0.000    9.000    0.000    0.000 
#    0.000    0.000    0.000    0.000    0.000    0.000 
#
# Total GULP energy -396879.274048 kJ/mol
# GULP energy per Si atom -12402.477314 kJ/mol
# Density = 1.868487 g / cm^3
# Si number density = 18.727497 Si / 1000 Ang^3
#
#
#
# Elastic Constant Matrix: (Units=GPa)
#
#
# Indices 1 2 3 4 5 6 
#
# 1 155.4282 37.5900 83.7441 -0.0001 10.1024 -0.0002
# 2 37.5900 48.8340 39.9341 -0.0004 -0.3880 -0.0007
# 3 83.7441 39.9341 157.4997 0.0000 11.5342 -0.0001
# 4 -0.0001 -0.0004 0.0000 30.0591 0.0000 -5.5764
# 5 10.1024 -0.3880 11.5342 0.0000 26.1593 -0.0001
# 6 -0.0002 -0.0007 -0.0001 -5.5764 -0.0001 17.4628
#
#
#
# Elastic Compliance Matrix: (Units=1/GPa)
#
#
# Indices 1 2 3 4 5 6 
#
# 1 0.009724 -0.004287 -0.003931 0.000000 -0.002086 0.000000
# 2 -0.004287 0.028017 -0.005142 0.000001 0.004338 0.000001
# 3 -0.003931 -0.005142 0.009959 0.000000 -0.002949 0.000000
# 4 0.000000 0.000001 0.000000 0.035363 0.000000 0.011292
# 5 -0.002086 0.004338 -0.002949 0.000000 0.040398 0.000000
# 6 0.000000 0.000001 0.000000 0.011292 0.000000 0.060870
#
#
# Mechanical properties :
#
#
# Convention : Reuss Voigt Hill
#
# Bulk Modulus (GPa) = 47.66371 76.03317 61.84844
# Shear Modulus (GPa) = 22.93118 28.10249 25.51683
#
# Velocity S-wave (km/s) = 3.50303 3.87796 3.69526
# Velocity P-wave (km/s) = 6.47056 7.79354 7.16266
#
# Compressibility (1/GPa) = 0.02098032
#
# Stress axis : x y z
#
# Youngs Moduli (GPa) = 102.83721 35.69266 100.41350
#
# Poissons Ratio (x) = 0.15303 0.39468
# Poissons Ratio (y) = 0.44091 0.51630
# Poissons Ratio (z) = 0.40421 0.18352
#
# Static dielectric constant tensor:
#      x y z
#    x 3.540220 0.000000 0.069150 
#    y 0.000000 3.213280 0.000000 
#    z 0.069150 0.000000 3.649260 
# 
# 
# High freq. dielectric constant tensor:
#      x y z
#    x 1.724230 0.000000 0.004260 
#    y 0.000000 1.703060 0.000000 
#    z 0.004260 0.000000 1.744210 
# 
# From -- ./inp_files/319877.got.cif
#   From: 2010.06.25/outbox.cif.g09.slc.cpg/sg12_160_cif.got.tgz:319877.got - 2010.06.28 00:19:55.
