data_PCOD8089724
_publ_section_title
;
Structure prediction by ZEFSAII (Michael W. Deem and Ramdas Pophale) SiO2 
 PCOD8089724
Probable space group: C 2/M
;
_chemical_formula_sum "Si O2"
_cell_formula_units_Z 64
_cell_length_a 23.886015
_cell_length_b 9.357799
_cell_length_c 14.885872
_cell_angle_alpha 90.000000
_cell_angle_beta 86.459180
_cell_angle_gamma 90.000000
_cell_volume 3320.946318
_symmetry_space_group_name_H-M "C 2/M"
_symmetry_group_IT_number 12
_symmetry_cell_setting 'monoclinic'
loop_
_space_group_symop_operation_xyz
x,y,z
-x,y,-z
-x,-y,-z
x,-y,z
1/2+x,1/2+y,z
1/2-x,1/2+y,-z
1/2-x,1/2-y,-z
1/2+x,1/2-y,z
loop_
_atom_site_type_symbol
_atom_site_label
_atom_site_fract_x
_atom_site_fract_y
_atom_site_fract_z
Si Si1 0.463297 0.661215 0.678457
Si Si2 0.070880 0.668794 0.670628
Si Si3 0.622507 0.335201 0.159555
Si Si4 0.360610 0.831028 0.165667
Si Si5 0.721758 0.663136 0.423552
Si Si6 0.260926 0.670025 0.778035
Si Si7 0.935353 0.330138 0.994094
Si Si8 0.096785 0.839862 0.494025
O O1 0.485921 0.500000 0.687713
O O2 0.510709 0.770468 0.705530
O O3 0.407740 0.683094 0.742155
O O4 0.450513 0.692328 0.575413
O O5 0.066186 0.500000 0.664477
O O6 0.114560 0.719181 0.741832
O O7 0.092180 0.727574 0.574076
O O8 0.622133 0.500000 0.127433
O O9 0.686006 0.277094 0.168245
O O10 0.590085 0.239148 0.091845
O O11 0.296061 0.776964 0.167025
O O12 0.398383 0.770110 0.080873
O O13 0.362271 0.000000 0.159475
O O14 0.742589 0.500000 0.429516
O O15 0.750000 0.750000 0.500000
O O16 0.738355 0.728386 0.324548
O O17 0.655401 0.675092 0.438127
O O18 0.264333 0.500000 0.771125
O O19 0.931396 0.500000 0.985161
O O20 0.000000 0.282229 0.000000
O O21 0.089124 0.000000 0.533717
#
# Coordination Sequence:
#
# PCOD8089724 Si02
#       8
#     8   8   8   8   8   8   8   8
#     4  10  20  36  55  77 108 147 184 221 274 337
#     4  11  22  35  54  82 110 143 186 231 274 320
#     4  10  20  36  60  85 107 139 186 233 274 324
#     4   9  19  35  55  78 108 145 182 220 274 337
#     4  10  19  33  54  78 108 147 189 232 276 327
#     4   9  17  34  57  79 106 143 185 226 271 329
#     4  10  21  38  58  81 112 148 181 219 278 341
#     4  10  20  35  53  76 108 147 186 222 274 338
#
# _framework density 19.271615000000001
#
# number of rings (size 3 to 8) (size 9 to 14) (size 15 to 20)
#    0.000    2.125    1.250    2.250    0.000    5.750 
#    0.000    1.875    0.000    2.250    0.000    0.000 
#    0.000    0.000    0.000    0.000    0.000    0.000 
#
# Total GULP energy -396782.666046 kJ/mol
# GULP energy per Si atom -12399.458314 kJ/mol
# Density = 1.922775 g / cm^3
# Si number density = 19.271615 Si / 1000 Ang^3
#
#
#
# Elastic Constant Matrix: (Units=GPa)
#
#
# Indices 1 2 3 4 5 6 
#
# 1 142.0451 33.1707 62.1949 0.0000 2.8596 0.0000
# 2 33.1707 50.4447 37.0886 0.0000 8.4188 0.0000
# 3 62.1949 37.0886 113.6945 0.0000 3.6289 0.0000
# 4 0.0000 0.0000 0.0000 28.5858 0.0000 4.2067
# 5 2.8596 8.4188 3.6289 0.0000 37.0585 0.0000
# 6 0.0000 0.0000 0.0000 4.2067 0.0000 18.9081
#
#
#
# Elastic Compliance Matrix: (Units=1/GPa)
#
#
# Indices 1 2 3 4 5 6 
#
# 1 0.009650 -0.003321 -0.004209 0.000000 0.000422 0.000000
# 2 -0.003321 0.028222 -0.007216 0.000000 -0.005449 0.000000
# 3 -0.004209 -0.007216 0.013431 0.000000 0.000649 0.000000
# 4 0.000000 0.000000 0.000000 0.036167 0.000000 -0.008046
# 5 0.000422 -0.005449 0.000649 0.000000 0.028126 0.000000
# 6 0.000000 0.000000 0.000000 -0.008046 0.000000 0.054678
#
#
# Mechanical properties :
#
#
# Convention : Reuss Voigt Hill
#
# Bulk Modulus (GPa) = 45.84752 63.45473 54.65112
# Shear Modulus (GPa) = 24.15042 28.49248 26.32145
#
# Velocity S-wave (km/s) = 3.54384 3.84926 3.69970
# Velocity P-wave (km/s) = 6.37079 7.26318 6.83157
#
# Compressibility (1/GPa) = 0.02181143
#
# Stress axis : x y z
#
# Youngs Moduli (GPa) = 103.62679 35.43306 74.45463
#
# Poissons Ratio (x) = 0.11769 0.31337
# Poissons Ratio (y) = 0.34419 0.53723
# Poissons Ratio (z) = 0.43615 0.25567
#
# Static dielectric constant tensor:
#      x y z
#    x 3.812150 0.000000 -0.062700 
#    y 0.000000 3.259510 0.000000 
#    z -0.062700 0.000000 3.532480 
# 
# 
# High freq. dielectric constant tensor:
#      x y z
#    x 1.768290 0.000000 -0.003370 
#    y 0.000000 1.713840 0.000000 
#    z -0.003370 0.000000 1.753060 
# 
# From -- ./inp_files/238719.got.cif
#   From: 2010.06.25/outbox.cif.g09.slc.cpg/sg12_120_cif.got.tgz:238719.got - 2010.06.28 00:19:55.
