data_PCOD8089737
_publ_section_title
;
Structure prediction by ZEFSAII (Michael W. Deem and Ramdas Pophale) SiO2 
 PCOD8089737
Probable space group: C 2/M
;
_chemical_formula_sum "Si O2"
_cell_formula_units_Z 56
_cell_length_a 25.431834
_cell_length_b 9.243908
_cell_length_c 17.347258
_cell_angle_alpha 90.000000
_cell_angle_beta 133.447327
_cell_angle_gamma 90.000000
_cell_volume 2960.771346
_symmetry_space_group_name_H-M "C 2/M"
_symmetry_group_IT_number 12
_symmetry_cell_setting 'monoclinic'
loop_
_space_group_symop_operation_xyz
x,y,z
-x,y,-z
-x,-y,-z
x,-y,z
1/2+x,1/2+y,z
1/2-x,1/2+y,-z
1/2-x,1/2-y,-z
1/2+x,1/2-y,z
loop_
_atom_site_type_symbol
_atom_site_label
_atom_site_fract_x
_atom_site_fract_y
_atom_site_fract_z
Si Si1 0.323595 0.164228 0.073918
Si Si2 0.917544 0.663530 0.315858
Si Si3 0.172576 0.172185 0.204239
Si Si4 0.432851 0.666387 0.770512
Si Si5 0.335141 0.170524 0.377667
Si Si6 0.560819 0.829608 0.382732
Si Si7 0.904975 0.166427 0.028461
O O1 0.353196 0.169418 0.189913
O O2 0.381281 0.237312 0.076241
O O3 0.310117 0.000000 0.033550
O O4 0.250000 0.250000 0.000000
O O5 0.939754 0.500000 0.358794
O O6 0.886928 0.738559 0.363031
O O7 0.990349 0.737447 0.355493
O O8 0.128412 0.228393 0.233914
O O9 0.254106 0.235804 0.290900
O O10 0.171718 0.000000 0.204175
O O11 0.133510 0.227045 0.087137
O O12 0.418516 0.500000 0.734262
O O13 0.429131 0.756833 0.689072
O O14 0.508803 0.682368 0.891946
O O15 0.368568 0.205089 0.494811
O O16 0.329897 0.000000 0.357526
O O17 0.550078 0.000000 0.358019
O O18 0.882526 0.000000 0.020927
#
# Coordination Sequence:
#
# PCOD8089737 Si02
#       7
#     8   8   8   8   8   8   8
#     4  11  21  33  52  79 111 142 172 212 263 316
#     4   9  17  31  51  76 104 133 171 217 260 308
#     4   9  18  33  53  78 105 137 181 225 263 311
#     4  10  20  34  54  78 106 141 178 217 266 319
#     4   9  17  30  52  78 102 133 176 223 264 306
#     4  10  19  33  54  79 104 134 175 220 265 315
#     4  10  19  34  55  77 104 138 179 221 262 310
#
# _framework density 18.913992
#
# number of rings (size 3 to 8) (size 9 to 14) (size 15 to 20)
#    0.000    2.286    1.429    2.143    0.000    6.286 
#    0.000    0.714    0.000    7.714    0.000    0.000 
#    0.000    0.000    0.000    0.000    0.000    0.000 
#
# Total GULP energy -347165.959722 kJ/mol
# GULP energy per Si atom -12398.784276 kJ/mol
# Density = 1.887094 g / cm^3
# Si number density = 18.913992 Si / 1000 Ang^3
#
#
#
# Elastic Constant Matrix: (Units=GPa)
#
#
# Indices 1 2 3 4 5 6 
#
# 1 117.3831 24.6986 45.7091 0.0000 -5.5517 0.0000
# 2 24.6986 43.6479 24.3025 0.0000 -3.1424 0.0000
# 3 45.7091 24.3025 114.2648 0.0000 -6.0062 0.0000
# 4 0.0000 0.0000 0.0000 20.8994 0.0000 -3.1332
# 5 -5.5517 -3.1424 -6.0062 0.0000 28.8930 0.0000
# 6 0.0000 0.0000 0.0000 -3.1332 0.0000 22.8505
#
#
#
# Elastic Compliance Matrix: (Units=1/GPa)
#
#
# Indices 1 2 3 4 5 6 
#
# 1 0.010745 -0.004138 -0.003370 0.000000 0.000914 0.000000
# 2 -0.004138 0.027664 -0.004157 0.000000 0.001349 0.000000
# 3 -0.003370 -0.004157 0.011047 0.000000 0.001197 0.000000
# 4 0.000000 0.000000 0.000000 0.048853 0.000000 0.006699
# 5 0.000914 0.001349 0.001197 0.000000 0.035182 0.000000
# 6 0.000000 0.000000 0.000000 0.006699 0.000000 0.044681
#
#
# Mechanical properties :
#
#
# Convention : Reuss Voigt Hill
#
# Bulk Modulus (GPa) = 38.27784 51.63512 44.95648
# Shear Modulus (GPa) = 23.78553 26.56763 25.17658
#
# Velocity S-wave (km/s) = 3.55006 3.75194 3.65239
# Velocity P-wave (km/s) = 6.08980 6.79180 6.45036
#
# Compressibility (1/GPa) = 0.02612477
#
# Stress axis : x y z
#
# Youngs Moduli (GPa) = 93.06272 36.14789 90.52262
#
# Poissons Ratio (x) = 0.14958 0.30509
# Poissons Ratio (y) = 0.38510 0.37635
# Poissons Ratio (z) = 0.31365 0.15028
#
# Static dielectric constant tensor:
#      x y z
#    x 3.758620 0.000000 0.074630 
#    y 0.000000 3.257700 0.000000 
#    z 0.074630 0.000000 3.545460 
# 
# 
# High freq. dielectric constant tensor:
#      x y z
#    x 1.748170 0.000000 0.002560 
#    y 0.000000 1.678080 0.000000 
#    z 0.002560 0.000000 1.747220 
# 
# From -- ./inp_files/238307.got.cif
#   From: 2010.06.25/outbox.cif.g09.slc.cpg/sg12_120_cif.got.tgz:238307.got - 2010.06.28 00:19:55.
