data_PCOD8089822
_publ_section_title
;
Structure prediction by ZEFSAII (Michael W. Deem and Ramdas Pophale) SiO2 
 PCOD8089822
Probable space group: C 2/M
;
_chemical_formula_sum "Si O2"
_cell_formula_units_Z 44
_cell_length_a 15.734003
_cell_length_b 18.367815
_cell_length_c 12.195486
_cell_angle_alpha 90.000000
_cell_angle_beta 144.820350
_cell_angle_gamma 90.000000
_cell_volume 2030.604813
_symmetry_space_group_name_H-M "C 2/M"
_symmetry_group_IT_number 12
_symmetry_cell_setting 'monoclinic'
loop_
_space_group_symop_operation_xyz
x,y,z
-x,y,-z
-x,-y,-z
x,-y,z
1/2+x,1/2+y,z
1/2-x,1/2+y,-z
1/2-x,1/2-y,-z
1/2+x,1/2-y,z
loop_
_atom_site_type_symbol
_atom_site_label
_atom_site_fract_x
_atom_site_fract_y
_atom_site_fract_z
Si Si1 0.309662 0.143393 0.266532
Si Si2 0.000000 0.174063 0.000000
Si Si3 0.836463 0.789061 0.186452
Si Si4 0.149866 0.416865 0.929670
Si Si5 0.616559 0.303879 0.344313
Si Si6 0.155195 0.416007 0.472239
O O1 0.143113 0.125055 0.129348
O O2 0.334412 0.231593 0.284267
O O3 0.322750 0.097704 0.169876
O O4 0.405190 0.118809 0.474543
O O5 0.028042 0.220887 0.140915
O O6 0.005431 0.805356 0.329964
O O7 0.750000 0.750000 0.000000
O O8 0.747784 0.865117 0.113053
O O9 0.190978 0.500000 0.002060
O O10 0.973273 0.402918 0.754716
O O11 0.750000 0.250000 0.500000
O O12 0.691281 0.383075 0.409618
O O13 0.183191 0.500000 0.523266
#
# Coordination Sequence:
#
# PCOD8089822 Si02
#       6
#     8   4   8   8   8   8
#     4  10  19  34  53  79 120 153 193 242 290 357
#     4  10  20  34  51  86 109 152 198 236 302 332
#     4  10  19  35  53  78 115 154 203 235 285 354
#     4  10  19  33  54  80 115 154 188 234 287 352
#     4  11  21  36  56  83 118 162 197 244 291 351
#     4  10  22  36  56  89 122 153 189 238 307 362
#
# _framework density 21.668420999999999
#
# number of rings (size 3 to 8) (size 9 to 14) (size 15 to 20)
#    0.000    1.818    3.636    3.273    0.000    3.636 
#    0.000    2.273    0.000    0.000    0.000    6.364 
#    0.000   40.727    0.000    0.000    0.000    0.000 
#
# Total GULP energy -272546.195844 kJ/mol
# GULP energy per Si atom -12388.463447 kJ/mol
# Density = 2.161910 g / cm^3
# Si number density = 21.668421 Si / 1000 Ang^3
#
#
#
# Elastic Constant Matrix: (Units=GPa)
#
#
# Indices 1 2 3 4 5 6 
#
# 1 48.3231 29.2098 13.2323 0.0000 23.0012 0.0000
# 2 29.2098 158.2087 53.1090 0.0000 6.9110 0.0000
# 3 13.2323 53.1090 75.1927 0.0000 8.0106 0.0000
# 4 0.0000 0.0000 0.0000 36.4174 0.0000 0.9094
# 5 23.0012 6.9110 8.0106 0.0000 25.0853 0.0000
# 6 0.0000 0.0000 0.0000 0.9094 0.0000 27.8497
#
#
#
# Elastic Compliance Matrix: (Units=1/GPa)
#
#
# Indices 1 2 3 4 5 6 
#
# 1 0.041942 -0.006518 0.001168 0.000000 -0.037035 0.000000
# 2 -0.006518 0.009303 -0.005991 0.000000 0.005327 0.000000
# 3 0.001168 -0.005991 0.017871 0.000000 -0.005128 0.000000
# 4 0.000000 0.000000 0.000000 0.027482 0.000000 -0.000897
# 5 -0.037035 0.005327 -0.005128 0.000000 0.073992 0.000000
# 6 0.000000 0.000000 0.000000 -0.000897 0.000000 0.035936
#
#
# Mechanical properties :
#
#
# Convention : Reuss Voigt Hill
#
# Bulk Modulus (GPa) = 21.53563 52.53631 37.03597
# Shear Modulus (GPa) = 20.43438 30.28205 25.35822
#
# Velocity S-wave (km/s) = 3.07424 3.74240 3.42465
# Velocity P-wave (km/s) = 4.74990 6.55532 5.72424
#
# Compressibility (1/GPa) = 0.04643467
#
# Stress axis : x y z
#
# Youngs Moduli (GPa) = 23.84228 107.49698 55.95588
#
# Poissons Ratio (x) = 0.70068 -0.06537
# Poissons Ratio (y) = 0.15541 0.33523
# Poissons Ratio (z) = -0.02785 0.64400
#
# Static dielectric constant tensor:
#      x y z
#    x 4.224750 0.000000 0.298410 
#    y 0.000000 4.348330 0.000000 
#    z 0.298410 0.000000 4.499560 
# 
# 
# High freq. dielectric constant tensor:
#      x y z
#    x 1.824100 0.000000 0.030150 
#    y 0.000000 1.829220 0.000000 
#    z 0.030150 0.000000 1.866660 
# 
# From -- ./inp_files/226651.got.cif
#   From: 2010.06.25/outbox.cif.g09.slc.cpg/sg12_114_cif.got.tgz:226651.got - 2010.06.28 00:19:55.
