data_PCOD8089934
_publ_section_title
;
Structure prediction by ZEFSAII (Michael W. Deem and Ramdas Pophale) SiO2 
 PCOD8089934
Probable space group: C 2/M
;
_chemical_formula_sum "Si O2"
_cell_formula_units_Z 64
_cell_length_a 17.144861
_cell_length_b 15.047891
_cell_length_c 13.987708
_cell_angle_alpha 90.000000
_cell_angle_beta 89.999943
_cell_angle_gamma 90.000000
_cell_volume 3608.744731
_symmetry_space_group_name_H-M "C 2/M"
_symmetry_group_IT_number 12
_symmetry_cell_setting 'monoclinic'
loop_
_space_group_symop_operation_xyz
x,y,z
-x,y,-z
-x,-y,-z
x,-y,z
1/2+x,1/2+y,z
1/2-x,1/2+y,-z
1/2-x,1/2-y,-z
1/2+x,1/2-y,z
loop_
_atom_site_type_symbol
_atom_site_label
_atom_site_fract_x
_atom_site_fract_y
_atom_site_fract_z
Si Si1 0.178976 0.096935 0.500027
Si Si2 0.591754 0.773913 0.500005
Si Si3 0.591460 0.222619 0.999978
Si Si4 0.820945 0.599490 0.861429
Si Si5 0.206392 0.661352 0.655265
Si Si6 0.320933 0.900508 0.138582
Si Si7 0.317029 0.399981 0.999997
Si Si8 0.706378 0.161400 0.344718
O O1 0.110202 0.168917 0.500585
O O2 0.233019 0.105130 0.406920
O O3 0.233759 0.104745 0.592518
O O4 0.139399 0.000000 0.500048
O O5 0.500000 0.790865 0.500000
O O6 0.629069 0.818041 0.593943
O O7 0.628960 0.817102 0.405502
O O8 0.620909 0.172136 0.905282
O O9 0.616318 0.325818 0.999973
O O10 0.500000 0.221169 0.000000
O O11 0.620937 0.172150 0.094666
O O12 0.849901 0.500000 0.887812
O O13 0.735225 0.614554 0.905506
O O14 0.819023 0.606876 0.747608
O O15 0.181007 0.606813 0.747590
O O16 0.249586 0.750239 0.689141
O O17 0.349847 0.000000 0.112139
O O18 0.235226 0.885369 0.094491
O O19 0.353368 0.500000 0.999958
#
# Coordination Sequence:
#
# PCOD8089934 Si02
#       8
#     8   8   8   8   8   8   8   8
#     4   9  17  30  50  74  95 119 160 208 246 286
#     4   9  19  32  46  70 101 131 160 192 241 297
#     4  11  22  34  49  73 107 135 157 195 244 298
#     4  10  19  33  55  76  96 127 167 208 244 284
#     4   9  17  31  51  71  94 127 165 204 242 283
#     4  10  19  33  55  76  96 127 167 208 244 284
#     4   9  19  35  55  77  96 123 167 208 242 285
#     4   9  17  31  51  71  94 127 165 204 242 283
#
# _framework density 17.734698999999999
#
# number of rings (size 3 to 8) (size 9 to 14) (size 15 to 20)
#    0.000    2.500    0.000    6.375    0.000    2.500 
#    0.000    0.000    0.000   12.750    0.000    7.000 
#    0.000    0.000    0.000    0.000    0.000    0.000 
#
# Total GULP energy -396740.746889 kJ/mol
# GULP energy per Si atom -12398.148340 kJ/mol
# Density = 1.769433 g / cm^3
# Si number density = 17.734699 Si / 1000 Ang^3
#
#
#
# Elastic Constant Matrix: (Units=GPa)
#
#
# Indices 1 2 3 4 5 6 
#
# 1 67.1396 11.9911 16.8175 0.0000 3.0289 0.0000
# 2 11.9911 91.5252 20.4849 0.0000 -0.7507 0.0000
# 3 16.8175 20.4849 112.5382 0.0000 -7.0954 0.0000
# 4 0.0000 0.0000 0.0000 10.5104 0.0000 0.2818
# 5 3.0289 -0.7507 -7.0954 0.0000 8.9582 0.0000
# 6 0.0000 0.0000 0.0000 0.2818 0.0000 14.0677
#
#
#
# Elastic Compliance Matrix: (Units=1/GPa)
#
#
# Indices 1 2 3 4 5 6 
#
# 1 0.016180 -0.001598 -0.002611 0.000000 -0.007672 0.000000
# 2 -0.001598 0.011552 -0.001862 0.000000 0.000034 0.000000
# 3 -0.002611 -0.001862 0.010169 0.000000 0.008781 0.000000
# 4 0.000000 0.000000 0.000000 0.095195 0.000000 -0.001907
# 5 -0.007672 0.000034 0.008781 0.000000 0.121182 0.000000
# 6 0.000000 0.000000 0.000000 -0.001907 0.000000 0.071123
#
#
# Mechanical properties :
#
#
# Convention : Reuss Voigt Hill
#
# Bulk Modulus (GPa) = 38.82150 41.08778 39.95464
# Shear Modulus (GPa) = 14.44551 21.50123 17.97337
#
# Velocity S-wave (km/s) = 2.85710 3.48571 3.18694
# Velocity P-wave (km/s) = 5.72902 6.27842 6.01000
#
# Compressibility (1/GPa) = 0.02575892
#
# Stress axis : x y z
#
# Youngs Moduli (GPa) = 61.80512 86.56245 98.34265
#
# Poissons Ratio (x) = 0.13836 0.25674
# Poissons Ratio (y) = 0.09879 0.18310
# Poissons Ratio (z) = 0.16135 0.16117
#
# Static dielectric constant tensor:
#      x y z
#    x 2.880890 0.000000 -0.036000 
#    y 0.000000 3.401950 0.000000 
#    z -0.036000 0.000000 3.285330 
# 
# 
# High freq. dielectric constant tensor:
#      x y z
#    x 1.648320 0.000000 -0.003800 
#    y 0.000000 1.700000 0.000000 
#    z -0.003800 0.000000 1.690870 
# 
# From -- ./inp_files/224841.got.cif
#   From: 2010.06.25/outbox.cif.g09.slc.cpg/sg12_113_cif.got.tgz:224841.got - 2010.06.28 00:19:55.
