data_PCOD8089080
_publ_section_title
;
Structure prediction by ZEFSAII (Michael W. Deem and Ramdas Pophale) SiO2 
 PCOD8089080
Probable space group: C 2/M
;
_chemical_formula_sum "Si O2"
_cell_formula_units_Z 64
_cell_length_a 23.115491
_cell_length_b 9.158275
_cell_length_c 18.258454
_cell_angle_alpha 90.000000
_cell_angle_beta 92.313739
_cell_angle_gamma 90.000000
_cell_volume 3862.127426
_symmetry_space_group_name_H-M "C 2/M"
_symmetry_group_IT_number 12
_symmetry_cell_setting 'monoclinic'
loop_
_space_group_symop_operation_xyz
x,y,z
-x,y,-z
-x,-y,-z
x,-y,z
1/2+x,1/2+y,z
1/2-x,1/2+y,-z
1/2-x,1/2-y,-z
1/2+x,1/2-y,z
loop_
_atom_site_type_symbol
_atom_site_label
_atom_site_fract_x
_atom_site_fract_y
_atom_site_fract_z
Si Si1 0.673550 0.327231 0.216095
Si Si2 0.816911 0.667683 0.923133
Si Si3 0.810878 0.170625 0.503447
Si Si4 0.695593 0.168796 0.763135
Si Si5 0.390720 0.669338 0.643369
Si Si6 0.301138 0.832070 0.078130
Si Si7 0.003137 0.668095 0.417786
Si Si8 0.126255 0.669858 0.622311
O O1 0.673443 0.500000 0.208479
O O2 0.650239 0.260277 0.137879
O O3 0.738843 0.268091 0.234532
O O4 0.632056 0.274521 0.279206
O O5 0.820614 0.500000 0.899610
O O6 0.750612 0.716858 0.926098
O O7 0.841963 0.690951 0.007991
O O8 0.750000 0.250000 0.500000
O O9 0.840069 0.200284 0.583006
O O10 0.852464 0.236525 0.444597
O O11 0.801583 0.000000 0.488221
O O12 0.666299 0.194134 0.842190
O O13 0.655779 0.236992 0.697250
O O14 0.699631 0.000000 0.744180
O O15 0.406190 0.500000 0.646760
O O16 0.449234 0.751838 0.627732
O O17 0.277073 0.000000 0.076214
O O18 0.021652 0.500000 0.423979
O O19 0.942432 0.689857 0.373404
O O20 0.000000 0.733566 0.500000
O O21 0.141754 0.500000 0.609387
#
# Coordination Sequence:
#
# PCOD8089080 Si02
#       8
#     8   8   8   8   8   8   8   8
#     4   9  17  30  45  64  91 121 153 187 224 270
#     4   9  15  23  39  64  91 119 149 182 222 266
#     4  11  22  34  49  69  93 122 154 187 228 276
#     4   8  14  27  47  66  90 123 153 181 217 270
#     4  10  21  35  51  68  89 123 162 193 227 277
#     4   8  14  25  40  60  89 123 154 180 212 264
#     4  10  20  34  51  71  93 117 150 199 247 275
#     4  10  19  33  51  69  92 122 155 190 232 277
#
# _framework density 16.571176999999999
#
# number of rings (size 3 to 8) (size 9 to 14) (size 15 to 20)
#    0.000    2.625    1.250    2.250    0.000    4.250 
#    0.000    5.000    0.000    0.000    0.000    0.875 
#    0.000    7.000    0.000    0.000    0.000    0.000 
#
# Total GULP energy -396524.622031 kJ/mol
# GULP energy per Si atom -12391.394438 kJ/mol
# Density = 1.653346 g / cm^3
# Si number density = 16.571177 Si / 1000 Ang^3
#
#
#
# Elastic Constant Matrix: (Units=GPa)
#
#
# Indices 1 2 3 4 5 6 
#
# 1 61.8820 30.2006 43.0373 0.0000 -16.5766 0.0000
# 2 30.2006 51.8651 45.3394 0.0000 -8.3566 0.0000
# 3 43.0373 45.3394 156.9739 0.0000 -22.7368 0.0000
# 4 0.0000 0.0000 0.0000 25.6681 0.0000 -4.6544
# 5 -16.5766 -8.3566 -22.7368 0.0000 14.2544 0.0000
# 6 0.0000 0.0000 0.0000 -4.6544 0.0000 20.6781
#
#
#
# Elastic Compliance Matrix: (Units=1/GPa)
#
#
# Indices 1 2 3 4 5 6 
#
# 1 0.029760 -0.012438 -0.000793 0.000000 0.026051 0.000000
# 2 -0.012438 0.031188 -0.006560 0.000000 -0.006645 0.000000
# 3 -0.000793 -0.006560 0.010133 0.000000 0.011395 0.000000
# 4 0.000000 0.000000 0.000000 0.040617 0.000000 0.009142
# 5 0.026051 -0.006645 0.011395 0.000000 0.114729 0.000000
# 6 0.000000 0.000000 0.000000 0.009142 0.000000 0.050418
#
#
# Mechanical properties :
#
#
# Convention : Reuss Voigt Hill
#
# Bulk Modulus (GPa) = 31.74861 56.43064 44.08963
# Shear Modulus (GPa) = 15.29388 22.26304 18.77846
#
# Velocity S-wave (km/s) = 3.04126 3.66933 3.36996
# Velocity P-wave (km/s) = 5.61541 7.21660 6.46576
#
# Compressibility (1/GPa) = 0.03149744
#
# Stress axis : x y z
#
# Youngs Moduli (GPa) = 33.60177 32.06381 98.68403
#
# Poissons Ratio (x) = 0.39882 0.07829
# Poissons Ratio (y) = 0.41795 0.64741
# Poissons Ratio (z) = 0.02666 0.21035
#
# Static dielectric constant tensor:
#      x y z
#    x 2.825320 0.000000 0.074780 
#    y 0.000000 3.062480 0.000000 
#    z 0.074780 0.000000 3.656840 
# 
# 
# High freq. dielectric constant tensor:
#      x y z
#    x 1.590040 0.000000 -0.000590 
#    y 0.000000 1.628370 0.000000 
#    z -0.000590 0.000000 1.658340 
# 
# From -- ./inp_files/287496.got.cif
#   From: 2010.06.25/outbox.cif.g09.slc.cpg/sg12_144_cif.got.tgz:287496.got - 2010.06.28 00:19:55.
