data_PCOD8089600
_publ_section_title
;
Structure prediction by ZEFSAII (Michael W. Deem and Ramdas Pophale) SiO2 
 PCOD8089600
Probable space group: C 2/M
;
_chemical_formula_sum "Si O2"
_cell_formula_units_Z 40
_cell_length_a 13.901679
_cell_length_b 25.831186
_cell_length_c 14.559999
_cell_angle_alpha 90.000000
_cell_angle_beta 159.655162
_cell_angle_gamma 90.000000
_cell_volume 1817.772601
_symmetry_space_group_name_H-M "C 2/M"
_symmetry_group_IT_number 12
_symmetry_cell_setting 'monoclinic'
loop_
_space_group_symop_operation_xyz
x,y,z
-x,y,-z
-x,-y,-z
x,-y,z
1/2+x,1/2+y,z
1/2-x,1/2+y,-z
1/2-x,1/2-y,-z
1/2+x,1/2-y,z
loop_
_atom_site_type_symbol
_atom_site_label
_atom_site_fract_x
_atom_site_fract_y
_atom_site_fract_z
Si Si1 0.942531 0.556835 0.711425
Si Si2 0.317200 0.076159 0.254990
Si Si3 0.585174 0.625317 0.803368
Si Si4 0.304883 0.680547 0.911670
Si Si5 0.307482 0.712557 0.241212
O O1 0.883440 0.500000 0.703805
O O2 0.658461 0.584077 0.427399
O O3 0.126408 0.543950 0.785914
O O4 0.122960 0.594193 0.938553
O O5 0.500000 0.053356 0.500000
O O6 0.405693 0.135755 0.310642
O O7 0.000000 0.072078 0.000000
O O8 0.576164 0.663967 0.710090
O O9 0.548650 0.658325 0.865041
O O10 0.166913 0.736848 0.803531
O O11 0.500000 0.691763 0.000000
O O12 0.500000 0.723157 0.500000
O O13 0.000000 0.700054 0.000000
#
# Coordination Sequence:
#
# PCOD8089600 Si02
#       5
#     8   8   8   8   8
#     4  11  23  39  60  85 116 160 207 254 306 351
#     4  10  19  33  53  83 123 159 194 235 283 354
#     4  11  23  40  63  89 123 160 201 253 302 357
#     4   9  19  36  59  91 127 161 191 229 292 368
#     4  11  23  40  63  91 123 158 201 250 303 363
#
# _framework density 22.004951999999999
#
# number of rings (size 3 to 8) (size 9 to 14) (size 15 to 20)
#    0.000    1.600    0.000    6.600    0.000    5.600 
#    0.000   10.000    0.000   12.600    0.000    0.000 
#    0.000    0.000    0.000    0.000    0.000    0.000 
#
# Total GULP energy -247803.269279 kJ/mol
# GULP energy per Si atom -12390.163464 kJ/mol
# Density = 2.195487 g / cm^3
# Si number density = 22.004952 Si / 1000 Ang^3
#
#
#
# Elastic Constant Matrix: (Units=GPa)
#
#
# Indices 1 2 3 4 5 6 
#
# 1 45.4771 34.9650 14.4519 -0.0004 1.3025 0.0052
# 2 34.9650 160.0223 40.3661 -0.0002 -7.2304 0.0020
# 3 14.4519 40.3661 128.4763 0.0023 -0.6388 0.0072
# 4 -0.0004 -0.0002 0.0023 10.5147 -0.0005 11.2981
# 5 1.3025 -7.2304 -0.6388 -0.0005 23.2598 0.0072
# 6 0.0052 0.0020 0.0072 11.2981 0.0072 9.3032
#
#
#
# Elastic Compliance Matrix: (Units=1/GPa)
#
#
# Indices 1 2 3 4 5 6 
#
# 1 0.026867 -0.005706 -0.001246 -0.000040 -0.003312 0.000038
# 2 -0.005706 0.008098 -0.001889 0.000001 0.002785 -0.000001
# 3 -0.001246 -0.001889 0.008516 -0.000012 -0.000283 0.000009
# 4 -0.000040 0.000001 -0.000012 -0.311916 -0.000121 0.378799
# 5 -0.003312 0.002785 -0.000283 -0.000121 0.044036 0.000114
# 6 0.000038 -0.000001 0.000009 0.378799 0.000114 -0.352535
#
#
# Mechanical properties :
#
#
# Convention : Reuss Voigt Hill
#
# Bulk Modulus (GPa) = 38.76002 57.06017 47.91010
# Shear Modulus (GPa) = -9.08012 24.89506 7.90747
#
# Velocity S-wave (km/s) = -2.03356 3.36719 1.89771
# Velocity P-wave (km/s) = 3.48406 6.41125 5.15959
#
# Compressibility (1/GPa) = 0.02579978
#
# Stress axis : x y z
#
# Youngs Moduli (GPa) = 37.22073 123.48569 117.43040
#
# Poissons Ratio (x) = 0.70458 0.14631
# Poissons Ratio (y) = 0.21237 0.22179
# Poissons Ratio (z) = 0.04637 0.23322
#
# Static dielectric constant tensor:
#      x y z
#    x 3.581940 0.000000 0.085410 
#    y 0.000000 4.402430 0.000000 
#    z 0.085410 0.000000 3.445800 
# 
# 
# High freq. dielectric constant tensor:
#      x y z
#    x 1.830410 0.000000 -0.003930 
#    y 0.000000 1.888490 0.000000 
#    z -0.003930 0.000000 1.861670 
# 
# From -- ./inp_files/219181.got.cif
#   From: 2010.06.25/outbox.cif.g09.slc.cpg/sg12_110_cif.got.tgz:219181.got - 2010.06.28 00:19:55.
