data_PCOD8089645
_publ_section_title
;
Structure prediction by ZEFSAII (Michael W. Deem and Ramdas Pophale) SiO2 
 PCOD8089645
Probable space group: C 2/M
;
_chemical_formula_sum "Si O2"
_cell_formula_units_Z 56
_cell_length_a 24.108658
_cell_length_b 9.101595
_cell_length_c 16.793955
_cell_angle_alpha 90.000000
_cell_angle_beta 56.418542
_cell_angle_gamma 90.000000
_cell_volume 3070.017216
_symmetry_space_group_name_H-M "C 2/M"
_symmetry_group_IT_number 12
_symmetry_cell_setting 'monoclinic'
loop_
_space_group_symop_operation_xyz
x,y,z
-x,y,-z
-x,-y,-z
x,-y,z
1/2+x,1/2+y,z
1/2-x,1/2+y,-z
1/2-x,1/2-y,-z
1/2+x,1/2-y,z
loop_
_atom_site_type_symbol
_atom_site_label
_atom_site_fract_x
_atom_site_fract_y
_atom_site_fract_z
Si Si1 0.607577 0.326121 0.407229
Si Si2 0.493525 0.326387 0.380387
Si Si3 0.266755 0.173450 0.750409
Si Si4 0.417649 0.834848 0.987157
Si Si5 0.512177 0.329383 0.792952
Si Si6 0.736331 0.166677 0.930232
Si Si7 0.882029 0.831590 0.165653
O O1 0.621280 0.500000 0.397594
O O2 0.563432 0.280863 0.365239
O O3 0.568491 0.271980 0.517047
O O4 0.676910 0.239137 0.351690
O O5 0.489060 0.500000 0.380864
O O6 0.487766 0.260489 0.295936
O O7 0.275063 0.248516 0.829752
O O8 0.195228 0.215555 0.768968
O O9 0.275818 0.000000 0.752247
O O10 0.341355 0.830926 0.023679
O O11 0.425076 0.760897 0.067929
O O12 0.445054 0.000000 0.971258
O O13 0.456705 0.749484 0.888577
O O14 0.492933 0.500000 0.805332
O O15 0.585176 0.306195 0.773863
O O16 0.763571 0.000000 0.913139
O O17 0.750000 0.250000 0.000000
O O18 0.887497 0.000000 0.133765
#
# Coordination Sequence:
#
# PCOD8089645 Si02
#       7
#     8   8   8   8   8   8   8
#     4   9  17  34  56  77 101 131 169 211 260 313
#     4   8  17  33  54  78 101 128 168 215 258 307
#     4  10  20  34  52  74 102 137 171 209 257 304
#     4  10  21  34  49  74 106 136 167 209 259 301
#     4  10  19  33  54  76  99 135 178 214 251 299
#     4  10  21  35  50  73 105 137 171 209 250 304
#     4   9  19  35  52  72 101 138 178 210 244 303
#
# _framework density 18.240939999999998
#
# number of rings (size 3 to 8) (size 9 to 14) (size 15 to 20)
#    0.000    2.571    0.000    2.571    2.000    4.571 
#    0.000    2.857    0.000    0.000    0.000    0.000 
#    0.000    0.000    0.000    0.000    0.000    0.000 
#
# Total GULP energy -347188.476794 kJ/mol
# GULP energy per Si atom -12399.588457 kJ/mol
# Density = 1.819942 g / cm^3
# Si number density = 18.240940 Si / 1000 Ang^3
#
#
#
# Elastic Constant Matrix: (Units=GPa)
#
#
# Indices 1 2 3 4 5 6 
#
# 1 60.2750 32.3290 62.7677 0.0000 7.0268 -0.0001
# 2 32.3290 77.2171 45.3170 -0.0001 -2.4994 -0.0001
# 3 62.7677 45.3170 130.6747 0.0000 1.1918 0.0000
# 4 0.0000 -0.0001 0.0000 26.9754 0.0000 -8.1856
# 5 7.0268 -2.4994 1.1918 0.0000 33.9055 0.0000
# 6 -0.0001 -0.0001 0.0000 -8.1856 0.0000 22.1391
#
#
#
# Elastic Compliance Matrix: (Units=1/GPa)
#
#
# Indices 1 2 3 4 5 6 
#
# 1 0.037204 -0.006752 -0.015459 0.000000 -0.007665 0.000000
# 2 -0.006752 0.017552 -0.002869 0.000000 0.002794 0.000000
# 3 -0.015459 -0.002869 0.016051 0.000000 0.002428 0.000000
# 4 0.000000 0.000000 0.000000 0.041756 0.000000 0.015439
# 5 -0.007665 0.002794 0.002428 0.000000 0.031203 0.000000
# 6 0.000000 0.000000 0.000000 0.015439 0.000000 0.050877
#
#
# Mechanical properties :
#
#
# Convention : Reuss Voigt Hill
#
# Bulk Modulus (GPa) = 48.43436 60.99933 54.71685
# Shear Modulus (GPa) = 19.86619 25.12087 22.49353
#
# Velocity S-wave (km/s) = 3.30373 3.71505 3.51541
# Velocity P-wave (km/s) = 6.41584 7.20525 6.82197
#
# Compressibility (1/GPa) = 0.02064650
#
# Stress axis : x y z
#
# Youngs Moduli (GPa) = 26.87898 56.97488 62.30201
#
# Poissons Ratio (x) = 0.38469 0.96312
# Poissons Ratio (y) = 0.18149 0.17875
# Poissons Ratio (z) = 0.41552 0.16346
#
# Static dielectric constant tensor:
#      x y z
#    x 3.565480 0.000000 0.140560 
#    y 0.000000 3.331090 0.000000 
#    z 0.140560 0.000000 3.509670 
# 
# 
# High freq. dielectric constant tensor:
#      x y z
#    x 1.709430 0.000000 -0.002460 
#    y 0.000000 1.695230 0.000000 
#    z -0.002460 0.000000 1.700650 
# 
# From -- ./inp_files/238377.got.cif
#   From: 2010.06.25/outbox.cif.g09.slc.cpg/sg12_120_cif.got.tgz:238377.got - 2010.06.28 00:19:55.
