data_PCOD8089901
_publ_section_title
;
Structure prediction by ZEFSAII (Michael W. Deem and Ramdas Pophale) SiO2 
 PCOD8089901
Probable space group: C 2/M
;
_chemical_formula_sum "Si O2"
_cell_formula_units_Z 56
_cell_length_a 24.779910
_cell_length_b 8.840721
_cell_length_c 16.508921
_cell_angle_alpha 90.000000
_cell_angle_beta 60.136723
_cell_angle_gamma 90.000000
_cell_volume 3136.414234
_symmetry_space_group_name_H-M "C 2/M"
_symmetry_group_IT_number 12
_symmetry_cell_setting 'monoclinic'
loop_
_space_group_symop_operation_xyz
x,y,z
-x,y,-z
-x,-y,-z
x,-y,z
1/2+x,1/2+y,z
1/2-x,1/2+y,-z
1/2-x,1/2-y,-z
1/2+x,1/2-y,z
loop_
_atom_site_type_symbol
_atom_site_label
_atom_site_fract_x
_atom_site_fract_y
_atom_site_fract_z
Si Si1 0.280149 0.675587 0.099883
Si Si2 0.751210 0.326855 0.282062
Si Si3 0.159531 0.673978 0.088710
Si Si4 0.549700 0.175792 0.287885
Si Si5 0.380550 0.821935 0.601249
Si Si6 0.193308 0.326112 0.588415
Si Si7 0.077848 0.821760 0.592875
O O1 0.287265 0.500000 0.114596
O O2 0.288506 0.768999 0.175972
O O3 0.212465 0.715115 0.114468
O O4 0.333428 0.724412 0.996620
O O5 0.730162 0.500000 0.286062
O O6 0.690906 0.226113 0.343393
O O7 0.798035 0.310471 0.322034
O O8 0.166581 0.500000 0.057635
O O9 0.092961 0.707510 0.177973
O O10 0.586117 0.226725 0.341020
O O11 0.488858 0.276559 0.321415
O O12 0.531156 0.000000 0.307256
O O13 0.416626 0.741845 0.501684
O O14 0.383647 0.000000 0.585332
O O15 0.189874 0.500000 0.563538
O O16 0.250000 0.250000 0.500000
O O17 0.129647 0.244766 0.613331
O O18 0.085595 0.000000 0.584406
#
# Coordination Sequence:
#
# PCOD8089901 Si02
#       7
#     8   8   8   8   8   8   8
#     4  10  19  33  54  83 113 146 182 222 277 331
#     4  11  22  35  56  84 113 144 183 230 279 329
#     4   9  18  34  54  80 112 146 184 224 271 330
#     4  10  21  38  57  80 112 152 189 225 277 333
#     4  11  21  36  57  81 112 150 187 226 276 331
#     4  11  23  39  59  81 108 146 189 234 279 325
#     4  12  25  38  54  81 113 150 191 230 277 330
#
# _framework density 17.854785
#
# number of rings (size 3 to 8) (size 9 to 14) (size 15 to 20)
#    0.000    1.429    2.857    3.429    0.000    5.714 
#    0.000    0.000    0.000    0.857    0.000    6.000 
#    0.000    0.000    0.000    0.000    0.000    0.000 
#
# Total GULP energy -347353.773213 kJ/mol
# GULP energy per Si atom -12405.491900 kJ/mol
# Density = 1.781415 g / cm^3
# Si number density = 17.854785 Si / 1000 Ang^3
#
#
#
# Elastic Constant Matrix: (Units=GPa)
#
#
# Indices 1 2 3 4 5 6 
#
# 1 79.9423 45.8596 37.6575 0.0000 -10.0886 -0.0001
# 2 45.8596 107.8018 48.8525 0.0000 -0.3800 -0.0001
# 3 37.6575 48.8525 108.7899 0.0000 -1.1349 0.0000
# 4 0.0000 0.0000 0.0000 34.8760 0.0000 -2.2841
# 5 -10.0886 -0.3800 -1.1349 0.0000 22.0956 0.0000
# 6 -0.0001 -0.0001 0.0000 -2.2841 0.0000 27.8486
#
#
#
# Elastic Compliance Matrix: (Units=1/GPa)
#
#
# Indices 1 2 3 4 5 6 
#
# 1 0.018921 -0.006392 -0.003592 0.000000 0.008345 0.000000
# 2 -0.006392 0.013806 -0.004017 0.000000 -0.002887 0.000000
# 3 -0.003592 -0.004017 0.012228 0.000000 -0.001081 0.000000
# 4 0.000000 0.000000 0.000000 0.028828 0.000000 0.002364
# 5 0.008345 -0.002887 -0.001081 0.000000 0.048963 0.000000
# 6 0.000000 0.000000 0.000000 0.002364 0.000000 0.036102
#
#
# Mechanical properties :
#
#
# Convention : Reuss Voigt Hill
#
# Bulk Modulus (GPa) = 58.98821 62.36372 60.67596
# Shear Modulus (GPa) = 25.97396 27.90833 26.94115
#
# Velocity S-wave (km/s) = 3.81824 3.95786 3.88867
# Velocity P-wave (km/s) = 7.24900 7.47598 7.36337
#
# Compressibility (1/GPa) = 0.01695254
#
# Stress axis : x y z
#
# Youngs Moduli (GPa) = 52.85153 72.43409 81.77918
#
# Poissons Ratio (x) = 0.46299 0.29376
# Poissons Ratio (y) = 0.33782 0.32851
# Poissons Ratio (z) = 0.18985 0.29097
#
# Static dielectric constant tensor:
#      x y z
#    x 3.234960 0.000000 0.074760 
#    y 0.000000 3.447380 0.000000 
#    z 0.074760 0.000000 3.398130 
# 
# 
# High freq. dielectric constant tensor:
#      x y z
#    x 1.669880 0.000000 0.002030 
#    y 0.000000 1.703070 0.000000 
#    z 0.002030 0.000000 1.694490 
# 
# From -- ./inp_files/238395.got.cif
#   From: 2010.06.25/outbox.cif.g09.slc.cpg/sg12_120_cif.got.tgz:238395.got - 2010.06.28 00:19:55.
