data_PCOD8089511
_publ_section_title
;
Structure prediction by ZEFSAII (Michael W. Deem and Ramdas Pophale) SiO2 
 PCOD8089511
Probable space group: C 2/M
;
_chemical_formula_sum "Si O2"
_cell_formula_units_Z 56
_cell_length_a 34.692970
_cell_length_b 8.929729
_cell_length_c 23.146857
_cell_angle_alpha 90.000000
_cell_angle_beta 157.227325
_cell_angle_gamma 90.000000
_cell_volume 2775.670537
_symmetry_space_group_name_H-M "C 2/M"
_symmetry_group_IT_number 12
_symmetry_cell_setting 'monoclinic'
loop_
_space_group_symop_operation_xyz
x,y,z
-x,y,-z
-x,-y,-z
x,-y,z
1/2+x,1/2+y,z
1/2-x,1/2+y,-z
1/2-x,1/2-y,-z
1/2+x,1/2-y,z
loop_
_atom_site_type_symbol
_atom_site_label
_atom_site_fract_x
_atom_site_fract_y
_atom_site_fract_z
Si Si1 0.401561 0.826151 0.429912
Si Si2 0.200662 0.176459 0.809064
Si Si3 0.606111 0.172726 0.777570
Si Si4 0.502950 0.329216 0.276091
Si Si5 0.615306 0.671521 0.995320
Si Si6 0.797737 0.823115 0.388805
Si Si7 0.599036 0.324096 0.104785
O O1 0.392353 0.745634 0.355246
O O2 0.508651 0.798726 0.604548
O O3 0.317191 0.755669 0.354376
O O4 0.378134 0.000000 0.388816
O O5 0.195195 0.240070 0.867478
O O6 0.301536 0.223263 0.917121
O O7 0.191767 0.000000 0.799283
O O8 0.582245 0.235678 0.808054
O O9 0.635573 0.000000 0.824152
O O10 0.490891 0.500000 0.280059
O O11 0.615435 0.275326 0.445955
O O12 0.483961 0.310985 0.181411
O O13 0.653445 0.500000 0.046724
O O14 0.588190 0.721429 0.022516
O O15 0.691360 0.760978 0.262928
O O16 0.792826 0.000000 0.373386
O O17 0.615445 0.500000 0.135594
O O18 0.500000 0.269002 0.000000
#
# Coordination Sequence:
#
# PCOD8089511 Si02
#       7
#     8   8   8   8   8   8   8
#     4  10  19  33  53  78 110 148 191 233 279 334
#     4  12  23  33  51  80 114 149 191 240 284 327
#     4  10  21  35  53  78 110 152 195 235 278 329
#     4   9  20  38  58  81 112 152 193 232 279 332
#     4  10  21  39  60  80 111 152 190 231 281 340
#     4  10  19  34  58  86 114 145 184 232 286 334
#     4  10  21  38  62  89 114 145 187 231 279 340
#
# _framework density 20.175304000000001
#
# number of rings (size 3 to 8) (size 9 to 14) (size 15 to 20)
#    0.000    1.857    1.429    3.000    0.000    5.429 
#    0.000    0.714    0.000    0.000    0.000    0.000 
#    0.000    0.000    0.000    0.000    0.000    0.000 
#
# Total GULP energy -347222.379777 kJ/mol
# GULP energy per Si atom -12400.799278 kJ/mol
# Density = 2.012938 g / cm^3
# Si number density = 20.175304 Si / 1000 Ang^3
#
#
#
# Elastic Constant Matrix: (Units=GPa)
#
#
# Indices 1 2 3 4 5 6 
#
# 1 104.3758 36.8842 46.2342 0.0000 10.3506 0.0000
# 2 36.8842 97.8919 21.9236 0.0000 8.3334 0.0000
# 3 46.2342 21.9236 56.2960 0.0000 0.9027 0.0000
# 4 0.0000 0.0000 0.0000 26.3501 0.0000 3.1807
# 5 10.3506 8.3334 0.9027 0.0000 32.0556 0.0000
# 6 0.0000 0.0000 0.0000 3.1807 0.0000 22.4812
#
#
#
# Elastic Compliance Matrix: (Units=1/GPa)
#
#
# Indices 1 2 3 4 5 6 
#
# 1 0.016553 -0.003123 -0.012311 0.000000 -0.004186 0.000000
# 2 -0.003123 0.012036 -0.002089 0.000000 -0.002061 0.000000
# 3 -0.012311 -0.002089 0.028628 0.000000 0.003712 0.000000
# 4 0.000000 0.000000 0.000000 0.038610 0.000000 -0.005463
# 5 -0.004186 -0.002061 0.003712 0.000000 0.032979 0.000000
# 6 0.000000 0.000000 0.000000 -0.005463 0.000000 0.045254
#
#
# Mechanical properties :
#
#
# Convention : Reuss Voigt Hill
#
# Bulk Modulus (GPa) = 45.10619 52.07196 48.58908
# Shear Modulus (GPa) = 23.09519 26.41217 24.75368
#
# Velocity S-wave (km/s) = 3.38705 3.62212 3.50656
# Velocity P-wave (km/s) = 6.14018 6.58474 6.36634
#
# Compressibility (1/GPa) = 0.02216990
#
# Stress axis : x y z
#
# Youngs Moduli (GPa) = 60.41255 83.08753 34.93117
#
# Poissons Ratio (x) = 0.25952 0.43003
# Poissons Ratio (y) = 0.18869 0.07296
# Poissons Ratio (z) = 0.74373 0.17355
#
# Static dielectric constant tensor:
#      x y z
#    x 3.615400 0.000000 -0.125530 
#    y 0.000000 3.572480 0.000000 
#    z -0.125530 0.000000 3.773340 
# 
# 
# High freq. dielectric constant tensor:
#      x y z
#    x 1.765310 0.000000 -0.010430 
#    y 0.000000 1.784790 0.000000 
#    z -0.010430 0.000000 1.796850 
# 
# From -- ./inp_files/329685.got.cif
#   From: 2010.06.25/outbox.cif.g09.slc.cpg/sg12_165_cif.got.tgz:329685.got - 2010.06.28 00:19:55.
