data_PCOD8089389
_publ_section_title
;
Structure prediction by ZEFSAII (Michael W. Deem and Ramdas Pophale) SiO2 
 PCOD8089389
Probable space group: C 2/M
;
_chemical_formula_sum "Si O2"
_cell_formula_units_Z 64
_cell_length_a 14.331970
_cell_length_b 9.600653
_cell_length_c 29.441507
_cell_angle_alpha 90.000000
_cell_angle_beta 119.477777
_cell_angle_gamma 90.000000
_cell_volume 3526.620562
_symmetry_space_group_name_H-M "C 2/M"
_symmetry_group_IT_number 12
_symmetry_cell_setting 'monoclinic'
loop_
_space_group_symop_operation_xyz
x,y,z
-x,y,-z
-x,-y,-z
x,-y,z
1/2+x,1/2+y,z
1/2-x,1/2+y,-z
1/2-x,1/2-y,-z
1/2+x,1/2-y,z
loop_
_atom_site_type_symbol
_atom_site_label
_atom_site_fract_x
_atom_site_fract_y
_atom_site_fract_z
Si Si1 0.043167 0.842573 0.907138
Si Si2 0.221313 0.842679 0.882295
Si Si3 0.792525 0.660319 0.290172
Si Si4 0.886583 0.343036 0.996455
Si Si5 0.778521 0.837581 0.627300
Si Si6 0.507388 0.338369 0.642782
Si Si7 0.577325 0.661170 0.559047
Si Si8 0.807097 0.837452 0.828022
O O1 0.100912 0.838899 0.872266
O O2 0.111659 0.752148 0.958697
O O3 0.924722 0.782923 0.870162
O O4 0.038447 0.000000 0.924937
O O5 0.222781 0.746340 0.838364
O O6 0.255635 0.000000 0.877317
O O7 0.300511 0.783763 0.940207
O O8 0.829279 0.500000 0.298468
O O9 0.726164 0.694489 0.319968
O O10 0.713991 0.695445 0.229720
O O11 0.899245 0.751956 0.310392
O O12 0.855284 0.500000 0.003626
O O13 0.000000 0.338137 0.000000
O O14 0.892670 0.788334 0.634623
O O15 0.684945 0.751455 0.580355
O O16 0.759614 0.000000 0.612437
O O17 0.525911 0.500000 0.658752
O O18 0.513232 0.309999 0.590307
O O19 0.500000 0.707533 0.500000
O O20 0.610580 0.500000 0.562959
O O21 0.793979 0.000000 0.835032
#
# Coordination Sequence:
#
# PCOD8089389 Si02
#       8
#     8   8   8   8   8   8   8   8
#     4  10  21  35  53  76 100 129 166 203 244 298
#     4  10  21  36  53  75 101 131 165 201 246 300
#     4   9  19  35  52  71  98 129 163 208 258 298
#     4  10  19  33  53  75 102 132 162 201 247 295
#     4   9  18  33  53  75 100 133 173 214 251 295
#     4   9  18  33  53  76 100 133 175 210 249 300
#     4   9  18  32  49  74 110 143 171 209 253 297
#     4  10  21  36  52  73 100 128 161 205 253 300
#
# _framework density 18.147686
#
# number of rings (size 3 to 8) (size 9 to 14) (size 15 to 20)
#    0.000    2.500    1.250    0.375    0.000    4.000 
#    0.000    2.500    0.000    0.000    0.000    0.000 
#    0.000    0.000    0.000    0.000    0.000    0.000 
#
# Total GULP energy -396846.112103 kJ/mol
# GULP energy per Si atom -12401.441003 kJ/mol
# Density = 1.810638 g / cm^3
# Si number density = 18.147686 Si / 1000 Ang^3
#
#
#
# Elastic Constant Matrix: (Units=GPa)
#
#
# Indices 1 2 3 4 5 6 
#
# 1 100.9518 34.2897 27.3699 0.0000 -0.0503 0.0000
# 2 34.2897 53.2816 40.4972 0.0000 -0.6236 0.0000
# 3 27.3699 40.4972 92.4572 0.0000 -3.8749 0.0000
# 4 0.0000 0.0000 0.0000 30.5291 0.0000 0.7381
# 5 -0.0503 -0.6236 -3.8749 0.0000 17.1670 0.0000
# 6 0.0000 0.0000 0.0000 0.7381 0.0000 28.4643
#
#
#
# Elastic Compliance Matrix: (Units=1/GPa)
#
#
# Indices 1 2 3 4 5 6 
#
# 1 0.012683 -0.007948 -0.000286 0.000000 -0.000316 0.000000
# 2 -0.007948 0.033169 -0.012242 0.000000 -0.001582 0.000000
# 3 -0.000286 -0.012242 0.016399 0.000000 0.003256 0.000000
# 4 0.000000 0.000000 0.000000 0.032776 0.000000 -0.000850
# 5 -0.000316 -0.001582 0.003256 0.000000 0.058928 0.000000
# 6 0.000000 0.000000 0.000000 -0.000850 0.000000 0.035154
#
#
# Mechanical properties :
#
#
# Convention : Reuss Voigt Hill
#
# Bulk Modulus (GPa) = 46.95175 50.11158 48.53167
# Shear Modulus (GPa) = 21.08264 24.86767 22.97516
#
# Velocity S-wave (km/s) = 3.41211 3.70576 3.56196
# Velocity P-wave (km/s) = 6.43828 6.78111 6.61192
#
# Compressibility (1/GPa) = 0.02129846
#
# Stress axis : x y z
#
# Youngs Moduli (GPa) = 78.84618 30.14822 60.97884
#
# Poissons Ratio (x) = 0.23963 0.01746
# Poissons Ratio (y) = 0.62669 0.74650
# Poissons Ratio (z) = 0.02258 0.36907
#
# Static dielectric constant tensor:
#      x y z
#    x 3.365790 0.000000 -0.002370 
#    y 0.000000 3.349640 0.000000 
#    z -0.002370 0.000000 3.281330 
# 
# 
# High freq. dielectric constant tensor:
#      x y z
#    x 1.705130 0.000000 -0.001030 
#    y 0.000000 1.698140 0.000000 
#    z -0.001030 0.000000 1.695240 
# 
# From -- ./inp_files/375048.got.cif
#   From: 2010.06.25/outbox.cif.g09.slc.cpg/sg12_188_cif.got.tgz:375048.got - 2010.06.28 00:19:55.
