data_PCOD8089066
_publ_section_title
;
Structure prediction by ZEFSAII (Michael W. Deem and Ramdas Pophale) SiO2 
 PCOD8089066
Probable space group: C 2/M
;
_chemical_formula_sum "Si O2"
_cell_formula_units_Z 64
_cell_length_a 29.359268
_cell_length_b 14.309226
_cell_length_c 9.725939
_cell_angle_alpha 90.000000
_cell_angle_beta 58.680215
_cell_angle_gamma 90.000000
_cell_volume 3490.541716
_symmetry_space_group_name_H-M "C 2/M"
_symmetry_group_IT_number 12
_symmetry_cell_setting 'monoclinic'
loop_
_space_group_symop_operation_xyz
x,y,z
-x,y,-z
-x,-y,-z
x,-y,z
1/2+x,1/2+y,z
1/2-x,1/2+y,-z
1/2-x,1/2-y,-z
1/2+x,1/2-y,z
loop_
_atom_site_type_symbol
_atom_site_label
_atom_site_fract_x
_atom_site_fract_y
_atom_site_fract_z
Si Si1 0.426487 0.392374 0.735637
Si Si2 0.876860 0.783475 0.317907
Si Si3 0.226082 0.894161 0.434407
Si Si4 0.676197 0.894164 0.529609
Si Si5 0.753710 0.606284 0.834332
Si Si6 0.706925 0.106311 0.931855
Si Si7 0.649279 0.282526 0.948306
Si Si8 0.952704 0.107531 0.386314
O O1 0.410973 0.500000 0.786640
O O2 0.484791 0.371437 0.703717
O O3 0.424871 0.370490 0.575859
O O4 0.384369 0.326169 0.875529
O O5 0.824571 0.830372 0.463173
O O6 0.873713 0.673543 0.361539
O O7 0.881209 0.797908 0.147467
O O8 0.929168 0.827196 0.304287
O O9 0.275313 0.860513 0.449875
O O10 0.243069 0.886270 0.249231
O O11 0.210574 0.000000 0.499029
O O12 0.694530 0.885700 0.343370
O O13 0.658799 0.000000 0.593187
O O14 0.732554 0.500000 0.872275
O O15 0.707093 0.670134 0.847527
O O16 0.771100 0.641023 0.956663
O O17 0.657949 0.172259 0.962543
O O18 0.684999 0.000000 0.972242
O O19 0.942389 0.000000 0.362868
#
# Coordination Sequence:
#
# PCOD8089066 Si02
#       8
#     8   8   8   8   8   8   8   8
#     4   9  21  41  60  79 106 135 168 217 273 320
#     4  12  22  32  54  83 106 140 186 217 256 315
#     4  10  19  33  50  73 110 147 176 211 256 311
#     4  10  20  35  51  73 113 151 175 212 260 306
#     4  10  21  34  49  76 111 143 180 222 261 306
#     4  10  22  36  50  75 111 149 183 215 257 308
#     4  12  22  33  54  81 108 141 180 222 262 307
#     4   9  21  41  60  80 105 134 170 216 270 326
#
# _framework density 18.335263000000001
#
# number of rings (size 3 to 8) (size 9 to 14) (size 15 to 20)
#    0.000    1.750    2.500    3.000    3.500    2.000 
#    0.000    1.250    0.000    0.750    0.000    3.500 
#    0.000    0.000    0.000    0.000    0.000    0.000 
#
# Total GULP energy -396907.573332 kJ/mol
# GULP energy per Si atom -12403.361667 kJ/mol
# Density = 1.829353 g / cm^3
# Si number density = 18.335263 Si / 1000 Ang^3
#
#
#
# Elastic Constant Matrix: (Units=GPa)
#
#
# Indices 1 2 3 4 5 6 
#
# 1 68.1220 34.1651 13.4683 0.0000 21.6753 0.0000
# 2 34.1651 85.9607 15.3506 0.0000 -0.5254 0.0000
# 3 13.4683 15.3506 62.5389 0.0000 15.0351 0.0000
# 4 0.0000 0.0000 0.0000 23.5688 0.0000 1.4999
# 5 21.6753 -0.5254 15.0351 0.0000 32.5727 0.0000
# 6 0.0000 0.0000 0.0000 1.4999 0.0000 25.3896
#
#
#
# Elastic Compliance Matrix: (Units=1/GPa)
#
#
# Indices 1 2 3 4 5 6 
#
# 1 0.025195 -0.010360 0.001336 0.000000 -0.017550 0.000000
# 2 -0.010360 0.016518 -0.003987 0.000000 0.009001 0.000000
# 3 0.001336 -0.003987 0.019021 0.000000 -0.009733 0.000000
# 4 0.000000 0.000000 0.000000 0.042589 0.000000 -0.002516
# 5 -0.017550 0.009001 -0.009733 0.000000 0.047017 0.000000
# 6 0.000000 0.000000 0.000000 -0.002516 0.000000 0.039535
#
#
# Mechanical properties :
#
#
# Convention : Reuss Voigt Hill
#
# Bulk Modulus (GPa) = 28.80837 38.06550 33.43693
# Shear Modulus (GPa) = 21.98124 26.54874 24.26499
#
# Velocity S-wave (km/s) = 3.46620 3.80934 3.64181
# Velocity P-wave (km/s) = 5.63609 6.33671 5.99664
#
# Compressibility (1/GPa) = 0.03471214
#
# Stress axis : x y z
#
# Youngs Moduli (GPa) = 39.69024 60.54112 52.57354
#
# Poissons Ratio (x) = 0.62718 -0.07024
# Poissons Ratio (y) = 0.41118 0.20962
# Poissons Ratio (z) = -0.05303 0.24139
#
# Static dielectric constant tensor:
#      x y z
#    x 3.130100 0.000000 0.247280 
#    y 0.000000 3.570380 0.000000 
#    z 0.247280 0.000000 3.359820 
# 
# 
# High freq. dielectric constant tensor:
#      x y z
#    x 1.680120 0.000000 0.028090 
#    y 0.000000 1.717120 0.000000 
#    z 0.028090 0.000000 1.711850 
# 
# From -- ./inp_files/96866.got.cif
#   From: 2010.06.25/outbox.cif.g09.slc.cpg/sg12_49_cif.got.tgz:96866.got - 2010.06.28 00:19:55.
