data_PCOD8089110
_publ_section_title
;
Structure prediction by ZEFSAII (Michael W. Deem and Ramdas Pophale) SiO2 
 PCOD8089110
Probable space group: C 2/M
;
_chemical_formula_sum "Si O2"
_cell_formula_units_Z 56
_cell_length_a 31.455014
_cell_length_b 8.914630
_cell_length_c 11.989630
_cell_angle_alpha 90.000000
_cell_angle_beta 60.596252
_cell_angle_gamma 90.000000
_cell_volume 2928.921479
_symmetry_space_group_name_H-M "C 2/M"
_symmetry_group_IT_number 12
_symmetry_cell_setting 'monoclinic'
loop_
_space_group_symop_operation_xyz
x,y,z
-x,y,-z
-x,-y,-z
x,-y,z
1/2+x,1/2+y,z
1/2-x,1/2+y,-z
1/2-x,1/2-y,-z
1/2+x,1/2-y,z
loop_
_atom_site_type_symbol
_atom_site_label
_atom_site_fract_x
_atom_site_fract_y
_atom_site_fract_z
Si Si1 0.801067 0.827892 0.423403
Si Si2 0.680423 0.673799 0.350644
Si Si3 0.076138 0.178348 0.424556
Si Si4 0.009018 0.178617 0.315807
Si Si5 0.148061 0.822167 0.863128
Si Si6 0.038891 0.179254 0.039463
Si Si7 0.737707 0.322833 0.896738
O O1 0.750000 0.750000 0.500000
O O2 0.828299 0.807172 0.505881
O O3 0.832075 0.758130 0.280919
O O4 0.790905 0.000000 0.408863
O O5 0.690141 0.500000 0.307273
O O6 0.631108 0.739175 0.359308
O O7 0.724704 0.771159 0.246791
O O8 0.052470 0.234946 0.340174
O O9 0.043051 0.236612 0.570668
O O10 0.077633 0.000000 0.428205
O O11 0.019116 0.244643 0.181355
O O12 0.009202 0.000000 0.312935
O O13 0.183886 0.776203 0.919938
O O14 0.144778 0.000000 0.860955
O O15 0.093563 0.756375 0.950052
O O16 0.040306 0.000000 0.036918
O O17 0.000000 0.239831 0.000000
O O18 0.741299 0.500000 0.907090
O O19 0.750000 0.250000 0.000000
#
# Coordination Sequence:
#
# PCOD8089110 Si02
#       7
#     8   8   8   8   8   8   8
#     4  10  19  33  51  73 103 135 172 211 254 304
#     4  10  20  32  53  79 105 137 174 215 261 314
#     4   8  15  26  42  67  98 130 164 209 257 302
#     4   8  14  25  40  62  95 130 165 205 255 308
#     4   9  19  33  48  70 104 143 170 210 267 311
#     4   9  17  26  41  65  97 135 170 203 254 318
#     4  11  23  38  55  76 108 141 177 216 260 316
#
# _framework density 19.119665999999999
#
# number of rings (size 3 to 8) (size 9 to 14) (size 15 to 20)
#    0.000    2.714    1.429    1.286    4.000    0.000 
#    0.000    0.000    0.000    0.000    0.000    2.000 
#    0.000    5.143    0.000    0.000    0.000    0.000 
#
# Total GULP energy -347012.067171 kJ/mol
# GULP energy per Si atom -12393.288113 kJ/mol
# Density = 1.907615 g / cm^3
# Si number density = 19.119666 Si / 1000 Ang^3
#
#
#
# Elastic Constant Matrix: (Units=GPa)
#
#
# Indices 1 2 3 4 5 6 
#
# 1 160.1960 23.1560 75.7047 0.0000 -9.2183 0.0000
# 2 23.1560 25.0796 17.5129 0.0000 2.5486 0.0000
# 3 75.7047 17.5129 144.6943 0.0000 8.6024 0.0000
# 4 0.0000 0.0000 0.0000 17.6093 0.0000 -0.1056
# 5 -9.2183 2.5486 8.6024 0.0000 33.1785 0.0000
# 6 0.0000 0.0000 0.0000 -0.1056 0.0000 16.2102
#
#
#
# Elastic Compliance Matrix: (Units=1/GPa)
#
#
# Indices 1 2 3 4 5 6 
#
# 1 0.009481 -0.006058 -0.004480 0.000000 0.004261 0.000000
# 2 -0.006058 0.047557 -0.002305 0.000000 -0.004739 0.000000
# 3 -0.004480 -0.002305 0.009748 0.000000 -0.003595 0.000000
# 4 0.000000 0.000000 0.000000 0.056790 0.000000 0.000370
# 5 0.004261 -0.004739 -0.003595 0.000000 0.032620 0.000000
# 6 0.000000 0.000000 0.000000 0.000370 0.000000 0.061692
#
#
# Mechanical properties :
#
#
# Convention : Reuss Voigt Hill
#
# Bulk Modulus (GPa) = 24.33112 62.52415 43.42763
# Shear Modulus (GPa) = 19.43454 27.63936 23.53695
#
# Velocity S-wave (km/s) = 3.19167 3.80623 3.51242
# Velocity P-wave (km/s) = 5.13183 7.21727 6.26197
#
# Compressibility (1/GPa) = 0.04109963
#
# Stress axis : x y z
#
# Youngs Moduli (GPa) = 105.47958 21.02735 102.58528
#
# Poissons Ratio (x) = 0.12738 0.45962
# Poissons Ratio (y) = 0.63897 0.23644
# Poissons Ratio (z) = 0.47259 0.04847
#
# Static dielectric constant tensor:
#      x y z
#    x 4.056440 0.000000 0.224430 
#    y 0.000000 2.889390 0.000000 
#    z 0.224430 0.000000 4.010490 
# 
# 
# High freq. dielectric constant tensor:
#      x y z
#    x 1.757530 0.000000 0.002630 
#    y 0.000000 1.670780 0.000000 
#    z 0.002630 0.000000 1.755990 
# 
# From -- ./inp_files/187227.got.cif
#   From: 2010.06.25/outbox.cif.g09.slc.cpg/sg12_94_cif.got.tgz:187227.got - 2010.06.28 00:19:55.
