data_PCOD8089955
_publ_section_title
;
Structure prediction by ZEFSAII (Michael W. Deem and Ramdas Pophale) SiO2 
 PCOD8089955
Probable space group: C 2/M
;
_chemical_formula_sum "Si O2"
_cell_formula_units_Z 56
_cell_length_a 18.601773
_cell_length_b 9.426447
_cell_length_c 20.852939
_cell_angle_alpha 90.000000
_cell_angle_beta 124.111343
_cell_angle_gamma 90.000000
_cell_volume 3027.425054
_symmetry_space_group_name_H-M "C 2/M"
_symmetry_group_IT_number 12
_symmetry_cell_setting 'monoclinic'
loop_
_space_group_symop_operation_xyz
x,y,z
-x,y,-z
-x,-y,-z
x,-y,z
1/2+x,1/2+y,z
1/2-x,1/2+y,-z
1/2-x,1/2-y,-z
1/2+x,1/2-y,z
loop_
_atom_site_type_symbol
_atom_site_label
_atom_site_fract_x
_atom_site_fract_y
_atom_site_fract_z
Si Si1 0.484776 0.331680 0.849110
Si Si2 0.983348 0.167958 0.704786
Si Si3 0.326688 0.664998 0.857776
Si Si4 0.659979 0.668331 0.728878
Si Si5 0.830047 0.165367 0.009827
Si Si6 0.334333 0.659359 0.537305
Si Si7 0.909751 0.159717 0.437976
O O1 0.487925 0.500000 0.853329
O O2 0.462288 0.277215 0.766004
O O3 0.411532 0.277601 0.862084
O O4 0.580339 0.274999 0.915399
O O5 0.912077 0.227481 0.618703
O O6 0.079567 0.217470 0.732983
O O7 0.980566 0.000000 0.699957
O O8 0.310729 0.500000 0.834272
O O9 0.244984 0.754211 0.794946
O O10 0.339496 0.690965 0.939115
O O11 0.676236 0.500000 0.740036
O O12 0.640842 0.726723 0.647403
O O13 0.815887 0.000000 0.018817
O O14 0.750000 0.250000 0.000000
O O15 0.316172 0.500000 0.552451
O O16 0.250000 0.750000 0.500000
O O17 0.351232 0.660658 0.470643
O O18 0.000000 0.240272 0.500000
O O19 0.934367 0.000000 0.427573
#
# Coordination Sequence:
#
# PCOD8089955 Si02
#       7
#     8   8   8   8   8   8   8
#     4   9  18  33  53  76 104 137 172 207 248 306
#     4   9  17  31  52  75  98 133 178 214 246 299
#     4  10  21  35  53  79 109 137 167 210 259 305
#     4  10  19  33  55  78 102 136 177 216 255 303
#     4  10  20  36  58  81 105 136 172 210 254 304
#     4  10  20  33  51  75 103 135 172 214 260 306
#     4   9  16  31  53  75 100 134 177 219 255 299
#
# _framework density 18.497568999999999
#
# number of rings (size 3 to 8) (size 9 to 14) (size 15 to 20)
#    0.000    2.429    1.429    1.286    2.000    3.429 
#    0.000    1.429    0.000    4.286    0.000    0.000 
#    0.000    0.000    0.000    0.000    0.000    0.000 
#
# Total GULP energy -347077.998523 kJ/mol
# GULP energy per Si atom -12395.642804 kJ/mol
# Density = 1.845547 g / cm^3
# Si number density = 18.497569 Si / 1000 Ang^3
#
#
#
# Elastic Constant Matrix: (Units=GPa)
#
#
# Indices 1 2 3 4 5 6 
#
# 1 151.5612 39.2414 65.3364 0.0000 7.4273 0.0000
# 2 39.2414 33.3217 28.3133 0.0000 5.6845 0.0000
# 3 65.3364 28.3133 119.7765 0.0000 0.3892 0.0000
# 4 0.0000 0.0000 0.0000 23.1774 0.0000 6.1814
# 5 7.4273 5.6845 0.3892 0.0000 39.5425 0.0000
# 6 0.0000 0.0000 0.0000 6.1814 0.0000 25.9845
#
#
#
# Elastic Compliance Matrix: (Units=1/GPa)
#
#
# Indices 1 2 3 4 5 6 
#
# 1 0.010579 -0.009326 -0.003564 0.000000 -0.000611 0.000000
# 2 -0.009326 0.046923 -0.005989 0.000000 -0.004935 0.000000
# 3 -0.003564 -0.005989 0.011704 0.000000 0.001415 0.000000
# 4 0.000000 0.000000 0.000000 0.046068 0.000000 -0.010959
# 5 -0.000611 -0.004935 0.001415 0.000000 0.026100 0.000000
# 6 0.000000 0.000000 0.000000 -0.010959 0.000000 0.041092
#
#
# Mechanical properties :
#
#
# Convention : Reuss Voigt Hill
#
# Bulk Modulus (GPa) = 31.79745 63.38239 47.58992
# Shear Modulus (GPa) = 21.67253 29.19210 25.43232
#
# Velocity S-wave (km/s) = 3.42664 3.97691 3.71199
# Velocity P-wave (km/s) = 5.73439 7.44496 6.64495
#
# Compressibility (1/GPa) = 0.03144906
#
# Stress axis : x y z
#
# Youngs Moduli (GPa) = 94.52692 21.31132 85.43898
#
# Poissons Ratio (x) = 0.19874 0.30453
# Poissons Ratio (y) = 0.88151 0.51169
# Poissons Ratio (z) = 0.33692 0.12763
#
# Static dielectric constant tensor:
#      x y z
#    x 3.462900 0.000000 -0.034910 
#    y 0.000000 2.965400 0.000000 
#    z -0.034910 0.000000 3.711640 
# 
# 
# High freq. dielectric constant tensor:
#      x y z
#    x 1.729680 0.000000 -0.003240 
#    y 0.000000 1.658440 0.000000 
#    z -0.003240 0.000000 1.740040 
# 
# From -- ./inp_files/223107.got.cif
#   From: 2010.06.25/outbox.cif.g09.slc.cpg/sg12_112_cif.got.tgz:223107.got - 2010.06.28 00:19:55.
