data_PCOD8089617
_publ_section_title
;
Structure prediction by ZEFSAII (Michael W. Deem and Ramdas Pophale) SiO2 
 PCOD8089617
Probable space group: C 2/M
;
_chemical_formula_sum "Si O2"
_cell_formula_units_Z 56
_cell_length_a 11.977093
_cell_length_b 14.432397
_cell_length_c 18.479975
_cell_angle_alpha 90.000000
_cell_angle_beta 120.757412
_cell_angle_gamma 90.000000
_cell_volume 2745.088988
_symmetry_space_group_name_H-M "C 2/M"
_symmetry_group_IT_number 12
_symmetry_cell_setting 'monoclinic'
loop_
_space_group_symop_operation_xyz
x,y,z
-x,y,-z
-x,-y,-z
x,-y,z
1/2+x,1/2+y,z
1/2-x,1/2+y,-z
1/2-x,1/2-y,-z
1/2+x,1/2-y,z
loop_
_atom_site_type_symbol
_atom_site_label
_atom_site_fract_x
_atom_site_fract_y
_atom_site_fract_z
Si Si1 0.657625 0.271922 0.633162
Si Si2 0.445118 0.401324 0.617018
Si Si3 0.821575 0.338708 0.495185
Si Si4 0.343437 0.783441 0.207855
Si Si5 0.541288 0.605267 0.803681
Si Si6 0.400861 0.393146 0.907220
Si Si7 0.095042 0.608982 0.330906
O O1 0.518797 0.323792 0.594818
O O2 0.624584 0.188097 0.566586
O O3 0.701432 0.230951 0.724433
O O4 0.767795 0.344311 0.644484
O O5 0.513801 0.500000 0.624289
O O6 0.293955 0.413498 0.548461
O O7 0.449716 0.377426 0.703830
O O8 0.750000 0.250000 0.500000
O O9 0.926183 0.376003 0.588837
O O10 0.348977 0.684472 0.167652
O O11 0.234792 0.840626 0.129523
O O12 0.478916 0.840343 0.249671
O O13 0.599908 0.500000 0.823415
O O14 0.458327 0.622992 0.847165
O O15 0.371707 0.500000 0.913123
O O16 0.500000 0.353674 0.000000
O O17 0.095406 0.500000 0.311659
#
# Coordination Sequence:
#
# PCOD8089617 Si02
#       7
#     8   8   8   8   8   8   8
#     4  10  20  36  55  75 104 143 185 223 266 318
#     4  10  19  33  54  76 100 138 183 223 263 309
#     4  10  20  33  48  71 104 139 179 223 264 307
#     4  11  21  37  59  82 108 142 178 222 277 322
#     4   9  19  36  57  83 111 140 179 222 263 316
#     4  10  21  38  60  84 110 143 180 215 260 326
#     4  11  23  36  51  78 112 142 180 231 278 318
#
# _framework density 20.400068000000001
#
# number of rings (size 3 to 8) (size 9 to 14) (size 15 to 20)
#    0.000    1.857    0.000    6.429    0.000    6.286 
#    0.000    6.429    0.000    1.286    0.000    0.000 
#    0.000    0.000    0.000    0.000    0.000    0.000 
#
# Total GULP energy -347020.741506 kJ/mol
# GULP energy per Si atom -12393.597911 kJ/mol
# Density = 2.035364 g / cm^3
# Si number density = 20.400068 Si / 1000 Ang^3
#
#
#
# Elastic Constant Matrix: (Units=GPa)
#
#
# Indices 1 2 3 4 5 6 
#
# 1 77.0951 37.4258 41.4914 0.0000 6.8726 0.0000
# 2 37.4258 97.0932 32.7098 0.0000 11.8854 0.0000
# 3 41.4914 32.7098 72.2699 0.0000 26.0360 0.0000
# 4 0.0000 0.0000 0.0000 24.2325 0.0000 1.6700
# 5 6.8726 11.8854 26.0360 0.0000 25.1686 0.0000
# 6 0.0000 0.0000 0.0000 1.6700 0.0000 32.0728
#
#
#
# Elastic Compliance Matrix: (Units=1/GPa)
#
#
# Indices 1 2 3 4 5 6 
#
# 1 0.022274 -0.005061 -0.014613 0.000000 0.011425 0.000000
# 2 -0.005061 0.013303 -0.002152 0.000000 -0.002674 0.000000
# 3 -0.014613 -0.002152 0.034108 0.000000 -0.030277 0.000000
# 4 0.000000 0.000000 0.000000 0.041415 0.000000 -0.002156
# 5 0.011425 -0.002674 -0.030277 0.000000 0.069196 0.000000
# 6 0.000000 0.000000 0.000000 -0.002156 0.000000 0.031291
#
#
# Mechanical properties :
#
#
# Convention : Reuss Voigt Hill
#
# Bulk Modulus (GPa) = 38.41293 52.19024 45.30159
# Shear Modulus (GPa) = 18.94532 25.28353 22.11442
#
# Velocity S-wave (km/s) = 3.05075 3.52431 3.29604
# Velocity P-wave (km/s) = 5.59286 6.49615 6.06135
#
# Compressibility (1/GPa) = 0.02603290
#
# Stress axis : x y z
#
# Youngs Moduli (GPa) = 44.89525 75.17353 29.31844
#
# Poissons Ratio (x) = 0.38048 0.42843
# Poissons Ratio (y) = 0.22723 0.06308
# Poissons Ratio (z) = 0.65605 0.16175
#
# Static dielectric constant tensor:
#      x y z
#    x 3.076490 0.000000 -0.590420 
#    y 0.000000 3.768640 0.000000 
#    z -0.590420 0.000000 3.483250 
# 
# 
# High freq. dielectric constant tensor:
#      x y z
#    x 1.786090 0.000000 -0.006390 
#    y 0.000000 1.806130 0.000000 
#    z -0.006390 0.000000 1.778070 
# 
# From -- ./inp_files/205041.got.cif
#   From: 2010.06.25/outbox.cif.g09.slc.cpg/sg12_103_cif.got.tgz:205041.got - 2010.06.28 00:19:55.
