data_PCOD8089598
_publ_section_title
;
Structure prediction by ZEFSAII (Michael W. Deem and Ramdas Pophale) SiO2 
 PCOD8089598
Probable space group: C 2/M
;
_chemical_formula_sum "Si O2"
_cell_formula_units_Z 56
_cell_length_a 22.027558
_cell_length_b 9.641286
_cell_length_c 14.552848
_cell_angle_alpha 90.000000
_cell_angle_beta 110.986971
_cell_angle_gamma 90.000000
_cell_volume 2885.618723
_symmetry_space_group_name_H-M "C 2/M"
_symmetry_group_IT_number 12
_symmetry_cell_setting 'monoclinic'
loop_
_space_group_symop_operation_xyz
x,y,z
-x,y,-z
-x,-y,-z
x,-y,z
1/2+x,1/2+y,z
1/2-x,1/2+y,-z
1/2-x,1/2-y,-z
1/2+x,1/2-y,z
loop_
_atom_site_type_symbol
_atom_site_label
_atom_site_fract_x
_atom_site_fract_y
_atom_site_fract_z
Si Si1 0.487540 0.155942 0.744112
Si Si2 0.182172 0.335462 0.055682
Si Si3 0.558830 0.165044 0.089722
Si Si4 0.797283 0.162129 0.458356
Si Si5 0.796382 0.160588 0.250233
Si Si6 0.049796 0.162926 0.445801
Si Si7 0.635907 0.155819 0.837800
O O1 0.442897 0.206541 0.804107
O O2 0.477273 0.261594 0.657262
O O3 0.560477 0.157263 0.823532
O O4 0.469238 0.000000 0.701486
O O5 0.176245 0.500000 0.051021
O O6 0.123686 0.270501 0.082521
O O7 0.245036 0.288929 0.146009
O O8 0.177425 0.283068 0.947433
O O9 0.557066 0.000000 0.080878
O O10 0.500000 0.230689 0.000000
O O11 0.750000 0.250000 0.500000
O O12 0.773022 0.192036 0.341087
O O13 0.873920 0.205266 0.499853
O O14 0.789214 0.000000 0.479554
O O15 0.857853 0.251590 0.251447
O O16 0.815340 0.000000 0.252338
O O17 0.000000 0.207492 0.500000
O O18 0.045208 0.000000 0.427645
O O19 0.659256 0.000000 0.827684
#
# Coordination Sequence:
#
# PCOD8089598 Si02
#       7
#     8   8   8   8   8   8   8
#     4  10  20  32  56  87 109 137 182 229 272 319
#     4   9  17  30  51  79 110 141 177 217 263 324
#     4   9  15  28  50  78 110 140 171 218 273 321
#     4  10  23  41  60  84 113 148 190 236 284 331
#     4  10  21  36  56  79 105 144 187 220 264 330
#     4  10  22  41  61  81 112 152 189 230 285 340
#     4  10  19  33  53  83 116 142 173 221 274 321
#
# _framework density 19.406583000000001
#
# number of rings (size 3 to 8) (size 9 to 14) (size 15 to 20)
#    0.000    2.286    1.429    1.286    2.000    3.143 
#    0.000    0.000    0.000    1.286    0.000    0.000 
#    0.000    0.000    0.000    0.000    0.000    0.000 
#
# Total GULP energy -346956.484892 kJ/mol
# GULP energy per Si atom -12391.303032 kJ/mol
# Density = 1.936241 g / cm^3
# Si number density = 19.406583 Si / 1000 Ang^3
#
#
#
# Elastic Constant Matrix: (Units=GPa)
#
#
# Indices 1 2 3 4 5 6 
#
# 1 101.4392 37.3043 41.4470 0.0000 -21.7487 0.0000
# 2 37.3043 38.6732 39.8213 0.0000 -11.1548 0.0000
# 3 41.4470 39.8213 116.0768 0.0000 -14.3004 0.0000
# 4 0.0000 0.0000 0.0000 26.0820 0.0000 -4.2227
# 5 -21.7487 -11.1548 -14.3004 0.0000 33.9386 0.0000
# 6 0.0000 0.0000 0.0000 -4.2227 0.0000 25.4912
#
#
#
# Elastic Compliance Matrix: (Units=1/GPa)
#
#
# Indices 1 2 3 4 5 6 
#
# 1 0.016268 -0.013571 -0.000441 0.000000 0.005779 0.000000
# 2 -0.013571 0.053341 -0.013042 0.000000 0.003340 0.000000
# 3 -0.000441 -0.013042 0.013378 0.000000 0.001068 0.000000
# 4 0.000000 0.000000 0.000000 0.039397 0.000000 0.006526
# 5 0.005779 0.003340 0.001068 0.000000 0.034716 0.000000
# 6 0.000000 0.000000 0.000000 0.006526 0.000000 0.040310
#
#
# Mechanical properties :
#
#
# Convention : Reuss Voigt Hill
#
# Bulk Modulus (GPa) = 34.62755 54.81494 44.72124
# Shear Modulus (GPa) = 19.14641 26.27681 22.71161
#
# Velocity S-wave (km/s) = 3.14442 3.68369 3.42468
# Velocity P-wave (km/s) = 5.57360 6.81172 6.22353
#
# Compressibility (1/GPa) = 0.02887874
#
# Stress axis : x y z
#
# Youngs Moduli (GPa) = 61.46970 18.74727 74.74867
#
# Poissons Ratio (x) = 0.25443 0.03297
# Poissons Ratio (y) = 0.83423 0.97486
# Poissons Ratio (z) = 0.02711 0.24450
#
# Static dielectric constant tensor:
#      x y z
#    x 3.772670 0.000000 0.001730 
#    y 0.000000 3.157350 0.000000 
#    z 0.001730 0.000000 3.595230 
# 
# 
# High freq. dielectric constant tensor:
#      x y z
#    x 1.765880 0.000000 -0.006000 
#    y 0.000000 1.715900 0.000000 
#    z -0.006000 0.000000 1.764690 
# 
# From -- ./inp_files/237856.got.cif
#   From: 2010.06.25/outbox.cif.g09.slc.cpg/sg12_119_cif.got.tgz:237856.got - 2010.06.28 00:19:55.
