data_PCOD8089261
_publ_section_title
;
Structure prediction by ZEFSAII (Michael W. Deem and Ramdas Pophale) SiO2 
 PCOD8089261
Probable space group: C 2/M
;
_chemical_formula_sum "Si O2"
_cell_formula_units_Z 56
_cell_length_a 14.894554
_cell_length_b 9.386850
_cell_length_c 21.534949
_cell_angle_alpha 90.000000
_cell_angle_beta 99.134799
_cell_angle_gamma 90.000000
_cell_volume 2972.679532
_symmetry_space_group_name_H-M "C 2/M"
_symmetry_group_IT_number 12
_symmetry_cell_setting 'monoclinic'
loop_
_space_group_symop_operation_xyz
x,y,z
-x,y,-z
-x,-y,-z
x,-y,z
1/2+x,1/2+y,z
1/2-x,1/2+y,-z
1/2-x,1/2-y,-z
1/2+x,1/2-y,z
loop_
_atom_site_type_symbol
_atom_site_label
_atom_site_fract_x
_atom_site_fract_y
_atom_site_fract_z
Si Si1 0.278744 0.166543 0.091567
Si Si2 0.039179 0.839708 0.566472
Si Si3 0.745686 0.341299 0.560571
Si Si4 0.160635 0.335123 0.306462
Si Si5 0.396871 0.665549 0.008761
Si Si6 0.193880 0.835472 0.782543
Si Si7 0.992088 0.168514 0.301221
O O1 0.177068 0.191363 0.053642
O O2 0.275747 0.233486 0.159016
O O3 0.302061 0.000000 0.097002
O O4 0.360557 0.241588 0.062447
O O5 0.146701 0.840629 0.578825
O O6 0.000000 0.760277 0.500000
O O7 0.010820 0.767568 0.628597
O O8 0.999367 0.000000 0.561374
O O9 0.775046 0.500000 0.544992
O O10 0.750000 0.250000 0.500000
O O11 0.810793 0.281684 0.621629
O O12 0.133188 0.500000 0.304856
O O13 0.240734 0.307362 0.267673
O O14 0.075780 0.241145 0.275124
O O15 0.398821 0.500000 0.029021
O O16 0.500000 0.712627 0.000000
O O17 0.094904 0.789650 0.748510
O O18 0.197004 0.000000 0.804694
O O19 0.003185 0.000000 0.304910
#
# Coordination Sequence:
#
# PCOD8089261 Si02
#       7
#     8   8   8   8   8   8   8
#     4  10  21  36  58  89 119 149 190 236 277 320
#     4   9  16  29  51  75  99 131 177 226 271 331
#     4  10  19  33  52  76 105 137 178 228 283 341
#     4  10  21  37  55  78 110 144 180 233 291 336
#     4   9  19  38  62  87 119 156 191 226 271 328
#     4  10  21  39  58  77 112 156 192 226 277 342
#     4  10  20  36  57  79 102 141 191 229 273 340
#
# _framework density 18.838221999999998
#
# number of rings (size 3 to 8) (size 9 to 14) (size 15 to 20)
#    0.000    2.286    1.429    1.286    0.000    4.857 
#    0.000    5.000    0.000    2.571    0.000    0.000 
#    0.000    0.000    0.000    0.000    0.000    0.000 
#
# Total GULP energy -347085.971880 kJ/mol
# GULP energy per Si atom -12395.927567 kJ/mol
# Density = 1.879535 g / cm^3
# Si number density = 18.838222 Si / 1000 Ang^3
#
#
#
# Elastic Constant Matrix: (Units=GPa)
#
#
# Indices 1 2 3 4 5 6 
#
# 1 118.5376 43.0651 34.9771 0.0000 7.5197 0.0000
# 2 43.0651 60.2695 53.8719 0.0000 2.9192 0.0000
# 3 34.9771 53.8719 98.5101 0.0000 11.0895 0.0000
# 4 0.0000 0.0000 0.0000 31.1333 0.0000 -0.0322
# 5 7.5197 2.9192 11.0895 0.0000 19.1605 0.0000
# 6 0.0000 0.0000 0.0000 -0.0322 0.0000 27.4542
#
#
#
# Elastic Compliance Matrix: (Units=1/GPa)
#
#
# Indices 1 2 3 4 5 6 
#
# 1 0.011702 -0.009501 0.001492 0.000000 -0.004009 0.000000
# 2 -0.009501 0.040765 -0.019939 0.000000 0.009058 0.000000
# 3 0.001492 -0.019939 0.021661 0.000000 -0.010084 0.000000
# 4 0.000000 0.000000 0.000000 0.032120 0.000000 0.000038
# 5 -0.004009 0.009058 -0.010084 0.000000 0.058220 0.000000
# 6 0.000000 0.000000 0.000000 0.000038 0.000000 0.036424
#
#
# Mechanical properties :
#
#
# Convention : Reuss Voigt Hill
#
# Bulk Modulus (GPa) = 54.85066 60.12727 57.48897
# Shear Modulus (GPa) = 19.02107 25.24313 22.13210
#
# Velocity S-wave (km/s) = 3.18104 3.66457 3.43133
# Velocity P-wave (km/s) = 6.53237 7.06345 6.80310
#
# Compressibility (1/GPa) = 0.01823132
#
# Stress axis : x y z
#
# Youngs Moduli (GPa) = 85.45598 24.53076 46.16636
#
# Poissons Ratio (x) = 0.23307 -0.06889
# Poissons Ratio (y) = 0.81193 0.92053
# Poissons Ratio (z) = -0.12752 0.48913
#
# Static dielectric constant tensor:
#      x y z
#    x 3.334600 0.000000 0.036450 
#    y 0.000000 3.338940 0.000000 
#    z 0.036450 0.000000 3.500820 
# 
# 
# High freq. dielectric constant tensor:
#      x y z
#    x 1.739680 0.000000 0.003960 
#    y 0.000000 1.709470 0.000000 
#    z 0.003960 0.000000 1.734270 
# 
# From -- ./inp_files/308933.got.cif
#   From: 2010.06.25/outbox.cif.g09.slc.cpg/sg12_155_cif.got.tgz:308933.got - 2010.06.28 00:19:55.
