data_PCOD8089280
_publ_section_title
;
Structure prediction by ZEFSAII (Michael W. Deem and Ramdas Pophale) SiO2 
 PCOD8089280
Probable space group: C 2/M
;
_chemical_formula_sum "Si O2"
_cell_formula_units_Z 40
_cell_length_a 16.648877
_cell_length_b 17.430519
_cell_length_c 9.770260
_cell_angle_alpha 90.000000
_cell_angle_beta 123.038725
_cell_angle_gamma 90.000000
_cell_volume 2376.851368
_symmetry_space_group_name_H-M "C 2/M"
_symmetry_group_IT_number 12
_symmetry_cell_setting 'monoclinic'
loop_
_space_group_symop_operation_xyz
x,y,z
-x,y,-z
-x,-y,-z
x,-y,z
1/2+x,1/2+y,z
1/2-x,1/2+y,-z
1/2-x,1/2-y,-z
1/2+x,1/2-y,z
loop_
_atom_site_type_symbol
_atom_site_label
_atom_site_fract_x
_atom_site_fract_y
_atom_site_fract_z
Si Si1 0.071755 0.411193 0.386327
Si Si2 0.607799 0.329941 0.638236
Si Si3 0.378303 0.846967 0.286959
Si Si4 0.726205 0.086725 0.316681
Si Si5 0.762691 0.913129 0.054363
O O1 0.046521 0.500000 0.339312
O O2 0.122208 0.401168 0.580315
O O3 0.141698 0.379607 0.332428
O O4 0.974027 0.362533 0.287542
O O5 0.500000 0.351416 0.500000
O O6 0.623585 0.239942 0.666294
O O7 0.677462 0.361321 0.581155
O O8 0.637020 0.372162 0.808502
O O9 0.284974 0.865160 0.111372
O O10 0.750550 0.000000 0.387153
O O11 0.694209 0.087057 0.126366
O O12 0.782671 0.000000 0.023853
#
# Coordination Sequence:
#
# PCOD8089280 Si02
#       5
#     8   8   8   8   8
#     4  10  19  33  52  77 108 139 170 206 259 317
#     4  10  19  35  53  77 105 137 177 208 257 305
#     4  11  19  32  52  81 106 135 167 211 267 312
#     4   8  19  34  52  77 101 138 177 212 250 298
#     4   9  19  34  54  77 100 137 176 215 252 296
#
# _framework density 16.828986
#
# number of rings (size 3 to 8) (size 9 to 14) (size 15 to 20)
#    1.200    1.200    2.000    3.000    0.000    3.200 
#    0.000    3.000    0.000    1.200    0.000    4.200 
#    0.000    0.000    0.000    0.000    0.000    0.000 
#
# Total GULP energy -247817.531479 kJ/mol
# GULP energy per Si atom -12390.876574 kJ/mol
# Density = 1.679068 g / cm^3
# Si number density = 16.828986 Si / 1000 Ang^3
#
#
#
# Elastic Constant Matrix: (Units=GPa)
#
#
# Indices 1 2 3 4 5 6 
#
# 1 50.1438 40.6608 9.1915 0.0000 6.0879 0.0000
# 2 40.6608 82.9721 20.3159 0.0000 14.3067 0.0000
# 3 9.1915 20.3159 98.3181 0.0000 18.6530 0.0000
# 4 0.0000 0.0000 0.0000 22.9188 0.0000 7.4611
# 5 6.0879 14.3067 18.6530 0.0000 17.3972 0.0000
# 6 0.0000 0.0000 0.0000 7.4611 0.0000 21.3885
#
#
#
# Elastic Compliance Matrix: (Units=1/GPa)
#
#
# Indices 1 2 3 4 5 6 
#
# 1 0.033156 -0.016597 -0.000073 0.000000 0.002124 0.000000
# 2 -0.016597 0.022414 -0.000860 0.000000 -0.011703 0.000000
# 3 -0.000073 -0.000860 0.012825 0.000000 -0.013019 0.000000
# 4 0.000000 0.000000 0.000000 0.049222 0.000000 -0.017170
# 5 0.002124 -0.011703 -0.013019 0.000000 0.080319 0.000000
# 6 0.000000 0.000000 0.000000 -0.017170 0.000000 0.052744
#
#
# Mechanical properties :
#
#
# Convention : Reuss Voigt Hill
#
# Bulk Modulus (GPa) = 29.99731 41.30783 35.65257
# Shear Modulus (GPa) = 16.84341 23.09194 19.96767
#
# Velocity S-wave (km/s) = 3.16706 3.70828 3.44830
# Velocity P-wave (km/s) = 5.58903 6.55241 6.08980
#
# Compressibility (1/GPa) = 0.03333632
#
# Stress axis : x y z
#
# Youngs Moduli (GPa) = 30.16031 44.61525 77.96972
#
# Poissons Ratio (x) = 0.74046 0.00571
# Poissons Ratio (y) = 0.50056 0.06703
# Poissons Ratio (z) = 0.00221 0.03835
#
# Static dielectric constant tensor:
#      x y z
#    x 3.025120 0.000000 -0.001290 
#    y 0.000000 3.137370 0.000000 
#    z -0.001290 0.000000 3.038140 
# 
# 
# High freq. dielectric constant tensor:
#      x y z
#    x 1.623100 0.000000 0.001000 
#    y 0.000000 1.656370 0.000000 
#    z 0.001000 0.000000 1.635240 
# 
# From -- ./inp_files/75515.got.cif
#   From: 2010.06.25/outbox.cif.g09.slc.cpg/sg12_38_cif.got.tgz:75515.got - 2010.06.28 00:19:55.
