data_PCOD8089183
_publ_section_title
;
Structure prediction by ZEFSAII (Michael W. Deem and Ramdas Pophale) SiO2 
 PCOD8089183
Probable space group: C 2/M
;
_chemical_formula_sum "Si O2"
_cell_formula_units_Z 64
_cell_length_a 24.027124
_cell_length_b 9.539015
_cell_length_c 30.532799
_cell_angle_alpha 90.000000
_cell_angle_beta 29.138945
_cell_angle_gamma 90.000000
_cell_volume 3407.514775
_symmetry_space_group_name_H-M "C 2/M"
_symmetry_group_IT_number 12
_symmetry_cell_setting 'monoclinic'
loop_
_space_group_symop_operation_xyz
x,y,z
-x,y,-z
-x,-y,-z
x,-y,z
1/2+x,1/2+y,z
1/2-x,1/2+y,-z
1/2-x,1/2-y,-z
1/2+x,1/2-y,z
loop_
_atom_site_type_symbol
_atom_site_label
_atom_site_fract_x
_atom_site_fract_y
_atom_site_fract_z
Si Si1 0.389828 0.342656 0.313322
Si Si2 0.823485 0.842257 0.012721
Si Si3 0.371186 0.658447 0.877876
Si Si4 0.035948 0.834966 0.925560
Si Si5 0.003262 0.164482 0.413039
Si Si6 0.245545 0.666991 0.740259
Si Si7 0.640105 0.657455 0.568948
Si Si8 0.212689 0.163123 0.387787
O O1 0.360971 0.500000 0.316589
O O2 0.501299 0.280390 0.213018
O O3 0.423626 0.344570 0.341005
O O4 0.282932 0.244679 0.376480
O O5 0.844147 0.833772 0.947226
O O6 0.932179 0.787410 0.965335
O O7 0.794394 0.000000 0.047827
O O8 0.713573 0.744395 0.095837
O O9 0.366740 0.500000 0.863307
O O10 0.147633 0.747844 0.834420
O O11 0.062545 0.000000 0.901904
O O12 0.000000 0.798714 0.000000
O O13 0.944162 0.223318 0.409528
O O14 0.921603 0.199247 0.511137
O O15 0.130921 0.226518 0.329195
O O16 0.021200 0.000000 0.397393
O O17 0.230488 0.500000 0.757610
O O18 0.242722 0.706102 0.690737
O O19 0.676238 0.500000 0.529714
O O20 0.750000 0.750000 0.500000
O O21 0.233056 0.000000 0.381903
#
# Coordination Sequence:
#
# PCOD8089183 Si02
#       8
#     8   8   8   8   8   8   8   8
#     4  10  20  32  50  78 109 141 178 217 262 315
#     4   9  18  34  54  74 101 136 172 212 261 316
#     4   9  18  32  51  77 106 134 168 216 266 309
#     4  10  22  40  59  78 107 144 177 216 273 331
#     4   9  18  34  54  77 110 146 179 221 269 312
#     4  10  21  36  57  84 107 136 183 229 266 313
#     4  10  19  33  52  73 102 140 177 212 255 306
#     4  10  19  33  55  80 109 145 182 220 265 316
#
# _framework density 18.782018000000001
#
# number of rings (size 3 to 8) (size 9 to 14) (size 15 to 20)
#    0.000    2.375    1.250    1.125    0.000    5.250 
#    0.000    5.000    0.000    1.500    0.000    0.000 
#    0.000    0.000    0.000    0.000    0.000    0.000 
#
# Total GULP energy -396606.296746 kJ/mol
# GULP energy per Si atom -12393.946773 kJ/mol
# Density = 1.873927 g / cm^3
# Si number density = 18.782018 Si / 1000 Ang^3
#
#
#
# Elastic Constant Matrix: (Units=GPa)
#
#
# Indices 1 2 3 4 5 6 
#
# 1 100.8727 41.7223 55.0993 0.0211 -16.1506 -0.0111
# 2 41.7223 54.0093 46.1694 0.0321 -10.1157 -0.0517
# 3 55.0993 46.1694 106.4728 0.0454 -16.5968 -0.1242
# 4 0.0211 0.0321 0.0454 28.3825 -0.0094 -4.2202
# 5 -16.1506 -10.1157 -16.5968 -0.0094 30.8620 0.0229
# 6 -0.0111 -0.0517 -0.1242 -4.2202 0.0229 25.7616
#
#
#
# Elastic Compliance Matrix: (Units=1/GPa)
#
#
# Indices 1 2 3 4 5 6 
#
# 1 0.016205 -0.008201 -0.004286 0.000000 0.003487 -0.000033
# 2 -0.008201 0.033835 -0.010225 -0.000014 0.001300 0.000012
# 3 -0.004286 -0.010225 0.016560 -0.000003 0.003311 0.000054
# 4 0.000000 -0.000014 -0.000003 0.036113 0.000001 0.005916
# 5 0.003487 0.001300 0.003311 0.000001 0.036434 -0.000012
# 6 -0.000033 0.000012 0.000054 0.005916 -0.000012 0.039787
#
#
# Mechanical properties :
#
#
# Convention : Reuss Voigt Hill
#
# Bulk Modulus (GPa) = 47.22500 60.81521 54.02011
# Shear Modulus (GPa) = 21.60595 24.89215 23.24905
#
# Velocity S-wave (km/s) = 3.39537 3.64444 3.52211
# Velocity P-wave (km/s) = 6.36943 7.08231 6.73531
#
# Compressibility (1/GPa) = 0.02117523
#
# Stress axis : x y z
#
# Youngs Moduli (GPa) = 61.70812 29.55513 60.38569
#
# Poissons Ratio (x) = 0.24239 0.25883
# Poissons Ratio (y) = 0.50609 0.61744
# Poissons Ratio (z) = 0.26450 0.30220
#
# Static dielectric constant tensor:
#      x y z
#    x 3.702000 -0.000100 -0.016230 
#    y -0.000100 3.338400 0.000050 
#    z -0.016230 0.000050 3.533400 
# 
# 
# High freq. dielectric constant tensor:
#      x y z
#    x 1.733840 -0.000010 -0.000770 
#    y -0.000010 1.706180 0.000000 
#    z -0.000770 0.000000 1.732880 
# 
# From -- ./inp_files/382265.got.cif
#   From: 2010.06.25/outbox.cif.g09.slc.cpg/sg12_192_cif.got.tgz:382265.got - 2010.06.28 00:19:55.
