data_PCOD8089468
_publ_section_title
;
Structure prediction by ZEFSAII (Michael W. Deem and Ramdas Pophale) SiO2 
 PCOD8089468
Probable space group: C 2/M
;
_chemical_formula_sum "Si O2"
_cell_formula_units_Z 64
_cell_length_a 20.547377
_cell_length_b 9.269868
_cell_length_c 19.542875
_cell_angle_alpha 90.000000
_cell_angle_beta 102.995494
_cell_angle_gamma 90.000000
_cell_volume 3627.022170
_symmetry_space_group_name_H-M "C 2/M"
_symmetry_group_IT_number 12
_symmetry_cell_setting 'monoclinic'
loop_
_space_group_symop_operation_xyz
x,y,z
-x,y,-z
-x,-y,-z
x,-y,z
1/2+x,1/2+y,z
1/2-x,1/2+y,-z
1/2-x,1/2-y,-z
1/2+x,1/2-y,z
loop_
_atom_site_type_symbol
_atom_site_label
_atom_site_fract_x
_atom_site_fract_y
_atom_site_fract_z
Si Si1 0.942831 0.170089 0.036533
Si Si2 0.670953 0.333284 0.675425
Si Si3 0.796887 0.831054 0.958678
Si Si4 0.558702 0.834408 0.461445
Si Si5 0.808197 0.832436 0.474978
Si Si6 0.783238 0.333755 0.189285
Si Si7 0.071944 0.335498 0.832622
Si Si8 0.459878 0.165301 0.323436
O O1 0.955298 0.235308 0.114029
O O2 0.946792 0.000000 0.045460
O O3 0.872446 0.220013 0.988259
O O4 0.000000 0.228924 0.000000
O O5 0.662655 0.500000 0.692338
O O6 0.703383 0.311904 0.608681
O O7 0.720223 0.261078 0.742783
O O8 0.597862 0.262826 0.657863
O O9 0.777511 0.793191 0.875702
O O10 0.787395 0.000000 0.970055
O O11 0.750000 0.750000 0.000000
O O12 0.500000 0.794416 0.500000
O O13 0.620560 0.729655 0.485871
O O14 0.529736 0.808550 0.378368
O O15 0.581768 0.000000 0.477335
O O16 0.750000 0.750000 0.500000
O O17 0.806332 0.000000 0.494884
O O18 0.780712 0.500000 0.211277
O O19 0.850993 0.299760 0.164283
O O20 0.063418 0.500000 0.854067
O O21 0.029198 0.301120 0.754191
O O22 0.435627 0.000000 0.326839
#
# Coordination Sequence:
#
# PCOD8089468 Si02
#       8
#     8   8   8   8   8   8   8   8
#     4  10  21  35  51  74 106 140 171 211 265 319
#     4  10  20  33  52  80 109 138 176 225 272 315
#     4  10  19  33  53  77 105 136 175 221 262 311
#     4  10  19  34  59  85 110 145 184 222 270 326
#     4  11  24  39  56  80 113 149 185 229 276 328
#     4   9  18  32  52  77 104 135 174 220 266 318
#     4   9  17  31  51  76 105 136 173 214 257 308
#     4   9  18  33  54  81 111 141 174 217 267 323
#
# _framework density 17.645329
#
# number of rings (size 3 to 8) (size 9 to 14) (size 15 to 20)
#    0.000    2.250    2.500    1.500    0.000    5.000 
#    0.000    1.250    0.000    3.000    0.000    0.000 
#    0.000    0.000    0.000    0.000    0.000    0.000 
#
# Total GULP energy -396826.178833 kJ/mol
# GULP energy per Si atom -12400.818089 kJ/mol
# Density = 1.760517 g / cm^3
# Si number density = 17.645329 Si / 1000 Ang^3
#
#
#
# Elastic Constant Matrix: (Units=GPa)
#
#
# Indices 1 2 3 4 5 6 
#
# 1 102.6480 55.9890 64.6202 0.0000 -1.1192 0.0000
# 2 55.9890 89.3841 63.1253 0.0000 -4.9332 0.0000
# 3 64.6202 63.1253 138.5784 0.0000 4.0246 0.0000
# 4 0.0000 0.0000 0.0000 33.0226 0.0000 -2.8340
# 5 -1.1192 -4.9332 4.0246 0.0000 24.3855 0.0000
# 6 0.0000 0.0000 0.0000 -2.8340 0.0000 23.5660
#
#
#
# Elastic Compliance Matrix: (Units=1/GPa)
#
#
# Indices 1 2 3 4 5 6 
#
# 1 0.016424 -0.007191 -0.004384 0.000000 0.000023 0.000000
# 2 -0.007191 0.020172 -0.005973 0.000000 0.004737 0.000000
# 3 -0.004384 -0.005973 0.012080 0.000000 -0.003403 0.000000
# 4 0.000000 0.000000 0.000000 0.030598 0.000000 0.003680
# 5 0.000023 0.004737 -0.003403 0.000000 0.042529 0.000000
# 6 0.000000 0.000000 0.000000 0.003680 0.000000 0.042876
#
#
# Mechanical properties :
#
#
# Convention : Reuss Voigt Hill
#
# Bulk Modulus (GPa) = 73.63441 77.56439 75.59940
# Shear Modulus (GPa) = 24.47367 25.98658 25.23012
#
# Velocity S-wave (km/s) = 3.72825 3.84176 3.78543
# Velocity P-wave (km/s) = 7.76879 7.98322 7.87673
#
# Compressibility (1/GPa) = 0.01358061
#
# Stress axis : x y z
#
# Youngs Moduli (GPa) = 60.88581 49.57485 82.78102
#
# Poissons Ratio (x) = 0.35647 0.36290
# Poissons Ratio (y) = 0.43781 0.49446
# Poissons Ratio (z) = 0.26692 0.29611
#
# Static dielectric constant tensor:
#      x y z
#    x 3.175600 0.000000 0.221590 
#    y 0.000000 3.262150 0.000000 
#    z 0.221590 0.000000 3.593840 
# 
# 
# High freq. dielectric constant tensor:
#      x y z
#    x 1.651960 0.000000 0.010780 
#    y 0.000000 1.682390 0.000000 
#    z 0.010780 0.000000 1.697800 
# 
# From -- ./inp_files/319200.got.cif
#   From: 2010.06.25/outbox.cif.g09.slc.cpg/sg12_160_cif.got.tgz:319200.got - 2010.06.28 00:19:55.
