data_PCOD8089250
_publ_section_title
;
Structure prediction by ZEFSAII (Michael W. Deem and Ramdas Pophale) SiO2 
 PCOD8089250
Probable space group: C 2/M
;
_chemical_formula_sum "Si O2"
_cell_formula_units_Z 56
_cell_length_a 14.915306
_cell_length_b 12.326826
_cell_length_c 17.606971
_cell_angle_alpha 90.000000
_cell_angle_beta 113.062573
_cell_angle_gamma 90.000000
_cell_volume 2978.465219
_symmetry_space_group_name_H-M "C 2/M"
_symmetry_group_IT_number 12
_symmetry_cell_setting 'monoclinic'
loop_
_space_group_symop_operation_xyz
x,y,z
-x,y,-z
-x,-y,-z
x,-y,z
1/2+x,1/2+y,z
1/2-x,1/2+y,-z
1/2-x,1/2-y,-z
1/2+x,1/2-y,z
loop_
_atom_site_type_symbol
_atom_site_label
_atom_site_fract_x
_atom_site_fract_y
_atom_site_fract_z
Si Si1 0.538663 0.262907 0.351498
Si Si2 0.164510 0.220357 0.527636
Si Si3 0.416018 0.374306 0.190275
Si Si4 0.694611 0.879795 0.322352
Si Si5 0.259936 0.243942 0.802264
Si Si6 0.130071 0.626750 0.648720
Si Si7 0.946589 0.874752 0.903325
O O1 0.574570 0.315648 0.443458
O O2 0.481942 0.356323 0.287123
O O3 0.625956 0.215224 0.330528
O O4 0.470031 0.160727 0.344917
O O5 0.250000 0.250000 0.500000
O O6 0.200960 0.127860 0.598617
O O7 0.134893 0.326282 0.565428
O O8 0.385446 0.500000 0.175208
O O9 0.319520 0.298294 0.162550
O O10 0.478763 0.338806 0.138021
O O11 0.709374 0.860663 0.237538
O O12 0.651408 0.000000 0.319758
O O13 0.218834 0.333017 0.730270
O O14 0.351805 0.297934 0.874391
O O15 0.136652 0.500000 0.643080
O O16 0.914804 0.000000 0.881507
O O17 0.000000 0.857231 0.000000
#
# Coordination Sequence:
#
# PCOD8089250 Si02
#       7
#     8   8   8   8   8   8   8
#     4  10  19  34  52  79 109 144 191 237 274 331
#     4   9  20  32  44  72 107 143 190 232 277 329
#     4  10  21  37  60  86 114 153 189 226 286 342
#     4  10  19  33  52  75 109 151 186 230 282 328
#     4  10  20  37  57  84 117 147 187 231 278 340
#     4  10  20  33  53  77 107 145 187 236 283 324
#     4  10  21  39  64  90 114 145 186 231 283 343
#
# _framework density 18.801628999999998
#
# number of rings (size 3 to 8) (size 9 to 14) (size 15 to 20)
#    0.000    2.143    1.429    1.714    0.000    4.571 
#    0.000    0.000    0.000    6.857    0.000    0.000 
#    0.000    0.000    0.000    0.000    0.000    0.000 
#
# Total GULP energy -347096.713413 kJ/mol
# GULP energy per Si atom -12396.311193 kJ/mol
# Density = 1.875884 g / cm^3
# Si number density = 18.801629 Si / 1000 Ang^3
#
#
#
# Elastic Constant Matrix: (Units=GPa)
#
#
# Indices 1 2 3 4 5 6 
#
# 1 99.9597 41.4313 46.3981 0.0000 0.9502 0.0000
# 2 41.4313 67.1569 29.5772 0.0000 1.0397 0.0000
# 3 46.3981 29.5772 99.4917 0.0000 3.8957 0.0000
# 4 0.0000 0.0000 0.0000 15.9671 0.0000 -1.0113
# 5 0.9502 1.0397 3.8957 0.0000 24.5098 0.0000
# 6 0.0000 0.0000 0.0000 -1.0113 0.0000 25.7996
#
#
#
# Elastic Compliance Matrix: (Units=1/GPa)
#
#
# Indices 1 2 3 4 5 6 
#
# 1 0.015336 -0.007261 -0.005013 0.000000 0.000510 0.000000
# 2 -0.007261 0.020572 -0.002723 0.000000 -0.000158 0.000000
# 3 -0.005013 -0.002723 0.013269 0.000000 -0.001799 0.000000
# 4 0.000000 0.000000 0.000000 0.062785 0.000000 0.002461
# 5 0.000510 -0.000158 -0.001799 0.000000 0.041073 0.000000
# 6 0.000000 0.000000 0.000000 0.002461 0.000000 0.038857
#
#
# Mechanical properties :
#
#
# Convention : Reuss Voigt Hill
#
# Bulk Modulus (GPa) = 52.13343 55.71349 53.92346
# Shear Modulus (GPa) = 21.90290 23.20207 22.55249
#
# Velocity S-wave (km/s) = 3.41684 3.51671 3.46713
# Velocity P-wave (km/s) = 6.58443 6.79605 6.69107
#
# Compressibility (1/GPa) = 0.01918155
#
# Stress axis : x y z
#
# Youngs Moduli (GPa) = 65.20714 48.60985 75.36343
#
# Poissons Ratio (x) = 0.35296 0.37781
# Poissons Ratio (y) = 0.47348 0.20523
# Poissons Ratio (z) = 0.32690 0.13238
#
# Static dielectric constant tensor:
#      x y z
#    x 3.670030 0.000000 0.044180 
#    y 0.000000 3.145720 0.000000 
#    z 0.044180 0.000000 3.534230 
# 
# 
# High freq. dielectric constant tensor:
#      x y z
#    x 1.742550 0.000000 -0.003080 
#    y 0.000000 1.708390 0.000000 
#    z -0.003080 0.000000 1.720160 
# 
# From -- ./inp_files/268626.got.cif
#   From: 2010.06.25/outbox.cif.g09.slc.cpg/sg12_135_cif.got.tgz:268626.got - 2010.06.28 00:19:55.
