data_PCOD8089947
_publ_section_title
;
Structure prediction by ZEFSAII (Michael W. Deem and Ramdas Pophale) SiO2 
 PCOD8089947
Probable space group: C 2/M
;
_chemical_formula_sum "Si O2"
_cell_formula_units_Z 56
_cell_length_a 18.383467
_cell_length_b 9.014118
_cell_length_c 26.437688
_cell_angle_alpha 90.000000
_cell_angle_beta 137.415721
_cell_angle_gamma 90.000000
_cell_volume 2964.514667
_symmetry_space_group_name_H-M "C 2/M"
_symmetry_group_IT_number 12
_symmetry_cell_setting 'monoclinic'
loop_
_space_group_symop_operation_xyz
x,y,z
-x,y,-z
-x,-y,-z
x,-y,z
1/2+x,1/2+y,z
1/2-x,1/2+y,-z
1/2-x,1/2-y,-z
1/2+x,1/2-y,z
loop_
_atom_site_type_symbol
_atom_site_label
_atom_site_fract_x
_atom_site_fract_y
_atom_site_fract_z
Si Si1 0.406229 0.323760 0.727491
Si Si2 0.168460 0.324450 0.591381
Si Si3 0.898547 0.667085 0.984682
Si Si4 0.767941 0.827909 0.838449
Si Si5 0.530889 0.671768 0.130430
Si Si6 0.987760 0.324433 0.575336
Si Si7 0.546854 0.324048 0.705176
O O1 0.396826 0.500000 0.724238
O O2 0.287487 0.255136 0.657267
O O3 0.452689 0.266226 0.804612
O O4 0.485335 0.270311 0.723934
O O5 0.173413 0.500000 0.595731
O O6 0.095115 0.272051 0.600729
O O7 0.115526 0.277399 0.510940
O O8 0.858258 0.500000 0.973532
O O9 0.802073 0.759223 0.909902
O O10 0.000000 0.670988 0.000000
O O11 0.931832 0.739465 0.055009
O O12 0.859561 0.802113 0.843907
O O13 0.664171 0.746333 0.764089
O O14 0.742714 0.000000 0.833582
O O15 0.498542 0.500000 0.113413
O O16 0.990037 0.500000 0.587175
O O17 0.979307 0.235155 0.623068
O O18 0.556233 0.500000 0.707511
#
# Coordination Sequence:
#
# PCOD8089947 Si02
#       7
#     8   8   8   8   8   8   8
#     4   9  18  32  49  71 101 135 168 203 245 294
#     4   8  15  31  55  78  97 125 169 212 246 286
#     4   9  17  30  50  78 108 130 154 199 258 306
#     4  10  19  33  55  77  97 127 171 214 245 285
#     4   9  17  32  55  77  96 126 171 212 243 285
#     4   9  17  32  56  79  97 124 167 213 249 289
#     4  11  22  33  47  71 105 138 164 198 251 305
#
# _framework density 18.890107
#
# number of rings (size 3 to 8) (size 9 to 14) (size 15 to 20)
#    0.000    2.714    0.000    3.000    0.000    5.143 
#    0.000    3.571    0.000    3.429    0.000    0.000 
#    0.000    0.000    0.000    0.000    0.000    0.000 
#
# Total GULP energy -347188.047893 kJ/mol
# GULP energy per Si atom -12399.573139 kJ/mol
# Density = 1.884711 g / cm^3
# Si number density = 18.890107 Si / 1000 Ang^3
#
#
#
# Elastic Constant Matrix: (Units=GPa)
#
#
# Indices 1 2 3 4 5 6 
#
# 1 68.7664 34.0600 46.8152 0.0000 -28.5842 0.0000
# 2 34.0600 70.1416 39.7370 0.0000 -13.7399 0.0000
# 3 46.8152 39.7370 119.0443 0.0000 -38.3215 0.0000
# 4 0.0000 0.0000 0.0000 27.9678 0.0000 -5.3908
# 5 -28.5842 -13.7399 -38.3215 0.0000 27.0096 0.0000
# 6 0.0000 0.0000 0.0000 -5.3908 0.0000 18.1819
#
#
#
# Elastic Compliance Matrix: (Units=1/GPa)
#
#
# Indices 1 2 3 4 5 6 
#
# 1 0.030785 -0.009515 -0.000002 0.000000 0.027738 0.000000
# 2 -0.009515 0.020541 -0.005508 0.000000 -0.007435 0.000000
# 3 -0.000002 -0.005508 0.017187 0.000000 0.021581 0.000000
# 4 0.000000 0.000000 0.000000 0.037923 0.000000 0.011244
# 5 0.027738 -0.007435 0.021581 0.000000 0.093215 0.000000
# 6 0.000000 0.000000 0.000000 0.011244 0.000000 0.058334
#
#
# Mechanical properties :
#
#
# Convention : Reuss Voigt Hill
#
# Bulk Modulus (GPa) = 25.99845 55.46408 40.73126
# Shear Modulus (GPa) = 16.61929 23.78787 20.20358
#
# Velocity S-wave (km/s) = 2.96934 3.55248 3.27392
# Velocity P-wave (km/s) = 5.05459 6.80088 5.99170
#
# Compressibility (1/GPa) = 0.03846384
#
# Stress axis : x y z
#
# Youngs Moduli (GPa) = 32.48294 48.68254 58.18486
#
# Poissons Ratio (x) = 0.46320 0.00009
# Poissons Ratio (y) = 0.30906 0.32051
# Poissons Ratio (z) = 0.00005 0.26817
#
# Static dielectric constant tensor:
#      x y z
#    x 3.333520 0.000000 -0.059520 
#    y 0.000000 3.214870 0.000000 
#    z -0.059520 0.000000 3.752130 
# 
# 
# High freq. dielectric constant tensor:
#      x y z
#    x 1.712140 0.000000 -0.009900 
#    y 0.000000 1.706030 0.000000 
#    z -0.009900 0.000000 1.751140 
# 
# From -- ./inp_files/363240.got.cif
#   From: 2010.06.25/outbox.cif.g09.slc.cpg/sg12_182_cif.got.tgz:363240.got - 2010.06.28 00:19:55.
