data_PCOD8089849
_publ_section_title
;
Structure prediction by ZEFSAII (Michael W. Deem and Ramdas Pophale) SiO2 
 PCOD8089849
Probable space group: C 2/M
;
_chemical_formula_sum "Si O2"
_cell_formula_units_Z 32
_cell_length_a 17.313750
_cell_length_b 13.688159
_cell_length_c 11.481105
_cell_angle_alpha 90.000000
_cell_angle_beta 34.511135
_cell_angle_gamma 90.000000
_cell_volume 1541.596370
_symmetry_space_group_name_H-M "C 2/M"
_symmetry_group_IT_number 12
_symmetry_cell_setting 'monoclinic'
loop_
_space_group_symop_operation_xyz
x,y,z
-x,y,-z
-x,-y,-z
x,-y,z
1/2+x,1/2+y,z
1/2-x,1/2+y,-z
1/2-x,1/2-y,-z
1/2+x,1/2-y,z
loop_
_atom_site_type_symbol
_atom_site_label
_atom_site_fract_x
_atom_site_fract_y
_atom_site_fract_z
Si Si1 0.853414 0.246995 0.696071
Si Si2 0.407201 0.202789 0.880571
Si Si3 0.032663 0.110597 0.825247
Si Si4 0.331986 0.888949 0.504792
O O1 0.858270 0.311080 0.808463
O O2 0.833038 0.319910 0.615192
O O3 0.000000 0.190968 0.500000
O O4 0.720440 0.176166 0.874483
O O5 0.448604 0.316224 0.848763
O O6 0.538592 0.134240 0.740217
O O7 0.194110 0.127932 0.602622
O O8 0.990613 0.000000 0.844357
O O9 0.000000 0.132202 0.000000
O O10 0.338902 0.000000 0.540675
#
# Coordination Sequence:
#
# PCOD8089849 Si02
#       4
#     8   8   8   8
#     4   9  19  33  51  78 111 142 178 217 267 320
#     4  10  19  33  54  81 112 144 175 223 276 317
#     4  10  19  33  56  84 108 139 183 226 268 318
#     4  10  20  35  58  86 110 137 181 228 269 320
#
# _framework density 20.757702999999999
#
# number of rings (size 3 to 8) (size 9 to 14) (size 15 to 20)
#    0.000    2.250    2.500    0.750    0.000    4.500 
#    0.000    6.250    0.000   14.250    0.000    0.000 
#    0.000    0.000    0.000    0.000    0.000    0.000 
#
# Total GULP energy -198227.646508 kJ/mol
# GULP energy per Si atom -12389.227907 kJ/mol
# Density = 2.071046 g / cm^3
# Si number density = 20.757703 Si / 1000 Ang^3
#
#
#
# Elastic Constant Matrix: (Units=GPa)
#
#
# Indices 1 2 3 4 5 6 
#
# 1 47.3734 20.2068 12.4677 0.0000 -9.0293 0.0000
# 2 20.2068 31.5371 10.3178 0.0000 -2.6489 0.0000
# 3 12.4677 10.3178 186.5592 0.0000 -32.8251 0.0000
# 4 0.0000 0.0000 0.0000 23.1166 0.0000 -0.3444
# 5 -9.0293 -2.6489 -32.8251 0.0000 29.5949 0.0000
# 6 0.0000 0.0000 0.0000 -0.3444 0.0000 12.7746
#
#
#
# Elastic Compliance Matrix: (Units=1/GPa)
#
#
# Indices 1 2 3 4 5 6 
#
# 1 0.030707 -0.019135 0.000439 0.000000 0.008143 0.000000
# 2 -0.019135 0.044247 -0.001862 0.000000 -0.003943 0.000000
# 3 0.000439 -0.001862 0.006744 0.000000 0.007448 0.000000
# 4 0.000000 0.000000 0.000000 0.043276 0.000000 0.001167
# 5 0.008143 -0.003943 0.007448 0.000000 0.044182 0.000000
# 6 0.000000 0.000000 0.000000 0.001167 0.000000 0.078311
#
#
# Mechanical properties :
#
#
# Convention : Reuss Voigt Hill
#
# Bulk Modulus (GPa) = 24.64118 39.05047 31.84583
# Shear Modulus (GPa) = 16.55020 27.92906 22.23963
#
# Velocity S-wave (km/s) = 2.82672 3.67206 3.27676
# Velocity P-wave (km/s) = 4.74873 6.06894 5.44897
#
# Compressibility (1/GPa) = 0.04058247
#
# Stress axis : x y z
#
# Youngs Moduli (GPa) = 32.56572 22.60045 148.27335
#
# Poissons Ratio (x) = 0.43245 -0.06507
# Poissons Ratio (y) = 0.62313 0.27610
# Poissons Ratio (z) = -0.01429 0.04208
#
# Static dielectric constant tensor:
#      x y z
#    x 3.599490 0.000000 -0.469130 
#    y 0.000000 3.355400 0.000000 
#    z -0.469130 0.000000 4.816640 
# 
# 
# High freq. dielectric constant tensor:
#      x y z
#    x 1.797660 0.000000 -0.028400 
#    y 0.000000 1.755970 0.000000 
#    z -0.028400 0.000000 1.845090 
# 
# From -- ./inp_files/58234.got.cif
#   From: 2010.06.25/outbox.cif.g09.slc.cpg/sg12_30_cif.got.tgz:58234.got - 2010.06.28 00:19:55.
