data_PCOD8089133
_publ_section_title
;
Structure prediction by ZEFSAII (Michael W. Deem and Ramdas Pophale) SiO2 
 PCOD8089133
Probable space group: C 2/M
;
_chemical_formula_sum "Si O2"
_cell_formula_units_Z 60
_cell_length_a 12.002395
_cell_length_b 24.380769
_cell_length_c 12.291689
_cell_angle_alpha 90.000000
_cell_angle_beta 67.957776
_cell_angle_gamma 90.000000
_cell_volume 3333.982317
_symmetry_space_group_name_H-M "C 2/M"
_symmetry_group_IT_number 12
_symmetry_cell_setting 'monoclinic'
loop_
_space_group_symop_operation_xyz
x,y,z
-x,y,-z
-x,-y,-z
x,-y,z
1/2+x,1/2+y,z
1/2-x,1/2+y,-z
1/2-x,1/2-y,-z
1/2+x,1/2-y,z
loop_
_atom_site_type_symbol
_atom_site_label
_atom_site_fract_x
_atom_site_fract_y
_atom_site_fract_z
Si Si1 0.212631 0.936378 0.666812
Si Si2 0.105398 0.400559 0.220754
Si Si3 0.000000 0.794418 0.500000
Si Si4 0.217621 0.436544 0.966503
Si Si5 0.010886 0.936197 0.116041
Si Si6 0.482848 0.189625 0.388294
Si Si7 0.647566 0.938124 0.758816
Si Si8 0.262521 0.637236 0.553635
O O1 0.318792 0.931676 0.715730
O O2 0.240965 0.899195 0.553179
O O3 0.089259 0.912545 0.764941
O O4 0.201397 0.000000 0.634952
O O5 0.073317 0.338336 0.268793
O O6 0.981611 0.433386 0.250375
O O7 0.177695 0.398265 0.081074
O O8 0.986236 0.754583 0.611453
O O9 0.886463 0.832225 0.524286
O O10 0.198444 0.500000 0.008581
O O11 0.356605 0.425224 0.885835
O O12 0.139599 0.421123 0.888984
O O13 0.980506 0.000000 0.115563
O O14 0.000000 0.909041 0.000000
O O15 0.500000 0.160498 0.500000
O O16 0.343887 0.182051 0.406023
O O17 0.746985 0.902004 0.662649
O O18 0.694316 0.000000 0.734713
#
# Coordination Sequence:
#
# PCOD8089133 Si02
#       8
#     8   8   4   8   8   8   8   8
#     4  11  20  31  51  82 116 146 178 221 264 319
#     4  11  19  33  57  81 106 145 190 219 273 322
#     4  10  22  40  61  76 105 142 180 230 284 332
#     4  10  19  33  51  75 113 155 185 212 255 320
#     4   9  17  29  46  71 106 149 188 216 248 301
#     4   9  20  38  57  82 103 127 178 241 277 314
#     4  10  22  35  50  81 121 152 179 214 256 324
#     4  11  22  37  57  84 108 141 183 217 278 332
#
# _framework density 17.996496
#
# number of rings (size 3 to 8) (size 9 to 14) (size 15 to 20)
#    0.400    1.467    2.667    2.400    1.867    1.067 
#    0.000    2.667    0.000    0.800    0.000    1.867 
#    0.000    0.000    0.000    0.000    0.000    0.000 
#
# Total GULP energy -371904.636368 kJ/mol
# GULP energy per Si atom -12396.821212 kJ/mol
# Density = 1.795554 g / cm^3
# Si number density = 17.996496 Si / 1000 Ang^3
#
#
#
# Elastic Constant Matrix: (Units=GPa)
#
#
# Indices 1 2 3 4 5 6 
#
# 1 96.7453 43.6499 43.0706 0.0000 1.1279 0.0000
# 2 43.6499 72.8688 46.4806 0.0000 5.2782 0.0000
# 3 43.0706 46.4806 104.1569 0.0000 5.3814 0.0000
# 4 0.0000 0.0000 0.0000 15.0772 0.0000 -0.8883
# 5 1.1279 5.2782 5.3814 0.0000 25.8378 0.0000
# 6 0.0000 0.0000 0.0000 -0.8883 0.0000 7.7407
#
#
#
# Elastic Compliance Matrix: (Units=1/GPa)
#
#
# Indices 1 2 3 4 5 6 
#
# 1 0.014870 -0.007048 -0.003078 0.000000 0.001432 0.000000
# 2 -0.007048 0.022644 -0.007044 0.000000 -0.002851 0.000000
# 3 -0.003078 -0.007044 0.014087 0.000000 -0.001361 0.000000
# 4 0.000000 0.000000 0.000000 0.066777 0.000000 0.007663
# 5 0.001432 -0.002851 -0.001361 0.000000 0.039506 0.000000
# 6 0.000000 0.000000 0.000000 0.007663 0.000000 0.130067
#
#
# Mechanical properties :
#
#
# Convention : Reuss Voigt Hill
#
# Bulk Modulus (GPa) = 57.92671 60.01926 58.97298
# Shear Modulus (GPa) = 15.24185 19.10247 17.17216
#
# Velocity S-wave (km/s) = 2.91337 3.26153 3.09236
# Velocity P-wave (km/s) = 6.60111 6.89974 6.75207
#
# Compressibility (1/GPa) = 0.01726319
#
# Stress axis : x y z
#
# Youngs Moduli (GPa) = 67.25057 44.16102 70.98692
#
# Poissons Ratio (x) = 0.31124 0.21848
# Poissons Ratio (y) = 0.47397 0.50000
# Poissons Ratio (z) = 0.20698 0.31105
#
# Static dielectric constant tensor:
#      x y z
#    x 3.413420 0.000000 0.008160 
#    y 0.000000 3.009410 0.000000 
#    z 0.008160 0.000000 3.387750 
# 
# 
# High freq. dielectric constant tensor:
#      x y z
#    x 1.712510 0.000000 -0.000520 
#    y 0.000000 1.654780 0.000000 
#    z -0.000520 0.000000 1.694430 
# 
# From -- ./inp_files/136982.got.cif
#   From: 2010.06.25/outbox.cif.g09.slc.cpg/sg12_69_cif.got.tgz:136982.got - 2010.06.28 00:19:55.
