data_PCOD8089585
_publ_section_title
;
Structure prediction by ZEFSAII (Michael W. Deem and Ramdas Pophale) SiO2 
 PCOD8089585
Probable space group: C 2/M
;
_chemical_formula_sum "Si O2"
_cell_formula_units_Z 48
_cell_length_a 15.458060
_cell_length_b 15.565045
_cell_length_c 9.222710
_cell_angle_alpha 90.000000
_cell_angle_beta 104.726510
_cell_angle_gamma 90.000000
_cell_volume 2146.139093
_symmetry_space_group_name_H-M "C 2/M"
_symmetry_group_IT_number 12
_symmetry_cell_setting 'monoclinic'
loop_
_space_group_symop_operation_xyz
x,y,z
-x,y,-z
-x,-y,-z
x,-y,z
1/2+x,1/2+y,z
1/2-x,1/2+y,-z
1/2-x,1/2-y,-z
1/2+x,1/2-y,z
loop_
_atom_site_type_symbol
_atom_site_label
_atom_site_fract_x
_atom_site_fract_y
_atom_site_fract_z
Si Si1 0.148536 0.500000 0.337425
Si Si2 0.372596 0.352739 0.826303
Si Si3 0.596710 0.500000 0.612353
Si Si4 0.782711 0.000000 0.619027
Si Si5 0.074569 0.853478 0.824285
Si Si6 0.577790 0.837241 0.834566
Si Si7 0.128464 0.338146 0.168485
Si Si8 0.455180 0.000000 0.328184
O O1 0.177610 0.500000 0.522138
O O2 0.184083 0.411913 0.277012
O O3 0.042433 0.500000 0.260908
O O4 0.302750 0.416694 0.722469
O O5 0.467963 0.365820 0.789811
O O6 0.332732 0.257163 0.784504
O O7 0.381391 0.373053 0.000798
O O8 0.500000 0.500000 0.500000
O O9 0.669790 0.500000 0.517358
O O10 0.611984 0.416799 0.718801
O O11 0.101906 0.757305 0.784175
O O12 0.474135 0.833585 0.829113
O O13 0.600176 0.912655 0.728133
O O14 0.636234 0.858575 0.001209
O O15 0.500000 0.000000 0.500000
#
# Coordination Sequence:
#
# PCOD8089585 Si02
#       8
#     4   8   4   4   8   8   8   4
#     4  10  21  35  51  75 109 134 165 203 255 310
#     4   9  17  32  55  77  97 135 179 209 253 296
#     4  12  21  31  48  77 108 138 171 210 265 289
#     4  12  23  33  49  76 108 145 169 204 253 311
#     4   9  17  32  53  78 102 129 173 223 249 294
#     4   8  15  29  55  81  97 122 167 217 258 289
#     4   8  15  31  55  77  96 127 171 213 248 299
#     4  10  19  33  53  82 105 130 162 206 264 310
#
# _framework density 22.365746000000001
#
# number of rings (size 3 to 8) (size 9 to 14) (size 15 to 20)
#    0.000    2.667    1.667    3.000    0.000    4.667 
#    3.000    0.000    7.333    2.000    0.000    0.000 
#    0.000    0.000    0.000    0.000    0.000    0.000 
#
# Total GULP energy -297428.628322 kJ/mol
# GULP energy per Si atom -12392.859513 kJ/mol
# Density = 2.231484 g / cm^3
# Si number density = 22.365746 Si / 1000 Ang^3
#
#
#
# Elastic Constant Matrix: (Units=GPa)
#
#
# Indices 1 2 3 4 5 6 
#
# 1 19.4135 -1.0002 -3.1191 0.0000 7.3796 0.0000
# 2 -1.0002 212.7068 100.3596 0.0000 12.4467 0.0000
# 3 -3.1191 100.3596 114.5999 0.0000 13.0815 0.0000
# 4 0.0000 0.0000 0.0000 27.3227 0.0000 1.9901
# 5 7.3796 12.4467 13.0815 0.0000 28.9535 0.0000
# 6 0.0000 0.0000 0.0000 1.9901 0.0000 2.5403
#
#
#
# Elastic Compliance Matrix: (Units=1/GPa)
#
#
# Indices 1 2 3 4 5 6 
#
# 1 0.058369 -0.000679 0.004058 0.000000 -0.016418 0.000000
# 2 -0.000679 0.008022 -0.007032 0.000000 -0.000098 0.000000
# 3 0.004058 -0.007032 0.015571 0.000000 -0.005046 0.000000
# 4 0.000000 0.000000 0.000000 0.038814 0.000000 -0.030409
# 5 -0.016418 -0.000098 -0.005046 0.000000 0.041045 0.000000
# 6 0.000000 0.000000 0.000000 -0.030409 0.000000 0.417481
#
#
# Mechanical properties :
#
#
# Convention : Reuss Voigt Hill
#
# Bulk Modulus (GPa) = 13.39523 59.91117 36.65320
# Shear Modulus (GPa) = 8.17669 28.46195 18.31932
#
# Velocity S-wave (km/s) = 1.91411 3.57118 2.86506
# Velocity P-wave (km/s) = 3.29959 6.62190 5.23149
#
# Compressibility (1/GPa) = 0.07465343
#
# Stress axis : x y z
#
# Youngs Moduli (GPa) = 17.13251 124.65928 64.22201
#
# Poissons Ratio (x) = 0.08468 -0.26059
# Poissons Ratio (y) = 0.01164 0.45163
# Poissons Ratio (z) = -0.06952 0.87665
#
# Static dielectric constant tensor:
#      x y z
#    x 4.501850 0.000000 0.164680 
#    y 0.000000 4.586550 0.000000 
#    z 0.164680 0.000000 3.963290 
# 
# 
# High freq. dielectric constant tensor:
#      x y z
#    x 1.843160 0.000000 0.003440 
#    y 0.000000 1.899000 0.000000 
#    z 0.003440 0.000000 1.874510 
# 
# From -- ./inp_files/86015.got.cif
#   From: 2010.06.25/outbox.cif.g09.slc.cpg/sg12_44_cif.got.tgz:86015.got - 2010.06.28 00:19:55.
