data_PCOD8089451
_publ_section_title
;
Structure prediction by ZEFSAII (Michael W. Deem and Ramdas Pophale) SiO2 
 PCOD8089451
Probable space group: C 2/M
;
_chemical_formula_sum "Si O2"
_cell_formula_units_Z 64
_cell_length_a 14.194253
_cell_length_b 8.860116
_cell_length_c 28.334248
_cell_angle_alpha 90.000000
_cell_angle_beta 88.221097
_cell_angle_gamma 90.000000
_cell_volume 3561.674981
_symmetry_space_group_name_H-M "C 2/M"
_symmetry_group_IT_number 12
_symmetry_cell_setting 'monoclinic'
loop_
_space_group_symop_operation_xyz
x,y,z
-x,y,-z
-x,-y,-z
x,-y,z
1/2+x,1/2+y,z
1/2-x,1/2+y,-z
1/2-x,1/2-y,-z
1/2+x,1/2-y,z
loop_
_atom_site_type_symbol
_atom_site_label
_atom_site_fract_x
_atom_site_fract_y
_atom_site_fract_z
Si Si1 0.099561 0.678123 0.382515
Si Si2 0.884123 0.680202 0.124372
Si Si3 0.251987 0.679000 0.051100
Si Si4 0.388251 0.822666 0.370523
Si Si5 0.754787 0.320887 0.802921
Si Si6 0.236361 0.822248 0.449738
Si Si7 0.751872 0.823154 0.304250
Si Si8 0.095008 0.677141 0.125544
O O1 0.101671 0.500000 0.391497
O O2 0.140911 0.758819 0.428088
O O3 0.160150 0.724703 0.335690
O O4 0.993794 0.738358 0.376542
O O5 0.879236 0.500000 0.121146
O O6 0.838809 0.751521 0.078454
O O7 0.833614 0.736420 0.172613
O O8 0.990556 0.745676 0.124994
O O9 0.264752 0.500000 0.048096
O O10 0.154651 0.724415 0.078519
O O11 0.250000 0.750000 0.000000
O O12 0.325626 0.775025 0.416411
O O13 0.345824 0.751929 0.323664
O O14 0.388902 0.000000 0.363140
O O15 0.739384 0.500000 0.808364
O O16 0.763676 0.267909 0.748839
O O17 0.849973 0.268656 0.828264
O O18 0.250000 0.750000 0.500000
O O19 0.227446 0.000000 0.455183
O O20 0.767690 0.000000 0.306077
O O21 0.084160 0.500000 0.127723
#
# Coordination Sequence:
#
# PCOD8089451 Si02
#       8
#     8   8   8   8   8   8   8   8
#     4   9  18  34  53  73  97 130 167 203 242 293
#     4  10  19  33  53  76  98 129 170 207 241 287
#     4  10  20  36  54  74 101 132 163 202 247 294
#     4   9  19  34  52  73  99 128 163 205 247 287
#     4   9  18  34  51  72 102 134 163 199 246 293
#     4  10  20  34  51  73 100 130 162 203 248 293
#     4   9  18  32  52  74  99 130 165 201 243 293
#     4   8  17  33  52  71  98 133 166 198 240 292
#
# _framework density 17.969073999999999
#
# number of rings (size 3 to 8) (size 9 to 14) (size 15 to 20)
#    0.000    2.750    0.000    1.875    0.000    3.500 
#    0.000   13.750    0.000    0.000    0.000    0.000 
#    0.000    0.000    0.000    0.000    0.000    0.000 
#
# Total GULP energy -396793.936145 kJ/mol
# GULP energy per Si atom -12399.810505 kJ/mol
# Density = 1.792818 g / cm^3
# Si number density = 17.969074 Si / 1000 Ang^3
#
#
#
# Elastic Constant Matrix: (Units=GPa)
#
#
# Indices 1 2 3 4 5 6 
#
# 1 164.9598 38.4351 77.6381 0.0000 18.3964 0.0000
# 2 38.4351 46.5886 46.4008 0.0000 5.7420 0.0000
# 3 77.6381 46.4008 165.7472 0.0000 8.0734 0.0000
# 4 0.0000 0.0000 0.0000 32.4990 0.0000 2.2864
# 5 18.3964 5.7420 8.0734 0.0000 15.5014 0.0000
# 6 0.0000 0.0000 0.0000 2.2864 0.0000 26.6230
#
#
#
# Elastic Compliance Matrix: (Units=1/GPa)
#
#
# Indices 1 2 3 4 5 6 
#
# 1 0.009171 -0.003728 -0.002862 0.000000 -0.008013 0.000000
# 2 -0.003728 0.032007 -0.007030 0.000000 -0.003770 0.000000
# 3 -0.002862 -0.007030 0.009285 0.000000 0.001165 0.000000
# 4 0.000000 0.000000 0.000000 0.030957 0.000000 -0.002659
# 5 -0.008013 -0.003770 0.001165 0.000000 0.074809 0.000000
# 6 0.000000 0.000000 0.000000 -0.002659 0.000000 0.037790
#
#
# Mechanical properties :
#
#
# Convention : Reuss Voigt Hill
#
# Bulk Modulus (GPa) = 43.06198 78.02707 60.54453
# Shear Modulus (GPa) = 21.83393 29.24610 25.54002
#
# Velocity S-wave (km/s) = 3.48959 4.03870 3.77415
# Velocity P-wave (km/s) = 6.34451 8.07870 7.26355
#
# Compressibility (1/GPa) = 0.02322234
#
# Stress axis : x y z
#
# Youngs Moduli (GPa) = 109.03592 31.24336 107.69768
#
# Poissons Ratio (x) = 0.11648 0.30822
# Poissons Ratio (y) = 0.40652 0.75715
# Poissons Ratio (z) = 0.31205 0.21965
#
# Static dielectric constant tensor:
#      x y z
#    x 3.667520 0.000000 0.104390 
#    y 0.000000 3.197260 0.000000 
#    z 0.104390 0.000000 3.462030 
# 
# 
# High freq. dielectric constant tensor:
#      x y z
#    x 1.698910 0.000000 0.004580 
#    y 0.000000 1.685720 0.000000 
#    z 0.004580 0.000000 1.700380 
# 
# From -- ./inp_files/359924.got.cif
#   From: 2010.06.25/outbox.cif.g09.slc.cpg/sg12_180_cif.got.tgz:359924.got - 2010.06.28 00:19:55.
