data_PCOD8089763
_publ_section_title
;
Structure prediction by ZEFSAII (Michael W. Deem and Ramdas Pophale) SiO2 
 PCOD8089763
Probable space group: C 2/M
;
_chemical_formula_sum "Si O2"
_cell_formula_units_Z 64
_cell_length_a 17.851033
_cell_length_b 15.799191
_cell_length_c 12.576487
_cell_angle_alpha 90.000000
_cell_angle_beta 79.177495
_cell_angle_gamma 90.000000
_cell_volume 3483.882348
_symmetry_space_group_name_H-M "C 2/M"
_symmetry_group_IT_number 12
_symmetry_cell_setting 'monoclinic'
loop_
_space_group_symop_operation_xyz
x,y,z
-x,y,-z
-x,-y,-z
x,-y,z
1/2+x,1/2+y,z
1/2-x,1/2+y,-z
1/2-x,1/2-y,-z
1/2+x,1/2-y,z
loop_
_atom_site_type_symbol
_atom_site_label
_atom_site_fract_x
_atom_site_fract_y
_atom_site_fract_z
Si Si1 0.375891 0.596972 0.878117
Si Si2 0.837437 0.242183 0.495714
Si Si3 0.701160 0.317226 0.280830
Si Si4 0.206070 0.095027 0.884257
Si Si5 0.643997 0.731890 0.740559
Si Si6 0.984710 0.753256 0.881162
Si Si7 0.366545 0.849557 0.798325
Si Si8 0.084948 0.594915 0.439252
O O1 0.403401 0.500000 0.880297
O O2 0.321726 0.603848 0.787640
O O3 0.449698 0.657592 0.848790
O O4 0.327457 0.626385 0.994101
O O5 0.750000 0.250000 0.500000
O O6 0.846359 0.179027 0.594705
O O7 0.873989 0.205698 0.377696
O O8 0.864149 0.337072 0.514189
O O9 0.792785 0.307599 0.272535
O O10 0.674145 0.235344 0.225990
O O11 0.172934 0.150637 0.797225
O O12 0.298402 0.094619 0.866094
O O13 0.178531 0.000000 0.868734
O O14 0.564803 0.766641 0.804838
O O15 0.929237 0.674120 0.870674
O O16 0.000000 0.760405 0.000000
O O17 0.408235 0.896299 0.689886
O O18 0.111148 0.500000 0.464197
O O19 0.000000 0.612407 0.500000
#
# Coordination Sequence:
#
# PCOD8089763 Si02
#       8
#     8   8   8   8   8   8   8   8
#     4  10  21  36  53  74 104 139 178 215 255 309
#     4   9  18  35  54  81 106 134 174 216 256 300
#     4   8  18  34  55  75  99 137 177 212 249 301
#     4  10  20  34  54  75 100 139 179 216 254 301
#     4  10  19  33  54  79 109 132 167 218 260 308
#     4  11  21  32  51  80 105 136 168 213 268 308
#     4   9  19  32  51  75 102 132 174 213 249 306
#     4  10  19  33  55  79 104 136 171 210 259 310
#
# _framework density 18.370311000000001
#
# number of rings (size 3 to 8) (size 9 to 14) (size 15 to 20)
#    0.000    2.375    1.250    1.875    1.750    2.250 
#    0.000    3.125    0.000    3.750    0.000    0.000 
#    0.000    0.000    0.000    0.000    0.000    0.000 
#
# Total GULP energy -396572.585312 kJ/mol
# GULP energy per Si atom -12392.893291 kJ/mol
# Density = 1.832850 g / cm^3
# Si number density = 18.370311 Si / 1000 Ang^3
#
#
#
# Elastic Constant Matrix: (Units=GPa)
#
#
# Indices 1 2 3 4 5 6 
#
# 1 92.3824 28.7940 34.3890 0.0000 -2.6154 0.0000
# 2 28.7940 63.4400 29.8621 0.0000 8.9919 0.0000
# 3 34.3890 29.8621 115.5451 0.0000 8.1975 0.0000
# 4 0.0000 0.0000 0.0000 19.6767 0.0000 2.0219
# 5 -2.6154 8.9919 8.1975 0.0000 31.7890 0.0000
# 6 0.0000 0.0000 0.0000 2.0219 0.0000 23.1359
#
#
#
# Elastic Compliance Matrix: (Units=1/GPa)
#
#
# Indices 1 2 3 4 5 6 
#
# 1 0.013665 -0.005299 -0.002938 0.000000 0.003381 0.000000
# 2 -0.005299 0.020502 -0.003340 0.000000 -0.005374 0.000000
# 3 -0.002938 -0.003340 0.010535 0.000000 -0.002014 0.000000
# 4 0.000000 0.000000 0.000000 0.051282 0.000000 -0.004482
# 5 0.003381 -0.005374 -0.002014 0.000000 0.033775 0.000000
# 6 0.000000 0.000000 0.000000 -0.004482 0.000000 0.043615
#
#
# Mechanical properties :
#
#
# Convention : Reuss Voigt Hill
#
# Bulk Modulus (GPa) = 46.40589 50.82863 48.61726
# Shear Modulus (GPa) = 24.54471 26.80849 25.67660
#
# Velocity S-wave (km/s) = 3.65925 3.82427 3.74267
# Velocity P-wave (km/s) = 6.57036 6.87234 6.72305
#
# Compressibility (1/GPa) = 0.02154899
#
# Stress axis : x y z
#
# Youngs Moduli (GPa) = 73.17803 48.77591 94.92125
#
# Poissons Ratio (x) = 0.25845 0.27883
# Poissons Ratio (y) = 0.38776 0.31707
# Poissons Ratio (z) = 0.21496 0.16293
#
# Static dielectric constant tensor:
#      x y z
#    x 3.871160 0.000000 -3.156220 
#    y 0.000000 3.079760 0.000000 
#    z -3.156220 0.000000 39.151870 
# 
# 
# High freq. dielectric constant tensor:
#      x y z
#    x 1.711260 0.000000 -0.005890 
#    y 0.000000 1.681520 0.000000 
#    z -0.005890 0.000000 1.725680 
# 
# From -- ./inp_files/157812.got.cif
#   From: 2010.06.25/outbox.cif.g09.slc.cpg/sg12_79_cif.got.tgz:157812.got - 2010.06.28 00:19:55.
