data_PCOD8089297
_publ_section_title
;
Structure prediction by ZEFSAII (Michael W. Deem and Ramdas Pophale) SiO2 
 PCOD8089297
Probable space group: C 2/M
;
_chemical_formula_sum "Si O2"
_cell_formula_units_Z 56
_cell_length_a 30.007173
_cell_length_b 14.062821
_cell_length_c 9.381144
_cell_angle_alpha 90.000000
_cell_angle_beta 133.618753
_cell_angle_gamma 90.000000
_cell_volume 2865.890360
_symmetry_space_group_name_H-M "C 2/M"
_symmetry_group_IT_number 12
_symmetry_cell_setting 'monoclinic'
loop_
_space_group_symop_operation_xyz
x,y,z
-x,y,-z
-x,-y,-z
x,-y,z
1/2+x,1/2+y,z
1/2-x,1/2+y,-z
1/2-x,1/2-y,-z
1/2+x,1/2-y,z
loop_
_atom_site_type_symbol
_atom_site_label
_atom_site_fract_x
_atom_site_fract_y
_atom_site_fract_z
Si Si1 0.122225 0.268522 0.653405
Si Si2 0.792972 0.803747 0.395157
Si Si3 0.228981 0.605968 0.002003
Si Si4 0.850088 0.890131 0.096184
Si Si5 0.175288 0.789047 0.234963
Si Si6 0.593423 0.890472 0.114930
Si Si7 0.037044 0.608009 0.297557
O O1 0.152391 0.245506 0.569238
O O2 0.105197 0.172897 0.703704
O O3 0.060936 0.327453 0.481506
O O4 0.170743 0.325485 0.859053
O O5 0.760038 0.883801 0.226393
O O6 0.822859 0.843783 0.608295
O O7 0.744720 0.722416 0.332853
O O8 0.203955 0.500000 0.929342
O O9 0.279887 0.628800 0.993621
O O10 0.868773 0.000000 0.153382
O O11 0.859533 0.857022 0.953897
O O12 0.145412 0.683896 0.182569
O O13 0.575950 0.873898 0.240385
O O14 0.615913 0.000000 0.142047
O O15 0.534300 0.869488 0.885996
O O16 0.045809 0.500000 0.365954
#
# Coordination Sequence:
#
# PCOD8089297 Si02
#       7
#     8   8   8   8   8   8   8
#     4  11  17  36  55  80 110 146 187 219 265 325
#     4  10  20  31  51  78 107 144 183 219 258 325
#     4  10  19  33  52  78 110 147 181 218 268 331
#     4  10  21  35  53  75 108 147 183 226 273 319
#     4  11  19  35  53  76 113 142 180 225 276 318
#     4   9  19  35  56  84 115 143 177 222 273 330
#     4   9  18  34  58  86 110 142 183 218 268 336
#
# _framework density 19.540175000000001
#
# number of rings (size 3 to 8) (size 9 to 14) (size 15 to 20)
#    0.000    2.000    4.286    2.143    0.000    1.143 
#    0.000    2.857    0.000    3.429    0.000    2.000 
#    0.000    0.000    0.000    0.000    0.000    0.000 
#
# Total GULP energy -347070.476378 kJ/mol
# GULP energy per Si atom -12395.374156 kJ/mol
# Density = 1.949570 g / cm^3
# Si number density = 19.540175 Si / 1000 Ang^3
#
#
#
# Elastic Constant Matrix: (Units=GPa)
#
#
# Indices 1 2 3 4 5 6 
#
# 1 36.6539 15.0503 29.4482 0.0000 -19.4455 0.0000
# 2 15.0503 104.0894 67.9440 0.0000 -13.5505 0.0000
# 3 29.4482 67.9440 130.6469 0.0000 -20.7029 0.0000
# 4 0.0000 0.0000 0.0000 32.0325 0.0000 -1.4649
# 5 -19.4455 -13.5505 -20.7029 0.0000 24.9432 0.0000
# 6 0.0000 0.0000 0.0000 -1.4649 0.0000 19.2819
#
#
#
# Elastic Compliance Matrix: (Units=1/GPa)
#
#
# Indices 1 2 3 4 5 6 
#
# 1 0.050340 0.001592 -0.006700 0.000000 0.034549 0.000000
# 2 0.001592 0.014671 -0.007518 0.000000 0.002972 0.000000
# 3 -0.006700 -0.007518 0.013356 0.000000 0.001778 0.000000
# 4 0.000000 0.000000 0.000000 0.031327 0.000000 0.002380
# 5 0.034549 0.002972 0.001778 0.000000 0.070115 0.000000
# 6 0.000000 0.000000 0.000000 0.002380 0.000000 0.052043
#
#
# Mechanical properties :
#
#
# Convention : Reuss Voigt Hill
#
# Bulk Modulus (GPa) = 18.82678 55.14170 36.98424
# Shear Modulus (GPa) = 18.19449 25.84803 22.02126
#
# Velocity S-wave (km/s) = 3.05476 3.64100 3.36068
# Velocity P-wave (km/s) = 4.70084 6.77914 5.83329
#
# Compressibility (1/GPa) = 0.05311583
#
# Stress axis : x y z
#
# Youngs Moduli (GPa) = 19.86487 68.16203 74.87343
#
# Poissons Ratio (x) = -0.10854 0.50167
# Poissons Ratio (y) = -0.03163 0.56288
# Poissons Ratio (z) = 0.13310 0.51243
#
# Static dielectric constant tensor:
#      x y z
#    x 3.330320 0.000000 -0.260440 
#    y 0.000000 3.424760 0.000000 
#    z -0.260440 0.000000 3.633050 
# 
# 
# High freq. dielectric constant tensor:
#      x y z
#    x 1.732530 0.000000 -0.023580 
#    y 0.000000 1.745520 0.000000 
#    z -0.023580 0.000000 1.763170 
# 
# From -- ./inp_files/86381.got.cif
#   From: 2010.06.25/outbox.cif.g09.slc.cpg/sg12_44_cif.got.tgz:86381.got - 2010.06.28 00:19:55.
