data_PCOD8089992
_publ_section_title
;
Structure prediction by ZEFSAII (Michael W. Deem and Ramdas Pophale) SiO2 
 PCOD8089992
Probable space group: C 2/M
;
_chemical_formula_sum "Si O2"
_cell_formula_units_Z 40
_cell_length_a 19.087158
_cell_length_b 8.371036
_cell_length_c 27.059045
_cell_angle_alpha 90.000000
_cell_angle_beta 28.247864
_cell_angle_gamma 90.000000
_cell_volume 2046.243722
_symmetry_space_group_name_H-M "C 2/M"
_symmetry_group_IT_number 12
_symmetry_cell_setting 'monoclinic'
loop_
_space_group_symop_operation_xyz
x,y,z
-x,y,-z
-x,-y,-z
x,-y,z
1/2+x,1/2+y,z
1/2-x,1/2+y,-z
1/2-x,1/2-y,-z
1/2+x,1/2-y,z
loop_
_atom_site_type_symbol
_atom_site_label
_atom_site_fract_x
_atom_site_fract_y
_atom_site_fract_z
Si Si1 0.336512 0.685582 0.586688
Si Si2 0.092713 0.687022 0.184092
Si Si3 0.928633 0.812784 0.193479
Si Si4 0.421844 0.310150 0.999558
Si Si5 0.176723 0.815186 0.594467
O O1 0.500000 0.739071 0.500000
O O2 0.329791 0.500000 0.576290
O O3 0.224412 0.719768 0.701392
O O4 0.290799 0.790801 0.568274
O O5 0.095013 0.500000 0.170508
O O6 0.047967 0.779949 0.162224
O O7 0.975890 0.721579 0.300292
O O8 0.252520 0.749726 0.102450
O O9 0.991425 0.748201 0.102591
O O10 0.895177 0.000000 0.212231
O O11 0.424967 0.500000 0.999137
O O12 0.500000 0.239115 0.000000
O O13 0.250000 0.750000 0.500000
O O14 0.138968 0.000000 0.611951
#
# Coordination Sequence:
#
# PCOD8089992 Si02
#       5
#     8   8   8   8   8
#     4  10  21  37  56  80 111 143 179 224 271 319
#     4  10  19  34  56  78 105 141 178 218 265 316
#     4  10  19  33  55  79 105 140 181 220 261 317
#     4   9  19  34  52  78 108 137 174 220 267 315
#     4  11  22  37  57  81 110 142 181 223 267 321
#
# _framework density 19.548013000000001
#
# number of rings (size 3 to 8) (size 9 to 14) (size 15 to 20)
#    0.000    2.000    0.000    6.600    0.000    3.200 
#    0.000    5.000    0.000    8.400    0.000    0.000 
#    0.000    0.000    0.000    0.000    0.000    0.000 
#
# Total GULP energy -248051.244237 kJ/mol
# GULP energy per Si atom -12402.562212 kJ/mol
# Density = 1.950352 g / cm^3
# Si number density = 19.548013 Si / 1000 Ang^3
#
#
#
# Elastic Constant Matrix: (Units=GPa)
#
#
# Indices 1 2 3 4 5 6 
#
# 1 114.3698 5.6227 100.2141 0.0012 0.4152 -0.0015
# 2 5.6227 43.4499 6.2655 0.0001 -2.4520 -0.0037
# 3 100.2141 6.2655 164.0889 -0.0017 -2.6586 -0.0007
# 4 0.0012 0.0001 -0.0017 27.3134 0.0001 0.8383
# 5 0.4152 -2.4520 -2.6586 0.0001 46.5741 0.0002
# 6 -0.0015 -0.0037 -0.0007 0.8383 0.0002 25.9677
#
#
#
# Elastic Compliance Matrix: (Units=1/GPa)
#
#
# Indices 1 2 3 4 5 6 
#
# 1 0.018870 -0.000832 -0.011507 -0.000002 -0.000869 0.000001
# 2 -0.000832 0.023243 -0.000360 0.000000 0.001211 0.000003
# 3 -0.011507 -0.000360 0.013149 0.000001 0.000834 0.000000
# 4 -0.000002 0.000000 0.000001 0.036648 0.000000 -0.001183
# 5 -0.000869 0.001211 0.000834 0.000000 0.021590 0.000000
# 6 0.000001 0.000003 0.000000 -0.001183 0.000000 0.038548
#
#
# Mechanical properties :
#
#
# Convention : Reuss Voigt Hill
#
# Bulk Modulus (GPa) = 33.48386 60.67925 47.08156
# Shear Modulus (GPa) = 26.68073 33.95813 30.31943
#
# Velocity S-wave (km/s) = 3.69844 4.17245 3.94258
# Velocity P-wave (km/s) = 5.95014 7.37028 6.69795
#
# Compressibility (1/GPa) = 0.02986513
#
# Stress axis : x y z
#
# Youngs Moduli (GPa) = 52.99296 43.02397 76.05002
#
# Poissons Ratio (x) = 0.03578 0.87511
# Poissons Ratio (y) = 0.04407 0.02737
# Poissons Ratio (z) = 0.60979 0.01549
#
# Static dielectric constant tensor:
#      x y z
#    x 3.607820 0.000000 0.013440 
#    y 0.000000 3.459150 0.000000 
#    z 0.013440 0.000000 3.795430 
# 
# 
# High freq. dielectric constant tensor:
#      x y z
#    x 1.752940 0.000000 0.001020 
#    y 0.000000 1.753640 0.000000 
#    z 0.001020 0.000000 1.775330 
# 
# From -- ./inp_files/162642.got.cif
#   From: 2010.06.25/outbox.cif.g09.slc.cpg/sg12_82_cif.got.tgz:162642.got - 2010.06.28 00:19:55.
