data_PCOD8089675
_publ_section_title
;
Structure prediction by ZEFSAII (Michael W. Deem and Ramdas Pophale) SiO2 
 PCOD8089675
Probable space group: C 2/M
;
_chemical_formula_sum "Si O2"
_cell_formula_units_Z 64
_cell_length_a 30.141227
_cell_length_b 9.302906
_cell_length_c 18.992536
_cell_angle_alpha 90.000000
_cell_angle_beta 139.615280
_cell_angle_gamma 90.000000
_cell_volume 3450.497765
_symmetry_space_group_name_H-M "C 2/M"
_symmetry_group_IT_number 12
_symmetry_cell_setting 'monoclinic'
loop_
_space_group_symop_operation_xyz
x,y,z
-x,y,-z
-x,-y,-z
x,-y,z
1/2+x,1/2+y,z
1/2-x,1/2+y,-z
1/2-x,1/2-y,-z
1/2+x,1/2-y,z
loop_
_atom_site_type_symbol
_atom_site_label
_atom_site_fract_x
_atom_site_fract_y
_atom_site_fract_z
Si Si1 0.462001 0.164096 0.295925
Si Si2 0.431372 0.329939 0.124494
Si Si3 0.222260 0.166258 0.033196
Si Si4 0.199253 0.166410 0.530715
Si Si5 0.832044 0.833555 0.668457
Si Si6 0.646779 0.833183 0.726980
Si Si7 0.020166 0.170704 0.101138
Si Si8 0.889937 0.664668 0.469165
O O1 0.471826 0.256867 0.237456
O O2 0.400057 0.232506 0.267178
O O3 0.528885 0.173343 0.424752
O O4 0.446287 0.000000 0.254506
O O5 0.439660 0.500000 0.142230
O O6 0.464556 0.276001 0.091331
O O7 0.352113 0.280595 0.031340
O O8 0.273483 0.193583 0.160226
O O9 0.220315 0.000000 0.009403
O O10 0.250000 0.250000 0.000000
O O11 0.170267 0.190355 0.417694
O O12 0.272204 0.241725 0.631975
O O13 0.143780 0.236902 0.513365
O O14 0.208002 0.000000 0.559496
O O15 0.904331 0.775460 0.785428
O O16 0.820762 0.000000 0.674435
O O17 0.629846 0.767283 0.630410
O O18 0.627156 0.000000 0.699831
O O19 0.020046 0.000000 0.098586
O O20 0.000000 0.233642 0.000000
O O21 0.864025 0.500000 0.445767
#
# Coordination Sequence:
#
# PCOD8089675 Si02
#       8
#     8   8   8   8   8   8   8   8
#     4  10  19  33  54  77 104 138 176 216 259 308
#     4  10  20  33  53  81 107 136 175 217 263 312
#     4  10  19  33  54  77 104 137 175 218 259 305
#     4  10  20  34  53  78 107 136 169 216 266 315
#     4   9  18  34  56  77 101 137 176 215 259 313
#     4   9  18  33  52  75 104 138 176 218 257 300
#     4   9  18  33  54  80 107 135 174 222 265 309
#     4  10  20  33  52  78 105 136 176 216 259 313
#
# _framework density 18.548047
#
# number of rings (size 3 to 8) (size 9 to 14) (size 15 to 20)
#    0.000    2.375    1.250    1.500    0.000    4.500 
#    0.000    5.625    0.000    4.500    0.000    0.000 
#    0.000    0.000    0.000    0.000    0.000    0.000 
#
# Total GULP energy -396818.894298 kJ/mol
# GULP energy per Si atom -12400.590447 kJ/mol
# Density = 1.850583 g / cm^3
# Si number density = 18.548047 Si / 1000 Ang^3
#
#
#
# Elastic Constant Matrix: (Units=GPa)
#
#
# Indices 1 2 3 4 5 6 
#
# 1 73.1065 28.4146 41.3352 0.0000 7.5228 0.0000
# 2 28.4146 41.9604 27.8438 0.0000 0.7193 0.0000
# 3 41.3352 27.8438 123.1263 0.0000 6.4487 0.0000
# 4 0.0000 0.0000 0.0000 17.1448 0.0000 1.5277
# 5 7.5228 0.7193 6.4487 0.0000 30.6465 0.0000
# 6 0.0000 0.0000 0.0000 1.5277 0.0000 26.8585
#
#
#
# Elastic Compliance Matrix: (Units=1/GPa)
#
#
# Indices 1 2 3 4 5 6 
#
# 1 0.020858 -0.011233 -0.004255 0.000000 -0.003961 0.000000
# 2 -0.011233 0.034104 -0.004089 0.000000 0.002817 0.000000
# 3 -0.004255 -0.004089 0.010531 0.000000 -0.001076 0.000000
# 4 0.000000 0.000000 0.000000 0.058624 0.000000 -0.003335
# 5 -0.003961 0.002817 -0.001076 0.000000 0.033763 0.000000
# 6 0.000000 0.000000 0.000000 -0.003335 0.000000 0.037422
#
#
# Mechanical properties :
#
#
# Convention : Reuss Voigt Hill
#
# Bulk Modulus (GPa) = 37.96554 48.15338 43.05946
# Shear Modulus (GPa) = 20.55632 24.30326 22.42979
#
# Velocity S-wave (km/s) = 3.33269 3.62372 3.48124
# Velocity P-wave (km/s) = 5.94325 6.59744 6.27887
#
# Compressibility (1/GPa) = 0.02633967
#
# Stress axis : x y z
#
# Youngs Moduli (GPa) = 47.94326 29.32225 94.95803
#
# Poissons Ratio (x) = 0.32939 0.40400
# Poissons Ratio (y) = 0.53857 0.38824
# Poissons Ratio (z) = 0.20398 0.11989
#
# Static dielectric constant tensor:
#      x y z
#    x 3.503710 0.000000 0.037570 
#    y 0.000000 3.150660 0.000000 
#    z 0.037570 0.000000 3.578930 
# 
# 
# High freq. dielectric constant tensor:
#      x y z
#    x 1.724310 0.000000 0.007050 
#    y 0.000000 1.685570 0.000000 
#    z 0.007050 0.000000 1.728180 
# 
# From -- ./inp_files/295782.got.cif
#   From: 2010.06.25/outbox.cif.g09.slc.cpg/sg12_148_cif.got.tgz:295782.got - 2010.06.28 00:19:55.
