data_PCOD8089994
_publ_section_title
;
Structure prediction by ZEFSAII (Michael W. Deem and Ramdas Pophale) SiO2 
 PCOD8089994
Probable space group: C 2/M
;
_chemical_formula_sum "Si O2"
_cell_formula_units_Z 48
_cell_length_a 19.135236
_cell_length_b 9.121044
_cell_length_c 15.626182
_cell_angle_alpha 90.000000
_cell_angle_beta 103.557749
_cell_angle_gamma 90.000000
_cell_volume 2651.291288
_symmetry_space_group_name_H-M "C 2/M"
_symmetry_group_IT_number 12
_symmetry_cell_setting 'monoclinic'
loop_
_space_group_symop_operation_xyz
x,y,z
-x,y,-z
-x,-y,-z
x,-y,z
1/2+x,1/2+y,z
1/2-x,1/2+y,-z
1/2-x,1/2-y,-z
1/2+x,1/2-y,z
loop_
_atom_site_type_symbol
_atom_site_label
_atom_site_fract_x
_atom_site_fract_y
_atom_site_fract_z
Si Si1 0.198227 0.672939 0.744733
Si Si2 0.068080 0.332173 0.964157
Si Si3 0.069713 0.830280 0.788080
Si Si4 0.406990 0.668217 0.733751
Si Si5 0.772569 0.831384 0.591029
Si Si6 0.671308 0.831807 0.144601
O O1 0.195430 0.500000 0.758579
O O2 0.120380 0.741495 0.738320
O O3 0.221893 0.715086 0.655616
O O4 0.255344 0.739667 0.828170
O O5 0.056398 0.500000 0.930509
O O6 0.140698 0.317609 0.040224
O O7 0.077247 0.227750 0.886193
O O8 0.000000 0.279281 0.000000
O O9 0.989045 0.807161 0.729614
O O10 0.091797 0.000000 0.794053
O O11 0.392737 0.500000 0.758322
O O12 0.355218 0.706347 0.638885
O O13 0.389353 0.771690 0.808465
O O14 0.750000 0.750000 0.500000
O O15 0.762610 0.000000 0.567436
O O16 0.687309 0.000000 0.172895
#
# Coordination Sequence:
#
# PCOD8089994 Si02
#       6
#     8   8   8   8   8   8
#     4  10  22  39  56  77 112 145 175 222 276 319
#     4  10  20  34  52  78 111 145 184 228 269 311
#     4  11  22  35  55  81 109 145 186 224 267 316
#     4   9  19  35  54  79 111 142 176 220 269 317
#     4   9  19  37  60  83 105 135 173 216 267 324
#     4  10  19  33  55  79 105 143 189 225 262 317
#
# _framework density 18.104386999999999
#
# number of rings (size 3 to 8) (size 9 to 14) (size 15 to 20)
#    0.000    2.167    1.667    2.500    0.000    6.333 
#    0.000    0.833    0.000    5.000    0.000    0.000 
#    0.000    0.000    0.000    0.000    0.000    0.000 
#
# Total GULP energy -297645.630291 kJ/mol
# GULP energy per Si atom -12401.901262 kJ/mol
# Density = 1.806318 g / cm^3
# Si number density = 18.104387 Si / 1000 Ang^3
#
#
#
# Elastic Constant Matrix: (Units=GPa)
#
#
# Indices 1 2 3 4 5 6 
#
# 1 131.0079 63.2077 60.3287 0.0000 -1.6308 0.0000
# 2 63.2077 100.0691 55.1930 0.0000 0.2683 0.0000
# 3 60.3287 55.1930 106.4405 0.0000 9.6311 0.0000
# 4 0.0000 0.0000 0.0000 33.9006 0.0000 -1.5073
# 5 -1.6308 0.2683 9.6311 0.0000 20.9041 0.0000
# 6 0.0000 0.0000 0.0000 -1.5073 0.0000 33.2289
#
#
#
# Elastic Compliance Matrix: (Units=1/GPa)
#
#
# Indices 1 2 3 4 5 6 
#
# 1 0.012301 -0.005291 -0.004509 0.000000 0.003105 0.000000
# 2 -0.005291 0.016494 -0.005736 0.000000 0.002018 0.000000
# 3 -0.004509 -0.005736 0.015601 0.000000 -0.007466 0.000000
# 4 0.000000 0.000000 0.000000 0.029558 0.000000 0.001341
# 5 0.003105 0.002018 -0.007466 0.000000 0.051494 0.000000
# 6 0.000000 0.000000 0.000000 0.001341 0.000000 0.030155
#
#
# Mechanical properties :
#
#
# Convention : Reuss Voigt Hill
#
# Bulk Modulus (GPa) = 75.06379 77.21959 76.14169
# Shear Modulus (GPa) = 26.16214 28.19259 27.17737
#
# Velocity S-wave (km/s) = 3.80553 3.95045 3.87867
# Velocity P-wave (km/s) = 7.80135 7.97202 7.88715
#
# Compressibility (1/GPa) = 0.01332200
#
# Stress axis : x y z
#
# Youngs Moduli (GPa) = 81.29315 60.62993 64.09938
#
# Poissons Ratio (x) = 0.32079 0.28906
# Poissons Ratio (y) = 0.43012 0.36769
# Poissons Ratio (z) = 0.36659 0.34779
#
# Static dielectric constant tensor:
#      x y z
#    x 3.540160 0.000000 0.079540 
#    y 0.000000 3.433940 0.000000 
#    z 0.079540 0.000000 3.100040 
# 
# 
# High freq. dielectric constant tensor:
#      x y z
#    x 1.706730 0.000000 0.009850 
#    y 0.000000 1.710930 0.000000 
#    z 0.009850 0.000000 1.678670 
# 
# From -- ./inp_files/221621.got.cif
#   From: 2010.06.25/outbox.cif.g09.slc.cpg/sg12_111_cif.got.tgz:221621.got - 2010.06.28 00:19:55.
