data_PCOD8089896
_publ_section_title
;
Structure prediction by ZEFSAII (Michael W. Deem and Ramdas Pophale) SiO2 
 PCOD8089896
Probable space group: C 2/M
;
_chemical_formula_sum "Si O2"
_cell_formula_units_Z 64
_cell_length_a 33.658645
_cell_length_b 8.867657
_cell_length_c 15.168524
_cell_angle_alpha 90.000000
_cell_angle_beta 134.649716
_cell_angle_gamma 90.000000
_cell_volume 3220.866915
_symmetry_space_group_name_H-M "C 2/M"
_symmetry_group_IT_number 12
_symmetry_cell_setting 'monoclinic'
loop_
_space_group_symop_operation_xyz
x,y,z
-x,y,-z
-x,-y,-z
x,-y,z
1/2+x,1/2+y,z
1/2-x,1/2+y,-z
1/2-x,1/2-y,-z
1/2+x,1/2-y,z
loop_
_atom_site_type_symbol
_atom_site_label
_atom_site_fract_x
_atom_site_fract_y
_atom_site_fract_z
Si Si1 0.896630 0.821685 0.021956
Si Si2 0.602585 0.328638 0.775666
Si Si3 0.475992 0.327937 0.592167
Si Si4 0.992357 0.673559 0.800658
Si Si5 0.817002 0.323034 0.763957
Si Si6 0.310960 0.676225 0.416160
Si Si7 0.870845 0.323670 0.351676
Si Si8 0.627086 0.827441 0.328289
O O1 0.888332 0.770264 0.110581
O O2 0.951061 0.737062 0.066379
O O3 0.905816 0.000000 0.029928
O O4 0.842482 0.770506 0.884286
O O5 0.623132 0.500000 0.799825
O O6 0.537490 0.315802 0.645882
O O7 0.639136 0.229839 0.764750
O O8 0.454061 0.500000 0.553357
O O9 0.478762 0.278454 0.697180
O O10 0.433593 0.219798 0.475971
O O11 0.001046 0.500000 0.785171
O O12 0.940056 0.687206 0.785864
O O13 0.827561 0.500000 0.795799
O O14 0.752094 0.282171 0.656836
O O15 0.845363 0.265541 0.718035
O O16 0.319751 0.500000 0.420439
O O17 0.325603 0.749033 0.345232
O O18 0.351972 0.734071 0.555690
O O19 0.862588 0.500000 0.344988
O O20 0.645016 0.000000 0.372119
#
# Coordination Sequence:
#
# PCOD8089896 Si02
#       8
#     8   8   8   8   8   8   8   8
#     4  10  22  40  61  85 117 156 197 242 287 339
#     4   9  20  37  56  81 114 151 191 236 286 341
#     4  10  19  33  54  82 119 155 189 233 287 345
#     4  10  19  33  57  87 121 157 189 234 291 344
#     4  10  23  42  62  85 114 154 199 243 294 346
#     4  11  23  39  61  86 117 155 194 242 294 346
#     4  12  23  34  54  85 117 151 192 237 289 349
#     4  10  21  38  61  90 121 150 189 241 296 348
#
# _framework density 19.870426999999999
#
# number of rings (size 3 to 8) (size 9 to 14) (size 15 to 20)
#    0.000    1.750    1.250    4.125    0.000    7.000 
#    0.000    3.125    0.000    0.000    0.000    0.000 
#    0.000    0.000    0.000    0.000    0.000    0.000 
#
# Total GULP energy -396873.135386 kJ/mol
# GULP energy per Si atom -12402.285481 kJ/mol
# Density = 1.982520 g / cm^3
# Si number density = 19.870427 Si / 1000 Ang^3
#
#
#
# Elastic Constant Matrix: (Units=GPa)
#
#
# Indices 1 2 3 4 5 6 
#
# 1 104.1161 41.9300 22.3983 0.0000 -14.3677 0.0000
# 2 41.9300 85.1648 23.4752 0.0000 -0.8523 0.0000
# 3 22.3983 23.4752 58.1930 0.0000 0.7635 0.0000
# 4 0.0000 0.0000 0.0000 31.8972 0.0000 0.9511
# 5 -14.3677 -0.8523 0.7635 0.0000 16.5253 0.0000
# 6 0.0000 0.0000 0.0000 0.9511 0.0000 24.8680
#
#
#
# Elastic Compliance Matrix: (Units=1/GPa)
#
#
# Indices 1 2 3 4 5 6 
#
# 1 0.014482 -0.006103 -0.003275 0.000000 0.012428 0.000000
# 2 -0.006103 0.015797 -0.003967 0.000000 -0.004308 0.000000
# 3 -0.003275 -0.003967 0.020097 0.000000 -0.003981 0.000000
# 4 0.000000 0.000000 0.000000 0.031386 0.000000 -0.001200
# 5 0.012428 -0.004308 -0.003981 0.000000 0.071280 0.000000
# 6 0.000000 0.000000 0.000000 -0.001200 0.000000 0.040258
#
#
# Mechanical properties :
#
#
# Convention : Reuss Voigt Hill
#
# Bulk Modulus (GPa) = 42.21888 47.00898 44.61393
# Shear Modulus (GPa) = 21.94071 25.30279 23.62175
#
# Velocity S-wave (km/s) = 3.32654 3.57233 3.45162
# Velocity P-wave (km/s) = 6.00397 6.38158 6.19565
#
# Compressibility (1/GPa) = 0.02368609
#
# Stress axis : x y z
#
# Youngs Moduli (GPa) = 69.05117 63.30313 49.75783
#
# Poissons Ratio (x) = 0.38633 0.16297
# Poissons Ratio (y) = 0.42141 0.19739
# Poissons Ratio (z) = 0.22616 0.25113
#
# Static dielectric constant tensor:
#      x y z
#    x 3.748290 0.000000 0.017060 
#    y 0.000000 3.575940 0.000000 
#    z 0.017060 0.000000 3.481560 
# 
# 
# High freq. dielectric constant tensor:
#      x y z
#    x 1.780580 0.000000 -0.004660 
#    y 0.000000 1.777800 0.000000 
#    z -0.004660 0.000000 1.755670 
# 
# From -- ./inp_files/250014.got.cif
#   From: 2010.06.25/outbox.cif.g09.slc.cpg/sg12_126_cif.got.tgz:250014.got - 2010.06.28 00:19:55.
