data_PCOD8089109
_publ_section_title
;
Structure prediction by ZEFSAII (Michael W. Deem and Ramdas Pophale) SiO2 
 PCOD8089109
Probable space group: C 2/M
;
_chemical_formula_sum "Si O2"
_cell_formula_units_Z 64
_cell_length_a 25.853536
_cell_length_b 9.243076
_cell_length_c 15.527510
_cell_angle_alpha 90.000000
_cell_angle_beta 108.327370
_cell_angle_gamma 90.000000
_cell_volume 3522.333776
_symmetry_space_group_name_H-M "C 2/M"
_symmetry_group_IT_number 12
_symmetry_cell_setting 'monoclinic'
loop_
_space_group_symop_operation_xyz
x,y,z
-x,y,-z
-x,-y,-z
x,-y,z
1/2+x,1/2+y,z
1/2-x,1/2+y,-z
1/2-x,1/2-y,-z
1/2+x,1/2-y,z
loop_
_atom_site_type_symbol
_atom_site_label
_atom_site_fract_x
_atom_site_fract_y
_atom_site_fract_z
Si Si1 0.057335 0.657879 0.074457
Si Si2 0.077999 0.167135 0.606385
Si Si3 0.599477 0.834620 0.276875
Si Si4 0.038695 0.832571 0.394338
Si Si5 0.817242 0.669753 0.271955
Si Si6 0.697854 0.665724 0.245114
Si Si7 0.144495 0.163829 0.040032
Si Si8 0.300761 0.170831 0.068727
O O1 0.085472 0.500000 0.071136
O O2 0.055466 0.678070 0.176711
O O3 0.087699 0.796538 0.053548
O O4 0.000000 0.658482 0.000000
O O5 0.066478 0.193932 0.500478
O O6 0.131453 0.255304 0.658081
O O7 0.024892 0.216458 0.633967
O O8 0.089795 0.000000 0.630895
O O9 0.572667 0.758480 0.344054
O O10 0.657564 0.765281 0.279631
O O11 0.611686 0.000000 0.308037
O O12 0.041838 0.000000 0.369684
O O13 0.827962 0.500000 0.279746
O O14 0.761283 0.707619 0.294514
O O15 0.811973 0.723363 0.171060
O O16 0.686156 0.500000 0.265488
O O17 0.690517 0.683419 0.137772
O O18 0.143571 0.000000 0.004924
O O19 0.149309 0.275571 0.963687
O O20 0.291783 0.000000 0.058612
O O21 0.250000 0.250000 0.000000
#
# Coordination Sequence:
#
# PCOD8089109 Si02
#       8
#     8   8   8   8   8   8   8   8
#     4   9  19  35  51  72 107 144 177 221 272 314
#     4   9  20  38  60  84 107 139 179 220 271 329
#     4  10  20  33  55  84 105 136 186 225 263 321
#     4   9  19  39  61  80 109 142 175 220 276 329
#     4  10  21  36  54  80 113 144 179 224 276 323
#     4   9  18  35  53  73 107 146 178 214 267 320
#     4  10  19  33  51  73 102 139 184 222 262 315
#     4  11  21  34  51  75 107 143 181 219 263 313
#
# _framework density 18.169772999999999
#
# number of rings (size 3 to 8) (size 9 to 14) (size 15 to 20)
#    0.000    2.375    1.250    1.875    0.000    4.750 
#    0.000    5.625    0.000    0.000    0.000    0.000 
#    0.000    0.000    0.000    0.000    0.000    0.000 
#
# Total GULP energy -396613.834026 kJ/mol
# GULP energy per Si atom -12394.182313 kJ/mol
# Density = 1.812842 g / cm^3
# Si number density = 18.169773 Si / 1000 Ang^3
#
#
#
# Elastic Constant Matrix: (Units=GPa)
#
#
# Indices 1 2 3 4 5 6 
#
# 1 118.0848 64.4868 62.3763 0.0000 1.5454 0.0000
# 2 64.4868 90.5640 48.3840 0.0000 -2.6578 0.0000
# 3 62.3763 48.3840 69.3523 0.0000 0.6457 0.0000
# 4 0.0000 0.0000 0.0000 27.5502 0.0000 -6.9617
# 5 1.5454 -2.6578 0.6457 0.0000 33.1191 0.0000
# 6 0.0000 0.0000 0.0000 -6.9617 0.0000 29.9046
#
#
#
# Elastic Compliance Matrix: (Units=1/GPa)
#
#
# Indices 1 2 3 4 5 6 
#
# 1 0.018482 -0.006887 -0.011807 0.000000 -0.001185 0.000000
# 2 -0.006887 0.020260 -0.007960 0.000000 0.002102 0.000000
# 3 -0.011807 -0.007960 0.030598 0.000000 -0.000684 0.000000
# 4 0.000000 0.000000 0.000000 0.038566 0.000000 0.008978
# 5 -0.001185 0.002102 -0.000684 0.000000 0.030431 0.000000
# 6 0.000000 0.000000 0.000000 0.008978 0.000000 0.035530
#
#
# Mechanical properties :
#
#
# Convention : Reuss Voigt Hill
#
# Bulk Modulus (GPa) = 62.37417 69.83283 66.10350
# Shear Modulus (GPa) = 21.50357 24.96506 23.23432
#
# Velocity S-wave (km/s) = 3.44391 3.71076 3.57982
# Velocity P-wave (km/s) = 7.08640 7.54166 7.31757
#
# Compressibility (1/GPa) = 0.01603228
#
# Stress axis : x y z
#
# Youngs Moduli (GPa) = 54.10695 49.35798 32.68169
#
# Poissons Ratio (x) = 0.33993 0.38587
# Poissons Ratio (y) = 0.37264 0.26014
# Poissons Ratio (z) = 0.63884 0.39288
#
# Static dielectric constant tensor:
#      x y z
#    x 3.462520 0.000000 -0.080400 
#    y 0.000000 3.740890 0.000000 
#    z -0.080400 0.000000 3.347970 
# 
# 
# High freq. dielectric constant tensor:
#      x y z
#    x 1.705990 0.000000 -0.003460 
#    y 0.000000 1.708110 0.000000 
#    z -0.003460 0.000000 1.689090 
# 
# From -- ./inp_files/244137.got.cif
#   From: 2010.06.25/outbox.cif.g09.slc.cpg/sg12_123_cif.got.tgz:244137.got - 2010.06.28 00:19:55.
