data_PCOD8089510
_publ_section_title
;
Structure prediction by ZEFSAII (Michael W. Deem and Ramdas Pophale) SiO2 
 PCOD8089510
Probable space group: C 2/M
;
_chemical_formula_sum "Si O2"
_cell_formula_units_Z 56
_cell_length_a 28.541630
_cell_length_b 8.929588
_cell_length_c 18.977824
_cell_angle_alpha 90.000000
_cell_angle_beta 138.741680
_cell_angle_gamma 90.000000
_cell_volume 3189.640689
_symmetry_space_group_name_H-M "C 2/M"
_symmetry_group_IT_number 12
_symmetry_cell_setting 'monoclinic'
loop_
_space_group_symop_operation_xyz
x,y,z
-x,y,-z
-x,-y,-z
x,-y,z
1/2+x,1/2+y,z
1/2-x,1/2+y,-z
1/2-x,1/2-y,-z
1/2+x,1/2-y,z
loop_
_atom_site_type_symbol
_atom_site_label
_atom_site_fract_x
_atom_site_fract_y
_atom_site_fract_z
Si Si1 0.292156 0.823010 0.800839
Si Si2 0.642163 0.826496 0.377737
Si Si3 0.354403 0.671721 0.121584
Si Si4 0.997550 0.826136 0.208031
Si Si5 0.738042 0.173857 0.875413
Si Si6 0.762739 0.826148 0.624813
Si Si7 0.558259 0.673743 0.006785
O O1 0.244119 0.765356 0.810553
O O2 0.255382 0.762905 0.688758
O O3 0.372660 0.767652 0.896586
O O4 0.291548 0.000000 0.799622
O O5 0.563509 0.772539 0.307988
O O6 0.690758 0.796234 0.500533
O O7 0.669607 0.732795 0.342122
O O8 0.642527 0.000000 0.357154
O O9 0.341875 0.500000 0.129054
O O10 0.435820 0.704202 0.194878
O O11 0.332339 0.774892 0.162265
O O12 0.307545 0.710446 0.000143
O O13 0.019174 0.000000 0.230739
O O14 0.972704 0.773058 0.102841
O O15 0.731764 0.000000 0.850025
O O16 0.775601 0.000000 0.655251
O O17 0.580529 0.500000 0.028561
O O18 0.500000 0.705296 0.000000
#
# Coordination Sequence:
#
# PCOD8089510 Si02
#       7
#     8   8   8   8   8   8   8
#     4  12  23  34  53  80 108 138 177 223 266 313
#     4  10  21  36  56  82 107 136 181 227 263 309
#     4   9  18  33  52  77 107 140 180 216 257 316
#     4  10  19  33  53  78 110 146 176 212 264 321
#     4  10  19  34  54  76 106 141 178 217 264 318
#     4  10  21  38  57  76 105 144 181 220 267 316
#     4  10  20  34  51  74 107 146 178 207 258 323
#
# _framework density 17.556836000000001
#
# number of rings (size 3 to 8) (size 9 to 14) (size 15 to 20)
#    0.000    1.857    1.429    3.429    0.000    4.857 
#    0.000    0.000    0.000    0.857    0.000    6.000 
#    0.000    0.000    0.000    0.000    0.000    0.000 
#
# Total GULP energy -347351.164912 kJ/mol
# GULP energy per Si atom -12405.398747 kJ/mol
# Density = 1.751688 g / cm^3
# Si number density = 17.556836 Si / 1000 Ang^3
#
#
#
# Elastic Constant Matrix: (Units=GPa)
#
#
# Indices 1 2 3 4 5 6 
#
# 1 108.8803 58.8670 54.0014 0.0000 -7.5166 0.0000
# 2 58.8670 105.3506 49.7178 0.0000 -10.8047 0.0000
# 3 54.0014 49.7178 77.5875 0.0000 -3.4359 0.0000
# 4 0.0000 0.0000 0.0000 27.8958 0.0000 1.4361
# 5 -7.5166 -10.8047 -3.4359 0.0000 23.3641 0.0000
# 6 0.0000 0.0000 0.0000 1.4361 0.0000 31.8442
#
#
#
# Elastic Compliance Matrix: (Units=1/GPa)
#
#
# Indices 1 2 3 4 5 6 
#
# 1 0.015861 -0.005045 -0.007734 0.000000 0.001632 0.000000
# 2 -0.005045 0.015829 -0.006421 0.000000 0.004753 0.000000
# 3 -0.007734 -0.006421 0.022290 0.000000 -0.002180 0.000000
# 4 0.000000 0.000000 0.000000 0.035931 0.000000 -0.001620
# 5 0.001632 0.004753 -0.002180 0.000000 0.045203 0.000000
# 6 0.000000 0.000000 0.000000 -0.001620 0.000000 0.031476
#
#
# Mechanical properties :
#
#
# Convention : Reuss Voigt Hill
#
# Bulk Modulus (GPa) = 64.19017 68.55452 66.37234
# Shear Modulus (GPa) = 23.78882 25.23629 24.51256
#
# Velocity S-wave (km/s) = 3.68497 3.79543 3.74061
# Velocity P-wave (km/s) = 7.39906 7.63800 7.51948
#
# Compressibility (1/GPa) = 0.01557871
#
# Stress axis : x y z
#
# Youngs Moduli (GPa) = 63.04943 63.17503 44.86399
#
# Poissons Ratio (x) = 0.31874 0.34697
# Poissons Ratio (y) = 0.31810 0.28808
# Poissons Ratio (z) = 0.48761 0.40566
#
# Static dielectric constant tensor:
#      x y z
#    x 3.291160 0.000000 -0.052080 
#    y 0.000000 3.293300 0.000000 
#    z -0.052080 0.000000 3.133410 
# 
# 
# High freq. dielectric constant tensor:
#      x y z
#    x 1.682290 0.000000 -0.002530 
#    y 0.000000 1.685350 0.000000 
#    z -0.002530 0.000000 1.659920 
# 
# From -- ./inp_files/288259.got.cif
#   From: 2010.06.25/outbox.cif.g09.slc.cpg/sg12_145_cif.got.tgz:288259.got - 2010.06.28 00:19:55.
