data_PCOD8089338
_publ_section_title
;
Structure prediction by ZEFSAII (Michael W. Deem and Ramdas Pophale) SiO2 
 PCOD8089338
Probable space group: C 2/M
;
_chemical_formula_sum "Si O2"
_cell_formula_units_Z 64
_cell_length_a 14.340198
_cell_length_b 9.548983
_cell_length_c 26.951185
_cell_angle_alpha 90.000000
_cell_angle_beta 106.857010
_cell_angle_gamma 90.000000
_cell_volume 3531.964546
_symmetry_space_group_name_H-M "C 2/M"
_symmetry_group_IT_number 12
_symmetry_cell_setting 'monoclinic'
loop_
_space_group_symop_operation_xyz
x,y,z
-x,y,-z
-x,-y,-z
x,-y,z
1/2+x,1/2+y,z
1/2-x,1/2+y,-z
1/2-x,1/2-y,-z
1/2+x,1/2-y,z
loop_
_atom_site_type_symbol
_atom_site_label
_atom_site_fract_x
_atom_site_fract_y
_atom_site_fract_z
Si Si1 0.364139 0.665715 0.712154
Si Si2 0.912708 0.158106 0.092472
Si Si3 0.776900 0.160483 0.551295
Si Si4 0.611799 0.157862 0.003765
Si Si5 0.477244 0.335843 0.635064
Si Si6 0.389423 0.334046 0.827472
Si Si7 0.833241 0.336064 0.365836
Si Si8 0.276869 0.158525 0.882671
O O1 0.361231 0.500000 0.706751
O O2 0.444401 0.718418 0.684786
O O3 0.395222 0.716515 0.771536
O O4 0.254656 0.718223 0.683170
O O5 0.868236 0.248033 0.041017
O O6 0.838838 0.162335 0.127261
O O7 0.014277 0.217353 0.128789
O O8 0.925853 0.000000 0.074840
O O9 0.750000 0.250000 0.500000
O O10 0.887160 0.194570 0.584612
O O11 0.700038 0.193383 0.583033
O O12 0.768662 0.000000 0.534335
O O13 0.646095 0.000000 0.996832
O O14 0.500000 0.164244 0.000000
O O15 0.671427 0.217173 0.059671
O O16 0.503865 0.500000 0.639744
O O17 0.570281 0.250207 0.631398
O O18 0.374890 0.500000 0.828316
O O19 0.299040 0.257652 0.839597
O O20 0.854985 0.500000 0.360808
O O21 0.313097 0.000000 0.877403
#
# Coordination Sequence:
#
# PCOD8089338 Si02
#       8
#     8   8   8   8   8   8   8   8
#     4   8  17  35  54  71  99 134 166 204 253 305
#     4  10  21  34  51  75 100 126 162 205 245 293
#     4   9  19  34  51  75 109 144 174 209 254 299
#     4  10  19  33  53  72  97 133 163 195 247 301
#     4   9  18  34  55  77 102 136 175 213 253 297
#     4  10  20  35  54  75  98 129 166 204 249 300
#     4   9  18  34  54  75 101 135 173 211 251 298
#     4  10  21  36  51  73 103 130 160 203 251 298
#
# _framework density 18.120227
#
# number of rings (size 3 to 8) (size 9 to 14) (size 15 to 20)
#    0.000    2.625    1.250    1.875    0.000    3.750 
#    0.000    6.875    0.000    0.000    0.000    0.000 
#    0.000    0.000    0.000    0.000    0.000    0.000 
#
# Total GULP energy -396748.507085 kJ/mol
# GULP energy per Si atom -12398.390846 kJ/mol
# Density = 1.807898 g / cm^3
# Si number density = 18.120227 Si / 1000 Ang^3
#
#
#
# Elastic Constant Matrix: (Units=GPa)
#
#
# Indices 1 2 3 4 5 6 
#
# 1 107.1458 42.8042 35.0284 0.0000 -12.8086 0.0000
# 2 42.8042 57.1224 49.3010 0.0000 -8.3464 0.0000
# 3 35.0284 49.3010 110.3217 0.0000 -12.0938 0.0000
# 4 0.0000 0.0000 0.0000 26.6016 0.0000 -5.1916
# 5 -12.8086 -8.3464 -12.0938 0.0000 17.3628 0.0000
# 6 0.0000 0.0000 0.0000 -5.1916 0.0000 32.6001
#
#
#
# Elastic Compliance Matrix: (Units=1/GPa)
#
#
# Indices 1 2 3 4 5 6 
#
# 1 0.013854 -0.010227 0.000815 0.000000 0.005872 0.000000
# 2 -0.010227 0.036492 -0.012954 0.000000 0.000975 0.000000
# 3 0.000815 -0.012954 0.015133 0.000000 0.004915 0.000000
# 4 0.000000 0.000000 0.000000 0.038798 0.000000 0.006179
# 5 0.005872 0.000975 0.004915 0.000000 0.065818 0.000000
# 6 0.000000 0.000000 0.000000 0.006179 0.000000 0.031659
#
#
# Mechanical properties :
#
#
# Convention : Reuss Voigt Hill
#
# Bulk Modulus (GPa) = 48.19659 58.76190 53.47924
# Shear Modulus (GPa) = 19.73151 25.14334 22.43742
#
# Velocity S-wave (km/s) = 3.30346 3.72907 3.52270
# Velocity P-wave (km/s) = 6.41922 7.14427 6.79143
#
# Compressibility (1/GPa) = 0.02074836
#
# Stress axis : x y z
#
# Youngs Moduli (GPa) = 72.18020 27.40298 66.07976
#
# Poissons Ratio (x) = 0.28025 -0.05387
# Poissons Ratio (y) = 0.73820 0.85598
# Poissons Ratio (z) = -0.05884 0.35497
#
# Static dielectric constant tensor:
#      x y z
#    x 3.347350 0.000000 0.005550 
#    y 0.000000 3.168240 0.000000 
#    z 0.005550 0.000000 3.370860 
# 
# 
# High freq. dielectric constant tensor:
#      x y z
#    x 1.708170 0.000000 -0.000810 
#    y 0.000000 1.682820 0.000000 
#    z -0.000810 0.000000 1.698310 
# 
# From -- ./inp_files/359869.got.cif
#   From: 2010.06.25/outbox.cif.g09.slc.cpg/sg12_180_cif.got.tgz:359869.got - 2010.06.28 00:19:55.
