data_PCOD8089957
_publ_section_title
;
Structure prediction by ZEFSAII (Michael W. Deem and Ramdas Pophale) SiO2 
 PCOD8089957
Probable space group: C 2/M
;
_chemical_formula_sum "Si O2"
_cell_formula_units_Z 48
_cell_length_a 20.910391
_cell_length_b 10.158944
_cell_length_c 20.594578
_cell_angle_alpha 90.000000
_cell_angle_beta 148.996009
_cell_angle_gamma 90.000000
_cell_volume 2253.477862
_symmetry_space_group_name_H-M "C 2/M"
_symmetry_group_IT_number 12
_symmetry_cell_setting 'monoclinic'
loop_
_space_group_symop_operation_xyz
x,y,z
-x,y,-z
-x,-y,-z
x,-y,z
1/2+x,1/2+y,z
1/2-x,1/2+y,-z
1/2-x,1/2-y,-z
1/2+x,1/2-y,z
loop_
_atom_site_type_symbol
_atom_site_label
_atom_site_fract_x
_atom_site_fract_y
_atom_site_fract_z
Si Si1 0.352451 0.349866 0.012316
Si Si2 0.689048 0.351778 0.673322
Si Si3 0.521091 0.708987 0.415703
Si Si4 0.348874 0.355697 0.157394
Si Si5 0.621986 0.352114 0.206955
Si Si6 0.227095 0.644005 0.535097
O O1 0.305733 0.500000 0.963986
O O2 0.384652 0.316841 0.115277
O O3 0.474786 0.325811 0.075753
O O4 0.245571 0.251340 0.894410
O O5 0.718483 0.500000 0.725428
O O6 0.598049 0.270226 0.641795
O O7 0.623703 0.372460 0.546144
O O8 0.812020 0.262117 0.777301
O O9 0.474175 0.637221 0.309453
O O10 0.593453 0.839851 0.455193
O O11 0.285617 0.500000 0.103600
O O12 0.651592 0.500000 0.205700
O O13 0.663076 0.344133 0.317376
O O14 0.227310 0.500000 0.502842
O O15 0.250000 0.750000 0.500000
#
# Coordination Sequence:
#
# PCOD8089957 Si02
#       6
#     8   8   8   8   8   8
#     4   9  19  35  53  75 103 136 175 216 261 314
#     4  10  20  34  56  82 105 137 179 220 261 312
#     4  10  20  35  54  79 110 138 171 214 264 314
#     4  10  19  33  55  78 103 137 173 216 266 312
#     4   9  19  36  53  72 105 143 175 215 267 316
#     4  10  21  34  53  81 109 139 174 214 265 320
#
# _framework density 21.300408000000001
#
# number of rings (size 3 to 8) (size 9 to 14) (size 15 to 20)
#    0.000    2.333    0.000    3.000    0.000    7.333 
#    0.000    7.500    0.000    4.000    0.000    0.000 
#    0.000    0.000    0.000    0.000    0.000    0.000 
#
# Total GULP energy -297376.292766 kJ/mol
# GULP energy per Si atom -12390.678865 kJ/mol
# Density = 2.125193 g / cm^3
# Si number density = 21.300408 Si / 1000 Ang^3
#
#
#
# Elastic Constant Matrix: (Units=GPa)
#
#
# Indices 1 2 3 4 5 6 
#
# 1 63.4519 44.4441 8.6302 0.0000 19.8339 0.0000
# 2 44.4441 129.9612 25.9495 0.0000 29.1954 0.0000
# 3 8.6302 25.9495 49.4981 0.0000 13.2203 0.0000
# 4 0.0000 0.0000 0.0000 14.6650 0.0000 5.9767
# 5 19.8339 29.1954 13.2203 0.0000 34.7266 0.0000
# 6 0.0000 0.0000 0.0000 5.9767 0.0000 20.4711
#
#
#
# Elastic Compliance Matrix: (Units=1/GPa)
#
#
# Indices 1 2 3 4 5 6 
#
# 1 0.022412 -0.006114 0.001496 0.000000 -0.008229 0.000000
# 2 -0.006114 0.011622 -0.003729 0.000000 -0.004859 0.000000
# 3 0.001496 -0.003729 0.023697 0.000000 -0.006741 0.000000
# 4 0.000000 0.000000 0.000000 0.077399 0.000000 -0.022597
# 5 -0.008229 -0.004859 -0.006741 0.000000 0.040148 0.000000
# 6 0.000000 0.000000 0.000000 -0.022597 0.000000 0.055447
#
#
# Mechanical properties :
#
#
# Convention : Reuss Voigt Hill
#
# Bulk Modulus (GPa) = 24.36901 44.55098 34.45999
# Shear Modulus (GPa) = 19.14997 24.89837 22.02417
#
# Velocity S-wave (km/s) = 3.00166 3.42265 3.21904
# Velocity P-wave (km/s) = 4.84548 6.04817 5.47992
#
# Compressibility (1/GPa) = 0.04103573
#
# Stress axis : x y z
#
# Youngs Moduli (GPa) = 44.61992 86.04639 42.19896
#
# Poissons Ratio (x) = 0.52611 -0.06312
# Poissons Ratio (y) = 0.27282 0.15736
# Poissons Ratio (z) = -0.06674 0.32086
#
# Static dielectric constant tensor:
#      x y z
#    x 3.787450 0.000000 0.018280 
#    y 0.000000 3.807910 0.000000 
#    z 0.018280 0.000000 3.765310 
# 
# 
# High freq. dielectric constant tensor:
#      x y z
#    x 1.829460 0.000000 0.000690 
#    y 0.000000 1.825540 0.000000 
#    z 0.000690 0.000000 1.820870 
# 
# From -- ./inp_files/348887.got.cif
#   From: 2010.06.25/outbox.cif.g09.slc.cpg/sg12_175_cif.got.tgz:348887.got - 2010.06.28 00:19:55.
