data_PCOD8089274
_publ_section_title
;
Structure prediction by ZEFSAII (Michael W. Deem and Ramdas Pophale) SiO2 
 PCOD8089274
Probable space group: C 2/M
;
_chemical_formula_sum "Si O2"
_cell_formula_units_Z 48
_cell_length_a 15.762567
_cell_length_b 17.765778
_cell_length_c 13.939546
_cell_angle_alpha 90.000000
_cell_angle_beta 44.203836
_cell_angle_gamma 90.000000
_cell_volume 2721.606564
_symmetry_space_group_name_H-M "C 2/M"
_symmetry_group_IT_number 12
_symmetry_cell_setting 'monoclinic'
loop_
_space_group_symop_operation_xyz
x,y,z
-x,y,-z
-x,-y,-z
x,-y,z
1/2+x,1/2+y,z
1/2-x,1/2+y,-z
1/2-x,1/2-y,-z
1/2+x,1/2-y,z
loop_
_atom_site_type_symbol
_atom_site_label
_atom_site_fract_x
_atom_site_fract_y
_atom_site_fract_z
Si Si1 0.835779 0.150141 0.707802
Si Si2 0.042240 0.412508 0.252579
Si Si3 0.089240 0.087853 0.549087
Si Si4 0.282644 0.913321 0.549818
Si Si5 0.599661 0.089139 0.993098
Si Si6 0.366828 0.819730 0.651549
O O1 0.831319 0.109303 0.608416
O O2 0.810807 0.238466 0.716915
O O3 0.966129 0.136279 0.652388
O O4 0.733197 0.117234 0.859143
O O5 0.075260 0.500000 0.236772
O O6 0.066536 0.382341 0.126098
O O7 0.129419 0.367155 0.253718
O O8 0.901458 0.397458 0.389843
O O9 0.165391 0.107762 0.581876
O O10 0.056590 0.000000 0.570273
O O11 0.279898 0.862531 0.646907
O O12 0.279892 0.000000 0.584630
O O13 0.597901 0.000000 0.990609
O O14 0.500000 0.122246 0.000000
O O15 0.500000 0.810828 0.500000
#
# Coordination Sequence:
#
# PCOD8089274 Si02
#       6
#     8   8   8   8   8   8
#     4  11  20  33  50  78 106 137 164 208 267 311
#     4   9  18  33  54  76 101 137 175 214 252 298
#     4  10  19  33  52  77 104 136 173 212 254 305
#     4   9  18  33  56  80 102 133 175 217 252 299
#     4  10  20  35  54  76 100 133 176 214 252 303
#     4  10  19  34  51  78 108 136 170 209 262 306
#
# _framework density 17.636641999999998
#
# number of rings (size 3 to 8) (size 9 to 14) (size 15 to 20)
#    0.000    2.167    1.667    3.500    0.000    6.000 
#    3.000    0.000    0.000    0.000    0.000    4.667 
#    0.000    0.000    0.000    0.000    0.000    0.000 
#
# Total GULP energy -297668.075132 kJ/mol
# GULP energy per Si atom -12402.836464 kJ/mol
# Density = 1.759650 g / cm^3
# Si number density = 17.636642 Si / 1000 Ang^3
#
#
#
# Elastic Constant Matrix: (Units=GPa)
#
#
# Indices 1 2 3 4 5 6 
#
# 1 136.3366 44.8913 44.0657 0.0000 14.8545 0.0000
# 2 44.8913 47.1171 21.5844 0.0000 6.2441 0.0000
# 3 44.0657 21.5844 77.4211 0.0001 13.2071 0.0000
# 4 0.0000 0.0000 0.0001 15.3605 0.0000 1.4023
# 5 14.8545 6.2441 13.2071 0.0000 23.7060 0.0000
# 6 0.0000 0.0000 0.0000 1.4023 0.0000 15.5397
#
#
#
# Elastic Compliance Matrix: (Units=1/GPa)
#
#
# Indices 1 2 3 4 5 6 
#
# 1 0.011895 -0.009252 -0.003685 0.000000 -0.002963 0.000000
# 2 -0.009252 0.031710 -0.003468 0.000000 -0.000623 0.000000
# 3 -0.003685 -0.003468 0.017052 0.000000 -0.006277 0.000000
# 4 0.000000 0.000000 0.000000 0.065643 0.000000 -0.005923
# 5 -0.002963 -0.000623 -0.006277 0.000000 0.047701 0.000000
# 6 0.000000 0.000000 0.000000 -0.005923 0.000000 0.064886
#
#
# Mechanical properties :
#
#
# Convention : Reuss Voigt Hill
#
# Bulk Modulus (GPa) = 35.91270 53.55081 44.73176
# Shear Modulus (GPa) = 17.79477 20.94346 19.36912
#
# Velocity S-wave (km/s) = 3.17987 3.44975 3.31755
# Velocity P-wave (km/s) = 5.82141 6.80419 6.33190
#
# Compressibility (1/GPa) = 0.02784530
#
# Stress axis : x y z
#
# Youngs Moduli (GPa) = 84.06629 31.53548 58.64519
#
# Poissons Ratio (x) = 0.29178 0.21613
# Poissons Ratio (y) = 0.77781 0.20339
# Poissons Ratio (z) = 0.30982 0.10937
#
# Static dielectric constant tensor:
#      x y z
#    x 3.391080 0.000000 0.107930 
#    y 0.000000 3.259690 0.000000 
#    z 0.107930 0.000000 3.036310 
# 
# 
# High freq. dielectric constant tensor:
#      x y z
#    x 1.690130 0.000000 0.006080 
#    y 0.000000 1.679740 0.000000 
#    z 0.006080 0.000000 1.656090 
# 
# From -- ./inp_files/143907.got.cif
#   From: 2010.06.25/outbox.cif.g09.slc.cpg/sg12_72_cif.got.tgz:143907.got - 2010.06.28 00:19:55.
