data_PCOD8089488
_publ_section_title
;
Structure prediction by ZEFSAII (Michael W. Deem and Ramdas Pophale) SiO2 
 PCOD8089488
Probable space group: C 2/M
;
_chemical_formula_sum "Si O2"
_cell_formula_units_Z 64
_cell_length_a 20.021790
_cell_length_b 12.002150
_cell_length_c 22.595865
_cell_angle_alpha 90.000000
_cell_angle_beta 36.247049
_cell_angle_gamma 90.000000
_cell_volume 3210.520009
_symmetry_space_group_name_H-M "C 2/M"
_symmetry_group_IT_number 12
_symmetry_cell_setting 'monoclinic'
loop_
_space_group_symop_operation_xyz
x,y,z
-x,y,-z
-x,-y,-z
x,-y,z
1/2+x,1/2+y,z
1/2-x,1/2+y,-z
1/2-x,1/2-y,-z
1/2+x,1/2-y,z
loop_
_atom_site_type_symbol
_atom_site_label
_atom_site_fract_x
_atom_site_fract_y
_atom_site_fract_z
Si Si1 0.774545 0.133880 0.405116
Si Si2 0.378018 0.623444 0.096618
Si Si3 0.128948 0.872234 0.299945
Si Si4 0.567865 0.247645 0.616274
Si Si5 0.240779 0.714596 0.899346
Si Si6 0.989968 0.376968 0.884908
Si Si7 0.913405 0.374956 0.812684
Si Si8 0.795096 0.233518 0.260345
O O1 0.659809 0.175299 0.516400
O O2 0.878868 0.171021 0.371834
O O3 0.780345 0.196787 0.338102
O O4 0.775637 0.000000 0.396750
O O5 0.390215 0.500000 0.063738
O O6 0.286883 0.682285 0.122137
O O7 0.326615 0.624147 0.199719
O O8 0.500000 0.682867 0.000000
O O9 0.195522 0.872424 0.189312
O O10 0.188209 0.801480 0.310524
O O11 0.003489 0.822408 0.378929
O O12 0.118692 0.000000 0.328640
O O13 0.486863 0.155617 0.702991
O O14 0.322178 0.775512 0.888852
O O15 0.133731 0.661805 0.006890
O O16 0.007810 0.500000 0.897886
O O17 0.995460 0.375176 0.810235
O O18 0.094332 0.306818 0.833140
O O19 0.861372 0.500000 0.841942
#
# Coordination Sequence:
#
# PCOD8089488 Si02
#       8
#     8   8   8   8   8   8   8   8
#     4  11  23  42  67  92 119 156 197 245 303 357
#     4  10  19  33  53  77 110 152 193 238 289 341
#     4  10  22  40  62  90 122 160 198 248 304 353
#     4  10  22  42  65  92 121 150 200 248 300 363
#     4  10  20  35  56  82 119 155 203 244 288 356
#     4  11  21  35  55  83 120 159 198 245 294 348
#     4  10  20  36  58  85 118 154 195 245 302 354
#     4  11  22  39  58  89 123 156 201 246 293 360
#
# _framework density 19.934466
#
# number of rings (size 3 to 8) (size 9 to 14) (size 15 to 20)
#    0.000    1.625    2.500    2.625    0.000    0.500 
#    0.000    6.875    0.000    0.000    0.000    0.000 
#    0.000    0.000    0.000    0.000    0.000    0.000 
#
# Total GULP energy -396565.612337 kJ/mol
# GULP energy per Si atom -12392.675386 kJ/mol
# Density = 1.988909 g / cm^3
# Si number density = 19.934466 Si / 1000 Ang^3
#
#
#
# Elastic Constant Matrix: (Units=GPa)
#
#
# Indices 1 2 3 4 5 6 
#
# 1 92.5536 32.9243 18.7973 0.0000 -7.7724 0.0000
# 2 32.9243 107.8545 23.0637 0.0000 -2.7436 0.0000
# 3 18.7973 23.0637 60.8005 0.0000 0.1001 0.0000
# 4 0.0000 0.0000 0.0000 23.3357 0.0000 0.1465
# 5 -7.7724 -2.7436 0.1001 0.0000 29.2546 0.0000
# 6 0.0000 0.0000 0.0000 0.1465 0.0000 4.7565
#
#
#
# Elastic Compliance Matrix: (Units=1/GPa)
#
#
# Indices 1 2 3 4 5 6 
#
# 1 0.012770 -0.003237 -0.002725 0.000000 0.003098 0.000000
# 2 -0.003237 0.010938 -0.003149 0.000000 0.000177 0.000000
# 3 -0.002725 -0.003149 0.018486 0.000000 -0.001083 0.000000
# 4 0.000000 0.000000 0.000000 0.042861 0.000000 -0.001320
# 5 0.003098 0.000177 -0.001083 0.000000 0.035026 0.000000
# 6 0.000000 0.000000 0.000000 -0.001320 0.000000 0.210277
#
#
# Mechanical properties :
#
#
# Convention : Reuss Voigt Hill
#
# Bulk Modulus (GPa) = 41.71501 45.64215 43.67858
# Shear Modulus (GPa) = 14.02251 23.89758 18.96005
#
# Velocity S-wave (km/s) = 2.65510 3.46614 3.08737
# Velocity P-wave (km/s) = 5.51098 6.24216 5.88793
#
# Compressibility (1/GPa) = 0.02397219
#
# Stress axis : x y z
#
# Youngs Moduli (GPa) = 78.31112 91.42806 54.09504
#
# Poissons Ratio (x) = 0.29591 0.14742
# Poissons Ratio (y) = 0.25346 0.17033
# Poissons Ratio (z) = 0.21342 0.28788
#
# Static dielectric constant tensor:
#      x y z
#    x 3.723770 0.000000 -0.115410 
#    y 0.000000 3.667100 0.000000 
#    z -0.115410 0.000000 3.660960 
# 
# 
# High freq. dielectric constant tensor:
#      x y z
#    x 1.784950 0.000000 -0.005320 
#    y 0.000000 1.781080 0.000000 
#    z -0.005320 0.000000 1.770070 
# 
# From -- ./inp_files/321233.got.cif
#   From: 2010.06.25/outbox.cif.g09.slc.cpg/sg12_161_cif.got.tgz:321233.got - 2010.06.28 00:19:55.
