data_PCOD8089938
_publ_section_title
;
Structure prediction by ZEFSAII (Michael W. Deem and Ramdas Pophale) SiO2 
 PCOD8089938
Probable space group: C 2/M
;
_chemical_formula_sum "Si O2"
_cell_formula_units_Z 64
_cell_length_a 12.763605
_cell_length_b 13.798195
_cell_length_c 32.010656
_cell_angle_alpha 90.000000
_cell_angle_beta 36.770294
_cell_angle_gamma 90.000000
_cell_volume 3374.683043
_symmetry_space_group_name_H-M "C 2/M"
_symmetry_group_IT_number 12
_symmetry_cell_setting 'monoclinic'
loop_
_space_group_symop_operation_xyz
x,y,z
-x,y,-z
-x,-y,-z
x,-y,z
1/2+x,1/2+y,z
1/2-x,1/2+y,-z
1/2-x,1/2-y,-z
1/2+x,1/2-y,z
loop_
_atom_site_type_symbol
_atom_site_label
_atom_site_fract_x
_atom_site_fract_y
_atom_site_fract_z
Si Si1 0.544526 0.887409 0.320496
Si Si2 0.344173 0.388213 0.580866
Si Si3 0.414367 0.217252 0.776030
Si Si4 0.326746 0.612328 0.753531
Si Si5 0.702736 0.288747 0.922299
Si Si6 0.202133 0.213142 0.319175
Si Si7 0.549933 0.111248 0.099822
Si Si8 0.668715 0.894770 0.973800
O O1 0.335839 0.868479 0.386549
O O2 0.614700 0.860341 0.251795
O O3 0.635751 0.820816 0.327095
O O4 0.588227 0.000000 0.316055
O O5 0.500000 0.362795 0.500000
O O6 0.350638 0.500000 0.593979
O O7 0.368289 0.317119 0.612796
O O8 0.446005 0.324362 0.746405
O O9 0.242127 0.207522 0.860369
O O10 0.587657 0.200299 0.748083
O O11 0.358358 0.500000 0.752637
O O12 0.370946 0.636343 0.691370
O O13 0.132509 0.653545 0.825485
O O14 0.800841 0.376924 0.913142
O O15 0.785816 0.186857 0.913341
O O16 0.500000 0.294618 0.000000
O O17 0.515676 0.000000 0.101915
O O18 0.611494 0.154625 0.035896
O O19 0.765865 0.000000 0.947884
O O20 0.500000 0.913306 0.000000
#
# Coordination Sequence:
#
# PCOD8089938 Si02
#       8
#     8   8   8   8   8   8   8   8
#     4   9  20  37  57  80 112 149 178 216 267 315
#     4   9  18  34  58  88 117 146 182 218 255 307
#     4  10  21  35  53  79 104 136 184 225 268 326
#     4  10  19  33  55  77 100 135 179 225 268 317
#     4  11  21  34  53  71  98 135 172 226 276 325
#     4  10  19  35  56  81 112 144 181 220 264 318
#     4  10  20  34  51  71  96 128 171 219 272 329
#     4   9  18  32  49  69  92 122 162 212 270 322
#
# _framework density 18.964744
#
# number of rings (size 3 to 8) (size 9 to 14) (size 15 to 20)
#    0.000    2.250    1.250    2.250    0.000    3.750 
#    0.000    0.000    0.000    0.375    0.000    0.000 
#    0.000    0.000    0.000    0.000    0.000    0.000 
#
# Total GULP energy -396553.023315 kJ/mol
# GULP energy per Si atom -12392.281979 kJ/mol
# Density = 1.892158 g / cm^3
# Si number density = 18.964744 Si / 1000 Ang^3
#
#
#
# Elastic Constant Matrix: (Units=GPa)
#
#
# Indices 1 2 3 4 5 6 
#
# 1 65.5444 22.7603 21.6742 -0.0005 18.1227 -0.0003
# 2 22.7603 75.3045 25.9920 0.0000 9.2942 0.0000
# 3 21.6742 25.9920 101.9135 -0.0037 13.1005 -0.0015
# 4 -0.0005 0.0000 -0.0037 24.9412 -0.0001 0.9679
# 5 18.1227 9.2942 13.1005 -0.0001 21.3831 0.0002
# 6 -0.0003 0.0000 -0.0015 0.9679 0.0002 27.2644
#
#
#
# Elastic Compliance Matrix: (Units=1/GPa)
#
#
# Indices 1 2 3 4 5 6 
#
# 1 0.021449 -0.004041 -0.001542 0.000000 -0.015478 0.000000
# 2 -0.004041 0.015714 -0.002942 0.000000 -0.001603 0.000000
# 3 -0.001542 -0.002942 0.011461 0.000002 -0.004436 0.000001
# 4 0.000000 0.000000 0.000002 0.040150 -0.000001 -0.001425
# 5 -0.015478 -0.001603 -0.004436 -0.000001 0.063298 -0.000001
# 6 0.000000 0.000000 0.000001 -0.001425 -0.000001 0.036728
#
#
# Mechanical properties :
#
#
# Convention : Reuss Voigt Hill
#
# Bulk Modulus (GPa) = 31.67034 42.62396 37.14715
# Shear Modulus (GPa) = 23.10808 26.20680 24.65744
#
# Velocity S-wave (km/s) = 3.49445 3.72138 3.60970
# Velocity P-wave (km/s) = 5.74608 6.40227 6.08303
#
# Compressibility (1/GPa) = 0.03157529
#
# Stress axis : x y z
#
# Youngs Moduli (GPa) = 46.62155 63.63722 87.25443
#
# Poissons Ratio (x) = 0.25713 0.13451
# Poissons Ratio (y) = 0.18837 0.25673
# Poissons Ratio (z) = 0.07187 0.18724
#
# Static dielectric constant tensor:
#      x y z
#    x 3.329120 0.000000 0.122510 
#    y 0.000000 3.691220 0.000000 
#    z 0.122510 0.000000 3.389300 
# 
# 
# High freq. dielectric constant tensor:
#      x y z
#    x 1.729730 0.000000 0.018250 
#    y 0.000000 1.736920 0.000000 
#    z 0.018250 0.000000 1.717380 
# 
# From -- ./inp_files/374086.got.cif
#   From: 2010.06.25/outbox.cif.g09.slc.cpg/sg12_188_cif.got.tgz:374086.got - 2010.06.28 00:19:55.
