data_PCOD8089165
_publ_section_title
;
Structure prediction by ZEFSAII (Michael W. Deem and Ramdas Pophale) SiO2 
 PCOD8089165
Probable space group: C 2/M
;
_chemical_formula_sum "Si O2"
_cell_formula_units_Z 64
_cell_length_a 14.482075
_cell_length_b 9.071308
_cell_length_c 27.323940
_cell_angle_alpha 90.000000
_cell_angle_beta 106.454444
_cell_angle_gamma 90.000000
_cell_volume 3442.572762
_symmetry_space_group_name_H-M "C 2/M"
_symmetry_group_IT_number 12
_symmetry_cell_setting 'monoclinic'
loop_
_space_group_symop_operation_xyz
x,y,z
-x,y,-z
-x,-y,-z
x,-y,z
1/2+x,1/2+y,z
1/2-x,1/2+y,-z
1/2-x,1/2-y,-z
1/2+x,1/2-y,z
loop_
_atom_site_type_symbol
_atom_site_label
_atom_site_fract_x
_atom_site_fract_y
_atom_site_fract_z
Si Si1 0.348502 0.174545 0.999372
Si Si2 0.952912 0.330591 0.636761
Si Si3 0.520242 0.670940 0.738504
Si Si4 0.041925 0.325385 0.078710
Si Si5 0.157656 0.671721 0.622823
Si Si6 0.080524 0.326188 0.192562
Si Si7 0.241658 0.673714 0.446920
Si Si8 0.725179 0.329715 0.725078
O O1 0.380262 0.228705 0.949840
O O2 0.333490 0.000000 0.998676
O O3 0.250000 0.250000 0.000000
O O4 0.433559 0.225188 0.049021
O O5 0.949213 0.500000 0.652822
O O6 0.951400 0.235315 0.685898
O O7 0.862443 0.286724 0.590434
O O8 0.046949 0.296956 0.618890
O O9 0.497258 0.500000 0.740241
O O10 0.500710 0.750141 0.786806
O O11 0.630877 0.702896 0.742681
O O12 0.044552 0.500000 0.078994
O O13 0.070819 0.262800 0.136162
O O14 0.179375 0.500000 0.618605
O O15 0.176873 0.758977 0.575828
O O16 0.226146 0.733000 0.676089
O O17 0.063247 0.500000 0.191333
O O18 0.185409 0.282707 0.228202
O O19 0.257625 0.500000 0.454729
O O20 0.250000 0.750000 0.500000
O O21 0.730550 0.500000 0.709720
#
# Coordination Sequence:
#
# PCOD8089165 Si02
#       8
#     8   8   8   8   8   8   8   8
#     4   9  17  33  55  75  97 130 173 215 255 300
#     4   9  20  38  57  75 101 139 174 203 245 307
#     4  10  20  33  51  78 107 132 165 211 255 293
#     4   8  17  33  51  72 100 136 173 205 247 309
#     4  10  20  36  57  78 101 132 170 209 249 296
#     4  10  19  33  52  72 101 140 173 202 245 304
#     4  11  23  38  55  77 104 133 168 209 255 304
#     4   9  19  34  51  73 102 135 168 202 247 302
#
# _framework density 18.590747
#
# number of rings (size 3 to 8) (size 9 to 14) (size 15 to 20)
#    0.000    2.500    0.000    2.625    0.000    7.000 
#    0.000    6.250    0.000    0.000    0.000    0.000 
#    0.000    0.000    0.000    0.000    0.000    0.000 
#
# Total GULP energy -396860.111591 kJ/mol
# GULP energy per Si atom -12401.878487 kJ/mol
# Density = 1.854843 g / cm^3
# Si number density = 18.590747 Si / 1000 Ang^3
#
#
#
# Elastic Constant Matrix: (Units=GPa)
#
#
# Indices 1 2 3 4 5 6 
#
# 1 93.0216 33.3487 53.1024 0.0000 -12.4692 0.0000
# 2 33.3487 57.9333 44.3727 0.0000 -10.3327 0.0000
# 3 53.1024 44.3727 142.1631 0.0000 -19.6646 0.0000
# 4 0.0000 0.0000 0.0000 26.1659 0.0000 -5.5921
# 5 -12.4692 -10.3327 -19.6646 0.0000 23.8466 0.0000
# 6 0.0000 0.0000 0.0000 -5.5921 0.0000 32.2598
#
#
#
# Elastic Compliance Matrix: (Units=1/GPa)
#
#
# Indices 1 2 3 4 5 6 
#
# 1 0.015105 -0.005503 -0.003569 0.000000 0.002571 0.000000
# 2 -0.005503 0.025126 -0.005281 0.000000 0.003654 0.000000
# 3 -0.003569 -0.005281 0.010657 0.000000 0.004633 0.000000
# 4 0.000000 0.000000 0.000000 0.039688 0.000000 0.006880
# 5 0.002571 0.003654 0.004633 0.000000 0.048683 0.000000
# 6 0.000000 0.000000 0.000000 0.006880 0.000000 0.032191
#
#
# Mechanical properties :
#
#
# Convention : Reuss Voigt Hill
#
# Bulk Modulus (GPa) = 45.08387 61.64060 53.36223
# Shear Modulus (GPa) = 24.09060 27.27407 25.68233
#
# Velocity S-wave (km/s) = 3.60368 3.83440 3.72083
# Velocity P-wave (km/s) = 6.45126 7.26857 6.87207
#
# Compressibility (1/GPa) = 0.02218088
#
# Stress axis : x y z
#
# Youngs Moduli (GPa) = 66.20309 39.79954 93.83825
#
# Poissons Ratio (x) = 0.21902 0.33491
# Poissons Ratio (y) = 0.36431 0.49560
# Poissons Ratio (z) = 0.23628 0.21020
#
# Static dielectric constant tensor:
#      x y z
#    x 3.511710 0.000000 -0.058460 
#    y 0.000000 3.288200 0.000000 
#    z -0.058460 0.000000 3.636100 
# 
# 
# High freq. dielectric constant tensor:
#      x y z
#    x 1.729410 0.000000 -0.005620 
#    y 0.000000 1.708990 0.000000 
#    z -0.005620 0.000000 1.722120 
# 
# From -- ./inp_files/359824.got.cif
#   From: 2010.06.25/outbox.cif.g09.slc.cpg/sg12_180_cif.got.tgz:359824.got - 2010.06.28 00:19:55.
