data_PCOD8089690
_publ_section_title
;
Structure prediction by ZEFSAII (Michael W. Deem and Ramdas Pophale) SiO2 
 PCOD8089690
Probable space group: C 2/M
;
_chemical_formula_sum "Si O2"
_cell_formula_units_Z 40
_cell_length_a 25.041205
_cell_length_b 8.810890
_cell_length_c 24.959093
_cell_angle_alpha 90.000000
_cell_angle_beta 23.650779
_cell_angle_gamma 90.000000
_cell_volume 2209.136340
_symmetry_space_group_name_H-M "C 2/M"
_symmetry_group_IT_number 12
_symmetry_cell_setting 'monoclinic'
loop_
_space_group_symop_operation_xyz
x,y,z
-x,y,-z
-x,-y,-z
x,-y,z
1/2+x,1/2+y,z
1/2-x,1/2+y,-z
1/2-x,1/2-y,-z
1/2+x,1/2-y,z
loop_
_atom_site_type_symbol
_atom_site_label
_atom_site_fract_x
_atom_site_fract_y
_atom_site_fract_z
Si Si1 0.347640 0.677839 0.867296
Si Si2 0.799814 0.821650 0.088837
Si Si3 0.640825 0.321844 0.638159
Si Si4 0.343833 0.832756 0.153473
Si Si5 0.080515 0.679965 0.802741
O O1 0.320328 0.500000 0.890068
O O2 0.321487 0.750751 0.833169
O O3 0.497785 0.716200 0.744977
O O4 0.250000 0.750000 0.000000
O O5 0.777323 0.781998 0.172268
O O6 0.801968 0.000000 0.079166
O O7 0.936407 0.755978 0.939869
O O8 0.664802 0.500000 0.621980
O O9 0.750000 0.250000 0.500000
O O10 0.656385 0.244564 0.681761
O O11 0.326892 0.778836 0.230709
O O12 0.280892 0.000000 0.202705
O O13 0.500000 0.841504 0.000000
O O14 0.059727 0.500000 0.817664
#
# Coordination Sequence:
#
# PCOD8089690 Si02
#       5
#     8   8   8   8   8
#     4  11  22  36  56  81 110 145 183 226 274 326
#     4  11  20  30  50  81 112 143 179 224 275 322
#     4  11  24  39  57  81 110 146 186 224 274 331
#     4   8  16  30  48  74 106 142 178 219 273 324
#     4  10  19  33  54  77 108 145 182 226 272 321
#
# _framework density 18.106625000000001
#
# number of rings (size 3 to 8) (size 9 to 14) (size 15 to 20)
#    0.000    1.800    2.000    4.800    0.000    6.800 
#    0.000    0.000    0.000    1.200    0.000    8.400 
#    0.000    0.000    0.000    0.000    0.000    0.000 
#
# Total GULP energy -247994.046132 kJ/mol
# GULP energy per Si atom -12399.702307 kJ/mol
# Density = 1.806541 g / cm^3
# Si number density = 18.106625 Si / 1000 Ang^3
#
#
#
# Elastic Constant Matrix: (Units=GPa)
#
#
# Indices 1 2 3 4 5 6 
#
# 1 164.1870 75.5864 58.1651 -0.0013 20.8035 0.0003
# 2 75.5864 124.9968 54.0754 -0.0111 4.2307 0.0047
# 3 58.1651 54.0754 80.1003 -0.0054 13.2332 0.0020
# 4 -0.0013 -0.0111 -0.0054 24.2125 0.0007 3.9483
# 5 20.8035 4.2307 13.2332 0.0007 22.8660 0.0003
# 6 0.0003 0.0047 0.0020 3.9483 0.0003 34.2451
#
#
#
# Elastic Compliance Matrix: (Units=1/GPa)
#
#
# Indices 1 2 3 4 5 6 
#
# 1 0.010141 -0.004508 -0.003244 -0.000002 -0.006515 0.000001
# 2 -0.004508 0.013443 -0.006710 0.000005 0.005498 -0.000002
# 3 -0.003244 -0.006710 0.020652 0.000002 -0.007759 0.000000
# 4 -0.000002 0.000005 0.000002 0.042092 -0.000001 -0.004853
# 5 -0.006515 0.005498 -0.007759 -0.000001 0.053133 -0.000001
# 6 0.000001 -0.000002 0.000000 -0.004853 -0.000001 0.029761
#
#
# Mechanical properties :
#
#
# Convention : Reuss Voigt Hill
#
# Bulk Modulus (GPa) = 65.31198 82.77088 74.04143
# Shear Modulus (GPa) = 24.60024 28.36184 26.48104
#
# Velocity S-wave (km/s) = 3.68996 3.96204 3.82842
# Velocity P-wave (km/s) = 7.36909 8.16962 7.77966
#
# Compressibility (1/GPa) = 0.01531113
#
# Stress axis : x y z
#
# Youngs Moduli (GPa) = 98.61221 74.38725 48.42238
#
# Poissons Ratio (x) = 0.33536 0.15708
# Poissons Ratio (y) = 0.44457 0.32491
# Poissons Ratio (z) = 0.31989 0.49913
#
# Static dielectric constant tensor:
#      x y z
#    x 4.203550 0.000000 -0.092460 
#    y 0.000000 3.468410 0.000000 
#    z -0.092460 0.000000 3.146750 
# 
# 
# High freq. dielectric constant tensor:
#      x y z
#    x 1.724690 0.000000 0.011280 
#    y 0.000000 1.714710 0.000000 
#    z 0.011280 0.000000 1.646940 
# 
# From -- ./inp_files/92775.got.cif
#   From: 2010.06.25/outbox.cif.g09.slc.cpg/sg12_47_cif.got.tgz:92775.got - 2010.06.28 00:19:55.
