data_PCOD8089555
_publ_section_title
;
Structure prediction by ZEFSAII (Michael W. Deem and Ramdas Pophale) SiO2 
 PCOD8089555
Probable space group: C 2/M
;
_chemical_formula_sum "Si O2"
_cell_formula_units_Z 64
_cell_length_a 15.367420
_cell_length_b 9.133001
_cell_length_c 24.154777
_cell_angle_alpha 90.000000
_cell_angle_beta 80.150741
_cell_angle_gamma 90.000000
_cell_volume 3340.172367
_symmetry_space_group_name_H-M "C 2/M"
_symmetry_group_IT_number 12
_symmetry_cell_setting 'monoclinic'
loop_
_space_group_symop_operation_xyz
x,y,z
-x,y,-z
-x,-y,-z
x,-y,z
1/2+x,1/2+y,z
1/2-x,1/2+y,-z
1/2-x,1/2-y,-z
1/2+x,1/2-y,z
loop_
_atom_site_type_symbol
_atom_site_label
_atom_site_fract_x
_atom_site_fract_y
_atom_site_fract_z
Si Si1 0.243253 0.672776 0.674655
Si Si2 0.440622 0.171748 0.250322
Si Si3 0.671186 0.829118 0.936660
Si Si4 0.366187 0.669091 0.948369
Si Si5 0.545794 0.672411 0.866625
Si Si6 0.086255 0.326935 0.323983
Si Si7 0.989950 0.667878 0.440927
Si Si8 0.787631 0.666405 0.443961
O O1 0.255964 0.500000 0.676010
O O2 0.151390 0.718283 0.712111
O O3 0.320805 0.751512 0.700287
O O4 0.247977 0.728458 0.610428
O O5 0.455156 0.266709 0.194683
O O6 0.517992 0.215637 0.283803
O O7 0.442296 0.000000 0.235592
O O8 0.776796 0.800204 0.923217
O O9 0.626179 0.746715 0.890627
O O10 0.649367 0.000000 0.934585
O O11 0.630422 0.769214 0.997906
O O12 0.369321 0.500000 0.967112
O O13 0.450806 0.711486 0.902946
O O14 0.562450 0.500000 0.864284
O O15 0.098049 0.500000 0.325689
O O16 0.052429 0.262821 0.386921
O O17 0.018643 0.500000 0.445157
O O18 0.891979 0.682086 0.429153
O O19 0.000000 0.746949 0.500000
O O20 0.758360 0.500000 0.454880
O O21 0.750000 0.750000 0.500000
#
# Coordination Sequence:
#
# PCOD8089555 Si02
#       8
#     8   8   8   8   8   8   8   8
#     4  10  21  38  58  80 111 146 179 228 292 342
#     4  10  22  41  59  78 110 151 193 237 282 340
#     4  10  20  36  60  89 120 156 195 234 281 339
#     4   9  20  38  58  84 121 158 190 234 289 338
#     4  11  23  38  58  84 116 153 195 239 288 338
#     4  10  20  37  60  83 106 142 191 233 275 338
#     4   9  16  29  52  79 107 139 178 221 270 333
#     4  10  19  33  53  80 111 143 179 223 278 338
#
# _framework density 19.160688
#
# number of rings (size 3 to 8) (size 9 to 14) (size 15 to 20)
#    0.000    2.125    1.250    1.875    0.000    6.500 
#    0.000    4.375    0.000    2.250    0.000    0.000 
#    0.000    0.000    0.000    0.000    0.000    0.000 
#
# Total GULP energy -396810.697301 kJ/mol
# GULP energy per Si atom -12400.334291 kJ/mol
# Density = 1.911708 g / cm^3
# Si number density = 19.160688 Si / 1000 Ang^3
#
#
#
# Elastic Constant Matrix: (Units=GPa)
#
#
# Indices 1 2 3 4 5 6 
#
# 1 121.5833 45.1407 66.2963 0.0000 11.7809 0.0000
# 2 45.1407 57.2926 50.2128 0.0000 5.0900 0.0000
# 3 66.2963 50.2128 111.5306 0.0000 10.1446 0.0000
# 4 0.0000 0.0000 0.0000 31.3533 0.0000 1.6261
# 5 11.7809 5.0900 10.1446 0.0000 24.5174 0.0000
# 6 0.0000 0.0000 0.0000 1.6261 0.0000 30.1408
#
#
#
# Elastic Compliance Matrix: (Units=1/GPa)
#
#
# Indices 1 2 3 4 5 6 
#
# 1 0.013488 -0.005899 -0.005074 0.000000 -0.003157 0.000000
# 2 -0.005899 0.031420 -0.010707 0.000000 0.000742 0.000000
# 3 -0.005074 -0.010707 0.017019 0.000000 -0.002381 0.000000
# 4 0.000000 0.000000 0.000000 0.031984 0.000000 -0.001726
# 5 -0.003157 0.000742 -0.002381 0.000000 0.043135 0.000000
# 6 0.000000 0.000000 0.000000 -0.001726 0.000000 0.033271
#
#
# Mechanical properties :
#
#
# Convention : Reuss Voigt Hill
#
# Bulk Modulus (GPa) = 53.86001 68.18958 61.02480
# Shear Modulus (GPa) = 22.74105 25.78608 24.26357
#
# Velocity S-wave (km/s) = 3.44882 3.67247 3.56240
# Velocity P-wave (km/s) = 6.63550 7.32450 6.98849
#
# Compressibility (1/GPa) = 0.01856665
#
# Stress axis : x y z
#
# Youngs Moduli (GPa) = 74.14060 31.82694 58.75661
#
# Poissons Ratio (x) = 0.18775 0.29816
# Poissons Ratio (y) = 0.43737 0.62908
# Poissons Ratio (z) = 0.37622 0.34076
#
# Static dielectric constant tensor:
#      x y z
#    x 3.681490 0.000000 0.028870 
#    y 0.000000 3.342010 0.000000 
#    z 0.028870 0.000000 3.498080 
# 
# 
# High freq. dielectric constant tensor:
#      x y z
#    x 1.760040 0.000000 0.001920 
#    y 0.000000 1.726280 0.000000 
#    z 0.001920 0.000000 1.746100 
# 
# From -- ./inp_files/359758.got.cif
#   From: 2010.06.25/outbox.cif.g09.slc.cpg/sg12_180_cif.got.tgz:359758.got - 2010.06.28 00:19:55.
