data_PCOD8089729
_publ_section_title
;
Structure prediction by ZEFSAII (Michael W. Deem and Ramdas Pophale) SiO2 
 PCOD8089729
Probable space group: C 2/M
;
_chemical_formula_sum "Si O2"
_cell_formula_units_Z 64
_cell_length_a 15.451839
_cell_length_b 8.928990
_cell_length_c 30.699653
_cell_angle_alpha 90.000000
_cell_angle_beta 130.090914
_cell_angle_gamma 90.000000
_cell_volume 3240.341437
_symmetry_space_group_name_H-M "C 2/M"
_symmetry_group_IT_number 12
_symmetry_cell_setting 'monoclinic'
loop_
_space_group_symop_operation_xyz
x,y,z
-x,y,-z
-x,-y,-z
x,-y,z
1/2+x,1/2+y,z
1/2-x,1/2+y,-z
1/2-x,1/2-y,-z
1/2+x,1/2-y,z
loop_
_atom_site_type_symbol
_atom_site_label
_atom_site_fract_x
_atom_site_fract_y
_atom_site_fract_z
Si Si1 0.234531 0.326578 0.427000
Si Si2 0.925823 0.173465 0.560421
Si Si3 0.445749 0.330032 0.938030
Si Si4 0.811510 0.176767 0.752936
Si Si5 0.663851 0.822536 0.623098
Si Si6 0.437739 0.323880 0.175466
Si Si7 0.653765 0.331624 0.942618
Si Si8 0.755388 0.674529 0.825071
O O1 0.211419 0.500000 0.409100
O O2 0.122400 0.257329 0.412696
O O3 0.340948 0.306201 0.492962
O O4 0.258792 0.237541 0.390829
O O5 0.042051 0.246244 0.582591
O O6 0.944524 0.000000 0.578102
O O7 0.403227 0.500000 0.932201
O O8 0.535557 0.324436 0.928844
O O9 0.341217 0.227805 0.890255
O O10 0.500000 0.265095 0.000000
O O11 0.724365 0.224692 0.687403
O O12 0.768588 0.240267 0.784424
O O13 0.935405 0.242682 0.780869
O O14 0.816987 0.000000 0.759487
O O15 0.650185 0.000000 0.613852
O O16 0.446818 0.500000 0.169785
O O17 0.369019 0.255540 0.111896
O O18 0.371024 0.289837 0.198395
O O19 0.697278 0.500000 0.951244
O O20 0.750000 0.250000 0.000000
O O21 0.774298 0.500000 0.823061
#
# Coordination Sequence:
#
# PCOD8089729 Si02
#       8
#     8   8   8   8   8   8   8   8
#     4  10  21  38  61  90 125 163 204 251 303 361
#     4  10  21  38  61  89 125 166 203 250 306 357
#     4  10  20  35  56  81 112 150 186 224 283 354
#     4  10  22  43  62  79 113 158 198 237 289 354
#     4  11  23  37  60  90 119 160 208 253 305 362
#     4   9  19  38  59  77 107 149 184 225 287 346
#     4  10  19  33  54  78 109 145 178 223 280 340
#     4  11  22  36  59  87 111 142 189 243 293 340
#
# _framework density 19.751004999999999
#
# number of rings (size 3 to 8) (size 9 to 14) (size 15 to 20)
#    0.000    1.875    1.250    2.625    0.000    5.750 
#    0.000    3.125    0.000    0.000    0.000    0.000 
#    0.000    0.000    0.000    0.000    0.000    0.000 
#
# Total GULP energy -396854.234089 kJ/mol
# GULP energy per Si atom -12401.694815 kJ/mol
# Density = 1.970605 g / cm^3
# Si number density = 19.751005 Si / 1000 Ang^3
#
#
#
# Elastic Constant Matrix: (Units=GPa)
#
#
# Indices 1 2 3 4 5 6 
#
# 1 94.6444 15.5514 26.8736 0.0000 -11.7934 0.0000
# 2 15.5514 47.8652 30.0297 0.0000 2.1381 0.0000
# 3 26.8736 30.0297 62.4217 0.0000 -15.0477 0.0000
# 4 0.0000 0.0000 0.0000 25.4852 0.0000 -5.3592
# 5 -11.7934 2.1381 -15.0477 0.0000 26.0161 0.0000
# 6 0.0000 0.0000 0.0000 -5.3592 0.0000 32.5056
#
#
#
# Elastic Compliance Matrix: (Units=1/GPa)
#
#
# Indices 1 2 3 4 5 6 
#
# 1 0.012343 -0.002030 -0.003426 0.000000 0.003780 0.000000
# 2 -0.002030 0.034242 -0.019173 0.000000 -0.014824 0.000000
# 3 -0.003426 -0.019173 0.031054 0.000000 0.017984 0.000000
# 4 0.000000 0.000000 0.000000 0.040648 0.000000 0.006702
# 5 0.003780 -0.014824 0.017984 0.000000 0.051772 0.000000
# 6 0.000000 0.000000 0.000000 0.006702 0.000000 0.031869
#
#
# Mechanical properties :
#
#
# Convention : Reuss Voigt Hill
#
# Bulk Modulus (GPa) = 35.23342 38.87118 37.05230
# Shear Modulus (GPa) = 19.18303 25.63315 22.40809
#
# Velocity S-wave (km/s) = 3.11986 3.60643 3.37193
# Velocity P-wave (km/s) = 5.55478 6.08811 5.82755
#
# Compressibility (1/GPa) = 0.02838215
#
# Stress axis : x y z
#
# Youngs Moduli (GPa) = 81.01566 29.20353 32.20167
#
# Poissons Ratio (x) = 0.05927 0.11033
# Poissons Ratio (y) = 0.16443 0.61740
# Poissons Ratio (z) = 0.27758 0.55992
#
# Static dielectric constant tensor:
#      x y z
#    x 7.814680 0.000000 3.228810 
#    y 0.000000 3.533360 0.000000 
#    z 3.228810 0.000000 6.188370 
# 
# 
# High freq. dielectric constant tensor:
#      x y z
#    x 1.784770 0.000000 -0.003800 
#    y 0.000000 1.758360 0.000000 
#    z -0.003800 0.000000 1.768480 
# 
# From -- ./inp_files/375682.got.cif
#   From: 2010.06.25/outbox.cif.g09.slc.cpg/sg12_188_cif.got.tgz:375682.got - 2010.06.28 00:19:55.
