data_PCOD8089108
_publ_section_title
;
Structure prediction by ZEFSAII (Michael W. Deem and Ramdas Pophale) SiO2 
 PCOD8089108
Probable space group: C 2/M
;
_chemical_formula_sum "Si O2"
_cell_formula_units_Z 64
_cell_length_a 24.329609
_cell_length_b 13.477344
_cell_length_c 11.870008
_cell_angle_alpha 90.000000
_cell_angle_beta 74.443257
_cell_angle_gamma 90.000000
_cell_volume 3749.569977
_symmetry_space_group_name_H-M "C 2/M"
_symmetry_group_IT_number 12
_symmetry_cell_setting 'monoclinic'
loop_
_space_group_symop_operation_xyz
x,y,z
-x,y,-z
-x,-y,-z
x,-y,z
1/2+x,1/2+y,z
1/2-x,1/2+y,-z
1/2-x,1/2-y,-z
1/2+x,1/2-y,z
loop_
_atom_site_type_symbol
_atom_site_label
_atom_site_fract_x
_atom_site_fract_y
_atom_site_fract_z
Si Si1 0.383091 0.114054 0.665224
Si Si2 0.704059 0.113333 0.098831
Si Si3 0.404822 0.886413 0.244669
Si Si4 0.323018 0.387784 0.140468
Si Si5 0.534345 0.115249 0.185645
Si Si6 0.837052 0.297778 0.480923
Si Si7 0.875730 0.698404 0.029951
Si Si8 0.216433 0.887056 0.584830
O O1 0.330287 0.148039 0.771880
O O2 0.442163 0.129048 0.700391
O O3 0.382725 0.185208 0.555965
O O4 0.376676 0.000000 0.629481
O O5 0.770943 0.126157 0.081874
O O6 0.686663 0.000000 0.085062
O O7 0.683633 0.174772 0.001254
O O8 0.469681 0.847173 0.217197
O O9 0.365162 0.822831 0.346974
O O10 0.381703 0.875462 0.131390
O O11 0.402168 0.000000 0.284326
O O12 0.346960 0.500000 0.119998
O O13 0.372800 0.312109 0.075874
O O14 0.301639 0.363747 0.277536
O O15 0.539852 0.000000 0.144964
O O16 0.570207 0.183801 0.080871
O O17 0.817541 0.183128 0.483926
O O18 0.783688 0.369088 0.535393
O O19 0.202402 0.000000 0.559648
#
# Coordination Sequence:
#
# PCOD8089108 Si02
#       8
#     8   8   8   8   8   8   8   8
#     4   9  16  30  51  74 100 135 169 200 244 301
#     4   9  17  30  50  74 102 135 166 197 245 304
#     4  11  21  32  49  79 107 130 163 208 256 298
#     4  10  19  33  51  73 101 135 174 208 242 293
#     4   9  20  35  52  73 103 138 166 202 253 304
#     4  11  20  32  54  78 101 131 168 207 248 292
#     4  11  19  32  50  74 100 138 171 202 247 302
#     4  10  20  35  51  74 107 136 165 201 248 304
#
# _framework density 17.068624
#
# number of rings (size 3 to 8) (size 9 to 14) (size 15 to 20)
#    0.000    2.000    2.500    3.750    0.000    1.500 
#    0.000    1.875    0.000    5.250    0.000    0.875 
#    0.000    0.000    0.000    0.000    0.000    0.000 
#
# Total GULP energy -396804.654566 kJ/mol
# GULP energy per Si atom -12400.145455 kJ/mol
# Density = 1.702978 g / cm^3
# Si number density = 17.068624 Si / 1000 Ang^3
#
#
#
# Elastic Constant Matrix: (Units=GPa)
#
#
# Indices 1 2 3 4 5 6 
#
# 1 55.3705 37.5993 37.0190 0.0000 4.3144 0.0000
# 2 37.5993 83.1164 40.1910 0.0000 -1.7161 0.0000
# 3 37.0190 40.1910 88.5214 0.0000 12.5835 0.0000
# 4 0.0000 0.0000 0.0000 28.9980 0.0000 -0.4897
# 5 4.3144 -1.7161 12.5835 0.0000 24.1329 0.0000
# 6 0.0000 0.0000 0.0000 -0.4897 0.0000 19.0679
#
#
#
# Elastic Compliance Matrix: (Units=1/GPa)
#
#
# Indices 1 2 3 4 5 6 
#
# 1 0.030184 -0.009905 -0.007840 0.000000 -0.002013 0.000000
# 2 -0.009905 0.019277 -0.005461 0.000000 0.005989 0.000000
# 3 -0.007840 -0.005461 0.018264 0.000000 -0.008510 0.000000
# 4 0.000000 0.000000 0.000000 0.034500 0.000000 0.000886
# 5 -0.002013 0.005989 -0.008510 0.000000 0.046660 0.000000
# 6 0.000000 0.000000 0.000000 0.000886 0.000000 0.052467
#
#
# Mechanical properties :
#
#
# Convention : Reuss Voigt Hill
#
# Bulk Modulus (GPa) = 46.91851 50.73634 48.82743
# Shear Modulus (GPa) = 19.61792 21.91970 20.76881
#
# Velocity S-wave (km/s) = 3.39389 3.58748 3.49203
# Velocity P-wave (km/s) = 6.55026 6.85196 6.70281
#
# Compressibility (1/GPa) = 0.02131355
#
# Stress axis : x y z
#
# Youngs Moduli (GPa) = 33.12969 51.87658 54.75135
#
# Poissons Ratio (x) = 0.51385 0.42923
# Poissons Ratio (y) = 0.32816 0.29900
# Poissons Ratio (z) = 0.25972 0.28330
#
# Static dielectric constant tensor:
#      x y z
#    x 3.118530 0.000000 0.104780 
#    y 0.000000 3.055480 0.000000 
#    z 0.104780 0.000000 3.135390 
# 
# 
# High freq. dielectric constant tensor:
#      x y z
#    x 1.647460 0.000000 0.010190 
#    y 0.000000 1.638300 0.000000 
#    z 0.010190 0.000000 1.659480 
# 
# From -- ./inp_files/182037.got.cif
#   From: 2010.06.25/outbox.cif.g09.slc.cpg/sg12_92_cif.got.tgz:182037.got - 2010.06.28 00:19:55.
