data_PCOD8089225
_publ_section_title
;
Structure prediction by ZEFSAII (Michael W. Deem and Ramdas Pophale) SiO2 
 PCOD8089225
Probable space group: C 2/M
;
_chemical_formula_sum "Si O2"
_cell_formula_units_Z 64
_cell_length_a 14.699812
_cell_length_b 8.860846
_cell_length_c 27.437226
_cell_angle_alpha 90.000000
_cell_angle_beta 107.427379
_cell_angle_gamma 90.000000
_cell_volume 3409.728868
_symmetry_space_group_name_H-M "C 2/M"
_symmetry_group_IT_number 12
_symmetry_cell_setting 'monoclinic'
loop_
_space_group_symop_operation_xyz
x,y,z
-x,y,-z
-x,-y,-z
x,-y,z
1/2+x,1/2+y,z
1/2-x,1/2+y,-z
1/2-x,1/2-y,-z
1/2+x,1/2-y,z
loop_
_atom_site_type_symbol
_atom_site_label
_atom_site_fract_x
_atom_site_fract_y
_atom_site_fract_z
Si Si1 0.398731 0.177995 0.005175
Si Si2 0.296591 0.678360 0.076190
Si Si3 0.477171 0.678364 0.729009
Si Si4 0.510136 0.321235 0.557480
Si Si5 0.402744 0.820641 0.623404
Si Si6 0.667538 0.321251 0.810189
Si Si7 0.704676 0.325704 0.631202
Si Si8 0.202809 0.675217 0.255455
O O1 0.311470 0.224351 0.955636
O O2 0.404445 0.000000 0.013401
O O3 0.500000 0.238118 0.000000
O O4 0.376972 0.250885 0.054109
O O5 0.309207 0.500000 0.076020
O O6 0.314856 0.744461 0.133087
O O7 0.481677 0.500000 0.721923
O O8 0.474796 0.755279 0.675557
O O9 0.569352 0.741272 0.772243
O O10 0.387229 0.721255 0.747747
O O11 0.500000 0.273239 0.500000
O O12 0.501740 0.500000 0.563039
O O13 0.425920 0.241639 0.573750
O O14 0.608646 0.251730 0.594652
O O15 0.297343 0.758635 0.619107
O O16 0.408204 0.000000 0.626022
O O17 0.662187 0.500000 0.811772
O O18 0.755475 0.273424 0.789746
O O19 0.698481 0.500000 0.616892
O O20 0.714462 0.299755 0.690771
O O21 0.170901 0.500000 0.250999
#
# Coordination Sequence:
#
# PCOD8089225 Si02
#       8
#     8   8   8   8   8   8   8   8
#     4   9  18  33  52  73  98 129 166 209 250 285
#     4   9  18  33  51  73 100 131 168 201 240 298
#     4  10  19  33  52  74  99 127 164 204 241 285
#     4  10  20  34  53  76  99 126 163 204 246 292
#     4  10  20  35  53  72  98 132 166 199 242 294
#     4   9  18  32  51  73 102 137 162 193 247 302
#     4   8  16  32  51  70  97 131 159 190 239 294
#     4   9  17  32  52  72  97 131 165 193 236 296
#
# _framework density 18.769821
#
# number of rings (size 3 to 8) (size 9 to 14) (size 15 to 20)
#    0.000    2.750    0.000    2.250    0.000    4.000 
#    0.000   10.000    0.000    0.000    0.000    0.000 
#    0.000    0.000    0.000    0.000    0.000    0.000 
#
# Total GULP energy -396737.666483 kJ/mol
# GULP energy per Si atom -12398.052078 kJ/mol
# Density = 1.872710 g / cm^3
# Si number density = 18.769821 Si / 1000 Ang^3
#
#
#
# Elastic Constant Matrix: (Units=GPa)
#
#
# Indices 1 2 3 4 5 6 
#
# 1 84.9581 16.8062 47.2926 0.0000 -18.3175 0.0000
# 2 16.8062 32.7380 24.5095 0.0000 -6.0324 0.0000
# 3 47.2926 24.5095 125.8477 0.0000 -24.7528 0.0000
# 4 0.0000 0.0000 0.0000 24.4703 0.0000 -6.3818
# 5 -18.3175 -6.0324 -24.7528 0.0000 29.3190 0.0000
# 6 0.0000 0.0000 0.0000 -6.3818 0.0000 24.6361
#
#
#
# Elastic Compliance Matrix: (Units=1/GPa)
#
#
# Indices 1 2 3 4 5 6 
#
# 1 0.016121 -0.004130 -0.004125 0.000000 0.005740 0.000000
# 2 -0.004130 0.036894 -0.005573 0.000000 0.000305 0.000000
# 3 -0.004125 -0.005573 0.011810 0.000000 0.006247 0.000000
# 4 0.000000 0.000000 0.000000 0.043827 0.000000 0.011353
# 5 0.005740 0.000305 0.006247 0.000000 0.043031 0.000000
# 6 0.000000 0.000000 0.000000 0.011353 0.000000 0.043532
#
#
# Mechanical properties :
#
#
# Convention : Reuss Voigt Hill
#
# Bulk Modulus (GPa) = 26.90378 46.75117 36.82747
# Shear Modulus (GPa) = 21.25294 26.01411 23.63352
#
# Velocity S-wave (km/s) = 3.36861 3.72688 3.55226
# Velocity P-wave (km/s) = 5.43090 6.59403 6.04052
#
# Compressibility (1/GPa) = 0.03716950
#
# Stress axis : x y z
#
# Youngs Moduli (GPa) = 62.03005 27.10433 84.67108
#
# Poissons Ratio (x) = 0.11194 0.34926
# Poissons Ratio (y) = 0.25619 0.47189
# Poissons Ratio (z) = 0.25587 0.15106
#
# Static dielectric constant tensor:
#      x y z
#    x 3.613020 0.000000 0.035460 
#    y 0.000000 3.102600 0.000000 
#    z 0.035460 0.000000 3.607280 
# 
# 
# High freq. dielectric constant tensor:
#      x y z
#    x 1.735580 0.000000 -0.005800 
#    y 0.000000 1.698040 0.000000 
#    z -0.005800 0.000000 1.730020 
# 
# From -- ./inp_files/359913.got.cif
#   From: 2010.06.25/outbox.cif.g09.slc.cpg/sg12_180_cif.got.tgz:359913.got - 2010.06.28 00:19:55.
