data_PCOD8089556
_publ_section_title
;
Structure prediction by ZEFSAII (Michael W. Deem and Ramdas Pophale) SiO2 
 PCOD8089556
Probable space group: C 2/M
;
_chemical_formula_sum "Si O2"
_cell_formula_units_Z 64
_cell_length_a 20.622905
_cell_length_b 8.861680
_cell_length_c 21.737572
_cell_angle_alpha 90.000000
_cell_angle_beta 118.308697
_cell_angle_gamma 90.000000
_cell_volume 3497.515327
_symmetry_space_group_name_H-M "C 2/M"
_symmetry_group_IT_number 12
_symmetry_cell_setting 'monoclinic'
loop_
_space_group_symop_operation_xyz
x,y,z
-x,y,-z
-x,-y,-z
x,-y,z
1/2+x,1/2+y,z
1/2-x,1/2+y,-z
1/2-x,1/2-y,-z
1/2+x,1/2-y,z
loop_
_atom_site_type_symbol
_atom_site_label
_atom_site_fract_x
_atom_site_fract_y
_atom_site_fract_z
Si Si1 0.947738 0.676668 0.673272
Si Si2 0.713847 0.321313 0.043059
Si Si3 0.173675 0.824880 0.821871
Si Si4 0.415318 0.324586 0.453072
Si Si5 0.479378 0.324485 0.182817
Si Si6 0.400176 0.823734 0.321138
Si Si7 0.670235 0.322246 0.462487
Si Si8 0.547678 0.679331 0.965424
O O1 0.932259 0.500000 0.666592
O O2 0.875326 0.759563 0.615861
O O3 0.963816 0.730205 0.750074
O O4 0.016630 0.720125 0.660798
O O5 0.716828 0.500000 0.038085
O O6 0.756586 0.268286 0.122878
O O7 0.750000 0.250000 0.000000
O O8 0.630551 0.261113 0.010382
O O9 0.104398 0.792654 0.834810
O O10 0.157128 0.768003 0.746011
O O11 0.194014 0.000000 0.829535
O O12 0.500000 0.282811 0.500000
O O13 0.405183 0.500000 0.432384
O O14 0.384309 0.224603 0.383600
O O15 0.371198 0.276957 0.493687
O O16 0.498667 0.500000 0.199569
O O17 0.486852 0.269555 0.115580
O O18 0.385887 0.000000 0.305772
O O19 0.677449 0.500000 0.458361
O O20 0.750000 0.250000 0.500000
O O21 0.547632 0.500000 0.967746
O O22 0.500000 0.747679 0.000000
#
# Coordination Sequence:
#
# PCOD8089556 Si02
#       8
#     8   8   8   8   8   8   8   8
#     4  10  20  34  54  82 112 144 184 230 277 327
#     4  11  20  33  54  81 109 141 181 227 279 330
#     4  10  19  33  53  80 111 145 185 229 279 332
#     4  10  20  36  58  83 111 145 183 225 278 333
#     4   9  17  32  54  79 105 140 184 225 274 328
#     4  10  20  33  54  85 115 145 184 233 280 325
#     4  11  23  39  59  83 114 150 187 229 278 333
#     4   9  18  34  55  80 109 142 183 227 271 325
#
# _framework density 18.298704000000001
#
# number of rings (size 3 to 8) (size 9 to 14) (size 15 to 20)
#    0.000    2.000    2.500    1.875    0.000    2.750 
#    0.000    1.250    0.000    7.875    0.000    0.000 
#    0.000    0.000    0.000    0.000    0.000    0.000 
#
# Total GULP energy -396900.826919 kJ/mol
# GULP energy per Si atom -12403.150841 kJ/mol
# Density = 1.825706 g / cm^3
# Si number density = 18.298704 Si / 1000 Ang^3
#
#
#
# Elastic Constant Matrix: (Units=GPa)
#
#
# Indices 1 2 3 4 5 6 
#
# 1 110.4379 40.0111 70.8537 0.0000 3.3626 0.0000
# 2 40.0111 65.5993 48.5471 0.0000 4.7716 0.0000
# 3 70.8537 48.5471 148.2074 0.0000 2.0661 0.0000
# 4 0.0000 0.0000 0.0000 36.9886 0.0000 3.1421
# 5 3.3626 4.7716 2.0661 0.0000 30.2542 0.0000
# 6 0.0000 0.0000 0.0000 3.1421 0.0000 21.7637
#
#
#
# Elastic Compliance Matrix: (Units=1/GPa)
#
#
# Indices 1 2 3 4 5 6 
#
# 1 0.014114 -0.004733 -0.005191 0.000000 -0.000468 0.000000
# 2 -0.004733 0.021936 -0.004886 0.000000 -0.002600 0.000000
# 3 -0.005191 -0.004886 0.010821 0.000000 0.000609 0.000000
# 4 0.000000 0.000000 0.000000 0.027371 0.000000 -0.003952
# 5 -0.000468 -0.002600 0.000609 0.000000 0.033474 0.000000
# 6 0.000000 0.000000 0.000000 -0.003952 0.000000 0.046519
#
#
# Mechanical properties :
#
#
# Convention : Reuss Voigt Hill
#
# Bulk Modulus (GPa) = 57.96844 71.45204 64.71024
# Shear Modulus (GPa) = 26.37054 28.79016 27.58035
#
# Velocity S-wave (km/s) = 3.80032 3.97084 3.88652
# Velocity P-wave (km/s) = 7.14173 7.75602 7.45521
#
# Compressibility (1/GPa) = 0.01725077
#
# Stress axis : x y z
#
# Youngs Moduli (GPa) = 70.85130 45.58636 92.41402
#
# Poissons Ratio (x) = 0.21577 0.47968
# Poissons Ratio (y) = 0.33536 0.45157
# Poissons Ratio (z) = 0.36776 0.22275
#
# Static dielectric constant tensor:
#      x y z
#    x 3.310770 0.000000 0.015730 
#    y 0.000000 3.280970 0.000000 
#    z 0.015730 0.000000 3.601600 
# 
# 
# High freq. dielectric constant tensor:
#      x y z
#    x 1.681470 0.000000 0.000730 
#    y 0.000000 1.705120 0.000000 
#    z 0.000730 0.000000 1.725370 
# 
# From -- ./inp_files/320029.got.cif
#   From: 2010.06.25/outbox.cif.g09.slc.cpg/sg12_161_cif.got.tgz:320029.got - 2010.06.28 00:19:55.
