data_PCOD8089960
_publ_section_title
;
Structure prediction by ZEFSAII (Michael W. Deem and Ramdas Pophale) SiO2 
 PCOD8089960
Probable space group: C 2/M
;
_chemical_formula_sum "Si O2"
_cell_formula_units_Z 48
_cell_length_a 20.569639
_cell_length_b 8.944235
_cell_length_c 14.602880
_cell_angle_alpha 90.000000
_cell_angle_beta 98.869449
_cell_angle_gamma 90.000000
_cell_volume 2654.507092
_symmetry_space_group_name_H-M "C 2/M"
_symmetry_group_IT_number 12
_symmetry_cell_setting 'monoclinic'
loop_
_space_group_symop_operation_xyz
x,y,z
-x,y,-z
-x,-y,-z
x,-y,z
1/2+x,1/2+y,z
1/2-x,1/2+y,-z
1/2-x,1/2-y,-z
1/2+x,1/2-y,z
loop_
_atom_site_type_symbol
_atom_site_label
_atom_site_fract_x
_atom_site_fract_y
_atom_site_fract_z
Si Si1 0.796952 0.822978 0.435760
Si Si2 0.558781 0.676962 0.951426
Si Si3 0.197272 0.175086 0.052552
Si Si4 0.084159 0.669875 0.774975
Si Si5 0.730169 0.170718 0.754478
Si Si6 0.566248 0.176368 0.565333
O O1 0.750000 0.750000 0.500000
O O2 0.766960 0.782030 0.330303
O O3 0.871074 0.760920 0.463776
O O4 0.797918 0.000000 0.448278
O O5 0.557150 0.500000 0.950775
O O6 0.550525 0.730027 0.845234
O O7 0.500000 0.742714 0.000000
O O8 0.625707 0.738425 0.011449
O O9 0.211257 0.210644 0.162603
O O10 0.201732 0.000000 0.035289
O O11 0.250000 0.250000 0.000000
O O12 0.064233 0.500000 0.790502
O O13 0.162563 0.691713 0.795539
O O14 0.057539 0.720315 0.669811
O O15 0.735226 0.000000 0.719287
O O16 0.500000 0.227496 0.500000
O O17 0.579482 0.000000 0.557779
#
# Coordination Sequence:
#
# PCOD8089960 Si02
#       6
#     8   8   8   8   8   8
#     4  11  22  37  58  83 113 145 182 228 279 331
#     4  10  21  35  50  74 110 145 173 213 270 319
#     4  10  19  33  55  78 105 139 180 223 264 317
#     4   9  17  32  55  79 103 137 177 218 263 315
#     4   9  18  34  55  79 106 139 182 226 271 321
#     4   9  19  38  61  82 111 145 180 224 276 332
#
# _framework density 18.082453999999998
#
# number of rings (size 3 to 8) (size 9 to 14) (size 15 to 20)
#    0.000    2.333    1.667    2.500    0.000    4.000 
#    3.000    0.000    0.000    0.000    0.000    0.000 
#    0.000    0.000    0.000    0.000    0.000    0.000 
#
# Total GULP energy -297600.122952 kJ/mol
# GULP energy per Si atom -12400.005123 kJ/mol
# Density = 1.804130 g / cm^3
# Si number density = 18.082454 Si / 1000 Ang^3
#
#
#
# Elastic Constant Matrix: (Units=GPa)
#
#
# Indices 1 2 3 4 5 6 
#
# 1 135.4752 48.5104 85.3618 0.0000 0.8458 0.0000
# 2 48.5104 66.1355 43.7381 0.0000 -5.7858 0.0000
# 3 85.3618 43.7381 119.3450 0.0000 0.1540 0.0000
# 4 0.0000 0.0000 0.0000 33.4857 0.0000 -4.1768
# 5 0.8458 -5.7858 0.1540 0.0000 33.7934 0.0000
# 6 0.0000 0.0000 0.0000 -4.1768 0.0000 23.8624
#
#
#
# Elastic Compliance Matrix: (Units=1/GPa)
#
#
# Indices 1 2 3 4 5 6 
#
# 1 0.014648 -0.005177 -0.008578 0.000000 -0.001214 0.000000
# 2 -0.005177 0.022198 -0.004437 0.000000 0.003950 0.000000
# 3 -0.008578 -0.004437 0.016141 0.000000 -0.000619 0.000000
# 4 0.000000 0.000000 0.000000 0.030530 0.000000 0.005344
# 5 -0.001214 0.003950 -0.000619 0.000000 0.030301 0.000000
# 6 0.000000 0.000000 0.000000 0.005344 0.000000 0.042842
#
#
# Mechanical properties :
#
#
# Convention : Reuss Voigt Hill
#
# Bulk Modulus (GPa) = 60.23243 75.13067 67.68155
# Shear Modulus (GPa) = 25.17879 27.78467 26.48173
#
# Velocity S-wave (km/s) = 3.73559 3.92414 3.83103
# Velocity P-wave (km/s) = 7.21030 7.88486 7.55511
#
# Compressibility (1/GPa) = 0.01660235
#
# Stress axis : x y z
#
# Youngs Moduli (GPa) = 68.26997 45.04862 61.95278
#
# Poissons Ratio (x) = 0.23324 0.53142
# Poissons Ratio (y) = 0.35347 0.27490
# Poissons Ratio (z) = 0.58561 0.19989
#
# Static dielectric constant tensor:
#      x y z
#    x 3.451970 0.000000 0.209260 
#    y 0.000000 3.213870 0.000000 
#    z 0.209260 0.000000 3.522240 
# 
# 
# High freq. dielectric constant tensor:
#      x y z
#    x 1.689330 0.000000 0.007290 
#    y 0.000000 1.690730 0.000000 
#    z 0.007290 0.000000 1.707100 
# 
# From -- ./inp_files/221541.got.cif
#   From: 2010.06.25/outbox.cif.g09.slc.cpg/sg12_111_cif.got.tgz:221541.got - 2010.06.28 00:19:55.
