data_PCOD8089699
_publ_section_title
;
Structure prediction by ZEFSAII (Michael W. Deem and Ramdas Pophale) SiO2 
 PCOD8089699
Probable space group: C 2/M
;
_chemical_formula_sum "Si O2"
_cell_formula_units_Z 64
_cell_length_a 20.656983
_cell_length_b 8.727148
_cell_length_c 21.745525
_cell_angle_alpha 90.000000
_cell_angle_beta 58.649379
_cell_angle_gamma 90.000000
_cell_volume 3347.855824
_symmetry_space_group_name_H-M "C 2/M"
_symmetry_group_IT_number 12
_symmetry_cell_setting 'monoclinic'
loop_
_space_group_symop_operation_xyz
x,y,z
-x,y,-z
-x,-y,-z
x,-y,z
1/2+x,1/2+y,z
1/2-x,1/2+y,-z
1/2-x,1/2-y,-z
1/2+x,1/2-y,z
loop_
_atom_site_type_symbol
_atom_site_label
_atom_site_fract_x
_atom_site_fract_y
_atom_site_fract_z
Si Si1 0.459598 0.817148 0.835232
Si Si2 0.803831 0.183220 0.185434
Si Si3 0.795460 0.823351 0.662530
Si Si4 0.713522 0.821807 0.577828
Si Si5 0.551091 0.318714 0.679980
Si Si6 0.927052 0.669366 0.662944
Si Si7 0.525805 0.319532 0.919660
Si Si8 0.177350 0.667306 0.166910
O O1 0.522427 0.747065 0.759209
O O2 0.472101 0.767725 0.898755
O O3 0.375373 0.751174 0.858387
O O4 0.461790 0.000000 0.826544
O O5 0.771540 0.245941 0.265042
O O6 0.889137 0.238767 0.133894
O O7 0.754857 0.249917 0.151043
O O8 0.797028 0.000000 0.189840
O O9 0.774438 0.799035 0.602020
O O10 0.878976 0.752623 0.633020
O O11 0.798688 0.000000 0.679759
O O12 0.750000 0.750000 0.500000
O O13 0.636961 0.732855 0.630558
O O14 0.694877 0.000000 0.576928
O O15 0.546247 0.500000 0.685229
O O16 0.502271 0.261919 0.645419
O O17 0.951076 0.500000 0.627875
O O18 0.873676 0.653279 0.747602
O O19 0.518122 0.500000 0.913036
O O20 0.500000 0.270780 0.000000
O O21 0.199253 0.500000 0.130591
#
# Coordination Sequence:
#
# PCOD8089699 Si02
#       8
#     8   8   8   8   8   8   8   8
#     4  10  19  33  54  78 104 135 175 221 268 320
#     4   9  17  32  54  75  99 136 177 215 261 318
#     4  10  20  34  55  83 110 136 174 225 272 318
#     4  11  24  40  56  78 111 148 186 227 271 320
#     4  11  21  35  58  85 112 142 179 223 270 320
#     4   9  17  32  55  82 111 140 173 216 267 322
#     4  10  21  35  50  72 104 141 181 225 272 321
#     4   7  13  27  48  73  97 125 164 208 253 305
#
# _framework density 19.116713000000001
#
# number of rings (size 3 to 8) (size 9 to 14) (size 15 to 20)
#    0.000    2.375    0.000    4.875    0.000    4.750 
#    0.000    1.875    0.000    3.750    0.000    0.000 
#    0.000    0.000    0.000    0.000    0.000    0.000 
#
# Total GULP energy -396612.942330 kJ/mol
# GULP energy per Si atom -12394.154448 kJ/mol
# Density = 1.907320 g / cm^3
# Si number density = 19.116713 Si / 1000 Ang^3
#
#
#
# Elastic Constant Matrix: (Units=GPa)
#
#
# Indices 1 2 3 4 5 6 
#
# 1 123.1559 38.7140 35.0805 -0.0002 30.1020 0.0027
# 2 38.7140 88.1493 27.3678 -0.0004 11.9908 0.0057
# 3 35.0805 27.3678 66.5427 -0.0003 21.3997 0.0002
# 4 -0.0002 -0.0004 -0.0003 22.3640 0.0000 4.7338
# 5 30.1020 11.9908 21.3997 0.0000 16.5618 -0.0002
# 6 0.0027 0.0057 0.0002 4.7338 -0.0002 31.4419
#
#
#
# Elastic Compliance Matrix: (Units=1/GPa)
#
#
# Indices 1 2 3 4 5 6 
#
# 1 0.015684 -0.003740 0.002680 0.000000 -0.029263 -0.000001
# 2 -0.003740 0.014077 -0.004665 0.000001 0.002633 -0.000002
# 3 0.002680 -0.004665 0.027399 0.000000 -0.036897 0.000000
# 4 0.000000 0.000001 0.000000 0.046187 -0.000002 -0.006954
# 5 -0.029263 0.002633 -0.036897 -0.000002 0.159335 0.000003
# 6 -0.000001 -0.000002 0.000000 -0.006954 0.000003 0.032852
#
#
# Mechanical properties :
#
#
# Convention : Reuss Voigt Hill
#
# Bulk Modulus (GPa) = 21.87615 53.35250 37.61432
# Shear Modulus (GPa) = 15.51732 25.85259 20.68495
#
# Velocity S-wave (km/s) = 2.85215 3.68143 3.29300
# Velocity P-wave (km/s) = 4.72384 6.78528 5.84614
#
# Compressibility (1/GPa) = 0.04571189
#
# Stress axis : x y z
#
# Youngs Moduli (GPa) = 63.75753 71.03774 36.49709
#
# Poissons Ratio (x) = 0.26568 -0.09782
# Poissons Ratio (y) = 0.23845 0.17025
# Poissons Ratio (z) = -0.17089 0.33137
#
# Static dielectric constant tensor:
#      x y z
#    x 4.058380 0.000000 0.047360 
#    y 0.000000 3.469920 0.000000 
#    z 0.047360 0.000000 3.122640 
# 
# 
# High freq. dielectric constant tensor:
#      x y z
#    x 1.769750 0.000000 0.007840 
#    y 0.000000 1.736790 0.000000 
#    z 0.007840 0.000000 1.702660 
# 
# From -- ./inp_files/319790.got.cif
#   From: 2010.06.25/outbox.cif.g09.slc.cpg/sg12_160_cif.got.tgz:319790.got - 2010.06.28 00:19:55.
