data_PCOD8089885
_publ_section_title
;
Structure prediction by ZEFSAII (Michael W. Deem and Ramdas Pophale) SiO2 
 PCOD8089885
Probable space group: C 2/M
;
_chemical_formula_sum "Si O2"
_cell_formula_units_Z 56
_cell_length_a 27.894846
_cell_length_b 13.481290
_cell_length_c 15.191095
_cell_angle_alpha 90.000000
_cell_angle_beta 28.677008
_cell_angle_gamma 90.000000
_cell_volume 2741.381207
_symmetry_space_group_name_H-M "C 2/M"
_symmetry_group_IT_number 12
_symmetry_cell_setting 'monoclinic'
loop_
_space_group_symop_operation_xyz
x,y,z
-x,y,-z
-x,-y,-z
x,-y,z
1/2+x,1/2+y,z
1/2-x,1/2+y,-z
1/2-x,1/2-y,-z
1/2+x,1/2-y,z
loop_
_atom_site_type_symbol
_atom_site_label
_atom_site_fract_x
_atom_site_fract_y
_atom_site_fract_z
Si Si1 0.381949 0.285750 0.989406
Si Si2 0.746943 0.610250 0.467453
Si Si3 0.570087 0.386134 0.625495
Si Si4 0.779524 0.613055 0.851168
Si Si5 0.619936 0.719306 0.807580
Si Si6 0.945943 0.260764 0.500749
Si Si7 0.615324 0.114960 0.141884
O O1 0.332613 0.363776 0.999683
O O2 0.341475 0.286874 0.153935
O O3 0.497257 0.320640 0.804942
O O4 0.362803 0.175136 0.982600
O O5 0.789766 0.500000 0.410001
O O6 0.680146 0.620255 0.488165
O O7 0.676239 0.631047 0.665957
O O8 0.843317 0.680575 0.301014
O O9 0.533985 0.500000 0.676765
O O10 0.574478 0.336823 0.522847
O O11 0.808786 0.500000 0.782990
O O12 0.842840 0.686573 0.688879
O O13 0.796131 0.632249 0.928839
O O14 0.500000 0.711890 0.000000
O O15 0.000000 0.220158 0.500000
O O16 0.012277 0.344996 0.347611
O O17 0.604098 0.000000 0.135133
#
# Coordination Sequence:
#
# PCOD8089885 Si02
#       7
#     8   8   8   8   8   8   8
#     4  11  21  35  58  85 116 152 196 245 294 352
#     4  10  23  42  64  88 119 157 200 248 303 359
#     4  10  20  36  56  81 115 155 196 241 297 357
#     4  10  19  33  54  82 114 149 195 243 289 348
#     4  11  23  42  65  89 121 157 201 250 300 357
#     4   9  18  33  54  80 112 152 194 242 292 346
#     4   9  19  35  55  80 113 153 192 237 295 352
#
# _framework density 20.427658999999998
#
# number of rings (size 3 to 8) (size 9 to 14) (size 15 to 20)
#    0.000    2.000    1.429    2.143    0.000    4.286 
#    0.000    0.714    0.000    0.000    0.000    0.000 
#    0.000    0.000    0.000    0.000    0.000    0.000 
#
# Total GULP energy -347148.173386 kJ/mol
# GULP energy per Si atom -12398.149050 kJ/mol
# Density = 2.038116 g / cm^3
# Si number density = 20.427659 Si / 1000 Ang^3
#
#
#
# Elastic Constant Matrix: (Units=GPa)
#
#
# Indices 1 2 3 4 5 6 
#
# 1 76.7358 34.5092 9.3281 0.0000 19.5913 0.0000
# 2 34.5092 112.6644 7.5097 0.0000 14.7516 0.0000
# 3 9.3281 7.5097 44.9812 0.0000 8.9405 0.0000
# 4 0.0000 0.0000 0.0000 21.1985 0.0000 0.9269
# 5 19.5913 14.7516 8.9405 0.0000 29.3414 0.0000
# 6 0.0000 0.0000 0.0000 0.9269 0.0000 27.4755
#
#
#
# Elastic Compliance Matrix: (Units=1/GPa)
#
#
# Indices 1 2 3 4 5 6 
#
# 1 0.017328 -0.004029 -0.001090 0.000000 -0.009212 0.000000
# 2 -0.004029 0.010457 -0.000426 0.000000 -0.002438 0.000000
# 3 -0.001090 -0.000426 0.023782 0.000000 -0.006305 0.000000
# 4 0.000000 0.000000 0.000000 0.047243 0.000000 -0.001594
# 5 -0.009212 -0.002438 -0.006305 0.000000 0.043379 0.000000
# 6 0.000000 0.000000 0.000000 -0.001594 0.000000 0.036450
#
#
# Mechanical properties :
#
#
# Convention : Reuss Voigt Hill
#
# Bulk Modulus (GPa) = 24.70453 37.45282 31.07867
# Shear Modulus (GPa) = 24.60378 27.80537 26.20457
#
# Velocity S-wave (km/s) = 3.47426 3.69340 3.58550
# Velocity P-wave (km/s) = 5.31168 6.04669 5.69106
#
# Compressibility (1/GPa) = 0.04047841
#
# Stress axis : x y z
#
# Youngs Moduli (GPa) = 57.71009 95.62515 42.04908
#
# Poissons Ratio (x) = 0.38525 0.04582
# Poissons Ratio (y) = 0.23250 0.01791
# Poissons Ratio (z) = 0.06289 0.04073
#
# Static dielectric constant tensor:
#      x y z
#    x 3.723780 0.000000 0.025850 
#    y 0.000000 3.654080 0.000000 
#    z 0.025850 0.000000 3.578090 
# 
# 
# High freq. dielectric constant tensor:
#      x y z
#    x 1.801870 0.000000 -0.000020 
#    y 0.000000 1.797610 0.000000 
#    z -0.000020 0.000000 1.789400 
# 
# From -- ./inp_files/240886.got.cif
#   From: 2010.06.25/outbox.cif.g09.slc.cpg/sg12_121_cif.got.tgz:240886.got - 2010.06.28 00:19:55.
