data_PCOD8089999
_publ_section_title
;
Structure prediction by ZEFSAII (Michael W. Deem and Ramdas Pophale) SiO2 
 PCOD8089999
Probable space group: C 2/M
;
_chemical_formula_sum "Si O2"
_cell_formula_units_Z 56
_cell_length_a 33.409139
_cell_length_b 8.905449
_cell_length_c 12.461619
_cell_angle_alpha 90.000000
_cell_angle_beta 58.609247
_cell_angle_gamma 90.000000
_cell_volume 3164.956327
_symmetry_space_group_name_H-M "C 2/M"
_symmetry_group_IT_number 12
_symmetry_cell_setting 'monoclinic'
loop_
_space_group_symop_operation_xyz
x,y,z
-x,y,-z
-x,-y,-z
x,-y,z
1/2+x,1/2+y,z
1/2-x,1/2+y,-z
1/2-x,1/2-y,-z
1/2+x,1/2-y,z
loop_
_atom_site_type_symbol
_atom_site_label
_atom_site_fract_x
_atom_site_fract_y
_atom_site_fract_z
Si Si1 0.551681 0.826420 0.897553
Si Si2 0.596808 0.326447 0.398569
Si Si3 0.304710 0.671832 0.831121
Si Si4 0.798685 0.673222 0.061760
Si Si5 0.548262 0.172611 0.654326
Si Si6 0.057525 0.323227 0.248113
Si Si7 0.115329 0.176843 0.979312
O O1 0.561672 0.801634 0.758828
O O2 0.555935 0.000000 0.925943
O O3 0.500000 0.767236 0.000000
O O4 0.589932 0.732267 0.908011
O O5 0.583991 0.500000 0.399676
O O6 0.652426 0.298555 0.309301
O O7 0.582957 0.274797 0.536678
O O8 0.567274 0.229720 0.355045
O O9 0.304867 0.500000 0.873585
O O10 0.256105 0.704858 0.836270
O O11 0.310060 0.781996 0.923729
O O12 0.811687 0.500000 0.058596
O O13 0.830556 0.769010 0.099073
O O14 0.494969 0.223200 0.709682
O O15 0.554860 0.000000 0.611388
O O16 0.065309 0.500000 0.227028
O O17 0.092492 0.241516 0.118808
O O18 0.112973 0.000000 0.987432
#
# Coordination Sequence:
#
# PCOD8089999 Si02
#       7
#     8   8   8   8   8   8   8
#     4  10  20  39  60  78 103 142 187 227 266 316
#     4  11  22  35  53  81 116 146 175 221 274 323
#     4   9  19  34  52  79 111 141 177 222 269 321
#     4  10  19  33  55  79 106 144 181 218 269 324
#     4  10  22  38  56  77 106 145 189 224 257 320
#     4  11  21  36  55  78 108 148 188 220 262 318
#     4  12  23  34  53  83 115 141 175 226 280 323
#
# _framework density 17.693767000000001
#
# number of rings (size 3 to 8) (size 9 to 14) (size 15 to 20)
#    0.000    1.571    2.857    3.000    0.000    4.857 
#    0.000    0.000    0.000    0.857    0.000    0.000 
#    0.000    0.000    0.000    0.000    0.000    0.000 
#
# Total GULP energy -347316.331464 kJ/mol
# GULP energy per Si atom -12404.154695 kJ/mol
# Density = 1.765350 g / cm^3
# Si number density = 17.693767 Si / 1000 Ang^3
#
#
#
# Elastic Constant Matrix: (Units=GPa)
#
#
# Indices 1 2 3 4 5 6 
#
# 1 123.6888 58.3215 38.7705 0.0000 -1.4282 0.0000
# 2 58.3215 93.2492 36.0888 0.0000 -2.7650 0.0000
# 3 38.7705 36.0888 59.2581 0.0000 3.8546 0.0000
# 4 0.0000 0.0000 0.0000 28.8588 0.0000 1.4636
# 5 -1.4282 -2.7650 3.8546 0.0000 21.3683 0.0000
# 6 0.0000 0.0000 0.0000 1.4636 0.0000 27.5506
#
#
#
# Elastic Compliance Matrix: (Units=1/GPa)
#
#
# Indices 1 2 3 4 5 6 
#
# 1 0.012298 -0.005927 -0.004493 0.000000 0.000865 0.000000
# 2 -0.005927 0.017136 -0.006756 0.000000 0.003040 0.000000
# 3 -0.004493 -0.006756 0.024290 0.000000 -0.005556 0.000000
# 4 0.000000 0.000000 0.000000 0.034745 0.000000 -0.001846
# 5 0.000865 0.003040 -0.005556 0.000000 0.048252 0.000000
# 6 0.000000 0.000000 0.000000 -0.001846 0.000000 0.036395
#
#
# Mechanical properties :
#
#
# Convention : Reuss Voigt Hill
#
# Bulk Modulus (GPa) = 51.61808 60.28421 55.95114
# Shear Modulus (GPa) = 23.37278 25.08987 24.23133
#
# Velocity S-wave (km/s) = 3.63845 3.76973 3.70467
# Velocity P-wave (km/s) = 6.84744 7.28647 7.07036
#
# Compressibility (1/GPa) = 0.01937306
#
# Stress axis : x y z
#
# Youngs Moduli (GPa) = 81.31564 58.35783 41.16857
#
# Poissons Ratio (x) = 0.34589 0.18495
# Poissons Ratio (y) = 0.48197 0.27812
# Poissons Ratio (z) = 0.36532 0.39424
#
# Static dielectric constant tensor:
#      x y z
#    x 3.492380 0.000000 -0.125990 
#    y 0.000000 3.319410 0.000000 
#    z -0.125990 0.000000 3.086880 
# 
# 
# High freq. dielectric constant tensor:
#      x y z
#    x 1.690430 0.000000 -0.007820 
#    y 0.000000 1.691610 0.000000 
#    z -0.007820 0.000000 1.660010 
# 
# From -- ./inp_files/186464.got.cif
#   From: 2010.06.25/outbox.cif.g09.slc.cpg/sg12_94_cif.got.tgz:186464.got - 2010.06.28 00:19:55.
