data_PCOD8089838
_publ_section_title
;
Structure prediction by ZEFSAII (Michael W. Deem and Ramdas Pophale) SiO2 
 PCOD8089838
Probable space group: C 2/M
;
_chemical_formula_sum "Si O2"
_cell_formula_units_Z 64
_cell_length_a 20.053958
_cell_length_b 23.222069
_cell_length_c 11.526095
_cell_angle_alpha 90.000000
_cell_angle_beta 39.122736
_cell_angle_gamma 90.000000
_cell_volume 3386.892031
_symmetry_space_group_name_H-M "C 2/M"
_symmetry_group_IT_number 12
_symmetry_cell_setting 'monoclinic'
loop_
_space_group_symop_operation_xyz
x,y,z
-x,y,-z
-x,-y,-z
x,-y,z
1/2+x,1/2+y,z
1/2-x,1/2+y,-z
1/2-x,1/2-y,-z
1/2+x,1/2-y,z
loop_
_atom_site_type_symbol
_atom_site_label
_atom_site_fract_x
_atom_site_fract_y
_atom_site_fract_z
Si Si1 0.897024 0.110084 0.714038
Si Si2 0.929114 0.173014 0.197251
Si Si3 0.638789 0.273442 0.116444
Si Si4 0.071879 0.274055 0.630044
Si Si5 0.383100 0.161668 0.201267
Si Si6 0.230821 0.065663 0.315595
Si Si7 0.481306 0.436730 0.251785
Si Si8 0.716347 0.724029 0.763456
O O1 0.888504 0.176837 0.756676
O O2 0.793519 0.088769 0.782637
O O3 0.000000 0.099254 0.500000
O O4 0.914607 0.074573 0.809812
O O5 0.930807 0.209025 0.313422
O O6 0.970200 0.108680 0.162490
O O7 0.811664 0.178264 0.301451
O O8 0.000000 0.202941 0.000000
O O9 0.550428 0.222021 0.246507
O O10 0.750000 0.250000 0.000000
O O11 0.657726 0.296812 0.959637
O O12 0.105906 0.321957 0.677536
O O13 0.154784 0.275197 0.410248
O O14 0.316859 0.103587 0.268240
O O15 0.324631 0.212317 0.211527
O O16 0.500000 0.149914 0.000000
O O17 0.123270 0.069007 0.531266
O O18 0.272693 0.000000 0.251122
O O19 0.491804 0.500000 0.182113
#
# Coordination Sequence:
#
# PCOD8089838 Si02
#       8
#     8   8   8   8   8   8   8   8
#     4  10  21  36  56  77 112 152 185 230 287 335
#     4  11  18  34  53  78 112 146 187 224 276 335
#     4  12  24  35  53  83 111 142 185 229 273 343
#     4  11  21  36  56  80 111 154 181 223 281 339
#     4  11  20  35  56  80 113 144 187 230 279 337
#     4  10  21  36  55  80 109 146 191 237 284 333
#     4  10  19  33  54  81 109 143 189 234 280 335
#     4  11  21  36  56  79 114 149 184 223 280 336
#
# _framework density 18.896381000000002
#
# number of rings (size 3 to 8) (size 9 to 14) (size 15 to 20)
#    0.000    1.250    3.750    4.875    3.500    2.000 
#    0.000    0.000    0.000    0.000    0.000    0.000 
#    0.000    1.000    0.000    0.000    0.000    0.000 
#
# Total GULP energy -396517.844781 kJ/mol
# GULP energy per Si atom -12391.182649 kJ/mol
# Density = 1.885337 g / cm^3
# Si number density = 18.896381 Si / 1000 Ang^3
#
#
#
# Elastic Constant Matrix: (Units=GPa)
#
#
# Indices 1 2 3 4 5 6 
#
# 1 87.2911 47.5370 7.8516 -0.0001 -20.6242 0.0001
# 2 47.5370 97.5997 1.0338 0.0000 -4.5606 0.0000
# 3 7.8516 1.0338 54.9908 -0.0001 -15.6725 0.0001
# 4 -0.0001 0.0000 -0.0001 15.2850 0.0000 3.6240
# 5 -20.6242 -4.5606 -15.6725 0.0000 29.3438 0.0000
# 6 0.0001 0.0000 0.0001 3.6240 0.0000 29.8743
#
#
#
# Elastic Compliance Matrix: (Units=1/GPa)
#
#
# Indices 1 2 3 4 5 6 
#
# 1 0.019093 -0.008721 0.001033 0.000000 0.012616 0.000000
# 2 -0.008721 0.014309 -0.000162 0.000000 -0.003992 0.000000
# 3 0.001033 -0.000162 0.021515 0.000000 0.012192 0.000000
# 4 0.000000 0.000000 0.000000 0.067361 0.000000 -0.008171
# 5 0.012616 -0.003992 0.012192 0.000000 0.048837 0.000000
# 6 0.000000 0.000000 0.000000 -0.008171 0.000000 0.034465
#
#
# Mechanical properties :
#
#
# Convention : Reuss Voigt Hill
#
# Bulk Modulus (GPa) = 25.49785 39.19182 32.34483
# Shear Modulus (GPa) = 21.33553 27.13125 24.23339
#
# Velocity S-wave (km/s) = 3.36382 3.79329 3.58500
# Velocity P-wave (km/s) = 5.34882 6.32225 5.85580
#
# Compressibility (1/GPa) = 0.03921899
#
# Stress axis : x y z
#
# Youngs Moduli (GPa) = 52.37537 69.88753 46.47873
#
# Poissons Ratio (x) = 0.60948 -0.04803
# Poissons Ratio (y) = 0.45676 0.00751
# Poissons Ratio (z) = -0.05413 0.01129
#
# Static dielectric constant tensor:
#      x y z
#    x 3.631700 0.000000 -0.316680 
#    y 0.000000 3.292110 0.000000 
#    z -0.316680 0.000000 3.235440 
# 
# 
# High freq. dielectric constant tensor:
#      x y z
#    x 1.740990 0.000000 -0.004800 
#    y 0.000000 1.703160 0.000000 
#    z -0.004800 0.000000 1.724760 
# 
# From -- ./inp_files/170150.got.cif
#   From: 2010.06.25/outbox.cif.g09.slc.cpg/sg12_86_cif.got.tgz:170150.got - 2010.06.28 00:19:55.
