data_PCOD8089638
_publ_section_title
;
Structure prediction by ZEFSAII (Michael W. Deem and Ramdas Pophale) SiO2 
 PCOD8089638
Probable space group: C 2/M
;
_chemical_formula_sum "Si O2"
_cell_formula_units_Z 56
_cell_length_a 21.619147
_cell_length_b 13.059147
_cell_length_c 11.461213
_cell_angle_alpha 90.000000
_cell_angle_beta 113.785084
_cell_angle_gamma 90.000000
_cell_volume 2960.981866
_symmetry_space_group_name_H-M "C 2/M"
_symmetry_group_IT_number 12
_symmetry_cell_setting 'monoclinic'
loop_
_space_group_symop_operation_xyz
x,y,z
-x,y,-z
-x,-y,-z
x,-y,z
1/2+x,1/2+y,z
1/2-x,1/2+y,-z
1/2-x,1/2-y,-z
1/2+x,1/2-y,z
loop_
_atom_site_type_symbol
_atom_site_label
_atom_site_fract_x
_atom_site_fract_y
_atom_site_fract_z
Si Si1 0.013371 0.388655 0.852990
Si Si2 0.246457 0.117686 0.617964
Si Si3 0.277341 0.618052 0.133772
Si Si4 0.553231 0.887093 0.444842
Si Si5 0.934999 0.787655 0.888058
Si Si6 0.143044 0.765688 0.390902
Si Si7 0.853495 0.262930 0.030784
O O1 0.029766 0.500000 0.919476
O O2 0.079602 0.321874 0.882286
O O3 0.983048 0.402441 0.703844
O O4 0.958293 0.331746 0.893517
O O5 0.217125 0.135418 0.724244
O O6 0.188273 0.145418 0.480917
O O7 0.312084 0.187927 0.651770
O O8 0.267951 0.000000 0.615106
O O9 0.285324 0.500000 0.105824
O O10 0.337473 0.680600 0.118544
O O11 0.206275 0.656428 0.029690
O O12 0.500000 0.847380 0.500000
O O13 0.610239 0.799659 0.471912
O O14 0.582812 0.000000 0.504850
O O15 0.911856 0.820690 0.738946
O O16 0.869618 0.796417 0.921661
O O17 0.000000 0.846161 0.000000
#
# Coordination Sequence:
#
# PCOD8089638 Si02
#       7
#     8   8   8   8   8   8   8
#     4   9  18  30  51  82 107 134 171 216 271 329
#     4  10  21  36  57  80 105 144 187 224 263 314
#     4  10  21  35  53  76 106 144 181 221 263 313
#     4   9  18  31  49  77 110 138 168 213 274 329
#     4   9  18  33  54  82 106 137 170 216 272 327
#     4  10  19  35  58  79 108 141 178 223 271 317
#     4  10  19  33  54  76 109 137 175 217 270 323
#
# _framework density 18.912645000000001
#
# number of rings (size 3 to 8) (size 9 to 14) (size 15 to 20)
#    0.000    2.429    1.429    0.857    2.000    3.714 
#    0.000    0.714    0.000   12.429    0.000    0.000 
#    0.000    0.000    0.000    0.000    0.000    0.000 
#
# Total GULP energy -346958.956645 kJ/mol
# GULP energy per Si atom -12391.391309 kJ/mol
# Density = 1.886960 g / cm^3
# Si number density = 18.912645 Si / 1000 Ang^3
#
#
#
# Elastic Constant Matrix: (Units=GPa)
#
#
# Indices 1 2 3 4 5 6 
#
# 1 99.1204 31.4063 21.6731 0.0000 -15.0745 0.0000
# 2 31.4063 63.2463 28.3088 0.0000 -6.2020 0.0000
# 3 21.6731 28.3088 73.7648 0.0000 0.0508 0.0000
# 4 0.0000 0.0000 0.0000 29.8606 0.0000 -15.6649
# 5 -15.0745 -6.2020 0.0508 0.0000 35.6116 0.0000
# 6 0.0000 0.0000 0.0000 -15.6649 0.0000 39.0396
#
#
#
# Elastic Compliance Matrix: (Units=1/GPa)
#
#
# Indices 1 2 3 4 5 6 
#
# 1 0.012787 -0.005099 -0.001803 0.000000 0.004527 0.000000
# 2 -0.005099 0.021528 -0.006765 0.000000 0.001601 0.000000
# 3 -0.001803 -0.006765 0.016684 0.000000 -0.001965 0.000000
# 4 0.000000 0.000000 0.000000 0.042418 0.000000 0.017020
# 5 0.004527 0.001601 -0.001965 0.000000 0.030279 0.000000
# 6 0.000000 0.000000 0.000000 0.017020 0.000000 0.032445
#
#
# Mechanical properties :
#
#
# Convention : Reuss Voigt Hill
#
# Bulk Modulus (GPa) = 42.25604 44.32310 43.28957
# Shear Modulus (GPa) = 26.12845 31.21857 28.67351
#
# Velocity S-wave (km/s) = 3.72093 4.06725 3.89794
# Velocity P-wave (km/s) = 6.39153 6.74858 6.57248
#
# Compressibility (1/GPa) = 0.02366525
#
# Stress axis : x y z
#
# Youngs Moduli (GPa) = 78.20389 46.45137 59.93762
#
# Poissons Ratio (x) = 0.23683 0.10810
# Poissons Ratio (y) = 0.39872 0.40547
# Poissons Ratio (z) = 0.14104 0.31424
#
# Static dielectric constant tensor:
#      x y z
#    x 3.513830 0.000000 -0.076730 
#    y 0.000000 3.304750 0.000000 
#    z -0.076730 0.000000 3.861050 
# 
# 
# High freq. dielectric constant tensor:
#      x y z
#    x 1.735010 0.000000 -0.007740 
#    y 0.000000 1.703720 0.000000 
#    z -0.007740 0.000000 1.743370 
# 
# From -- ./inp_files/165705.got.cif
#   From: 2010.06.25/outbox.cif.g09.slc.cpg/sg12_83_cif.got.tgz:165705.got - 2010.06.28 00:19:55.
