data_PCOD8089218
_publ_section_title
;
Structure prediction by ZEFSAII (Michael W. Deem and Ramdas Pophale) SiO2 
 PCOD8089218
Probable space group: C 2/M
;
_chemical_formula_sum "Si O2"
_cell_formula_units_Z 56
_cell_length_a 28.383887
_cell_length_b 8.905499
_cell_length_c 19.028534
_cell_angle_alpha 90.000000
_cell_angle_beta 137.649079
_cell_angle_gamma 90.000000
_cell_volume 3240.278956
_symmetry_space_group_name_H-M "C 2/M"
_symmetry_group_IT_number 12
_symmetry_cell_setting 'monoclinic'
loop_
_space_group_symop_operation_xyz
x,y,z
-x,y,-z
-x,-y,-z
x,-y,z
1/2+x,1/2+y,z
1/2-x,1/2+y,-z
1/2-x,1/2-y,-z
1/2+x,1/2-y,z
loop_
_atom_site_type_symbol
_atom_site_label
_atom_site_fract_x
_atom_site_fract_y
_atom_site_fract_z
Si Si1 0.439238 0.173763 0.488855
Si Si2 0.146168 0.326506 0.379699
Si Si3 0.144270 0.675018 0.893923
Si Si4 0.258942 0.674023 0.621168
Si Si5 0.706116 0.322714 0.699651
Si Si6 0.748677 0.673896 0.110011
Si Si7 0.009589 0.323240 0.306302
O O1 0.500000 0.194603 0.500000
O O2 0.372333 0.262026 0.388216
O O3 0.465467 0.243566 0.591535
O O4 0.417250 0.000000 0.473152
O O5 0.154161 0.500000 0.367370
O O6 0.191465 0.291741 0.498983
O O7 0.171135 0.226436 0.342037
O O8 0.066087 0.283407 0.308499
O O9 0.145603 0.500000 0.916528
O O10 0.183582 0.701100 0.863722
O O11 0.065841 0.740169 0.799092
O O12 0.179388 0.770668 0.994085
O O13 0.265728 0.500000 0.646945
O O14 0.251656 0.765263 0.684596
O O15 0.704295 0.500000 0.696014
O O16 0.743943 0.268891 0.811609
O O17 0.740252 0.500000 0.120083
O O18 0.002343 0.500000 0.308986
#
# Coordination Sequence:
#
# PCOD8089218 Si02
#       7
#     8   8   8   8   8   8   8
#     4  10  19  33  52  75 106 143 176 206 253 314
#     4   9  17  31  51  75 104 135 172 212 256 311
#     4   9  18  34  56  79 102 135 178 217 255 303
#     4  10  19  33  52  74 103 136 175 214 258 314
#     4  12  23  34  51  76 107 139 176 219 263 307
#     4  10  20  35  54  76 104 139 179 219 260 306
#     4   9  16  30  52  77 104 136 171 209 253 311
#
# _framework density 17.282463
#
# number of rings (size 3 to 8) (size 9 to 14) (size 15 to 20)
#    0.000    2.143    1.429    3.000    0.000    3.714 
#    0.000    1.429    0.000    0.857    0.000    6.000 
#    0.000    0.000    0.000    0.000    0.000    0.000 
#
# Total GULP energy -347272.267700 kJ/mol
# GULP energy per Si atom -12402.580989 kJ/mol
# Density = 1.724313 g / cm^3
# Si number density = 17.282463 Si / 1000 Ang^3
#
#
#
# Elastic Constant Matrix: (Units=GPa)
#
#
# Indices 1 2 3 4 5 6 
#
# 1 97.2879 47.8063 58.6540 0.0000 -2.1133 0.0000
# 2 47.8063 84.5150 41.0323 0.0000 -10.4858 0.0000
# 3 58.6540 41.0323 91.8750 0.0000 -0.7991 0.0000
# 4 0.0000 0.0000 0.0000 26.7632 0.0000 -1.9970
# 5 -2.1133 -10.4858 -0.7991 0.0000 24.4059 0.0000
# 6 0.0000 0.0000 0.0000 -1.9970 0.0000 21.3878
#
#
#
# Elastic Compliance Matrix: (Units=1/GPa)
#
#
# Indices 1 2 3 4 5 6 
#
# 1 0.018990 -0.006417 -0.009270 0.000000 -0.001416 0.000000
# 2 -0.006417 0.018301 -0.004015 0.000000 0.007176 0.000000
# 3 -0.009270 -0.004015 0.018579 0.000000 -0.001919 0.000000
# 4 0.000000 0.000000 0.000000 0.037627 0.000000 0.003513
# 5 -0.001416 0.007176 -0.001919 0.000000 0.043871 0.000000
# 6 0.000000 0.000000 0.000000 0.003513 0.000000 0.047084
#
#
# Mechanical properties :
#
#
# Convention : Reuss Voigt Hill
#
# Bulk Modulus (GPa) = 60.72645 63.18479 61.95562
# Shear Modulus (GPa) = 21.80138 22.92374 22.36256
#
# Velocity S-wave (km/s) = 3.55558 3.64595 3.60105
# Velocity P-wave (km/s) = 7.21596 7.37315 7.29498
#
# Compressibility (1/GPa) = 0.01646729
#
# Stress axis : x y z
#
# Youngs Moduli (GPa) = 52.65954 54.64078 53.82547
#
# Poissons Ratio (x) = 0.35062 0.49895
# Poissons Ratio (y) = 0.33791 0.21608
# Poissons Ratio (z) = 0.48815 0.21936
#
# Static dielectric constant tensor:
#      x y z
#    x 3.263760 0.000000 0.042590 
#    y 0.000000 3.123700 0.000000 
#    z 0.042590 0.000000 3.162200 
# 
# 
# High freq. dielectric constant tensor:
#      x y z
#    x 1.670560 0.000000 -0.000730 
#    y 0.000000 1.656990 0.000000 
#    z -0.000730 0.000000 1.653140 
# 
# From -- ./inp_files/295184.got.cif
#   From: 2010.06.25/outbox.cif.g09.slc.cpg/sg12_148_cif.got.tgz:295184.got - 2010.06.28 00:19:55.
