data_PCOD8089528
_publ_section_title
;
Structure prediction by ZEFSAII (Michael W. Deem and Ramdas Pophale) SiO2 
 PCOD8089528
Probable space group: C 2/M
;
_chemical_formula_sum "Si O2"
_cell_formula_units_Z 56
_cell_length_a 24.535177
_cell_length_b 8.515569
_cell_length_c 17.640796
_cell_angle_alpha 90.000000
_cell_angle_beta 127.159655
_cell_angle_gamma 90.000000
_cell_volume 2937.345894
_symmetry_space_group_name_H-M "C 2/M"
_symmetry_group_IT_number 12
_symmetry_cell_setting 'monoclinic'
loop_
_space_group_symop_operation_xyz
x,y,z
-x,y,-z
-x,-y,-z
x,-y,z
1/2+x,1/2+y,z
1/2-x,1/2+y,-z
1/2-x,1/2-y,-z
1/2+x,1/2-y,z
loop_
_atom_site_type_symbol
_atom_site_label
_atom_site_fract_x
_atom_site_fract_y
_atom_site_fract_z
Si Si1 0.046568 0.817183 0.352878
Si Si2 0.317137 0.683907 0.263853
Si Si3 0.664537 0.186768 0.158925
Si Si4 0.581106 0.816640 0.948189
Si Si5 0.400610 0.182383 0.204225
Si Si6 0.069297 0.686630 0.213095
Si Si7 0.925656 0.682920 0.467320
O O1 0.083180 0.764328 0.306130
O O2 0.082211 0.722928 0.450974
O O3 0.966075 0.781414 0.284849
O O4 0.058245 0.000000 0.376248
O O5 0.315698 0.500000 0.246072
O O6 0.242294 0.747163 0.224272
O O7 0.336959 0.771205 0.202728
O O8 0.369102 0.720094 0.374725
O O9 0.628283 0.243986 0.205634
O O10 0.662229 0.000000 0.153043
O O11 0.624368 0.260733 0.052786
O O12 0.618015 0.780668 0.898872
O O13 0.503450 0.752187 0.880745
O O14 0.577350 0.000000 0.960921
O O15 0.419615 0.000000 0.230653
O O16 0.067690 0.500000 0.222530
O O17 0.913089 0.500000 0.441948
O O18 0.000000 0.735215 0.500000
#
# Coordination Sequence:
#
# PCOD8089528 Si02
#       7
#     8   8   8   8   8   8   8
#     4  11  21  34  56  84 111 135 171 224 277 318
#     4  11  22  34  52  80 114 144 176 221 273 321
#     4   9  18  33  53  80 111 146 184 223 264 309
#     4   8  15  29  54  82 106 139 187 228 257 303
#     4  10  19  33  53  79 109 144 183 220 263 317
#     4   9  17  33  58  82 108 143 185 223 259 310
#     4  11  22  37  59  81 104 137 180 221 263 323
#
# _framework density 19.064831000000002
#
# number of rings (size 3 to 8) (size 9 to 14) (size 15 to 20)
#    0.000    2.143    1.429    3.857    0.000    2.857 
#    0.000    2.143    0.000   15.429    0.000    0.000 
#    0.000    0.000    0.000    0.000    0.000    0.000 
#
# Total GULP energy -347213.412185 kJ/mol
# GULP energy per Si atom -12400.479007 kJ/mol
# Density = 1.902144 g / cm^3
# Si number density = 19.064831 Si / 1000 Ang^3
#
#
#
# Elastic Constant Matrix: (Units=GPa)
#
#
# Indices 1 2 3 4 5 6 
#
# 1 160.8898 15.4056 67.7800 0.0000 -11.0373 0.0000
# 2 15.4056 33.8413 11.3235 0.0000 -2.9358 0.0000
# 3 67.7800 11.3235 88.4950 0.0000 -13.2644 0.0000
# 4 0.0000 0.0000 0.0000 13.9595 0.0000 -2.3396
# 5 -11.0373 -2.9358 -13.2644 0.0000 29.2667 0.0000
# 6 0.0000 0.0000 0.0000 -2.3396 0.0000 22.5963
#
#
#
# Elastic Compliance Matrix: (Units=1/GPa)
#
#
# Indices 1 2 3 4 5 6 
#
# 1 0.009297 -0.001924 -0.006843 0.000000 0.000212 0.000000
# 2 -0.001924 0.031323 -0.002330 0.000000 0.001360 0.000000
# 3 -0.006843 -0.002330 0.017614 0.000000 0.005169 0.000000
# 4 0.000000 0.000000 0.000000 0.072901 0.000000 0.007548
# 5 0.000212 0.001360 0.005169 0.000000 0.036728 0.000000
# 6 0.000000 0.000000 0.000000 0.007548 0.000000 0.045037
#
#
# Mechanical properties :
#
#
# Convention : Reuss Voigt Hill
#
# Bulk Modulus (GPa) = 27.74718 52.47160 40.10939
# Shear Modulus (GPa) = 20.23413 25.74563 22.98988
#
# Velocity S-wave (km/s) = 3.26134 3.67880 3.47634
# Velocity P-wave (km/s) = 5.36354 6.75479 6.09897
#
# Compressibility (1/GPa) = 0.03603969
#
# Stress axis : x y z
#
# Youngs Moduli (GPa) = 107.56229 31.92505 56.77313
#
# Poissons Ratio (x) = 0.06143 0.38848
# Poissons Ratio (y) = 0.20698 0.13230
# Poissons Ratio (z) = 0.73602 0.07439
#
# Static dielectric constant tensor:
#      x y z
#    x 3.625010 0.000000 -0.140930 
#    y 0.000000 3.183330 0.000000 
#    z -0.140930 0.000000 3.552170 
# 
# 
# High freq. dielectric constant tensor:
#      x y z
#    x 1.739390 0.000000 -0.019190 
#    y 0.000000 1.716560 0.000000 
#    z -0.019190 0.000000 1.738510 
# 
# From -- ./inp_files/288373.got.cif
#   From: 2010.06.25/outbox.cif.g09.slc.cpg/sg12_145_cif.got.tgz:288373.got - 2010.06.28 00:19:55.
