data_PCOD8089996
_publ_section_title
;
Structure prediction by ZEFSAII (Michael W. Deem and Ramdas Pophale) SiO2 
 PCOD8089996
Probable space group: C 2/M
;
_chemical_formula_sum "Si O2"
_cell_formula_units_Z 56
_cell_length_a 29.868127
_cell_length_b 9.070603
_cell_length_c 12.438588
_cell_angle_alpha 90.000000
_cell_angle_beta 105.655216
_cell_angle_gamma 90.000000
_cell_volume 3244.873375
_symmetry_space_group_name_H-M "C 2/M"
_symmetry_group_IT_number 12
_symmetry_cell_setting 'monoclinic'
loop_
_space_group_symop_operation_xyz
x,y,z
-x,y,-z
-x,-y,-z
x,-y,z
1/2+x,1/2+y,z
1/2-x,1/2+y,-z
1/2-x,1/2-y,-z
1/2+x,1/2-y,z
loop_
_atom_site_type_symbol
_atom_site_label
_atom_site_fract_x
_atom_site_fract_y
_atom_site_fract_z
Si Si1 0.302767 0.330075 0.430341
Si Si2 0.441977 0.169374 0.625047
Si Si3 0.451952 0.674143 0.022902
Si Si4 0.108040 0.328589 0.186004
Si Si5 0.699991 0.828397 0.352916
Si Si6 0.452715 0.170877 0.250201
Si Si7 0.898236 0.171650 0.396842
O O1 0.300882 0.500000 0.461604
O O2 0.315692 0.245346 0.546716
O O3 0.252169 0.279350 0.351656
O O4 0.342636 0.300918 0.368316
O O5 0.420020 0.213575 0.724771
O O6 0.496968 0.194502 0.665344
O O7 0.422654 0.276502 0.521791
O O8 0.430024 0.000000 0.588187
O O9 0.449090 0.500000 0.032239
O O10 0.447908 0.744055 0.136433
O O11 0.500000 0.725954 0.000000
O O12 0.409412 0.730178 0.923256
O O13 0.100467 0.500000 0.153053
O O14 0.162606 0.288432 0.236703
O O15 0.697345 0.000000 0.375174
O O16 0.414782 0.234598 0.306722
O O17 0.442408 0.000000 0.222491
O O18 0.909930 0.000000 0.387253
#
# Coordination Sequence:
#
# PCOD8089996 Si02
#       7
#     8   8   8   8   8   8   8
#     4   9  18  31  49  76 108 138 168 210 261 307
#     4  10  20  34  52  77 106 140 177 212 253 305
#     4  11  23  37  55  78 105 136 172 216 264 310
#     4  10  19  33  55  79 106 138 174 214 256 305
#     4   9  17  31  52  77 104 136 173 211 254 307
#     4  11  23  38  55  73 102 142 183 218 252 304
#     4  11  22  34  51  77 111 143 173 213 262 311
#
# _framework density 17.257992999999999
#
# number of rings (size 3 to 8) (size 9 to 14) (size 15 to 20)
#    0.000    1.857    2.857    1.714    0.000    5.143 
#    0.000    0.000    0.000    0.857    0.000    0.000 
#    0.000    0.000    0.000    0.000    0.000    0.000 
#
# Total GULP energy -347231.808781 kJ/mol
# GULP energy per Si atom -12401.136028 kJ/mol
# Density = 1.721871 g / cm^3
# Si number density = 17.257993 Si / 1000 Ang^3
#
#
#
# Elastic Constant Matrix: (Units=GPa)
#
#
# Indices 1 2 3 4 5 6 
#
# 1 94.9833 32.6223 39.7387 0.0000 7.8867 0.0000
# 2 32.6223 51.2083 32.7432 0.0000 8.2419 0.0000
# 3 39.7387 32.7432 77.6778 0.0000 6.0878 0.0000
# 4 0.0000 0.0000 0.0000 33.0597 0.0000 -2.5065
# 5 7.8867 8.2419 6.0878 0.0000 20.1987 0.0000
# 6 0.0000 0.0000 0.0000 -2.5065 0.0000 23.6701
#
#
#
# Elastic Compliance Matrix: (Units=1/GPa)
#
#
# Indices 1 2 3 4 5 6 
#
# 1 0.014788 -0.005993 -0.004894 0.000000 -0.001854 0.000000
# 2 -0.005993 0.030383 -0.009170 0.000000 -0.007294 0.000000
# 3 -0.004894 -0.009170 0.019254 0.000000 -0.000151 0.000000
# 4 0.000000 0.000000 0.000000 0.030493 0.000000 0.003229
# 5 -0.001854 -0.007294 -0.000151 0.000000 0.053253 0.000000
# 6 0.000000 0.000000 0.000000 0.003229 0.000000 0.042589
#
#
# Mechanical properties :
#
#
# Convention : Reuss Voigt Hill
#
# Bulk Modulus (GPa) = 41.13147 48.23088 44.68117
# Shear Modulus (GPa) = 20.92240 23.30338 22.11289
#
# Velocity S-wave (km/s) = 3.48563 3.67862 3.58343
# Velocity P-wave (km/s) = 6.33123 6.78606 6.56259
#
# Compressibility (1/GPa) = 0.02431229
#
# Stress axis : x y z
#
# Youngs Moduli (GPa) = 67.62307 32.91291 51.93657
#
# Poissons Ratio (x) = 0.19726 0.25416
# Poissons Ratio (y) = 0.40528 0.47624
# Poissons Ratio (z) = 0.33092 0.30180
#
# Static dielectric constant tensor:
#      x y z
#    x 3.555700 0.000000 0.160890 
#    y 0.000000 3.259280 0.000000 
#    z 0.160890 0.000000 3.078770 
# 
# 
# High freq. dielectric constant tensor:
#      x y z
#    x 1.671460 0.000000 0.009990 
#    y 0.000000 1.672850 0.000000 
#    z 0.009990 0.000000 1.646710 
# 
# From -- ./inp_files/186804.got.cif
#   From: 2010.06.25/outbox.cif.g09.slc.cpg/sg12_94_cif.got.tgz:186804.got - 2010.06.28 00:19:55.
