data_PCOD8089146
_publ_section_title
;
Structure prediction by ZEFSAII (Michael W. Deem and Ramdas Pophale) SiO2 
 PCOD8089146
Probable space group: C 2/M
;
_chemical_formula_sum "Si O2"
_cell_formula_units_Z 64
_cell_length_a 23.339186
_cell_length_b 13.090905
_cell_length_c 12.591336
_cell_angle_alpha 90.000000
_cell_angle_beta 111.756806
_cell_angle_gamma 90.000000
_cell_volume 3573.002152
_symmetry_space_group_name_H-M "C 2/M"
_symmetry_group_IT_number 12
_symmetry_cell_setting 'monoclinic'
loop_
_space_group_symop_operation_xyz
x,y,z
-x,y,-z
-x,-y,-z
x,-y,z
1/2+x,1/2+y,z
1/2-x,1/2+y,-z
1/2-x,1/2-y,-z
1/2+x,1/2-y,z
loop_
_atom_site_type_symbol
_atom_site_label
_atom_site_fract_x
_atom_site_fract_y
_atom_site_fract_z
Si Si1 0.928573 0.297324 0.229876
Si Si2 0.360807 0.884505 0.372956
Si Si3 0.335264 0.614770 0.932004
Si Si4 0.344810 0.385887 0.182720
Si Si5 0.929504 0.286117 0.985675
Si Si6 0.255184 0.746526 0.255633
Si Si7 0.353954 0.883271 0.752962
Si Si8 0.444443 0.117668 0.625200
O O1 0.883849 0.370796 0.267481
O O2 0.907247 0.180777 0.235837
O O3 0.998347 0.307600 0.317377
O O4 0.923375 0.326763 0.102171
O O5 0.304509 0.808160 0.361017
O O6 0.417219 0.859532 0.490427
O O7 0.337875 0.000000 0.374402
O O8 0.342056 0.500000 0.890716
O O9 0.398687 0.674788 0.950727
O O10 0.276804 0.670340 0.841353
O O11 0.321441 0.611951 0.046674
O O12 0.360040 0.500000 0.233986
O O13 0.288634 0.340044 0.210377
O O14 0.893925 0.366397 0.886940
O O15 0.000000 0.277144 0.000000
O O16 0.205367 0.690037 0.294836
O O17 0.393567 0.855854 0.677463
O O18 0.331849 0.000000 0.735668
O O19 0.466461 0.000000 0.650354
#
# Coordination Sequence:
#
# PCOD8089146 Si02
#       8
#     8   8   8   8   8   8   8   8
#     4  10  19  33  55  78 105 133 165 211 258 303
#     4  10  21  35  54  78 100 132 173 215 257 295
#     4   9  18  31  49  74 104 137 170 207 251 299
#     4   9  18  32  51  75 104 138 172 207 249 302
#     4  10  19  33  51  77 107 134 166 203 252 312
#     4  10  19  33  52  73 103 135 171 213 251 299
#     4  10  21  34  52  77 105 138 168 205 254 304
#     4  10  20  35  54  76 103 133 171 213 255 302
#
# _framework density 17.912108
#
# number of rings (size 3 to 8) (size 9 to 14) (size 15 to 20)
#    0.000    2.250    1.250    1.875    0.000    4.000 
#    0.000    0.000    0.000    6.750    0.000    0.000 
#    0.000    0.000    0.000    0.000    0.000    0.000 
#
# Total GULP energy -396809.606505 kJ/mol
# GULP energy per Si atom -12400.300203 kJ/mol
# Density = 1.787134 g / cm^3
# Si number density = 17.912108 Si / 1000 Ang^3
#
#
#
# Elastic Constant Matrix: (Units=GPa)
#
#
# Indices 1 2 3 4 5 6 
#
# 1 90.4820 44.2388 26.9967 0.0000 4.6317 0.0000
# 2 44.2388 97.6653 30.5604 0.0000 9.6172 0.0000
# 3 26.9967 30.5604 67.0037 0.0000 -0.2988 0.0000
# 4 0.0000 0.0000 0.0000 22.0175 0.0000 3.8736
# 5 4.6317 9.6172 -0.2988 0.0000 23.8839 0.0000
# 6 0.0000 0.0000 0.0000 3.8736 0.0000 25.5184
#
#
#
# Elastic Compliance Matrix: (Units=1/GPa)
#
#
# Indices 1 2 3 4 5 6 
#
# 1 0.014840 -0.005580 -0.003437 0.000000 -0.000674 0.000000
# 2 -0.005580 0.014638 -0.004450 0.000000 -0.004868 0.000000
# 3 -0.003437 -0.004450 0.018351 0.000000 0.002688 0.000000
# 4 0.000000 0.000000 0.000000 0.046665 0.000000 -0.007083
# 5 -0.000674 -0.004868 0.002688 0.000000 0.043994 0.000000
# 6 0.000000 0.000000 0.000000 -0.007083 0.000000 0.040263
#
#
# Mechanical properties :
#
#
# Convention : Reuss Voigt Hill
#
# Bulk Modulus (GPa) = 47.85829 50.97142 49.41485
# Shear Modulus (GPa) = 23.51276 24.50763 24.01020
#
# Velocity S-wave (km/s) = 3.62701 3.70295 3.66518
# Velocity P-wave (km/s) = 6.65708 6.84110 6.74972
#
# Compressibility (1/GPa) = 0.02089502
#
# Stress axis : x y z
#
# Youngs Moduli (GPa) = 67.38426 68.31322 54.49267
#
# Poissons Ratio (x) = 0.38120 0.18730
# Poissons Ratio (y) = 0.37602 0.24249
# Poissons Ratio (z) = 0.23161 0.30399
#
# Static dielectric constant tensor:
#      x y z
#    x 3.318090 0.000000 -0.014210 
#    y 0.000000 3.399520 0.000000 
#    z -0.014210 0.000000 3.273840 
# 
# 
# High freq. dielectric constant tensor:
#      x y z
#    x 1.698310 0.000000 0.000400 
#    y 0.000000 1.689770 0.000000 
#    z 0.000400 0.000000 1.683550 
# 
# From -- ./inp_files/167289.got.cif
#   From: 2010.06.25/outbox.cif.g09.slc.cpg/sg12_84_cif.got.tgz:167289.got - 2010.06.28 00:19:55.
