data_PCOD8089086
_publ_section_title
;
Structure prediction by ZEFSAII (Michael W. Deem and Ramdas Pophale) SiO2 
 PCOD8089086
Probable space group: C 2/M
;
_chemical_formula_sum "Si O2"
_cell_formula_units_Z 64
_cell_length_a 16.741906
_cell_length_b 26.117675
_cell_length_c 17.084469
_cell_angle_alpha 90.000000
_cell_angle_beta 147.522276
_cell_angle_gamma 90.000000
_cell_volume 4011.365803
_symmetry_space_group_name_H-M "C 2/M"
_symmetry_group_IT_number 12
_symmetry_cell_setting 'monoclinic'
loop_
_space_group_symop_operation_xyz
x,y,z
-x,y,-z
-x,-y,-z
x,-y,z
1/2+x,1/2+y,z
1/2-x,1/2+y,-z
1/2-x,1/2-y,-z
1/2+x,1/2-y,z
loop_
_atom_site_type_symbol
_atom_site_label
_atom_site_fract_x
_atom_site_fract_y
_atom_site_fract_z
Si Si1 0.649499 0.056759 0.075157
Si Si2 0.172001 0.940259 0.632311
Si Si3 0.690771 0.297780 0.402484
Si Si4 0.208598 0.649534 0.369578
Si Si5 0.642227 0.768154 0.074840
Si Si6 0.171059 0.753323 0.623070
Si Si7 0.362838 0.704882 0.069231
Si Si8 0.865731 0.354779 0.050293
O O1 0.770487 0.078224 0.235577
O O2 0.690377 0.000000 0.080807
O O3 0.500000 0.058171 0.000000
O O4 0.638743 0.088314 0.986573
O O5 0.244526 0.906365 0.623259
O O6 0.000000 0.930659 0.500000
O O7 0.212192 0.000000 0.648731
O O8 0.750000 0.250000 0.500000
O O9 0.740724 0.346629 0.496872
O O10 0.769757 0.293773 0.382524
O O11 0.511701 0.297720 0.245177
O O12 0.290008 0.692445 0.384745
O O13 0.030545 0.658591 0.217451
O O14 0.762780 0.749852 0.235930
O O15 0.500000 0.791141 0.000000
O O16 0.592565 0.718317 0.982946
O O17 0.695182 0.815840 0.066494
O O18 0.000000 0.747188 0.500000
O O19 0.250000 0.750000 0.000000
O O20 0.263400 0.652509 0.990326
#
# Coordination Sequence:
#
# PCOD8089086 Si02
#       8
#     8   8   8   8   8   8   8   8
#     4  10  19  33  51  70  96 127 165 204 230 268
#     4  10  21  34  49  71  98 129 163 200 238 275
#     4  10  21  34  44  66  96 123 157 195 236 279
#     4  11  21  33  46  68  99 128 159 195 235 284
#     4  11  18  33  47  64  92 123 161 197 228 275
#     4  11  22  30  47  68  91 126 159 194 234 276
#     4  10  21  32  48  66  91 125 157 198 235 276
#     4  11  21  31  49  69  94 129 163 192 238 280
#
# _framework density 15.954666
#
# number of rings (size 3 to 8) (size 9 to 14) (size 15 to 20)
#    0.000    1.500    3.750    3.750   10.500    0.000 
#    0.000    0.000    0.000    0.000    0.000    0.000 
#    0.000    2.000    0.000    0.125    0.000    0.000 
#
# Total GULP energy -396487.926759 kJ/mol
# GULP energy per Si atom -12390.247711 kJ/mol
# Density = 1.591835 g / cm^3
# Si number density = 15.954666 Si / 1000 Ang^3
#
#
#
# Elastic Constant Matrix: (Units=GPa)
#
#
# Indices 1 2 3 4 5 6 
#
# 1 48.2805 26.8676 34.8653 0.0000 2.9809 0.0000
# 2 26.8676 58.4018 23.4650 0.0000 -6.6768 0.0000
# 3 34.8653 23.4650 133.5254 0.0000 3.2120 0.0000
# 4 0.0000 0.0000 0.0000 22.0696 0.0000 -4.1767
# 5 2.9809 -6.6768 3.2120 0.0000 31.7253 0.0000
# 6 0.0000 0.0000 0.0000 -4.1767 0.0000 43.3011
#
#
#
# Elastic Compliance Matrix: (Units=1/GPa)
#
#
# Indices 1 2 3 4 5 6 
#
# 1 0.032824 -0.013243 -0.006117 0.000000 -0.005252 0.000000
# 2 -0.013243 0.024347 -0.000976 0.000000 0.006467 0.000000
# 3 -0.006117 -0.000976 0.009272 0.000000 -0.000569 0.000000
# 4 0.000000 0.000000 0.000000 0.046154 0.000000 0.004452
# 5 -0.005252 0.006467 -0.000569 0.000000 0.033433 0.000000
# 6 0.000000 0.000000 0.000000 0.004452 0.000000 0.023524
#
#
# Mechanical properties :
#
#
# Convention : Reuss Voigt Hill
#
# Bulk Modulus (GPa) = 38.80577 45.62262 42.21419
# Shear Modulus (GPa) = 22.85041 29.75318 26.30180
#
# Velocity S-wave (km/s) = 3.78856 4.32308 4.06462
# Velocity P-wave (km/s) = 6.59643 7.31956 6.96738
#
# Compressibility (1/GPa) = 0.02576937
#
# Stress axis : x y z
#
# Youngs Moduli (GPa) = 30.46590 41.07324 107.85494
#
# Poissons Ratio (x) = 0.54394 0.65976
# Poissons Ratio (y) = 0.40346 0.10529
# Poissons Ratio (z) = 0.18636 0.04009
#
# Static dielectric constant tensor:
#      x y z
#    x 3.607820 0.000000 -0.007300 
#    y 0.000000 3.088060 0.000000 
#    z -0.007300 0.000000 2.863730 
# 
# 
# High freq. dielectric constant tensor:
#      x y z
#    x 1.597540 0.000000 0.007380 
#    y 0.000000 1.574730 0.000000 
#    z 0.007380 0.000000 1.637700 
# 
# From -- ./inp_files/78754.got.cif
#   From: 2010.06.25/outbox.cif.g09.slc.cpg/sg12_40_cif.got.tgz:78754.got - 2010.06.28 00:19:55.
