data_PCOD8089455
_publ_section_title
;
Structure prediction by ZEFSAII (Michael W. Deem and Ramdas Pophale) SiO2 
 PCOD8089455
Probable space group: C 2/M
;
_chemical_formula_sum "Si O2"
_cell_formula_units_Z 40
_cell_length_a 13.889517
_cell_length_b 13.066642
_cell_length_c 12.713572
_cell_angle_alpha 90.000000
_cell_angle_beta 68.784221
_cell_angle_gamma 90.000000
_cell_volume 2150.993434
_symmetry_space_group_name_H-M "C 2/M"
_symmetry_group_IT_number 12
_symmetry_cell_setting 'monoclinic'
loop_
_space_group_symop_operation_xyz
x,y,z
-x,y,-z
-x,-y,-z
x,-y,z
1/2+x,1/2+y,z
1/2-x,1/2+y,-z
1/2-x,1/2-y,-z
1/2+x,1/2-y,z
loop_
_atom_site_type_symbol
_atom_site_label
_atom_site_fract_x
_atom_site_fract_y
_atom_site_fract_z
Si Si1 0.255535 0.115298 0.393276
Si Si2 0.369404 0.191921 0.153611
Si Si3 0.121557 0.305978 0.465391
Si Si4 0.739219 0.883307 0.220191
Si Si5 0.593845 0.880573 0.085042
O O1 0.298295 0.125010 0.258493
O O2 0.156595 0.187650 0.449676
O O3 0.348296 0.144645 0.435310
O O4 0.218049 0.000000 0.428092
O O5 0.339690 0.311453 0.176354
O O6 0.488962 0.183673 0.137557
O O7 0.348046 0.150191 0.045074
O O8 0.177602 0.370247 0.352633
O O9 0.000000 0.313175 0.500000
O O10 0.665247 0.851143 0.153993
O O11 0.777017 0.000000 0.194490
O O12 0.565134 0.000000 0.094623
#
# Coordination Sequence:
#
# PCOD8089455 Si02
#       5
#     8   8   8   8   8
#     4  10  20  34  53  76 102 132 166 206 251 296
#     4  10  19  33  53  77 103 129 167 210 247 292
#     4  10  21  35  52  75 102 132 168 208 248 296
#     4  10  21  35  52  74 102 134 167 206 251 296
#     4  10  19  33  55  78 100 132 169 205 247 296
#
# _framework density 18.596060000000001
#
# number of rings (size 3 to 8) (size 9 to 14) (size 15 to 20)
#    0.000    2.000    0.000    4.800    0.000    3.600 
#    0.000    2.000    0.000   14.400    0.000    0.000 
#    0.000    0.000    0.000    0.000    0.000    0.000 
#
# Total GULP energy -248074.656276 kJ/mol
# GULP energy per Si atom -12403.732814 kJ/mol
# Density = 1.855373 g / cm^3
# Si number density = 18.596060 Si / 1000 Ang^3
#
#
#
# Elastic Constant Matrix: (Units=GPa)
#
#
# Indices 1 2 3 4 5 6 
#
# 1 73.3515 45.6980 21.8121 0.0000 -4.8498 0.0000
# 2 45.6980 125.5355 30.2673 0.0000 -3.4415 0.0000
# 3 21.8121 30.2673 70.4236 0.0000 3.8982 0.0000
# 4 0.0000 0.0000 0.0000 19.1255 0.0000 4.7886
# 5 -4.8498 -3.4415 3.8982 0.0000 23.4070 0.0000
# 6 0.0000 0.0000 0.0000 4.7886 0.0000 25.0536
#
#
#
# Elastic Compliance Matrix: (Units=1/GPa)
#
#
# Indices 1 2 3 4 5 6 
#
# 1 0.018510 -0.005813 -0.003431 0.000000 0.003552 0.000000
# 2 -0.005813 0.010803 -0.002890 0.000000 0.000865 0.000000
# 3 -0.003431 -0.002890 0.016722 0.000000 -0.003921 0.000000
# 4 0.000000 0.000000 0.000000 0.054914 0.000000 -0.010496
# 5 0.003552 0.000865 -0.003921 0.000000 0.044238 0.000000
# 6 0.000000 0.000000 0.000000 -0.010496 0.000000 0.041921
#
#
# Mechanical properties :
#
#
# Convention : Reuss Voigt Hill
#
# Bulk Modulus (GPa) = 45.94562 51.65170 48.79866
# Shear Modulus (GPa) = 22.86952 24.95276 23.91114
#
# Velocity S-wave (km/s) = 3.51066 3.66707 3.58972
# Velocity P-wave (km/s) = 6.41824 6.76504 6.59392
#
# Compressibility (1/GPa) = 0.02176486
#
# Stress axis : x y z
#
# Youngs Moduli (GPa) = 54.02520 92.56979 59.80265
#
# Poissons Ratio (x) = 0.53815 0.20519
# Poissons Ratio (y) = 0.31407 0.17284
# Poissons Ratio (z) = 0.18536 0.26754
#
# Static dielectric constant tensor:
#      x y z
#    x 3.224960 0.000000 0.196040 
#    y 0.000000 3.441790 0.000000 
#    z 0.196040 0.000000 3.624840 
# 
# 
# High freq. dielectric constant tensor:
#      x y z
#    x 1.705400 0.000000 0.014360 
#    y 0.000000 1.723520 0.000000 
#    z 0.014360 0.000000 1.739620 
# 
# From -- ./inp_files/129571.got.cif
#   From: 2010.06.25/outbox.cif.g09.slc.cpg/sg12_65_cif.got.tgz:129571.got - 2010.06.28 00:19:55.
