data_PCOD8089558
_publ_section_title
;
Structure prediction by ZEFSAII (Michael W. Deem and Ramdas Pophale) SiO2 
 PCOD8089558
Probable space group: C 2/M
;
_chemical_formula_sum "Si O2"
_cell_formula_units_Z 56
_cell_length_a 24.658368
_cell_length_b 10.493582
_cell_length_c 22.753247
_cell_angle_alpha 90.000000
_cell_angle_beta 151.450693
_cell_angle_gamma 90.000000
_cell_volume 2813.727351
_symmetry_space_group_name_H-M "C 2/M"
_symmetry_group_IT_number 12
_symmetry_cell_setting 'monoclinic'
loop_
_space_group_symop_operation_xyz
x,y,z
-x,y,-z
-x,-y,-z
x,-y,z
1/2+x,1/2+y,z
1/2-x,1/2+y,-z
1/2-x,1/2-y,-z
1/2+x,1/2-y,z
loop_
_atom_site_type_symbol
_atom_site_label
_atom_site_fract_x
_atom_site_fract_y
_atom_site_fract_z
Si Si1 0.556724 0.263327 0.307627
Si Si2 0.892641 0.148176 0.364838
Si Si3 0.755100 0.352928 0.666765
Si Si4 0.873693 0.146956 0.217442
Si Si5 0.998478 0.648397 0.934771
Si Si6 0.635881 0.850430 0.957494
Si Si7 0.270549 0.859232 0.449005
O O1 0.494868 0.338110 0.301591
O O2 0.451788 0.214773 0.169568
O O3 0.636571 0.151724 0.410216
O O4 0.642031 0.352270 0.351872
O O5 0.784463 0.168721 0.303805
O O6 0.876563 0.212027 0.285248
O O7 0.000000 0.211683 0.500000
O O8 0.919209 0.000000 0.379876
O O9 0.730004 0.500000 0.623225
O O10 0.699160 0.253277 0.568263
O O11 0.887076 0.318164 0.791108
O O12 0.844659 0.000000 0.198927
O O13 0.766347 0.200837 0.076756
O O14 0.998693 0.500000 0.947814
O O15 0.104355 0.685954 0.995010
O O16 0.000000 0.718841 0.000000
O O17 0.624925 0.000000 0.934787
O O18 0.283597 0.000000 0.432981
#
# Coordination Sequence:
#
# PCOD8089558 Si02
#       7
#     8   8   8   8   8   8   8
#     4  11  22  37  55  77 111 155 198 234 282 340
#     4   9  17  30  51  82 113 140 178 232 287 334
#     4  10  19  34  58  85 113 146 185 236 292 340
#     4  10  20  34  55  85 116 144 184 238 289 337
#     4   9  16  28  50  82 111 137 176 230 284 331
#     4  10  19  33  53  80 113 145 184 236 288 341
#     4  11  24  38  57  83 115 154 197 242 285 339
#
# _framework density 19.902425000000001
#
# number of rings (size 3 to 8) (size 9 to 14) (size 15 to 20)
#    0.000    2.000    1.429    3.000    0.000    7.429 
#    0.000    0.000    0.000    5.143    0.000    0.000 
#    0.000    0.000    0.000    0.000    0.000    0.000 
#
# Total GULP energy -346899.641398 kJ/mol
# GULP energy per Si atom -12389.272907 kJ/mol
# Density = 1.985713 g / cm^3
# Si number density = 19.902425 Si / 1000 Ang^3
#
#
#
# Elastic Constant Matrix: (Units=GPa)
#
#
# Indices 1 2 3 4 5 6 
#
# 1 106.2653 21.8223 19.3297 0.0000 -1.9930 0.0000
# 2 21.8223 66.0330 24.6101 0.0001 -10.4006 0.0001
# 3 19.3297 24.6101 127.6997 0.0001 0.4008 0.0001
# 4 0.0000 0.0001 0.0001 16.1363 0.0001 -2.0285
# 5 -1.9930 -10.4006 0.4008 0.0001 35.7868 0.0001
# 6 0.0000 0.0001 0.0001 -2.0285 0.0001 15.6106
#
#
#
# Elastic Compliance Matrix: (Units=1/GPa)
#
#
# Indices 1 2 3 4 5 6 
#
# 1 0.010208 -0.003067 -0.000953 0.000000 -0.000312 0.000000
# 2 -0.003067 0.018097 -0.003039 0.000000 0.005123 0.000000
# 3 -0.000953 -0.003039 0.008564 0.000000 -0.001032 0.000000
# 4 0.000000 0.000000 0.000000 0.063001 0.000000 0.008187
# 5 -0.000312 0.005123 -0.001032 0.000000 0.029426 0.000000
# 6 0.000000 0.000000 0.000000 0.008187 0.000000 0.065123
#
#
# Mechanical properties :
#
#
# Convention : Reuss Voigt Hill
#
# Bulk Modulus (GPa) = 43.95713 47.94692 45.95202
# Shear Modulus (GPa) = 23.13502 29.12247 26.12874
#
# Velocity S-wave (km/s) = 3.41313 3.82941 3.62725
# Velocity P-wave (km/s) = 6.13733 6.61028 6.37819
#
# Compressibility (1/GPa) = 0.02274944
#
# Stress axis : x y z
#
# Youngs Moduli (GPa) = 97.96408 55.25687 116.76622
#
# Poissons Ratio (x) = 0.16950 0.11128
# Poissons Ratio (y) = 0.30050 0.35490
# Poissons Ratio (z) = 0.09336 0.16795
#
# Static dielectric constant tensor:
#      x y z
#    x 3.773120 0.000000 0.089740 
#    y 0.000000 3.001130 0.000000 
#    z 0.089740 0.000000 3.987130 
# 
# 
# High freq. dielectric constant tensor:
#      x y z
#    x 1.789000 0.000000 0.004020 
#    y 0.000000 1.701960 0.000000 
#    z 0.004020 0.000000 1.796470 
# 
# From -- ./inp_files/325167.got.cif
#   From: 2010.06.25/outbox.cif.g09.slc.cpg/sg12_163_cif.got.tgz:325167.got - 2010.06.28 00:19:55.
