data_PCOD8089016
_publ_section_title
;
Structure prediction by ZEFSAII (Michael W. Deem and Ramdas Pophale) SiO2 
 PCOD8089016
Probable space group: C 2/M
;
_chemical_formula_sum "Si O2"
_cell_formula_units_Z 64
_cell_length_a 26.759247
_cell_length_b 16.111834
_cell_length_c 23.072233
_cell_angle_alpha 90.000000
_cell_angle_beta 158.683574
_cell_angle_gamma 90.000000
_cell_volume 3616.053094
_symmetry_space_group_name_H-M "C 2/M"
_symmetry_group_IT_number 12
_symmetry_cell_setting 'monoclinic'
loop_
_space_group_symop_operation_xyz
x,y,z
-x,y,-z
-x,-y,-z
x,-y,z
1/2+x,1/2+y,z
1/2-x,1/2+y,-z
1/2-x,1/2-y,-z
1/2+x,1/2-y,z
loop_
_atom_site_type_symbol
_atom_site_label
_atom_site_fract_x
_atom_site_fract_y
_atom_site_fract_z
Si Si1 0.244207 0.299215 0.600790
Si Si2 0.588370 0.646406 0.379343
Si Si3 0.650559 0.906860 0.403089
Si Si4 0.562110 0.089975 0.129812
Si Si5 0.209989 0.205494 0.667862
Si Si6 0.993788 0.251924 0.180212
Si Si7 0.198451 0.325734 0.106787
Si Si8 0.976568 0.906565 0.376502
O O1 0.152800 0.228798 0.473895
O O2 0.191327 0.384176 0.513998
O O3 0.214241 0.294389 0.638492
O O4 0.403006 0.281314 0.758035
O O5 0.708800 0.590919 0.482155
O O6 0.481808 0.679493 0.215364
O O7 0.506805 0.597006 0.340715
O O8 0.544358 0.840311 0.261591
O O9 0.587427 0.000000 0.334431
O O10 0.694699 0.147954 0.270405
O O11 0.610292 0.000000 0.205553
O O12 0.500000 0.079606 0.000000
O O13 0.444377 0.124007 0.044266
O O14 0.263678 0.217759 0.791030
O O15 0.062717 0.159543 0.508025
O O16 0.841315 0.259116 0.986018
O O17 0.317198 0.386688 0.214499
O O18 0.005913 0.000000 0.430622
#
# Coordination Sequence:
#
# PCOD8089016 Si02
#       8
#     8   8   8   8   8   8   8   8
#     4   8  15  30  48  68  92 120 157 198 228 276
#     4   8  17  32  48  64  91 127 160 189 230 284
#     4   9  16  28  50  75  95 118 152 195 244 281
#     4   9  17  28  42  61  86 118 157 190 220 266
#     4  10  19  33  48  64  92 132 163 187 227 280
#     4   9  17  31  47  69  95 118 154 203 235 272
#     4  11  21  30  45  69  96 124 160 192 235 269
#     4  11  22  33  45  66  98 132 162 193 227 272
#
# _framework density 17.698854999999998
#
# number of rings (size 3 to 8) (size 9 to 14) (size 15 to 20)
#    0.000    2.625    1.250    3.000    0.000    3.500 
#    0.000    0.000    0.000    0.000    0.000    7.875 
#    0.000   18.000    0.000    0.000    0.000    0.000 
#
# Total GULP energy -396454.622262 kJ/mol
# GULP energy per Si atom -12389.206946 kJ/mol
# Density = 1.765857 g / cm^3
# Si number density = 17.698855 Si / 1000 Ang^3
#
#
#
# Elastic Constant Matrix: (Units=GPa)
#
#
# Indices 1 2 3 4 5 6 
#
# 1 66.9525 11.7414 23.1320 0.0006 -13.3836 -0.0006
# 2 11.7414 38.4220 11.9301 0.0065 -10.1918 0.0013
# 3 23.1320 11.9301 68.9559 0.0106 -7.3671 0.0044
# 4 0.0006 0.0065 0.0106 18.6585 0.0045 -0.2857
# 5 -13.3836 -10.1918 -7.3671 0.0045 33.0187 0.0012
# 6 -0.0006 0.0013 0.0044 -0.2857 0.0012 14.7415
#
#
#
# Elastic Compliance Matrix: (Units=1/GPa)
#
#
# Indices 1 2 3 4 5 6 
#
# 1 0.018235 -0.002540 -0.005093 0.000002 0.005471 0.000002
# 2 -0.002540 0.029860 -0.003523 -0.000010 0.007401 -0.000003
# 3 -0.005093 -0.003523 0.016886 -0.000008 0.000616 -0.000005
# 4 0.000002 -0.000010 -0.000008 0.053611 -0.000012 0.001039
# 5 0.005471 0.007401 0.000616 -0.000012 0.034925 -0.000004
# 6 0.000002 -0.000003 -0.000005 0.001039 -0.000004 0.067856
#
#
# Mechanical properties :
#
#
# Convention : Reuss Voigt Hill
#
# Bulk Modulus (GPa) = 23.43662 29.77081 26.60372
# Shear Modulus (GPa) = 19.38678 21.78554 20.58616
#
# Velocity S-wave (km/s) = 3.31323 3.51223 3.41418
# Velocity P-wave (km/s) = 5.28273 5.77104 5.53228
#
# Compressibility (1/GPa) = 0.04266826
#
# Stress axis : x y z
#
# Youngs Moduli (GPa) = 54.84085 33.48939 59.22098
#
# Poissons Ratio (x) = 0.08505 0.30162
# Poissons Ratio (y) = 0.13928 0.20866
# Poissons Ratio (z) = 0.27931 0.11800
#
# Static dielectric constant tensor:
#      x y z
#    x 4.128050 -0.000060 -0.315800 
#    y -0.000060 3.686860 0.000030 
#    z -0.315800 0.000030 3.256990 
# 
# 
# High freq. dielectric constant tensor:
#      x y z
#    x 1.683300 0.000000 -0.012590 
#    y 0.000000 1.639830 0.000000 
#    z -0.012590 0.000000 1.674610 
# 
# From -- ./inp_files/352290.got.cif
#   From: 2010.06.25/outbox.cif.g09.slc.cpg/sg12_177_cif.got.tgz:352290.got - 2010.06.28 00:19:55.
