data_PCOD8089015
_publ_section_title
;
Structure prediction by ZEFSAII (Michael W. Deem and Ramdas Pophale) SiO2 
 PCOD8089015
Probable space group: C 2/M
;
_chemical_formula_sum "Si O2"
_cell_formula_units_Z 64
_cell_length_a 18.793029
_cell_length_b 12.874723
_cell_length_c 17.886783
_cell_angle_alpha 90.000000
_cell_angle_beta 109.946860
_cell_angle_gamma 90.000000
_cell_volume 4068.170312
_symmetry_space_group_name_H-M "C 2/M"
_symmetry_group_IT_number 12
_symmetry_cell_setting 'monoclinic'
loop_
_space_group_symop_operation_xyz
x,y,z
-x,y,-z
-x,-y,-z
x,-y,z
1/2+x,1/2+y,z
1/2-x,1/2+y,-z
1/2-x,1/2-y,-z
1/2+x,1/2-y,z
loop_
_atom_site_type_symbol
_atom_site_label
_atom_site_fract_x
_atom_site_fract_y
_atom_site_fract_z
Si Si1 0.416106 0.115800 0.439279
Si Si2 0.915489 0.612668 0.998020
Si Si3 0.924294 0.747319 0.301612
Si Si4 0.468421 0.875197 0.171822
Si Si5 0.785820 0.123405 0.301055
Si Si6 0.630835 0.876684 0.171642
Si Si7 0.817350 0.786110 0.472421
Si Si8 0.034776 0.119432 0.432273
O O1 0.500000 0.123796 0.500000
O O2 0.411509 0.152128 0.352588
O O3 0.362215 0.181650 0.472305
O O4 0.384543 0.000000 0.431280
O O5 0.877424 0.500000 0.996091
O O6 0.919853 0.664378 0.081873
O O7 0.871278 0.672024 0.914343
O O8 0.000000 0.596370 0.000000
O O9 0.851480 0.822738 0.275990
O O10 0.936414 0.695541 0.226113
O O11 0.997116 0.813916 0.352998
O O12 0.556803 0.845603 0.192804
O O13 0.459473 0.000000 0.182312
O O14 0.705539 0.162768 0.240291
O O15 0.787933 0.156664 0.388018
O O16 0.795679 0.000000 0.298539
O O17 0.631269 0.000000 0.162559
O O18 0.750000 0.750000 0.500000
O O19 0.874815 0.863897 0.535634
O O20 0.000000 0.155427 0.500000
O O21 0.015211 0.000000 0.410469
#
# Coordination Sequence:
#
# PCOD8089015 Si02
#       8
#     8   8   8   8   8   8   8   8
#     4  10  19  33  48  64  89 121 153 189 235 279
#     4   7  11  24  44  68  96 123 148 178 229 287
#     4  11  19  31  46  71  92 124 161 193 225 276
#     4   9  17  28  48  74  98 123 151 189 235 281
#     4  10  20  33  49  68  93 125 157 196 237 268
#     4   8  15  28  48  71  95 121 150 190 238 278
#     4  11  22  34  49  70  93 119 156 198 236 280
#     4  11  20  36  54  65  87 128 166 195 228 269
#
# _framework density 15.731888
#
# number of rings (size 3 to 8) (size 9 to 14) (size 15 to 20)
#    0.000    2.375    3.750    2.625    1.750    1.000 
#    0.000    0.625    0.000    0.000    0.000    0.000 
#    0.000   19.000    0.000    0.000    0.000    0.000 
#
# Total GULP energy -396507.347839 kJ/mol
# GULP energy per Si atom -12390.854620 kJ/mol
# Density = 1.569608 g / cm^3
# Si number density = 15.731888 Si / 1000 Ang^3
#
#
#
# Elastic Constant Matrix: (Units=GPa)
#
#
# Indices 1 2 3 4 5 6 
#
# 1 88.9309 26.2030 51.3194 0.0000 1.6992 0.0000
# 2 26.2030 69.4338 37.0038 0.0000 -3.8243 0.0000
# 3 51.3194 37.0038 99.1398 0.0000 -5.3111 0.0000
# 4 0.0000 0.0000 0.0000 16.0782 0.0000 -2.7298
# 5 1.6992 -3.8243 -5.3111 0.0000 26.7272 0.0000
# 6 0.0000 0.0000 0.0000 -2.7298 0.0000 17.7456
#
#
#
# Elastic Compliance Matrix: (Units=1/GPa)
#
#
# Indices 1 2 3 4 5 6 
#
# 1 0.016490 -0.002186 -0.007877 0.000000 -0.002926 0.000000
# 2 -0.002186 0.018310 -0.005614 0.000000 0.001643 0.000000
# 3 -0.007877 -0.005614 0.016418 0.000000 0.002960 0.000000
# 4 0.000000 0.000000 0.000000 0.063864 0.000000 0.009824
# 5 -0.002926 0.001643 0.002960 0.000000 0.038424 0.000000
# 6 0.000000 0.000000 0.000000 0.009824 0.000000 0.057863
#
#
# Mechanical properties :
#
#
# Convention : Reuss Voigt Hill
#
# Bulk Modulus (GPa) = 50.34410 54.06188 52.20299
# Shear Modulus (GPa) = 20.05242 21.64209 20.84726
#
# Velocity S-wave (km/s) = 3.57408 3.71304 3.64422
# Velocity P-wave (km/s) = 7.00734 7.26783 7.13877
#
# Compressibility (1/GPa) = 0.01986330
#
# Stress axis : x y z
#
# Youngs Moduli (GPa) = 60.64158 54.61522 60.90766
#
# Poissons Ratio (x) = 0.11941 0.47976
# Poissons Ratio (y) = 0.13259 0.34195
# Poissons Ratio (z) = 0.47766 0.30663
#
# Static dielectric constant tensor:
#      x y z
#    x 2.917420 0.000000 0.189210 
#    y 0.000000 2.873540 0.000000 
#    z 0.189210 0.000000 3.206570 
# 
# 
# High freq. dielectric constant tensor:
#      x y z
#    x 1.590640 0.000000 0.011000 
#    y 0.000000 1.582130 0.000000 
#    z 0.011000 0.000000 1.606040 
# 
# From -- ./inp_files/224801.got.cif
#   From: 2010.06.25/outbox.cif.g09.slc.cpg/sg12_113_cif.got.tgz:224801.got - 2010.06.28 00:19:55.
