data_PCOD8089767
_publ_section_title
;
Structure prediction by ZEFSAII (Michael W. Deem and Ramdas Pophale) SiO2 
 PCOD8089767
Probable space group: C 2/M
;
_chemical_formula_sum "Si O2"
_cell_formula_units_Z 64
_cell_length_a 24.352851
_cell_length_b 8.936901
_cell_length_c 19.970453
_cell_angle_alpha 90.000000
_cell_angle_beta 125.355879
_cell_angle_gamma 90.000000
_cell_volume 3544.768289
_symmetry_space_group_name_H-M "C 2/M"
_symmetry_group_IT_number 12
_symmetry_cell_setting 'monoclinic'
loop_
_space_group_symop_operation_xyz
x,y,z
-x,y,-z
-x,-y,-z
x,-y,z
1/2+x,1/2+y,z
1/2-x,1/2+y,-z
1/2-x,1/2-y,-z
1/2+x,1/2-y,z
loop_
_atom_site_type_symbol
_atom_site_label
_atom_site_fract_x
_atom_site_fract_y
_atom_site_fract_z
Si Si1 0.179387 0.326407 0.964853
Si Si2 0.157257 0.676356 0.741566
Si Si3 0.292282 0.828938 0.868637
Si Si4 0.924972 0.823040 0.206636
Si Si5 0.800239 0.673525 0.370859
Si Si6 0.165871 0.672029 0.244889
Si Si7 0.433998 0.824680 0.714088
Si Si8 0.319747 0.826016 0.531471
O O1 0.182087 0.500000 0.945418
O O2 0.120320 0.245722 0.883789
O O3 0.250000 0.250000 0.000000
O O4 0.164040 0.308428 0.033355
O O5 0.145929 0.500000 0.741012
O O6 0.227741 0.720812 0.825970
O O7 0.096922 0.760846 0.736325
O O8 0.157711 0.731026 0.664136
O O9 0.339134 0.787916 0.837714
O O10 0.265895 0.000000 0.844651
O O11 0.001166 0.776942 0.247642
O O12 0.917382 0.000000 0.200089
O O13 0.787600 0.500000 0.351247
O O14 0.726632 0.743700 0.323444
O O15 0.839311 0.707983 0.467584
O O16 0.183065 0.500000 0.267904
O O17 0.096394 0.710253 0.233638
O O18 0.380796 0.769740 0.620561
O O19 0.452117 0.000000 0.718481
O O20 0.250000 0.750000 0.500000
O O21 0.308356 0.000000 0.535846
#
# Coordination Sequence:
#
# PCOD8089767 Si02
#       8
#     8   8   8   8   8   8   8   8
#     4  11  21  35  57  84 113 143 180 225 272 324
#     4  10  19  33  54  79 109 144 179 222 275 327
#     4   9  18  32  54  83 111 138 175 222 268 319
#     4  12  25  39  55  77 108 147 187 231 277 327
#     4   9  18  31  52  83 113 140 176 223 273 323
#     4   9  17  32  54  81 110 142 179 219 267 320
#     4  10  21  37  56  79 110 149 185 222 271 328
#     4  10  19  33  55  84 114 143 182 225 269 322
#
# _framework density 18.054777000000001
#
# number of rings (size 3 to 8) (size 9 to 14) (size 15 to 20)
#    0.000    2.000    2.500    1.875    0.000    2.000 
#    0.000    1.250    0.000    7.500    0.000    0.000 
#    0.000    0.000    0.000    0.000    0.000    0.000 
#
# Total GULP energy -396734.488772 kJ/mol
# GULP energy per Si atom -12397.952774 kJ/mol
# Density = 1.801368 g / cm^3
# Si number density = 18.054777 Si / 1000 Ang^3
#
#
#
# Elastic Constant Matrix: (Units=GPa)
#
#
# Indices 1 2 3 4 5 6 
#
# 1 122.3928 46.6459 62.3826 0.0000 -6.4620 0.0000
# 2 46.6459 79.8672 42.4189 0.0000 -0.4799 0.0000
# 3 62.3826 42.4189 108.3997 0.0000 -3.8540 0.0000
# 4 0.0000 0.0000 0.0000 23.6944 0.0000 4.0320
# 5 -6.4620 -0.4799 -3.8540 0.0000 26.7007 0.0000
# 6 0.0000 0.0000 0.0000 4.0320 0.0000 28.7993
#
#
#
# Elastic Compliance Matrix: (Units=1/GPa)
#
#
# Indices 1 2 3 4 5 6 
#
# 1 0.012840 -0.004549 -0.005530 0.000000 0.002228 0.000000
# 2 -0.004549 0.017427 -0.004252 0.000000 -0.001401 0.000000
# 3 -0.005530 -0.004252 0.014093 0.000000 0.000619 0.000000
# 4 0.000000 0.000000 0.000000 0.043234 0.000000 -0.006053
# 5 0.002228 -0.001401 0.000619 0.000000 0.038055 0.000000
# 6 0.000000 0.000000 0.000000 -0.006053 0.000000 0.035571
#
#
# Mechanical properties :
#
#
# Convention : Reuss Voigt Hill
#
# Bulk Modulus (GPa) = 63.69548 68.17270 65.93409
# Shear Modulus (GPa) = 25.62585 26.45304 26.03945
#
# Velocity S-wave (km/s) = 3.77150 3.83189 3.80181
# Velocity P-wave (km/s) = 7.37029 7.57751 7.47462
#
# Compressibility (1/GPa) = 0.01569970
#
# Stress axis : x y z
#
# Youngs Moduli (GPa) = 77.87959 57.38177 70.95481
#
# Poissons Ratio (x) = 0.26101 0.39240
# Poissons Ratio (y) = 0.35425 0.30168
# Poissons Ratio (z) = 0.43069 0.24397
#
# Static dielectric constant tensor:
#      x y z
#    x 3.650970 -0.000010 -1.435680 
#    y -0.000010 9.679460 0.000080 
#    z -1.435680 0.000080 13.911680 
# 
# 
# High freq. dielectric constant tensor:
#      x y z
#    x 1.696570 0.000000 -0.030490 
#    y 0.000000 1.700420 0.000000 
#    z -0.030490 0.000000 1.689300 
# 
# From -- ./inp_files/324231.got.cif
#   From: 2010.06.25/outbox.cif.g09.slc.cpg/sg12_163_cif.got.tgz:324231.got - 2010.06.28 00:19:55.
