data_PCOD8089137
_publ_section_title
;
Structure prediction by ZEFSAII (Michael W. Deem and Ramdas Pophale) SiO2 
 PCOD8089137
Probable space group: C 2/M
;
_chemical_formula_sum "Si O2"
_cell_formula_units_Z 64
_cell_length_a 23.847517
_cell_length_b 8.975598
_cell_length_c 15.115878
_cell_angle_alpha 90.000000
_cell_angle_beta 93.053556
_cell_angle_gamma 90.000000
_cell_volume 3230.895262
_symmetry_space_group_name_H-M "C 2/M"
_symmetry_group_IT_number 12
_symmetry_cell_setting 'monoclinic'
loop_
_space_group_symop_operation_xyz
x,y,z
-x,y,-z
-x,-y,-z
x,-y,z
1/2+x,1/2+y,z
1/2-x,1/2+y,-z
1/2-x,1/2-y,-z
1/2+x,1/2-y,z
loop_
_atom_site_type_symbol
_atom_site_label
_atom_site_fract_x
_atom_site_fract_y
_atom_site_fract_z
Si Si1 0.213913 0.331883 0.826824
Si Si2 0.471392 0.675526 0.088873
Si Si3 0.863604 0.670659 0.024199
Si Si4 0.828254 0.323955 0.832022
Si Si5 0.688593 0.821652 0.502546
Si Si6 0.373368 0.825110 0.327777
Si Si7 0.387897 0.824302 0.664271
Si Si8 0.508153 0.176374 0.728358
O O1 0.232714 0.500000 0.804979
O O2 0.194633 0.321162 0.926914
O O3 0.264427 0.221982 0.812658
O O4 0.162695 0.281480 0.760480
O O5 0.475600 0.500000 0.101228
O O6 0.407196 0.726659 0.079525
O O7 0.500535 0.751637 0.175747
O O8 0.500000 0.729540 0.000000
O O9 0.885565 0.500000 0.023157
O O10 0.853161 0.738837 0.925959
O O11 0.830489 0.500000 0.836219
O O12 0.864229 0.257999 0.754207
O O13 0.750000 0.750000 0.500000
O O14 0.657416 0.760978 0.587898
O O15 0.648843 0.761801 0.419908
O O16 0.695231 0.000000 0.503099
O O17 0.436496 0.761079 0.317594
O O18 0.379049 0.000000 0.340730
O O19 0.453920 0.782237 0.663416
O O20 0.380414 0.000000 0.664572
O O21 0.512622 0.000000 0.743969
#
# Coordination Sequence:
#
# PCOD8089137 Si02
#       8
#     8   8   8   8   8   8   8   8
#     4  10  19  33  51  76 106 139 181 226 271 326
#     4  11  23  36  52  79 113 145 182 227 273 326
#     4  10  20  35  54  75 104 142 187 226 266 324
#     4  10  20  33  50  77 107 141 183 226 270 322
#     4  10  20  36  57  84 114 144 180 225 273 328
#     4   9  18  33  56  82 108 139 183 230 273 321
#     4   9  19  34  55  82 109 138 183 228 267 321
#     4  10  19  37  60  79 106 145 185 229 274 320
#
# _framework density 19.808751000000001
#
# number of rings (size 3 to 8) (size 9 to 14) (size 15 to 20)
#    0.000    2.125    1.250    2.250    0.000    3.500 
#    0.000    4.375    0.000    0.000    0.000    1.750 
#    0.000    0.000    0.000    0.000    0.000    0.000 
#
# Total GULP energy -396749.954380 kJ/mol
# GULP energy per Si atom -12398.436074 kJ/mol
# Density = 1.976367 g / cm^3
# Si number density = 19.808751 Si / 1000 Ang^3
#
#
#
# Elastic Constant Matrix: (Units=GPa)
#
#
# Indices 1 2 3 4 5 6 
#
# 1 120.6067 20.1741 56.5945 0.0000 3.9119 0.0000
# 2 20.1741 25.5893 19.2219 0.0000 -0.3900 0.0000
# 3 56.5945 19.2219 138.9893 0.0000 -1.9552 0.0000
# 4 0.0000 0.0000 0.0000 15.4184 0.0000 -0.1596
# 5 3.9119 -0.3900 -1.9552 0.0000 33.7714 0.0000
# 6 0.0000 0.0000 0.0000 -0.1596 0.0000 28.4524
#
#
#
# Elastic Compliance Matrix: (Units=1/GPa)
#
#
# Indices 1 2 3 4 5 6 
#
# 1 0.011082 -0.005975 -0.003708 0.000000 -0.001567 0.000000
# 2 -0.005975 0.046832 -0.004030 0.000000 0.001000 0.000000
# 3 -0.003708 -0.004030 0.009275 0.000000 0.000920 0.000000
# 4 0.000000 0.000000 0.000000 0.064861 0.000000 0.000364
# 5 -0.001567 0.001000 0.000920 0.000000 0.029857 0.000000
# 6 0.000000 0.000000 0.000000 0.000364 0.000000 0.035148
#
#
# Mechanical properties :
#
#
# Convention : Reuss Voigt Hill
#
# Bulk Modulus (GPa) = 25.14919 53.01849 39.08384
# Shear Modulus (GPa) = 21.03180 28.14143 24.58662
#
# Velocity S-wave (km/s) = 3.26197 3.77325 3.52689
# Velocity P-wave (km/s) = 5.18757 6.76805 6.02982
#
# Compressibility (1/GPa) = 0.03976270
#
# Stress axis : x y z
#
# Youngs Moduli (GPa) = 90.23887 21.35303 107.81803
#
# Poissons Ratio (x) = 0.12759 0.39979
# Poissons Ratio (y) = 0.53919 0.43447
# Poissons Ratio (z) = 0.33461 0.08605
#
# Static dielectric constant tensor:
#      x y z
#    x 3.677570 0.000000 -0.077790 
#    y 0.000000 3.191690 0.000000 
#    z -0.077790 0.000000 3.920080 
# 
# 
# High freq. dielectric constant tensor:
#      x y z
#    x 1.781930 0.000000 -0.001840 
#    y 0.000000 1.728200 0.000000 
#    z -0.001840 0.000000 1.780630 
# 
# From -- ./inp_files/238603.got.cif
#   From: 2010.06.25/outbox.cif.g09.slc.cpg/sg12_120_cif.got.tgz:238603.got - 2010.06.28 00:19:55.
