data_PCOD8089826
_publ_section_title
;
Structure prediction by ZEFSAII (Michael W. Deem and Ramdas Pophale) SiO2 
 PCOD8089826
Probable space group: C 2/M
;
_chemical_formula_sum "Si O2"
_cell_formula_units_Z 64
_cell_length_a 26.473153
_cell_length_b 17.854072
_cell_length_c 23.017936
_cell_angle_alpha 90.000000
_cell_angle_beta 163.321481
_cell_angle_gamma 90.000000
_cell_volume 3122.434541
_symmetry_space_group_name_H-M "C 2/M"
_symmetry_group_IT_number 12
_symmetry_cell_setting 'monoclinic'
loop_
_space_group_symop_operation_xyz
x,y,z
-x,y,-z
-x,-y,-z
x,-y,z
1/2+x,1/2+y,z
1/2-x,1/2+y,-z
1/2-x,1/2-y,-z
1/2+x,1/2-y,z
loop_
_atom_site_type_symbol
_atom_site_label
_atom_site_fract_x
_atom_site_fract_y
_atom_site_fract_z
Si Si1 0.313551 0.917417 0.183623
Si Si2 0.557021 0.191243 0.999206
Si Si3 0.224285 0.416720 0.647178
Si Si4 0.876951 0.170216 0.599139
Si Si5 0.506818 0.911377 0.173601
Si Si6 0.825124 0.199135 0.668880
Si Si7 0.293668 0.178936 0.266332
Si Si8 0.280621 0.587938 0.048562
O O1 0.516224 0.923108 0.423360
O O2 0.223335 0.859875 0.129335
O O3 0.227123 0.000000 0.095590
O O4 0.291950 0.889031 0.094292
O O5 0.743263 0.233500 0.211018
O O6 0.500000 0.163597 0.000000
O O7 0.566199 0.118557 0.968454
O O8 0.430320 0.253516 0.832118
O O9 0.307592 0.500000 0.741476
O O10 0.270355 0.379448 0.636414
O O11 0.296976 0.366374 0.780478
O O12 0.696592 0.122718 0.397345
O O13 0.931961 0.180249 0.727440
O O14 0.847378 0.251878 0.538298
O O15 0.033524 0.129864 0.736404
O O16 0.525073 0.000000 0.190483
O O17 0.365080 0.885737 0.065656
O O18 0.500000 0.175569 0.500000
O O19 0.315993 0.500000 0.093477
#
# Coordination Sequence:
#
# PCOD8089826 Si02
#       8
#     8   8   8   8   8   8   8   8
#     4   9  18  32  53  83 119 156 193 236 289 346
#     4  11  22  41  61  83 121 153 191 249 295 349
#     4  10  19  33  54  80 116 157 195 239 287 346
#     4  10  21  38  62  87 123 156 196 247 298 354
#     4  10  23  42  64  90 118 154 199 247 304 360
#     4  10  21  37  56  87 120 156 200 242 292 357
#     4  10  20  35  56  83 113 154 199 236 284 349
#     4  10  20  36  60  89 120 153 195 246 297 356
#
# _framework density 20.496825999999999
#
# number of rings (size 3 to 8) (size 9 to 14) (size 15 to 20)
#    0.000    2.000    1.250    2.250    0.000    5.750 
#    0.000    8.750    0.000    0.375    0.000    0.000 
#    0.000    0.000    0.000    0.000    0.000    0.000 
#
# Total GULP energy -396742.793072 kJ/mol
# GULP energy per Si atom -12398.212283 kJ/mol
# Density = 2.045017 g / cm^3
# Si number density = 20.496826 Si / 1000 Ang^3
#
#
#
# Elastic Constant Matrix: (Units=GPa)
#
#
# Indices 1 2 3 4 5 6 
#
# 1 137.6115 46.2441 40.1590 -0.0027 -11.5204 0.0064
# 2 46.2441 77.9751 24.4720 0.0097 -1.6698 0.0190
# 3 40.1590 24.4720 58.9404 0.0105 2.0616 0.0442
# 4 -0.0027 0.0097 0.0105 26.5377 -0.0066 -4.7719
# 5 -11.5204 -1.6698 2.0616 -0.0066 27.9778 -0.0042
# 6 0.0064 0.0190 0.0442 -4.7719 -0.0042 35.6335
#
#
#
# Elastic Compliance Matrix: (Units=1/GPa)
#
#
# Indices 1 2 3 4 5 6 
#
# 1 0.010831 -0.004551 -0.005651 0.000008 0.004605 0.000009
# 2 -0.004551 0.016708 -0.003816 -0.000006 -0.000596 -0.000004
# 3 -0.005651 -0.003816 0.022548 -0.000014 -0.004216 -0.000027
# 4 0.000008 -0.000006 -0.000014 0.038612 0.000014 0.005171
# 5 0.004605 -0.000596 -0.004216 0.000014 0.037914 0.000011
# 6 0.000009 -0.000004 -0.000027 0.005171 0.000011 0.028756
#
#
# Mechanical properties :
#
#
# Convention : Reuss Voigt Hill
#
# Bulk Modulus (GPa) = 45.34708 55.14188 50.24448
# Shear Modulus (GPa) = 26.21153 28.93992 27.57573
#
# Velocity S-wave (km/s) = 3.57992 3.76163 3.67190
# Velocity P-wave (km/s) = 6.26576 6.76960 6.52255
#
# Compressibility (1/GPa) = 0.02205213
#
# Stress axis : x y z
#
# Youngs Moduli (GPa) = 92.32858 59.84981 44.34922
#
# Poissons Ratio (x) = 0.27239 0.25062
# Poissons Ratio (y) = 0.42021 0.16922
# Poissons Ratio (z) = 0.52175 0.22836
#
# Static dielectric constant tensor:
#      x y z
#    x 3.829160 -0.000070 -0.155880 
#    y -0.000070 3.794910 -0.000110 
#    z -0.155880 -0.000110 3.555690 
# 
# 
# High freq. dielectric constant tensor:
#      x y z
#    x 1.804620 0.000000 -0.007620 
#    y 0.000000 1.796630 -0.000010 
#    z -0.007620 -0.000010 1.791200 
# 
# From -- ./inp_files/326166.got.cif
#   From: 2010.06.25/outbox.cif.g09.slc.cpg/sg12_164_cif.got.tgz:326166.got - 2010.06.28 00:19:55.
