data_PCOD8089486
_publ_section_title
;
Structure prediction by ZEFSAII (Michael W. Deem and Ramdas Pophale) SiO2 
 PCOD8089486
Probable space group: C 2/M
;
_chemical_formula_sum "Si O2"
_cell_formula_units_Z 40
_cell_length_a 19.226903
_cell_length_b 8.482317
_cell_length_c 13.707681
_cell_angle_alpha 90.000000
_cell_angle_beta 70.054216
_cell_angle_gamma 90.000000
_cell_volume 2101.469026
_symmetry_space_group_name_H-M "C 2/M"
_symmetry_group_IT_number 12
_symmetry_cell_setting 'monoclinic'
loop_
_space_group_symop_operation_xyz
x,y,z
-x,y,-z
-x,-y,-z
x,-y,z
1/2+x,1/2+y,z
1/2-x,1/2+y,-z
1/2-x,1/2-y,-z
1/2+x,1/2-y,z
loop_
_atom_site_type_symbol
_atom_site_label
_atom_site_fract_x
_atom_site_fract_y
_atom_site_fract_z
Si Si1 0.578965 0.315136 0.167612
Si Si2 0.284094 0.315829 0.385717
Si Si3 0.575946 0.183248 0.778118
Si Si4 0.715839 0.683244 0.231761
Si Si5 0.645035 0.315499 0.931250
O O1 0.562471 0.500000 0.171829
O O2 0.503895 0.223207 0.228185
O O3 0.636625 0.272184 0.224989
O O4 0.610797 0.256568 0.048963
O O5 0.298741 0.500000 0.388396
O O6 0.250000 0.250000 0.500000
O O7 0.362114 0.230211 0.330143
O O8 0.227711 0.283860 0.323840
O O9 0.586888 0.280220 0.872884
O O10 0.582869 0.000000 0.798696
O O11 0.720382 0.500000 0.256619
O O12 0.779018 0.721460 0.122331
O O13 0.663135 0.500000 0.925077
#
# Coordination Sequence:
#
# PCOD8089486 Si02
#       5
#     8   8   8   8   8
#     4  10  21  35  52  78 114 150 180 219 268 314
#     4  11  22  40  63  82 104 135 175 221 270 324
#     4  11  22  35  54  81 110 142 183 225 265 314
#     4  10  20  35  55  81 111 142 181 223 266 317
#     4  10  19  33  53  77 110 151 188 219 260 314
#
# _framework density 19.034303999999999
#
# number of rings (size 3 to 8) (size 9 to 14) (size 15 to 20)
#    0.000    1.600    0.000    8.400    0.000    5.600 
#    0.000    1.000    0.000    6.000    0.000    0.000 
#    0.000    0.000    0.000    0.000    0.000    0.000 
#
# Total GULP energy -248099.996566 kJ/mol
# GULP energy per Si atom -12404.999828 kJ/mol
# Density = 1.899098 g / cm^3
# Si number density = 19.034304 Si / 1000 Ang^3
#
#
#
# Elastic Constant Matrix: (Units=GPa)
#
#
# Indices 1 2 3 4 5 6 
#
# 1 125.4900 26.1167 47.8299 0.0000 -13.1307 0.0000
# 2 26.1167 56.4888 19.4036 0.0000 -3.5751 0.0000
# 3 47.8299 19.4036 121.6483 0.0000 -0.1433 0.0000
# 4 0.0000 0.0000 0.0000 30.7382 0.0000 -2.4401
# 5 -13.1307 -3.5751 -0.1433 0.0000 13.1678 0.0000
# 6 0.0000 0.0000 0.0000 -2.4401 0.0000 33.0941
#
#
#
# Elastic Compliance Matrix: (Units=1/GPa)
#
#
# Indices 1 2 3 4 5 6 
#
# 1 0.011181 -0.003190 -0.003875 0.000000 0.010242 0.000000
# 2 -0.003190 0.019981 -0.001930 0.000000 0.002223 0.000000
# 3 -0.003875 -0.001930 0.010047 0.000000 -0.004279 0.000000
# 4 0.000000 0.000000 0.000000 0.032724 0.000000 0.002413
# 5 0.010242 0.002223 -0.004279 0.000000 0.086713 0.000000
# 6 0.000000 0.000000 0.000000 0.002413 0.000000 0.030395
#
#
# Mechanical properties :
#
#
# Convention : Reuss Voigt Hill
#
# Bulk Modulus (GPa) = 43.06985 54.48082 48.77534
# Shear Modulus (GPa) = 23.06566 29.41848 26.24207
#
# Velocity S-wave (km/s) = 3.48486 3.93561 3.71708
# Velocity P-wave (km/s) = 6.23450 7.02401 6.64099
#
# Compressibility (1/GPa) = 0.02321810
#
# Stress axis : x y z
#
# Youngs Moduli (GPa) = 89.43394 50.04696 99.53221
#
# Poissons Ratio (x) = 0.15966 0.38573
# Poissons Ratio (y) = 0.28531 0.19211
# Poissons Ratio (z) = 0.34659 0.09660
#
# Static dielectric constant tensor:
#      x y z
#    x 3.514490 0.000000 -0.037900 
#    y 0.000000 3.528890 0.000000 
#    z -0.037900 0.000000 3.356910 
# 
# 
# High freq. dielectric constant tensor:
#      x y z
#    x 1.743210 0.000000 -0.004560 
#    y 0.000000 1.750360 0.000000 
#    z -0.004560 0.000000 1.724430 
# 
# From -- ./inp_files/187013.got.cif
#   From: 2010.06.25/outbox.cif.g09.slc.cpg/sg12_94_cif.got.tgz:187013.got - 2010.06.28 00:19:55.
