data_PCOD8089963
_publ_section_title
;
Structure prediction by ZEFSAII (Michael W. Deem and Ramdas Pophale) SiO2 
 PCOD8089963
Probable space group: C 2/M
;
_chemical_formula_sum "Si O2"
_cell_formula_units_Z 56
_cell_length_a 29.730183
_cell_length_b 8.932336
_cell_length_c 12.445337
_cell_angle_alpha 90.000000
_cell_angle_beta 73.919152
_cell_angle_gamma 90.000000
_cell_volume 3175.665429
_symmetry_space_group_name_H-M "C 2/M"
_symmetry_group_IT_number 12
_symmetry_cell_setting 'monoclinic'
loop_
_space_group_symop_operation_xyz
x,y,z
-x,y,-z
-x,-y,-z
x,-y,z
1/2+x,1/2+y,z
1/2-x,1/2+y,-z
1/2-x,1/2-y,-z
1/2+x,1/2-y,z
loop_
_atom_site_type_symbol
_atom_site_label
_atom_site_fract_x
_atom_site_fract_y
_atom_site_fract_z
Si Si1 0.558372 0.826010 0.130370
Si Si2 0.896574 0.173071 0.697131
Si Si3 0.803116 0.326403 0.085269
Si Si4 0.451450 0.172406 0.235566
Si Si5 0.549504 0.175442 0.515944
Si Si6 0.609439 0.323722 0.897269
Si Si7 0.301372 0.328793 0.864695
O O1 0.574499 0.763541 0.233692
O O2 0.503089 0.801022 0.154812
O O3 0.571379 0.000000 0.116171
O O4 0.583508 0.742172 0.017508
O O5 0.909321 0.235683 0.571548
O O6 0.840849 0.196112 0.748643
O O7 0.910480 0.000000 0.697500
O O8 0.815188 0.500000 0.089348
O O9 0.837056 0.234194 0.141479
O O10 0.749305 0.290829 0.152661
O O11 0.812684 0.279295 0.956178
O O12 0.449002 0.220791 0.360913
O O13 0.415467 0.275290 0.195505
O O14 0.436864 0.000000 0.230559
O O15 0.500000 0.226222 0.500000
O O16 0.557343 0.000000 0.493389
O O17 0.609001 0.500000 0.907497
O O18 0.301626 0.500000 0.907312
#
# Coordination Sequence:
#
# PCOD8089963 Si02
#       7
#     8   8   8   8   8   8   8
#     4  11  21  36  56  79 108 147 186 218 263 324
#     4  11  21  33  54  84 116 142 172 222 278 320
#     4  10  19  33  55  78 106 145 182 216 266 328
#     4  10  22  39  57  76 105 146 190 225 261 320
#     4  10  20  38  58  78 105 143 188 228 262 311
#     4  12  24  36  52  80 115 144 178 226 276 324
#     4   9  19  34  52  80 112 140 175 223 272 321
#
# _framework density 17.6341
#
# number of rings (size 3 to 8) (size 9 to 14) (size 15 to 20)
#    0.000    1.571    2.857    3.000    0.000    4.857 
#    0.000    0.000    0.000    0.857    0.000    0.000 
#    0.000    0.000    0.000    0.000    0.000    0.000 
#
# Total GULP energy -347302.781499 kJ/mol
# GULP energy per Si atom -12403.670768 kJ/mol
# Density = 1.759396 g / cm^3
# Si number density = 17.634100 Si / 1000 Ang^3
#
#
#
# Elastic Constant Matrix: (Units=GPa)
#
#
# Indices 1 2 3 4 5 6 
#
# 1 114.7535 63.4132 48.7103 0.0000 0.1474 0.0000
# 2 63.4132 110.4990 44.5543 0.0000 2.2429 0.0000
# 3 48.7103 44.5543 75.4072 0.0000 -1.0550 0.0000
# 4 0.0000 0.0000 0.0000 29.4070 0.0000 0.3583
# 5 0.1474 2.2429 -1.0550 0.0000 25.8046 0.0000
# 6 0.0000 0.0000 0.0000 0.3583 0.0000 27.9311
#
#
#
# Elastic Compliance Matrix: (Units=1/GPa)
#
#
# Indices 1 2 3 4 5 6 
#
# 1 0.014486 -0.005967 -0.005829 0.000000 0.000198 0.000000
# 2 -0.005967 0.014383 -0.004664 0.000000 -0.001407 0.000000
# 3 -0.005829 -0.004664 0.019800 0.000000 0.001248 0.000000
# 4 0.000000 0.000000 0.000000 0.034011 0.000000 -0.000436
# 5 0.000198 -0.001407 0.001248 0.000000 0.038925 0.000000
# 6 0.000000 0.000000 0.000000 -0.000436 0.000000 0.035808
#
#
# Mechanical properties :
#
#
# Convention : Reuss Voigt Hill
#
# Bulk Modulus (GPa) = 63.49358 68.22392 65.85875
# Shear Modulus (GPa) = 25.56496 26.22734 25.89615
#
# Velocity S-wave (km/s) = 3.81168 3.86075 3.83629
# Velocity P-wave (km/s) = 7.44689 7.65810 7.55323
#
# Compressibility (1/GPa) = 0.01574962
#
# Stress axis : x y z
#
# Youngs Moduli (GPa) = 69.03429 69.52660 50.50614
#
# Poissons Ratio (x) = 0.41484 0.29440
# Poissons Ratio (y) = 0.41191 0.23554
# Poissons Ratio (z) = 0.40240 0.32424
#
# Static dielectric constant tensor:
#      x y z
#    x 3.457710 0.000000 -0.109890 
#    y 0.000000 3.336130 0.000000 
#    z -0.109890 0.000000 3.170830 
# 
# 
# High freq. dielectric constant tensor:
#      x y z
#    x 1.684040 0.000000 -0.010430 
#    y 0.000000 1.690980 0.000000 
#    z -0.010430 0.000000 1.661700 
# 
# From -- ./inp_files/180848.got.cif
#   From: 2010.06.25/outbox.cif.g09.slc.cpg/sg12_91_cif.got.tgz:180848.got - 2010.06.28 00:19:55.
