data_PCOD8089128
_publ_section_title
;
Structure prediction by ZEFSAII (Michael W. Deem and Ramdas Pophale) SiO2 
 PCOD8089128
Probable space group: C 2/M
;
_chemical_formula_sum "Si O2"
_cell_formula_units_Z 56
_cell_length_a 29.099598
_cell_length_b 9.396116
_cell_length_c 11.219596
_cell_angle_alpha 90.000000
_cell_angle_beta 69.826148
_cell_angle_gamma 90.000000
_cell_volume 2879.496121
_symmetry_space_group_name_H-M "C 2/M"
_symmetry_group_IT_number 12
_symmetry_cell_setting 'monoclinic'
loop_
_space_group_symop_operation_xyz
x,y,z
-x,y,-z
-x,-y,-z
x,-y,z
1/2+x,1/2+y,z
1/2-x,1/2+y,-z
1/2-x,1/2-y,-z
1/2+x,1/2-y,z
loop_
_atom_site_type_symbol
_atom_site_label
_atom_site_fract_x
_atom_site_fract_y
_atom_site_fract_z
Si Si1 0.022310 0.333562 0.604505
Si Si2 0.169866 0.832317 0.748071
Si Si3 0.128683 0.333440 0.586254
Si Si4 0.633719 0.838987 0.992262
Si Si5 0.712225 0.838914 0.107271
Si Si6 0.720211 0.167404 0.360518
Si Si7 0.022091 0.668192 0.105528
O O1 0.010346 0.500000 0.614802
O O2 0.080558 0.302677 0.550864
O O3 0.000000 0.268040 0.500000
O O4 0.001270 0.269852 0.749345
O O5 0.127331 0.754834 0.710291
O O6 0.164926 0.769552 0.884468
O O7 0.224405 0.794215 0.649051
O O8 0.160872 0.000000 0.758283
O O9 0.132176 0.500000 0.614106
O O10 0.177443 0.269440 0.480979
O O11 0.635756 0.000000 0.937627
O O12 0.657995 0.835095 0.100697
O O13 0.578481 0.786611 0.056104
O O14 0.709791 0.769517 0.239556
O O15 0.732333 0.000000 0.096518
O O16 0.750000 0.750000 0.000000
O O17 0.712245 0.000000 0.366000
O O18 0.013825 0.500000 0.113891
O O19 0.000000 0.729807 0.000000
#
# Coordination Sequence:
#
# PCOD8089128 Si02
#       7
#     8   8   8   8   8   8   8
#     4   9  18  31  52  82 110 136 172 222 272 316
#     4  11  21  35  53  76 109 141 174 216 262 311
#     4  10  20  35  56  78 105 138 176 215 260 316
#     4  10  20  32  54  80 105 139 176 214 261 315
#     4  10  19  33  51  75 106 139 175 214 259 309
#     4   9  19  33  51  76 107 140 171 213 262 311
#     4   9  17  30  49  77 110 136 168 219 270 313
#
# _framework density 19.447845999999998
#
# number of rings (size 3 to 8) (size 9 to 14) (size 15 to 20)
#    0.000    2.286    1.429    1.714    2.000    2.286 
#    0.000    1.429    0.000    4.286    0.000    0.000 
#    0.000    0.000    0.000    0.000    0.000    0.000 
#
# Total GULP energy -346979.849723 kJ/mol
# GULP energy per Si atom -12392.137490 kJ/mol
# Density = 1.940358 g / cm^3
# Si number density = 19.447846 Si / 1000 Ang^3
#
#
#
# Elastic Constant Matrix: (Units=GPa)
#
#
# Indices 1 2 3 4 5 6 
#
# 1 122.6087 31.4248 44.2566 0.0000 10.4344 0.0000
# 2 31.4248 42.9910 19.6945 0.0000 0.1247 0.0000
# 3 44.2566 19.6945 98.7856 0.0000 8.5741 0.0000
# 4 0.0000 0.0000 0.0000 18.9224 0.0000 0.4673
# 5 10.4344 0.1247 8.5741 0.0000 39.0728 0.0000
# 6 0.0000 0.0000 0.0000 0.4673 0.0000 17.6400
#
#
#
# Elastic Compliance Matrix: (Units=1/GPa)
#
#
# Indices 1 2 3 4 5 6 
#
# 1 0.011334 -0.006648 -0.003559 0.000000 -0.002224 0.000000
# 2 -0.006648 0.029541 -0.003116 0.000000 0.002365 0.000000
# 3 -0.003559 -0.003116 0.012493 0.000000 -0.001781 0.000000
# 4 0.000000 0.000000 0.000000 0.052882 0.000000 -0.001401
# 5 -0.002224 0.002365 -0.001781 0.000000 0.026571 0.000000
# 6 0.000000 0.000000 0.000000 -0.001401 0.000000 0.056726
#
#
# Mechanical properties :
#
#
# Convention : Reuss Voigt Hill
#
# Bulk Modulus (GPa) = 37.42346 50.57077 43.99712
# Shear Modulus (GPa) = 22.21226 26.39433 24.30329
#
# Velocity S-wave (km/s) = 3.38323 3.68800 3.53890
# Velocity P-wave (km/s) = 5.87762 6.64792 6.27460
#
# Compressibility (1/GPa) = 0.02672121
#
# Stress axis : x y z
#
# Youngs Moduli (GPa) = 88.23094 33.85161 80.04214
#
# Poissons Ratio (x) = 0.22503 0.28489
# Poissons Ratio (y) = 0.58653 0.24945
# Poissons Ratio (z) = 0.31404 0.10550
#
# Static dielectric constant tensor:
#      x y z
#    x 3.790720 0.000000 0.219100 
#    y 0.000000 3.059230 0.000000 
#    z 0.219100 0.000000 3.976670 
# 
# 
# High freq. dielectric constant tensor:
#      x y z
#    x 1.772580 0.000000 0.008080 
#    y 0.000000 1.697030 0.000000 
#    z 0.008080 0.000000 1.762940 
# 
# From -- ./inp_files/180656.got.cif
#   From: 2010.06.25/outbox.cif.g09.slc.cpg/sg12_91_cif.got.tgz:180656.got - 2010.06.28 00:19:55.
