data_PCOD8089795
_publ_section_title
;
Structure prediction by ZEFSAII (Michael W. Deem and Ramdas Pophale) SiO2 
 PCOD8089795
Probable space group: C 2/M
;
_chemical_formula_sum "Si O2"
_cell_formula_units_Z 64
_cell_length_a 25.207691
_cell_length_b 8.854265
_cell_length_c 19.723878
_cell_angle_alpha 90.000000
_cell_angle_beta 131.425574
_cell_angle_gamma 90.000000
_cell_volume 3300.900915
_symmetry_space_group_name_H-M "C 2/M"
_symmetry_group_IT_number 12
_symmetry_cell_setting 'monoclinic'
loop_
_space_group_symop_operation_xyz
x,y,z
-x,y,-z
-x,-y,-z
x,-y,z
1/2+x,1/2+y,z
1/2-x,1/2+y,-z
1/2-x,1/2-y,-z
1/2+x,1/2-y,z
loop_
_atom_site_type_symbol
_atom_site_label
_atom_site_fract_x
_atom_site_fract_y
_atom_site_fract_z
Si Si1 0.738697 0.323269 0.288753
Si Si2 0.929206 0.325802 0.666452
Si Si3 0.346697 0.323255 0.012263
Si Si4 0.533441 0.175196 0.957665
Si Si5 0.410591 0.325789 0.782808
Si Si6 0.089804 0.322300 0.799992
Si Si7 0.284567 0.178569 0.183058
Si Si8 0.793371 0.674369 0.476247
O O1 0.754969 0.500000 0.301419
O O2 0.654677 0.292130 0.222363
O O3 0.767996 0.249335 0.243388
O O4 0.775822 0.253266 0.387438
O O5 0.930846 0.500000 0.691971
O O6 0.890874 0.219506 0.689582
O O7 0.878367 0.308626 0.558130
O O8 0.009273 0.266858 0.719381
O O9 0.348549 0.500000 0.027354
O O10 0.398015 0.278283 0.993830
O O11 0.373387 0.242807 0.102254
O O12 0.269639 0.266609 0.921850
O O13 0.476145 0.215742 0.852470
O O14 0.553895 0.000000 0.970011
O O15 0.500000 0.221984 0.000000
O O16 0.433862 0.500000 0.807101
O O17 0.091665 0.500000 0.811031
O O18 0.136644 0.274263 0.774107
O O19 0.275389 0.000000 0.181862
O O20 0.769926 0.500000 0.456252
O O21 0.750000 0.750000 0.500000
#
# Coordination Sequence:
#
# PCOD8089795 Si02
#       8
#     8   8   8   8   8   8   8   8
#     4   9  18  33  53  79 109 140 178 224 273 319
#     4  10  20  33  52  79 110 138 173 221 271 323
#     4  11  21  34  55  80 105 139 186 231 266 314
#     4  11  23  36  50  74 111 148 178 218 272 325
#     4  11  20  32  54  79 106 142 179 219 267 319
#     4  10  20  36  56  77 107 146 182 223 273 318
#     4   9  19  35  54  77 107 142 182 229 272 315
#     4  10  19  33  54  80 109 140 177 223 271 328
#
# _framework density 19.388646000000001
#
# number of rings (size 3 to 8) (size 9 to 14) (size 15 to 20)
#    0.000    1.875    2.500    2.250    0.000    2.000 
#    0.000    1.250    0.000    6.750    0.000    0.000 
#    0.000    3.000    0.000    0.000    0.000    0.000 
#
# Total GULP energy -396645.629600 kJ/mol
# GULP energy per Si atom -12395.175925 kJ/mol
# Density = 1.934452 g / cm^3
# Si number density = 19.388646 Si / 1000 Ang^3
#
#
#
# Elastic Constant Matrix: (Units=GPa)
#
#
# Indices 1 2 3 4 5 6 
#
# 1 123.2982 20.6660 45.0240 0.0000 3.8238 0.0000
# 2 20.6660 19.6068 11.4471 0.0000 3.1000 0.0000
# 3 45.0240 11.4471 95.4204 0.0000 7.5223 0.0000
# 4 0.0000 0.0000 0.0000 18.1166 0.0000 -2.7566
# 5 3.8238 3.1000 7.5223 0.0000 22.2419 0.0000
# 6 0.0000 0.0000 0.0000 -2.7566 0.0000 19.5197
#
#
#
# Elastic Compliance Matrix: (Units=1/GPa)
#
#
# Indices 1 2 3 4 5 6 
#
# 1 0.011216 -0.009489 -0.004219 0.000000 0.000821 0.000000
# 2 -0.009489 0.063551 -0.002648 0.000000 -0.006331 0.000000
# 3 -0.004219 -0.002648 0.013050 0.000000 -0.003319 0.000000
# 4 0.000000 0.000000 0.000000 0.056410 0.000000 0.007966
# 5 0.000821 -0.006331 -0.003319 0.000000 0.046824 0.000000
# 6 0.000000 0.000000 0.000000 0.007966 0.000000 0.052355
#
#
# Mechanical properties :
#
#
# Convention : Reuss Voigt Hill
#
# Bulk Modulus (GPa) = 18.14663 43.62218 30.88440
# Shear Modulus (GPa) = 16.97885 22.72153 19.85019
#
# Velocity S-wave (km/s) = 2.96245 3.42701 3.20317
# Velocity P-wave (km/s) = 4.59143 6.18117 5.44464
#
# Compressibility (1/GPa) = 0.05510665
#
# Stress axis : x y z
#
# Youngs Moduli (GPa) = 89.15986 15.73549 76.62971
#
# Poissons Ratio (x) = 0.14931 0.32327
# Poissons Ratio (y) = 0.84600 0.20288
# Poissons Ratio (z) = 0.37613 0.04166
#
# Static dielectric constant tensor:
#      x y z
#    x 3.807730 0.000000 0.005410 
#    y 0.000000 3.227230 0.000000 
#    z 0.005410 0.000000 3.779200 
# 
# 
# High freq. dielectric constant tensor:
#      x y z
#    x 1.754750 0.000000 0.005210 
#    y 0.000000 1.724210 0.000000 
#    z 0.005210 0.000000 1.757840 
# 
# From -- ./inp_files/324104.got.cif
#   From: 2010.06.25/outbox.cif.g09.slc.cpg/sg12_163_cif.got.tgz:324104.got - 2010.06.28 00:19:55.
