data_PCOD8089854
_publ_section_title
;
Structure prediction by ZEFSAII (Michael W. Deem and Ramdas Pophale) SiO2 
 PCOD8089854
Probable space group: C 2/M
;
_chemical_formula_sum "Si O2"
_cell_formula_units_Z 56
_cell_length_a 28.781664
_cell_length_b 8.545066
_cell_length_c 13.458612
_cell_angle_alpha 90.000000
_cell_angle_beta 122.123852
_cell_angle_gamma 90.000000
_cell_volume 2803.264316
_symmetry_space_group_name_H-M "C 2/M"
_symmetry_group_IT_number 12
_symmetry_cell_setting 'monoclinic'
loop_
_space_group_symop_operation_xyz
x,y,z
-x,y,-z
-x,-y,-z
x,-y,z
1/2+x,1/2+y,z
1/2-x,1/2+y,-z
1/2-x,1/2-y,-z
1/2+x,1/2-y,z
loop_
_atom_site_type_symbol
_atom_site_label
_atom_site_fract_x
_atom_site_fract_y
_atom_site_fract_z
Si Si1 0.870068 0.184463 0.185952
Si Si2 0.583979 0.182301 0.281109
Si Si3 0.698260 0.317686 0.712306
Si Si4 0.027815 0.183878 0.817779
Si Si5 0.404600 0.181518 0.933816
Si Si6 0.197744 0.682538 0.496301
Si Si7 0.304445 0.682966 0.923025
O O1 0.852875 0.240504 0.276858
O O2 0.931831 0.236968 0.226899
O O3 0.865588 0.000000 0.177503
O O4 0.826901 0.246076 0.054436
O O5 0.534189 0.269785 0.280979
O O6 0.577552 0.217287 0.157732
O O7 0.641544 0.252017 0.386433
O O8 0.579803 0.000000 0.301495
O O9 0.693745 0.500000 0.679382
O O10 0.699466 0.216720 0.614680
O O11 0.752743 0.288710 0.837586
O O12 0.033372 0.000000 0.843162
O O13 0.044962 0.274115 0.937453
O O14 0.351915 0.288260 0.896104
O O15 0.389094 0.000000 0.929792
O O16 0.199225 0.500000 0.478857
O O17 0.250000 0.750000 0.500000
O O18 0.288740 0.500000 0.905086
#
# Coordination Sequence:
#
# PCOD8089854 Si02
#       7
#     8   8   8   8   8   8   8
#     4   8  18  35  54  80 113 145 181 226 272 325
#     4  10  22  38  55  77 108 145 182 223 272 326
#     4  11  21  36  57  80 110 148 186 225 277 331
#     4  10  20  35  56  83 112 142 180 225 271 323
#     4  10  19  33  54  81 113 147 181 220 275 335
#     4  11  24  42  61  83 111 142 183 230 274 323
#     4  10  19  33  54  83 115 145 184 230 275 326
#
# _framework density 19.976710000000001
#
# number of rings (size 3 to 8) (size 9 to 14) (size 15 to 20)
#    0.000    2.000    0.000    4.714    0.000    5.143 
#    0.000    8.571    0.000    4.286    0.000    0.000 
#    0.000    0.000    0.000    0.000    0.000    0.000 
#
# Total GULP energy -347192.986249 kJ/mol
# GULP energy per Si atom -12399.749509 kJ/mol
# Density = 1.993124 g / cm^3
# Si number density = 19.976710 Si / 1000 Ang^3
#
#
#
# Elastic Constant Matrix: (Units=GPa)
#
#
# Indices 1 2 3 4 5 6 
#
# 1 156.5482 21.0981 78.6777 0.0000 4.7197 0.0000
# 2 21.0981 37.9141 18.8074 0.0000 -2.1270 0.0000
# 3 78.6777 18.8074 79.5869 0.0000 -1.3098 0.0000
# 4 0.0000 0.0000 0.0000 25.0167 0.0000 3.4985
# 5 4.7197 -2.1270 -1.3098 0.0000 32.5664 0.0000
# 6 0.0000 0.0000 0.0000 3.4985 0.0000 29.6338
#
#
#
# Elastic Compliance Matrix: (Units=1/GPa)
#
#
# Indices 1 2 3 4 5 6 
#
# 1 0.012917 -0.001100 -0.012550 0.000000 -0.002449 0.000000
# 2 -0.001100 0.030062 -0.005986 0.000000 0.001882 0.000000
# 3 -0.012550 -0.005986 0.026427 0.000000 0.002491 0.000000
# 4 0.000000 0.000000 0.000000 0.040644 0.000000 -0.004798
# 5 -0.002449 0.001882 0.002491 0.000000 0.031284 0.000000
# 6 0.000000 0.000000 0.000000 -0.004798 0.000000 0.034312
#
#
# Mechanical properties :
#
#
# Convention : Reuss Voigt Hill
#
# Bulk Modulus (GPa) = 33.18386 56.80172 44.99279
# Shear Modulus (GPa) = 22.22582 27.80778 25.01680
#
# Velocity S-wave (km/s) = 3.33916 3.73501 3.54262
# Velocity P-wave (km/s) = 5.61374 6.86266 6.26938
#
# Compressibility (1/GPa) = 0.03013514
#
# Stress axis : x y z
#
# Youngs Moduli (GPa) = 77.41592 33.26421 37.84007
#
# Poissons Ratio (x) = 0.03659 0.47489
# Poissons Ratio (y) = 0.08515 0.22650
# Poissons Ratio (z) = 0.97157 0.19911
#
# Static dielectric constant tensor:
#      x y z
#    x 4.008250 0.000000 -0.038300 
#    y 0.000000 3.485220 0.000000 
#    z -0.038300 0.000000 3.565230 
# 
# 
# High freq. dielectric constant tensor:
#      x y z
#    x 1.795330 0.000000 -0.000820 
#    y 0.000000 1.770020 0.000000 
#    z -0.000820 0.000000 1.757880 
# 
# From -- ./inp_files/187761.got.cif
#   From: 2010.06.25/outbox.cif.g09.slc.cpg/sg12_94_cif.got.tgz:187761.got - 2010.06.28 00:19:55.
