data_PCOD8089132
_publ_section_title
;
Structure prediction by ZEFSAII (Michael W. Deem and Ramdas Pophale) SiO2 
 PCOD8089132
Probable space group: C 2/M
;
_chemical_formula_sum "Si O2"
_cell_formula_units_Z 64
_cell_length_a 28.009264
_cell_length_b 9.159852
_cell_length_c 14.267240
_cell_angle_alpha 90.000000
_cell_angle_beta 94.067754
_cell_angle_gamma 90.000000
_cell_volume 3651.192185
_symmetry_space_group_name_H-M "C 2/M"
_symmetry_group_IT_number 12
_symmetry_cell_setting 'monoclinic'
loop_
_space_group_symop_operation_xyz
x,y,z
-x,y,-z
-x,-y,-z
x,-y,z
1/2+x,1/2+y,z
1/2-x,1/2+y,-z
1/2-x,1/2-y,-z
1/2+x,1/2-y,z
loop_
_atom_site_type_symbol
_atom_site_label
_atom_site_fract_x
_atom_site_fract_y
_atom_site_fract_z
Si Si1 0.424842 0.667955 0.723203
Si Si2 0.528892 0.330366 0.802767
Si Si3 0.445746 0.328224 0.515764
Si Si4 0.257741 0.827308 0.902392
Si Si5 0.091199 0.331839 0.948277
Si Si6 0.862276 0.671086 0.853965
Si Si7 0.591590 0.170771 0.660316
Si Si8 0.173059 0.665623 0.810344
O O1 0.410311 0.500000 0.719980
O O2 0.472202 0.694125 0.791614
O O3 0.433568 0.722952 0.618870
O O4 0.380771 0.754238 0.762032
O O5 0.542377 0.500000 0.795284
O O6 0.547966 0.267509 0.904038
O O7 0.551948 0.246332 0.719157
O O8 0.500000 0.283554 0.500000
O O9 0.438217 0.500000 0.500287
O O10 0.409858 0.241588 0.442559
O O11 0.308376 0.777903 0.866850
O O12 0.217323 0.776328 0.823274
O O13 0.255359 0.000000 0.917475
O O14 0.250000 0.750000 0.000000
O O15 0.074867 0.500000 0.940216
O O16 0.138459 0.307145 0.893387
O O17 0.103486 0.282920 0.055078
O O18 0.864060 0.500000 0.838588
O O19 0.644421 0.196933 0.710330
O O20 0.579544 0.000000 0.654340
O O21 0.192415 0.500000 0.815277
#
# Coordination Sequence:
#
# PCOD8089132 Si02
#       8
#     8   8   8   8   8   8   8   8
#     4  10  22  37  53  76 107 143 180 221 267 315
#     4  10  19  33  51  75 108 143 181 220 260 310
#     4  10  19  36  57  78 109 141 175 225 271 311
#     4  11  21  35  56  81 107 139 179 221 267 315
#     4   9  18  34  51  73 108 144 178 217 263 311
#     4  10  22  38  53  74 109 144 177 222 268 316
#     4  10  20  33  53  82 111 138 175 220 266 319
#     4   9  18  34  53  78 111 137 170 222 267 311
#
# _framework density 17.528521000000001
#
# number of rings (size 3 to 8) (size 9 to 14) (size 15 to 20)
#    0.000    2.125    2.500    1.875    0.000    6.250 
#    0.000    2.500    0.000    0.750    0.000    0.000 
#    0.000    0.000    0.000    0.000    0.000    0.000 
#
# Total GULP energy -396863.886243 kJ/mol
# GULP energy per Si atom -12401.996445 kJ/mol
# Density = 1.748863 g / cm^3
# Si number density = 17.528521 Si / 1000 Ang^3
#
#
#
# Elastic Constant Matrix: (Units=GPa)
#
#
# Indices 1 2 3 4 5 6 
#
# 1 93.9712 51.5880 60.6422 0.0000 -4.5924 0.0000
# 2 51.5880 74.7276 48.7197 0.0000 1.5986 0.0000
# 3 60.6422 48.7197 112.1074 0.0000 -4.4008 0.0000
# 4 0.0000 0.0000 0.0000 33.9583 0.0000 2.9351
# 5 -4.5924 1.5986 -4.4008 0.0000 22.9577 0.0000
# 6 0.0000 0.0000 0.0000 2.9351 0.0000 29.7022
#
#
#
# Elastic Compliance Matrix: (Units=1/GPa)
#
#
# Indices 1 2 3 4 5 6 
#
# 1 0.020570 -0.009923 -0.006676 0.000000 0.003526 0.000000
# 2 -0.009923 0.023650 -0.005091 0.000000 -0.004608 0.000000
# 3 -0.006676 -0.005091 0.014817 0.000000 0.001859 0.000000
# 4 0.000000 0.000000 0.000000 0.029702 0.000000 -0.002935
# 5 0.003526 -0.004608 0.001859 0.000000 0.044941 0.000000
# 6 0.000000 0.000000 0.000000 -0.002935 0.000000 0.033958
#
#
# Mechanical properties :
#
#
# Convention : Reuss Voigt Hill
#
# Bulk Modulus (GPa) = 63.87238 66.96733 65.41985
# Shear Modulus (GPa) = 23.12294 25.31404 24.21849
#
# Velocity S-wave (km/s) = 3.63597 3.80434 3.72110
# Velocity P-wave (km/s) = 7.35834 7.58848 7.47430
#
# Compressibility (1/GPa) = 0.01565622
#
# Stress axis : x y z
#
# Youngs Moduli (GPa) = 48.61542 42.28308 67.49176
#
# Poissons Ratio (x) = 0.41958 0.45057
# Poissons Ratio (y) = 0.48242 0.34360
# Poissons Ratio (z) = 0.32455 0.21526
#
# Static dielectric constant tensor:
#      x y z
#    x 3.161270 0.000000 0.192030 
#    y 0.000000 3.256130 0.000000 
#    z 0.192030 0.000000 3.312590 
# 
# 
# High freq. dielectric constant tensor:
#      x y z
#    x 1.660020 0.000000 0.013400 
#    y 0.000000 1.680440 0.000000 
#    z 0.013400 0.000000 1.672420 
# 
# From -- ./inp_files/248467.got.cif
#   From: 2010.06.25/outbox.cif.g09.slc.cpg/sg12_125_cif.got.tgz:248467.got - 2010.06.28 00:19:55.
