data_PCOD8089330
_publ_section_title
;
Structure prediction by ZEFSAII (Michael W. Deem and Ramdas Pophale) SiO2 
 PCOD8089330
Probable space group: C 2/M
;
_chemical_formula_sum "Si O2"
_cell_formula_units_Z 64
_cell_length_a 27.883838
_cell_length_b 8.932095
_cell_length_c 19.984482
_cell_angle_alpha 90.000000
_cell_angle_beta 130.439555
_cell_angle_gamma 90.000000
_cell_volume 3788.219958
_symmetry_space_group_name_H-M "C 2/M"
_symmetry_group_IT_number 12
_symmetry_cell_setting 'monoclinic'
loop_
_space_group_symop_operation_xyz
x,y,z
-x,y,-z
-x,-y,-z
x,-y,z
1/2+x,1/2+y,z
1/2-x,1/2+y,-z
1/2-x,1/2-y,-z
1/2+x,1/2-y,z
loop_
_atom_site_type_symbol
_atom_site_label
_atom_site_fract_x
_atom_site_fract_y
_atom_site_fract_z
Si Si1 0.482420 0.174127 0.681655
Si Si2 0.296578 0.172939 0.991307
Si Si3 0.172401 0.675652 0.644879
Si Si4 0.841648 0.671277 0.584706
Si Si5 0.740469 0.672813 0.597280
Si Si6 0.808980 0.830116 0.200958
Si Si7 0.601535 0.325183 0.843587
Si Si8 0.546353 0.325021 0.481140
O O1 0.415860 0.200181 0.658374
O O2 0.534299 0.246485 0.776640
O O3 0.485161 0.254148 0.612606
O O4 0.496823 0.000000 0.683847
O O5 0.363904 0.255691 0.059390
O O6 0.304613 0.000000 0.018019
O O7 0.250000 0.250000 0.000000
O O8 0.263926 0.188968 0.888792
O O9 0.165549 0.500000 0.632238
O O10 0.233869 0.732547 0.659775
O O11 0.177635 0.717826 0.726963
O O12 0.112869 0.750220 0.555680
O O13 0.827541 0.500000 0.549899
O O14 0.808985 0.704496 0.626774
O O15 0.813926 0.780978 0.503964
O O16 0.731461 0.500000 0.607201
O O17 0.857009 0.791376 0.184734
O O18 0.820848 0.000000 0.236205
O O19 0.592093 0.500000 0.846922
O O20 0.500000 0.291734 0.500000
O O21 0.556409 0.500000 0.478377
#
# Coordination Sequence:
#
# PCOD8089330 Si02
#       8
#     8   8   8   8   8   8   8   8
#     4  11  21  33  50  73 100 128 164 205 245 291
#     4   9  17  31  51  73  98 128 164 206 250 291
#     4  12  23  33  48  72  99 129 167 205 244 292
#     4   9  19  34  51  73  96 123 162 208 251 295
#     4  10  19  33  53  71  94 127 162 204 253 296
#     4   9  19  34  50  70  98 132 167 203 242 289
#     4  10  20  33  50  73 102 134 169 203 241 293
#     4  11  23  36  48  65  95 134 171 202 239 289
#
# _framework density 16.894477999999999
#
# number of rings (size 3 to 8) (size 9 to 14) (size 15 to 20)
#    0.000    1.875    1.250    4.500    0.000    8.000 
#    0.000    0.000    0.000    0.000    0.000    0.875 
#    0.000    7.000    0.000    0.000    0.000    0.000 
#
# Total GULP energy -396802.023306 kJ/mol
# GULP energy per Si atom -12400.063228 kJ/mol
# Density = 1.685603 g / cm^3
# Si number density = 16.894478 Si / 1000 Ang^3
#
#
#
# Elastic Constant Matrix: (Units=GPa)
#
#
# Indices 1 2 3 4 5 6 
#
# 1 63.9105 36.2280 16.7847 0.0000 14.2771 0.0000
# 2 36.2280 93.8239 25.3404 0.0000 13.7016 0.0000
# 3 16.7847 25.3404 61.6524 0.0000 23.6222 0.0000
# 4 0.0000 0.0000 0.0000 32.0373 0.0000 0.7496
# 5 14.2771 13.7016 23.6222 0.0000 19.3083 0.0000
# 6 0.0000 0.0000 0.0000 0.7496 0.0000 23.2313
#
#
#
# Elastic Compliance Matrix: (Units=1/GPa)
#
#
# Indices 1 2 3 4 5 6 
#
# 1 0.022269 -0.007148 0.002336 0.000000 -0.014252 0.000000
# 2 -0.007148 0.014511 -0.003949 0.000000 -0.000180 0.000000
# 3 0.002336 -0.003949 0.031615 0.000000 -0.037603 0.000000
# 4 0.000000 0.000000 0.000000 0.031237 0.000000 -0.001008
# 5 -0.014252 -0.000180 -0.037603 0.000000 0.108462 0.000000
# 6 0.000000 0.000000 0.000000 -0.001008 0.000000 0.043078
#
#
# Mechanical properties :
#
#
# Convention : Reuss Voigt Hill
#
# Bulk Modulus (GPa) = 19.65709 41.78812 30.72260
# Shear Modulus (GPa) = 17.50370 24.31762 20.91066
#
# Velocity S-wave (km/s) = 3.22228 3.79804 3.52194
# Velocity P-wave (km/s) = 5.05021 6.63490 5.89604
#
# Compressibility (1/GPa) = 0.05087223
#
# Stress axis : x y z
#
# Youngs Moduli (GPa) = 44.90504 68.91119 31.63051
#
# Poissons Ratio (x) = 0.49261 -0.07389
# Poissons Ratio (y) = 0.32100 0.12492
# Poissons Ratio (z) = -0.10490 0.27215
#
# Static dielectric constant tensor:
#      x y z
#    x 3.193050 0.000000 0.108260 
#    y 0.000000 3.342370 0.000000 
#    z 0.108260 0.000000 3.251480 
# 
# 
# High freq. dielectric constant tensor:
#      x y z
#    x 1.630300 0.000000 0.011150 
#    y 0.000000 1.669000 0.000000 
#    z 0.011150 0.000000 1.636130 
# 
# From -- ./inp_files/326950.got.cif
#   From: 2010.06.25/outbox.cif.g09.slc.cpg/sg12_164_cif.got.tgz:326950.got - 2010.06.28 00:19:55.
