data_PCOD8089205
_publ_section_title
;
Structure prediction by ZEFSAII (Michael W. Deem and Ramdas Pophale) SiO2 
 PCOD8089205
Probable space group: C 2/M
;
_chemical_formula_sum "Si O2"
_cell_formula_units_Z 56
_cell_length_a 19.339864
_cell_length_b 8.488546
_cell_length_c 18.997319
_cell_angle_alpha 90.000000
_cell_angle_beta 115.525379
_cell_angle_gamma 90.000000
_cell_volume 2814.332969
_symmetry_space_group_name_H-M "C 2/M"
_symmetry_group_IT_number 12
_symmetry_cell_setting 'monoclinic'
loop_
_space_group_symop_operation_xyz
x,y,z
-x,y,-z
-x,-y,-z
x,-y,z
1/2+x,1/2+y,z
1/2-x,1/2+y,-z
1/2-x,1/2-y,-z
1/2+x,1/2-y,z
loop_
_atom_site_type_symbol
_atom_site_label
_atom_site_fract_x
_atom_site_fract_y
_atom_site_fract_z
Si Si1 0.023672 0.813064 0.586044
Si Si2 0.167648 0.183794 0.978893
Si Si3 0.826699 0.681386 0.282891
Si Si4 0.916930 0.684833 0.933955
Si Si5 0.344669 0.688325 0.766142
Si Si6 0.084920 0.320223 0.815548
Si Si7 0.943758 0.180642 0.685979
O O1 0.111115 0.769434 0.641733
O O2 0.000000 0.742446 0.500000
O O3 0.964274 0.740504 0.618885
O O4 0.017366 0.000000 0.583077
O O5 0.109246 0.279952 0.904748
O O6 0.164490 0.000000 0.960439
O O7 0.250000 0.250000 0.000000
O O8 0.146190 0.218069 0.049952
O O9 0.829524 0.500000 0.306321
O O10 0.741854 0.750255 0.260100
O O11 0.844719 0.704143 0.208060
O O12 0.903490 0.500000 0.937299
O O13 0.903884 0.733894 0.847334
O O14 0.000000 0.734650 0.000000
O O15 0.350272 0.500000 0.776177
O O16 0.371135 0.745542 0.698978
O O17 0.055111 0.500000 0.799451
O O18 0.017788 0.200839 0.767225
O O19 0.928146 0.000000 0.664185
#
# Coordination Sequence:
#
# PCOD8089205 Si02
#       7
#     8   8   8   8   8   8   8
#     4   9  18  34  56  81 108 138 173 212 256 313
#     4  12  24  37  54  76 104 139 181 228 277 324
#     4   9  19  34  53  77 104 136 172 214 264 316
#     4  11  24  39  55  78 109 145 185 230 278 326
#     4  10  20  35  54  76 104 139 180 223 268 321
#     4  10  19  33  52  74 101 133 174 221 267 318
#     4   9  18  33  54  77 102 137 176 213 259 316
#
# _framework density 19.898143000000001
#
# number of rings (size 3 to 8) (size 9 to 14) (size 15 to 20)
#    0.000    2.000    0.000    3.857    0.000    6.571 
#    0.000    0.714    0.000    0.000    0.000    0.000 
#    0.000    0.000    0.000    0.000    0.000    0.000 
#
# Total GULP energy -347095.185069 kJ/mol
# GULP energy per Si atom -12396.256610 kJ/mol
# Density = 1.985285 g / cm^3
# Si number density = 19.898143 Si / 1000 Ang^3
#
#
#
# Elastic Constant Matrix: (Units=GPa)
#
#
# Indices 1 2 3 4 5 6 
#
# 1 119.7166 19.1767 32.9293 0.0000 -18.0121 0.0000
# 2 19.1767 39.4132 14.0478 0.0000 -2.0538 0.0000
# 3 32.9293 14.0478 106.6484 0.0000 -15.4840 0.0000
# 4 0.0000 0.0000 0.0000 22.9594 0.0000 4.1619
# 5 -18.0121 -2.0538 -15.4840 0.0000 26.4178 0.0000
# 6 0.0000 0.0000 0.0000 4.1619 0.0000 23.9271
#
#
#
# Elastic Compliance Matrix: (Units=1/GPa)
#
#
# Indices 1 2 3 4 5 6 
#
# 1 0.010368 -0.004094 -0.001838 0.000000 0.005673 0.000000
# 2 -0.004094 0.028238 -0.002779 0.000000 -0.002224 0.000000
# 3 -0.001838 -0.002779 0.011036 0.000000 0.004999 0.000000
# 4 0.000000 0.000000 0.000000 0.044973 0.000000 -0.007823
# 5 0.005673 -0.002224 0.004999 0.000000 0.044479 0.000000
# 6 0.000000 0.000000 0.000000 -0.007823 0.000000 0.043154
#
#
# Mechanical properties :
#
#
# Convention : Reuss Voigt Hill
#
# Bulk Modulus (GPa) = 31.03547 44.23177 37.63362
# Shear Modulus (GPa) = 23.76307 27.96914 25.86610
#
# Velocity S-wave (km/s) = 3.45952 3.75322 3.60936
# Velocity P-wave (km/s) = 5.62039 6.40777 6.02695
#
# Compressibility (1/GPa) = 0.03222120
#
# Stress axis : x y z
#
# Youngs Moduli (GPa) = 96.44987 35.41265 90.61248
#
# Poissons Ratio (x) = 0.14497 0.16658
# Poissons Ratio (y) = 0.39485 0.25177
# Poissons Ratio (z) = 0.17731 0.09840
#
# Static dielectric constant tensor:
#      x y z
#    x 3.888630 0.000000 -0.380630 
#    y 0.000000 3.442130 0.000000 
#    z -0.380630 0.000000 3.859480 
# 
# 
# High freq. dielectric constant tensor:
#      x y z
#    x 1.784840 0.000000 -0.017670 
#    y 0.000000 1.762880 0.000000 
#    z -0.017670 0.000000 1.761700 
# 
# From -- ./inp_files/275539.got.cif
#   From: 2010.06.25/outbox.cif.g09.slc.cpg/sg12_138_cif.got.tgz:275539.got - 2010.06.28 00:19:55.
