data_PCOD8089199
_publ_section_title
;
Structure prediction by ZEFSAII (Michael W. Deem and Ramdas Pophale) SiO2 
 PCOD8089199
Probable space group: C 2/M
;
_chemical_formula_sum "Si O2"
_cell_formula_units_Z 64
_cell_length_a 14.182289
_cell_length_b 8.879459
_cell_length_c 31.222145
_cell_angle_alpha 90.000000
_cell_angle_beta 115.210809
_cell_angle_gamma 90.000000
_cell_volume 3557.317158
_symmetry_space_group_name_H-M "C 2/M"
_symmetry_group_IT_number 12
_symmetry_cell_setting 'monoclinic'
loop_
_space_group_symop_operation_xyz
x,y,z
-x,y,-z
-x,-y,-z
x,-y,z
1/2+x,1/2+y,z
1/2-x,1/2+y,-z
1/2-x,1/2-y,-z
1/2+x,1/2-y,z
loop_
_atom_site_type_symbol
_atom_site_label
_atom_site_fract_x
_atom_site_fract_y
_atom_site_fract_z
Si Si1 0.504065 0.176912 0.867814
Si Si2 0.229326 0.675525 0.881266
Si Si3 0.268462 0.823105 0.626462
Si Si4 0.932442 0.323751 0.947813
Si Si5 0.979507 0.679506 0.626876
Si Si6 0.683856 0.321486 0.699644
Si Si7 0.545904 0.677737 0.554128
Si Si8 0.699904 0.676212 0.199624
O O1 0.616681 0.234677 0.874308
O O2 0.491897 0.216644 0.915451
O O3 0.418946 0.267007 0.823831
O O4 0.488817 0.000000 0.856135
O O5 0.239422 0.500000 0.891916
O O6 0.317510 0.753632 0.926937
O O7 0.244618 0.714773 0.834460
O O8 0.372567 0.753841 0.626167
O O9 0.254346 0.770046 0.672871
O O10 0.167297 0.774417 0.579369
O O11 0.280514 0.000000 0.627545
O O12 0.917725 0.500000 0.950654
O O13 0.000000 0.256608 0.000000
O O14 0.985172 0.500000 0.628827
O O15 0.071252 0.745464 0.673826
O O16 0.983388 0.736392 0.578957
O O17 0.668777 0.500000 0.697486
O O18 0.737620 0.266964 0.752952
O O19 0.500000 0.729880 0.500000
O O20 0.532575 0.500000 0.559180
O O21 0.702279 0.500000 0.210486
#
# Coordination Sequence:
#
# PCOD8089199 Si02
#       8
#     8   8   8   8   8   8   8   8
#     4   9  18  34  52  70  97 133 166 196 242 299
#     4   9  19  34  51  71  98 132 166 200 242 295
#     4   8  17  33  51  71  98 131 162 197 244 293
#     4   9  18  32  50  73 100 128 162 206 249 289
#     4  10  19  33  52  74 100 128 163 206 246 284
#     4  10  20  36  54  72  98 132 165 196 243 301
#     4   9  18  34  53  73 101 136 169 200 241 295
#     4  10  20  34  51  74 100 125 161 206 245 282
#
# _framework density 17.991085999999999
#
# number of rings (size 3 to 8) (size 9 to 14) (size 15 to 20)
#    0.000    2.750    0.000    1.875    0.000    3.500 
#    0.000   11.250    0.000    0.000    0.000    0.000 
#    0.000    0.000    0.000    0.000    0.000    0.000 
#
# Total GULP energy -396806.768829 kJ/mol
# GULP energy per Si atom -12400.211526 kJ/mol
# Density = 1.795014 g / cm^3
# Si number density = 17.991086 Si / 1000 Ang^3
#
#
#
# Elastic Constant Matrix: (Units=GPa)
#
#
# Indices 1 2 3 4 5 6 
#
# 1 163.5270 36.7170 64.7639 0.0000 13.3059 0.0000
# 2 36.7170 47.3338 38.0673 0.0000 4.0831 0.0000
# 3 64.7639 38.0673 140.0537 0.0000 11.9710 0.0000
# 4 0.0000 0.0000 0.0000 30.4918 0.0000 2.7690
# 5 13.3059 4.0831 11.9710 0.0000 13.7109 0.0000
# 6 0.0000 0.0000 0.0000 2.7690 0.0000 24.8564
#
#
#
# Elastic Compliance Matrix: (Units=1/GPa)
#
#
# Indices 1 2 3 4 5 6 
#
# 1 0.008372 -0.004218 -0.002310 0.000000 -0.004852 0.000000
# 2 -0.004218 0.029201 -0.006044 0.000000 0.000674 0.000000
# 3 -0.002310 -0.006044 0.010272 0.000000 -0.004927 0.000000
# 4 0.000000 0.000000 0.000000 0.033131 0.000000 -0.003691
# 5 -0.004852 0.000674 -0.004927 0.000000 0.081744 0.000000
# 6 0.000000 0.000000 0.000000 -0.003691 0.000000 0.040642
#
#
# Mechanical properties :
#
#
# Convention : Reuss Voigt Hill
#
# Bulk Modulus (GPa) = 44.05107 70.00122 57.02615
# Shear Modulus (GPa) = 21.17984 27.90290 24.54137
#
# Velocity S-wave (km/s) = 3.43482 3.94246 3.69736
# Velocity P-wave (km/s) = 6.34576 7.72769 7.07057
#
# Compressibility (1/GPa) = 0.02270092
#
# Stress axis : x y z
#
# Youngs Moduli (GPa) = 119.44675 34.24542 97.34779
#
# Poissons Ratio (x) = 0.14443 0.22490
# Poissons Ratio (y) = 0.50378 0.58840
# Poissons Ratio (z) = 0.27596 0.20699
#
# Static dielectric constant tensor:
#      x y z
#    x 3.585510 0.000000 0.043970 
#    y 0.000000 3.187720 0.000000 
#    z 0.043970 0.000000 3.383240 
# 
# 
# High freq. dielectric constant tensor:
#      x y z
#    x 1.700500 0.000000 0.004390 
#    y 0.000000 1.686320 0.000000 
#    z 0.004390 0.000000 1.699960 
# 
# From -- ./inp_files/375117.got.cif
#   From: 2010.06.25/outbox.cif.g09.slc.cpg/sg12_188_cif.got.tgz:375117.got - 2010.06.28 00:19:55.
