data_PCOD8089270
_publ_section_title
;
Structure prediction by ZEFSAII (Michael W. Deem and Ramdas Pophale) SiO2 
 PCOD8089270
Probable space group: C 2/M
;
_chemical_formula_sum "Si O2"
_cell_formula_units_Z 64
_cell_length_a 14.651818
_cell_length_b 8.619467
_cell_length_c 26.717920
_cell_angle_alpha 90.000000
_cell_angle_beta 103.534786
_cell_angle_gamma 90.000000
_cell_volume 3280.520081
_symmetry_space_group_name_H-M "C 2/M"
_symmetry_group_IT_number 12
_symmetry_cell_setting 'monoclinic'
loop_
_space_group_symop_operation_xyz
x,y,z
-x,y,-z
-x,-y,-z
x,-y,z
1/2+x,1/2+y,z
1/2-x,1/2+y,-z
1/2-x,1/2-y,-z
1/2+x,1/2-y,z
loop_
_atom_site_type_symbol
_atom_site_label
_atom_site_fract_x
_atom_site_fract_y
_atom_site_fract_z
Si Si1 0.605400 0.316447 0.504384
Si Si2 0.746565 0.182210 0.769398
Si Si3 0.540630 0.179405 0.059210
Si Si4 0.724118 0.318203 0.115403
Si Si5 0.220239 0.183222 0.423164
Si Si6 0.135826 0.815307 0.307778
Si Si7 0.539580 0.816298 0.760654
Si Si8 0.425090 0.680990 0.131883
O O1 0.500000 0.249581 0.500000
O O2 0.602565 0.500000 0.507458
O O3 0.676437 0.254739 0.555830
O O4 0.645779 0.260841 0.455781
O O5 0.792771 0.226249 0.828492
O O6 0.804090 0.254594 0.730734
O O7 0.640180 0.243581 0.754031
O O8 0.745562 0.000000 0.762124
O O9 0.650946 0.220976 0.072971
O O10 0.490026 0.288287 0.092720
O O11 0.525328 0.000000 0.070965
O O12 0.500000 0.219556 0.000000
O O13 0.709446 0.500000 0.104219
O O14 0.828824 0.274739 0.112364
O O15 0.182325 0.242250 0.365109
O O16 0.231165 0.000000 0.425903
O O17 0.033489 0.739960 0.290383
O O18 0.127001 0.000000 0.305278
O O19 0.519012 0.737163 0.811615
O O20 0.537260 0.000000 0.767623
O O21 0.403024 0.500000 0.133393
#
# Coordination Sequence:
#
# PCOD8089270 Si02
#       8
#     8   8   8   8   8   8   8   8
#     4   9  18  34  53  71  98 137 177 219 267 316
#     4   8  17  33  52  74 102 136 168 205 257 315
#     4  11  24  40  58  83 113 144 182 228 277 330
#     4  10  20  37  60  83 109 143 184 226 272 329
#     4   9  19  33  50  75 103 134 175 220 264 317
#     4  10  19  33  52  76 108 139 171 216 269 320
#     4  10  20  35  54  78 107 139 177 215 259 319
#     4  11  22  38  60  83 110 146 185 226 274 324
#
# _framework density 19.509101000000001
#
# number of rings (size 3 to 8) (size 9 to 14) (size 15 to 20)
#    0.000    2.250    0.000    3.750    0.000    4.250 
#    0.000    3.125    0.000    0.000    0.000    0.000 
#    0.000    0.000    0.000    0.000    0.000    0.000 
#
# Total GULP energy -396850.192019 kJ/mol
# GULP energy per Si atom -12401.568501 kJ/mol
# Density = 1.946470 g / cm^3
# Si number density = 19.509101 Si / 1000 Ang^3
#
#
#
# Elastic Constant Matrix: (Units=GPa)
#
#
# Indices 1 2 3 4 5 6 
#
# 1 96.1281 20.3116 48.1103 0.0000 20.4562 0.0000
# 2 20.3116 43.8322 32.8373 0.0000 6.4191 0.0000
# 3 48.1103 32.8373 112.4408 0.0000 27.5138 0.0000
# 4 0.0000 0.0000 0.0000 24.5122 0.0000 6.9068
# 5 20.4562 6.4191 27.5138 0.0000 27.5853 0.0000
# 6 0.0000 0.0000 0.0000 6.9068 0.0000 30.2178
#
#
#
# Elastic Compliance Matrix: (Units=1/GPa)
#
#
# Indices 1 2 3 4 5 6 
#
# 1 0.014181 -0.002882 -0.003726 0.000000 -0.006129 0.000000
# 2 -0.002882 0.029897 -0.008358 0.000000 0.003517 0.000000
# 3 -0.003726 -0.008358 0.015579 0.000000 -0.010830 0.000000
# 4 0.000000 0.000000 0.000000 0.043604 0.000000 -0.009966
# 5 -0.006129 0.003517 -0.010830 0.000000 0.050780 0.000000
# 6 0.000000 0.000000 0.000000 -0.009966 0.000000 0.035371
#
#
# Mechanical properties :
#
#
# Convention : Reuss Voigt Hill
#
# Bulk Modulus (GPa) = 33.64424 50.54662 42.09543
# Shear Modulus (GPa) = 21.80996 26.53920 24.17458
#
# Velocity S-wave (km/s) = 3.34718 3.69229 3.52397
# Velocity P-wave (km/s) = 5.67636 6.64401 6.17915
#
# Compressibility (1/GPa) = 0.02972277
#
# Stress axis : x y z
#
# Youngs Moduli (GPa) = 70.51740 33.44865 64.18878
#
# Poissons Ratio (x) = 0.09641 0.23918
# Poissons Ratio (y) = 0.20325 0.53651
# Poissons Ratio (z) = 0.26276 0.27958
#
# Static dielectric constant tensor:
#      x y z
#    x 3.738500 0.000000 0.001070 
#    y 0.000000 3.331070 0.000000 
#    z 0.001070 0.000000 3.645350 
# 
# 
# High freq. dielectric constant tensor:
#      x y z
#    x 1.766960 0.000000 0.008180 
#    y 0.000000 1.747290 0.000000 
#    z 0.008180 0.000000 1.755880 
# 
# From -- ./inp_files/359995.got.cif
#   From: 2010.06.25/outbox.cif.g09.slc.cpg/sg12_180_cif.got.tgz:359995.got - 2010.06.28 00:19:55.
