data_PCOD8089077
_publ_section_title
;
Structure prediction by ZEFSAII (Michael W. Deem and Ramdas Pophale) SiO2 
 PCOD8089077
Probable space group: C 2/M
;
_chemical_formula_sum "Si O2"
_cell_formula_units_Z 48
_cell_length_a 27.615476
_cell_length_b 8.667766
_cell_length_c 24.106684
_cell_angle_alpha 90.000000
_cell_angle_beta 29.619303
_cell_angle_gamma 90.000000
_cell_volume 2851.874986
_symmetry_space_group_name_H-M "C 2/M"
_symmetry_group_IT_number 12
_symmetry_cell_setting 'monoclinic'
loop_
_space_group_symop_operation_xyz
x,y,z
-x,y,-z
-x,-y,-z
x,-y,z
1/2+x,1/2+y,z
1/2-x,1/2+y,-z
1/2-x,1/2-y,-z
1/2+x,1/2-y,z
loop_
_atom_site_type_symbol
_atom_site_label
_atom_site_fract_x
_atom_site_fract_y
_atom_site_fract_z
Si Si1 0.152436 0.182578 0.372748
Si Si2 0.639288 0.181957 0.053584
Si Si3 0.641483 0.318749 0.837070
Si Si4 0.361938 0.682719 0.831305
Si Si5 0.463039 0.817250 0.956227
Si Si6 0.540575 0.317486 0.376028
O O1 0.250521 0.273439 0.290496
O O2 0.114070 0.239942 0.350968
O O3 0.071155 0.230443 0.499493
O O4 0.172360 0.000000 0.353491
O O5 0.594564 0.253468 0.154354
O O6 0.574464 0.237774 0.066423
O O7 0.637104 0.000000 0.061123
O O8 0.750472 0.240658 0.934231
O O9 0.632162 0.500000 0.856033
O O10 0.565893 0.266704 0.864726
O O11 0.617244 0.231020 0.918300
O O12 0.367668 0.500000 0.826554
O O13 0.425960 0.750837 0.716593
O O14 0.477578 0.000000 0.944720
O O15 0.547949 0.500000 0.368209
#
# Coordination Sequence:
#
# PCOD8089077 Si02
#       6
#     8   8   8   8   8   8
#     4   9  16  30  50  69  92 123 158 189 221 266
#     4   9  18  30  46  69  93 119 152 186 222 269
#     4  11  21  31  45  70  99 120 146 187 236 279
#     4   9  16  28  46  69  96 121 147 183 228 270
#     4  10  19  33  51  67  88 122 160 190 220 267
#     4   8  15  28  49  72  91 120 160 193 218 261
#
# _framework density 16.831033000000001
#
# number of rings (size 3 to 8) (size 9 to 14) (size 15 to 20)
#    0.000    2.667    0.000    5.000    0.000    4.000 
#    0.000    6.667    0.000    1.000    0.000    0.000 
#    0.000    0.000    0.000    0.000    0.000    0.000 
#
# Total GULP energy -297558.767052 kJ/mol
# GULP energy per Si atom -12398.281961 kJ/mol
# Density = 1.679272 g / cm^3
# Si number density = 16.831033 Si / 1000 Ang^3
#
#
#
# Elastic Constant Matrix: (Units=GPa)
#
#
# Indices 1 2 3 4 5 6 
#
# 1 130.2420 20.8313 70.0168 -0.0100 12.6852 0.0072
# 2 20.8313 26.6118 16.5688 -0.0251 -2.7226 0.0185
# 3 70.0168 16.5688 120.8335 -0.0062 6.5089 0.0078
# 4 -0.0100 -0.0251 -0.0062 16.3454 0.0048 3.9817
# 5 12.6852 -2.7226 6.5089 0.0048 30.7232 -0.0049
# 6 0.0072 0.0185 0.0078 3.9817 -0.0049 21.3901
#
#
#
# Elastic Compliance Matrix: (Units=1/GPa)
#
#
# Indices 1 2 3 4 5 6 
#
# 1 0.012386 -0.006367 -0.006067 -0.000004 -0.004393 0.000003
# 2 -0.006367 0.045098 -0.002884 0.000074 0.007237 -0.000048
# 3 -0.006067 -0.002884 0.012205 -0.000004 -0.000336 0.000001
# 4 -0.000004 0.000074 -0.000004 0.064085 -0.000003 -0.011929
# 5 -0.004393 0.007237 -0.000336 -0.000003 0.035075 0.000004
# 6 0.000003 -0.000048 0.000001 -0.011929 0.000004 0.048971
#
#
# Mechanical properties :
#
#
# Convention : Reuss Voigt Hill
#
# Bulk Modulus (GPa) = 25.60732 54.72455 40.16594
# Shear Modulus (GPa) = 19.12226 25.04310 22.08268
#
# Velocity S-wave (km/s) = 3.37431 3.86153 3.62611
# Velocity P-wave (km/s) = 5.51622 7.24338 6.43798
#
# Compressibility (1/GPa) = 0.03905134
#
# Stress axis : x y z
#
# Youngs Moduli (GPa) = 80.73609 22.17401 81.93281
#
# Poissons Ratio (x) = 0.14119 0.49711
# Poissons Ratio (y) = 0.51408 0.23630
# Poissons Ratio (z) = 0.48985 0.06395
#
# Static dielectric constant tensor:
#      x y z
#    x 3.254520 -0.000020 0.121970 
#    y -0.000020 2.925110 0.000040 
#    z 0.121970 0.000040 3.300890 
# 
# 
# High freq. dielectric constant tensor:
#      x y z
#    x 1.640850 0.000000 0.001860 
#    y 0.000000 1.633500 0.000000 
#    z 0.001860 0.000000 1.640280 
# 
# From -- ./inp_files/351054.got.cif
#   From: 2010.06.25/outbox.cif.g09.slc.cpg/sg12_176_cif.got.tgz:351054.got - 2010.06.28 00:19:55.
