data_PCOD8090662
_publ_section_title
;
Structure prediction by ZEFSAII (Michael W. Deem and Ramdas Pophale) SiO2 
 PCOD8090662
Probable space group: C 2/M
;
_chemical_formula_sum "Si O2"
_cell_formula_units_Z 56
_cell_length_a 15.032430
_cell_length_b 9.028887
_cell_length_c 25.748063
_cell_angle_alpha 90.000000
_cell_angle_beta 55.066227
_cell_angle_gamma 90.000000
_cell_volume 2864.992945
_symmetry_space_group_name_H-M "C 2/M"
_symmetry_group_IT_number 12
_symmetry_cell_setting 'monoclinic'
loop_
_space_group_symop_operation_xyz
x,y,z
-x,y,-z
-x,-y,-z
x,-y,z
1/2+x,1/2+y,z
1/2-x,1/2+y,-z
1/2-x,1/2-y,-z
1/2+x,1/2-y,z
loop_
_atom_site_type_symbol
_atom_site_label
_atom_site_fract_x
_atom_site_fract_y
_atom_site_fract_z
Si Si1 0.204208 0.324373 0.286499
Si Si2 0.403049 0.673996 0.496087
Si Si3 0.588249 0.170674 0.056510
Si Si4 0.724705 0.327719 0.927259
Si Si5 0.235445 0.829904 0.619299
Si Si6 0.516557 0.670563 0.642511
Si Si7 0.338249 0.174131 0.154534
O O1 0.213088 0.500000 0.278248
O O2 0.226416 0.268853 0.337724
O O3 0.294712 0.249771 0.220836
O O4 0.085517 0.271237 0.308508
O O5 0.500000 0.730678 0.500000
O O6 0.387319 0.500000 0.504723
O O7 0.292043 0.745579 0.552987
O O8 0.429618 0.725673 0.429086
O O9 0.660186 0.202865 0.083444
O O10 0.465147 0.212741 0.109716
O O11 0.600133 0.000000 0.035235
O O12 0.626737 0.271274 0.995993
O O13 0.706777 0.500000 0.921750
O O14 0.725620 0.239328 0.873281
O O15 0.105711 0.809258 0.657858
O O16 0.268314 0.000000 0.602458
O O17 0.478471 0.500000 0.650348
O O18 0.316834 0.000000 0.163971
#
# Coordination Sequence:
#
# PCOD8090662 Si02
#       7
#     8   8   8   8   8   8   8
#     4  11  24  40  56  80 111 146 190 237 281 330
#     4  10  19  33  58  87 114 145 183 229 280 339
#     4   9  20  38  59  86 119 153 188 226 278 337
#     4  10  20  36  60  90 120 148 186 235 279 325
#     4  10  22  38  58  83 112 146 186 234 284 334
#     4  10  21  39  59  82 113 148 186 228 282 342
#     4  11  23  39  59  81 112 154 192 229 279 337
#
# _framework density 19.546296999999999
#
# number of rings (size 3 to 8) (size 9 to 14) (size 15 to 20)
#    0.000    1.857    1.429    2.143    0.000    6.571 
#    0.000    2.857    0.000    0.000    0.000    0.000 
#    0.000    0.000    0.000    0.000    0.000    0.000 
#
# Total GULP energy -347340.741117 kJ/mol
# GULP energy per Si atom -12405.026468 kJ/mol
# Density = 1.950181 g / cm^3
# Si number density = 19.546297 Si / 1000 Ang^3
#
#
#
# Elastic Constant Matrix: (Units=GPa)
#
#
# Indices 1 2 3 4 5 6 
#
# 1 80.3336 28.5221 27.4237 0.0000 -5.2061 0.0000
# 2 28.5221 70.4624 37.8403 0.0000 -3.6194 0.0000
# 3 27.4237 37.8403 85.5976 0.0000 -5.7266 0.0000
# 4 0.0000 0.0000 0.0000 37.8263 0.0000 -2.2344
# 5 -5.2061 -3.6194 -5.7266 0.0000 19.7603 0.0000
# 6 0.0000 0.0000 0.0000 -2.2344 0.0000 28.0910
#
#
#
# Elastic Compliance Matrix: (Units=1/GPa)
#
#
# Indices 1 2 3 4 5 6 
#
# 1 0.015136 -0.004571 -0.002670 0.000000 0.002377 0.000000
# 2 -0.004571 0.020012 -0.007360 0.000000 0.000328 0.000000
# 3 -0.002670 -0.007360 0.015964 0.000000 0.002575 0.000000
# 4 0.000000 0.000000 0.000000 0.026561 0.000000 0.002113
# 5 0.002377 0.000328 0.002575 0.000000 0.052039 0.000000
# 6 0.000000 0.000000 0.000000 0.002113 0.000000 0.035767
#
#
# Mechanical properties :
#
#
# Convention : Reuss Voigt Hill
#
# Bulk Modulus (GPa) = 45.64104 47.10730 46.37417
# Shear Modulus (GPa) = 24.75435 26.64268 25.69851
#
# Velocity S-wave (km/s) = 3.56258 3.69596 3.62988
# Velocity P-wave (km/s) = 6.35008 6.50893 6.43000
#
# Compressibility (1/GPa) = 0.02191010
#
# Stress axis : x y z
#
# Youngs Moduli (GPa) = 66.06561 49.97047 62.64160
#
# Poissons Ratio (x) = 0.22843 0.16723
# Poissons Ratio (y) = 0.30200 0.46105
# Poissons Ratio (z) = 0.17637 0.36779
#
# Static dielectric constant tensor:
#      x y z
#    x 3.674400 0.000000 0.073540 
#    y 0.000000 3.512500 0.000000 
#    z 0.073540 0.000000 3.476090 
# 
# 
# High freq. dielectric constant tensor:
#      x y z
#    x 1.772590 0.000000 0.001820 
#    y 0.000000 1.760540 0.000000 
#    z 0.001820 0.000000 1.754720 
# 
# From -- ./inp_files/308955.got.cif
#   From: 2010.06.25/outbox.cif.g09.slc.cpg/sg12_155_cif.got.tgz:308955.got - 2010.06.28 00:19:55.
