data_PCOD8090698
_publ_section_title
;
Structure prediction by ZEFSAII (Michael W. Deem and Ramdas Pophale) SiO2 
 PCOD8090698
Probable space group: C 2/M
;
_chemical_formula_sum "Si O2"
_cell_formula_units_Z 56
_cell_length_a 15.108086
_cell_length_b 8.526584
_cell_length_c 23.893372
_cell_angle_alpha 90.000000
_cell_angle_beta 117.290950
_cell_angle_gamma 90.000000
_cell_volume 2735.344924
_symmetry_space_group_name_H-M "C 2/M"
_symmetry_group_IT_number 12
_symmetry_cell_setting 'monoclinic'
loop_
_space_group_symop_operation_xyz
x,y,z
-x,y,-z
-x,-y,-z
x,-y,z
1/2+x,1/2+y,z
1/2-x,1/2+y,-z
1/2-x,1/2-y,-z
1/2+x,1/2-y,z
loop_
_atom_site_type_symbol
_atom_site_label
_atom_site_fract_x
_atom_site_fract_y
_atom_site_fract_z
Si Si1 0.237072 0.680676 0.121381
Si Si2 0.406056 0.315250 0.005805
Si Si3 0.514367 0.316687 0.568107
Si Si4 0.344505 0.183636 0.784005
Si Si5 0.727972 0.182779 0.648470
Si Si6 0.175756 0.315622 0.432248
Si Si7 0.553075 0.682023 0.858506
O O1 0.210430 0.500000 0.106516
O O2 0.188798 0.745238 0.164463
O O3 0.355987 0.707146 0.158202
O O4 0.194683 0.765064 0.054196
O O5 0.410762 0.500000 0.007256
O O6 0.410763 0.253941 0.070670
O O7 0.500000 0.242763 0.000000
O O8 0.500000 0.263191 0.500000
O O9 0.492369 0.500000 0.568998
O O10 0.625776 0.279093 0.619048
O O11 0.437792 0.221605 0.584590
O O12 0.282978 0.284555 0.722241
O O13 0.461307 0.216079 0.809604
O O14 0.321862 0.000000 0.769114
O O15 0.800284 0.236428 0.619775
O O16 0.703835 0.000000 0.635129
O O17 0.191874 0.500000 0.431350
O O18 0.250000 0.250000 0.500000
O O19 0.520933 0.500000 0.852375
#
# Coordination Sequence:
#
# PCOD8090698 Si02
#       7
#     8   8   8   8   8   8   8
#     4  10  22  38  60  87 119 159 203 255 310 369
#     4  10  19  33  58  89 120 156 200 256 311 368
#     4  11  23  41  68  99 132 168 207 257 312 372
#     4  11  24  42  61  86 121 162 208 258 311 375
#     4  12  26  44  67  94 128 170 213 263 319 378
#     4  12  24  41  67  99 132 166 207 256 313 375
#     4  10  21  39  60  86 121 161 205 253 313 376
#
# _framework density 20.472738
#
# number of rings (size 3 to 8) (size 9 to 14) (size 15 to 20)
#    0.000    1.143    2.857    3.857    0.000    3.714 
#    0.000    4.286    0.000    0.000    0.000    0.000 
#    0.000    0.000    0.000    0.000    0.000    0.000 
#
# Total GULP energy -347358.470890 kJ/mol
# GULP energy per Si atom -12405.659675 kJ/mol
# Density = 2.042614 g / cm^3
# Si number density = 20.472738 Si / 1000 Ang^3
#
#
#
# Elastic Constant Matrix: (Units=GPa)
#
#
# Indices 1 2 3 4 5 6 
#
# 1 106.4889 8.4794 28.2211 0.0000 12.9985 0.0000
# 2 8.4794 52.7486 13.5713 0.0000 -1.3054 0.0000
# 3 28.2211 13.5713 103.6897 0.0000 14.0937 0.0000
# 4 0.0000 0.0000 0.0000 32.8652 0.0000 4.4416
# 5 12.9985 -1.3054 14.0937 0.0000 23.6839 0.0000
# 6 0.0000 0.0000 0.0000 4.4416 0.0000 33.9467
#
#
#
# Elastic Compliance Matrix: (Units=1/GPa)
#
#
# Indices 1 2 3 4 5 6 
#
# 1 0.010614 -0.001284 -0.002088 0.000000 -0.004654 0.000000
# 2 -0.001284 0.019951 -0.002728 0.000000 0.003428 0.000000
# 3 -0.002088 -0.002728 0.011352 0.000000 -0.005760 0.000000
# 4 0.000000 0.000000 0.000000 0.030975 0.000000 -0.004053
# 5 -0.004654 0.003428 -0.005760 0.000000 0.048393 0.000000
# 6 0.000000 0.000000 0.000000 -0.004053 0.000000 0.029988
#
#
# Mechanical properties :
#
#
# Convention : Reuss Voigt Hill
#
# Bulk Modulus (GPa) = 33.65020 40.38566 37.01793
# Shear Modulus (GPa) = 28.83836 32.27619 30.55727
#
# Velocity S-wave (km/s) = 3.75723 3.97488 3.86759
# Velocity P-wave (km/s) = 5.94093 6.39027 6.16970
#
# Compressibility (1/GPa) = 0.02971751
#
# Stress axis : x y z
#
# Youngs Moduli (GPa) = 94.21187 50.12309 88.08701
#
# Poissons Ratio (x) = 0.06437 0.18395
# Poissons Ratio (y) = 0.12098 0.24027
# Poissons Ratio (z) = 0.19674 0.13672
#
# Static dielectric constant tensor:
#      x y z
#    x 4.038850 0.000000 -0.083220 
#    y 0.000000 3.735860 0.000000 
#    z -0.083220 0.000000 3.671120 
# 
# 
# High freq. dielectric constant tensor:
#      x y z
#    x 1.814760 0.000000 0.001110 
#    y 0.000000 1.797610 0.000000 
#    z 0.001110 0.000000 1.796100 
# 
# From -- ./inp_files/339076.got.cif
#   From: 2010.06.25/outbox.cif.g09.slc.cpg/sg12_170_cif.got.tgz:339076.got - 2010.06.28 00:19:55.
