data_PCOD8090429
_publ_section_title
;
Structure prediction by ZEFSAII (Michael W. Deem and Ramdas Pophale) SiO2 
 PCOD8090429
Probable space group: C 2/M
;
_chemical_formula_sum "Si O2"
_cell_formula_units_Z 64
_cell_length_a 29.968864
_cell_length_b 9.072426
_cell_length_c 16.028042
_cell_angle_alpha 90.000000
_cell_angle_beta 47.848074
_cell_angle_gamma 90.000000
_cell_volume 3230.784494
_symmetry_space_group_name_H-M "C 2/M"
_symmetry_group_IT_number 12
_symmetry_cell_setting 'monoclinic'
loop_
_space_group_symop_operation_xyz
x,y,z
-x,y,-z
-x,-y,-z
x,-y,z
1/2+x,1/2+y,z
1/2-x,1/2+y,-z
1/2-x,1/2-y,-z
1/2+x,1/2-y,z
loop_
_atom_site_type_symbol
_atom_site_label
_atom_site_fract_x
_atom_site_fract_y
_atom_site_fract_z
Si Si1 0.038573 0.331894 0.086324
Si Si2 0.518426 0.670706 0.565939
Si Si3 0.593069 0.171105 0.715012
Si Si4 0.362214 0.828943 0.159861
Si Si5 0.742009 0.174420 0.261085
Si Si6 0.857715 0.172222 0.507733
Si Si7 0.206020 0.325723 0.119870
Si Si8 0.079211 0.667893 0.213831
O O1 0.022343 0.500000 0.087129
O O2 0.083283 0.314994 0.109060
O O3 0.973294 0.257815 0.184505
O O4 0.075527 0.269964 0.960611
O O5 0.500000 0.739510 0.500000
O O6 0.502306 0.500000 0.588623
O O7 0.588353 0.700880 0.494917
O O8 0.480049 0.746021 0.685618
O O9 0.633445 0.189177 0.746597
O O10 0.626357 0.262237 0.601985
O O11 0.588375 0.000000 0.693131
O O12 0.309358 0.729118 0.190352
O O13 0.351176 0.000000 0.148925
O O14 0.700684 0.249026 0.382667
O O15 0.721066 0.222508 0.195020
O O16 0.738645 0.000000 0.276449
O O17 0.844024 0.000000 0.514048
O O18 0.211190 0.500000 0.100810
O O19 0.138992 0.268358 0.182220
O O20 0.250000 0.250000 0.000000
O O21 0.070106 0.500000 0.252483
#
# Coordination Sequence:
#
# PCOD8090429 Si02
#       8
#     8   8   8   8   8   8   8   8
#     4   9  17  33  59  90 119 146 185 237 291 349
#     4  10  21  36  54  80 112 146 186 231 282 339
#     4  10  20  37  62  90 118 151 193 243 298 350
#     4  10  21  38  62  88 115 153 199 244 293 352
#     4  11  24  41  59  84 120 158 200 246 293 345
#     4  11  23  39  60  85 117 156 197 242 294 353
#     4  10  22  38  58  87 119 156 198 241 288 342
#     4  10  19  33  56  84 113 146 186 230 280 339
#
# _framework density 19.809431
#
# number of rings (size 3 to 8) (size 9 to 14) (size 15 to 20)
#    0.000    1.875    1.250    2.625    0.000    5.750 
#    0.000    1.250    0.000    1.500    0.000    0.000 
#    0.000    0.000    0.000    0.000    0.000    0.000 
#
# Total GULP energy -396847.262726 kJ/mol
# GULP energy per Si atom -12401.476960 kJ/mol
# Density = 1.976434 g / cm^3
# Si number density = 19.809431 Si / 1000 Ang^3
#
#
#
# Elastic Constant Matrix: (Units=GPa)
#
#
# Indices 1 2 3 4 5 6 
#
# 1 79.2570 25.9355 23.1220 -0.0001 1.3028 0.0000
# 2 25.9355 54.8997 40.2300 -0.0010 -0.8916 0.0014
# 3 23.1220 40.2300 128.8755 0.0000 -1.4831 0.0002
# 4 -0.0001 -0.0010 0.0000 32.0731 0.0000 -1.3916
# 5 1.3028 -0.8916 -1.4831 0.0000 33.4134 0.0000
# 6 0.0000 0.0014 0.0002 -1.3916 0.0000 29.0239
#
#
#
# Elastic Compliance Matrix: (Units=1/GPa)
#
#
# Indices 1 2 3 4 5 6 
#
# 1 0.014983 -0.006632 -0.000627 0.000000 -0.000789 0.000000
# 2 -0.006632 0.026556 -0.007092 0.000001 0.000652 -0.000001
# 3 -0.000627 -0.007092 0.010089 0.000000 0.000283 0.000000
# 4 0.000000 0.000001 0.000000 0.031244 0.000000 0.001498
# 5 -0.000789 0.000652 0.000283 0.000000 0.029989 0.000000
# 6 0.000000 -0.000001 0.000000 0.001498 0.000000 0.034526
#
#
# Mechanical properties :
#
#
# Convention : Reuss Voigt Hill
#
# Bulk Modulus (GPa) = 43.61875 49.06746 46.34310
# Shear Modulus (GPa) = 27.21370 30.48507 28.84939
#
# Velocity S-wave (km/s) = 3.71047 3.92716 3.82035
# Velocity P-wave (km/s) = 6.35797 6.73698 6.55022
#
# Compressibility (1/GPa) = 0.02292592
#
# Stress axis : x y z
#
# Youngs Moduli (GPa) = 66.74149 37.65664 99.11613
#
# Poissons Ratio (x) = 0.24972 0.06216
# Poissons Ratio (y) = 0.44260 0.70297
# Poissons Ratio (z) = 0.04186 0.26708
#
# Static dielectric constant tensor:
#      x y z
#    x 3.737840 0.000000 0.028250 
#    y 0.000000 3.397610 0.000000 
#    z 0.028250 0.000000 3.640630 
# 
# 
# High freq. dielectric constant tensor:
#      x y z
#    x 1.783070 0.000000 0.002970 
#    y 0.000000 1.747910 0.000000 
#    z 0.002970 0.000000 1.781890 
# 
# From -- ./inp_files/249668.got.cif
#   From: 2010.06.25/outbox.cif.g09.slc.cpg/sg12_125_cif.got.tgz:249668.got - 2010.06.28 00:19:55.
