data_PCOD8090047
_publ_section_title
;
Structure prediction by ZEFSAII (Michael W. Deem and Ramdas Pophale) SiO2 
 PCOD8090047
Probable space group: C 2/M
;
_chemical_formula_sum "Si O2"
_cell_formula_units_Z 64
_cell_length_a 32.332436
_cell_length_b 8.967574
_cell_length_c 17.667011
_cell_angle_alpha 90.000000
_cell_angle_beta 43.075542
_cell_angle_gamma 90.000000
_cell_volume 3498.428734
_symmetry_space_group_name_H-M "C 2/M"
_symmetry_group_IT_number 12
_symmetry_cell_setting 'monoclinic'
loop_
_space_group_symop_operation_xyz
x,y,z
-x,y,-z
-x,-y,-z
x,-y,z
1/2+x,1/2+y,z
1/2-x,1/2+y,-z
1/2-x,1/2-y,-z
1/2+x,1/2-y,z
loop_
_atom_site_type_symbol
_atom_site_label
_atom_site_fract_x
_atom_site_fract_y
_atom_site_fract_z
Si Si1 0.369534 0.175619 0.105105
Si Si2 0.013481 0.325582 0.642921
Si Si3 0.875357 0.173434 0.565605
Si Si4 0.558155 0.332822 0.869554
Si Si5 0.256192 0.828540 0.763737
Si Si6 0.294634 0.170807 0.883944
Si Si7 0.483196 0.172494 0.853043
Si Si8 0.087441 0.826702 0.312762
O O1 0.390326 0.233436 0.159663
O O2 0.307393 0.253848 0.167876
O O3 0.359417 0.000000 0.122484
O O4 0.418723 0.219976 0.975110
O O5 0.018068 0.500000 0.619586
O O6 0.080655 0.255248 0.552668
O O7 0.982015 0.293314 0.765548
O O8 0.975256 0.247571 0.627939
O O9 0.808856 0.244718 0.647113
O O10 0.902997 0.200750 0.611531
O O11 0.870659 0.000000 0.551897
O O12 0.582912 0.500000 0.823549
O O13 0.539000 0.262828 0.814963
O O14 0.500000 0.333555 0.000000
O O15 0.267929 0.812161 0.836558
O O16 0.255053 0.000000 0.739645
O O17 0.359102 0.250246 0.805925
O O18 0.303063 0.000000 0.896691
O O19 0.250000 0.250000 0.000000
O O20 0.495650 0.000000 0.853660
O O21 0.085586 0.000000 0.294872
#
# Coordination Sequence:
#
# PCOD8090047 Si02
#       8
#     8   8   8   8   8   8   8   8
#     4  10  19  33  55  80 109 143 175 212 257 317
#     4  11  22  35  54  80 108 140 178 225 269 314
#     4  10  21  38  56  75 102 140 183 225 269 317
#     4   9  17  31  52  78 107 139 173 213 258 309
#     4  10  21  36  54  78 104 136 179 223 262 311
#     4  10  21  35  51  73 105 142 176 217 268 316
#     4   9  20  35  51  78 111 142 173 210 263 318
#     4  10  21  36  53  75 102 138 183 225 267 315
#
# _framework density 18.293927
#
# number of rings (size 3 to 8) (size 9 to 14) (size 15 to 20)
#    0.000    2.125    0.000    3.000    1.750    7.500 
#    0.000    0.000    0.000    0.750    0.000    0.000 
#    0.000    0.000    0.000    0.000    0.000    0.000 
#
# Total GULP energy -396899.019343 kJ/mol
# GULP energy per Si atom -12403.094354 kJ/mol
# Density = 1.825229 g / cm^3
# Si number density = 18.293927 Si / 1000 Ang^3
#
#
#
# Elastic Constant Matrix: (Units=GPa)
#
#
# Indices 1 2 3 4 5 6 
#
# 1 63.3900 58.1964 39.4126 -0.0011 -14.9969 -0.0001
# 2 58.1964 127.4192 48.9888 0.0017 -17.3586 0.0004
# 3 39.4126 48.9888 88.5041 0.0009 -25.5318 -0.0001
# 4 -0.0011 0.0017 0.0009 32.9655 0.0002 -6.6056
# 5 -14.9969 -17.3586 -25.5318 0.0002 20.0512 0.0001
# 6 -0.0001 0.0004 -0.0001 -6.6056 0.0001 34.7685
#
#
#
# Elastic Compliance Matrix: (Units=1/GPa)
#
#
# Indices 1 2 3 4 5 6 
#
# 1 0.031091 -0.011082 -0.005960 0.000002 0.006071 0.000001
# 2 -0.011082 0.014002 -0.002702 -0.000001 0.000393 0.000000
# 3 -0.005960 -0.002702 0.021319 -0.000001 0.020349 0.000000
# 4 0.000002 -0.000001 -0.000001 0.031535 -0.000001 0.005991
# 5 0.006071 0.000393 0.020349 -0.000001 0.080664 0.000000
# 6 0.000001 0.000000 0.000000 0.005991 0.000000 0.029900
#
#
# Mechanical properties :
#
#
# Convention : Reuss Voigt Hill
#
# Bulk Modulus (GPa) = 37.14137 63.61211 50.37674
# Shear Modulus (GPa) = 19.45718 26.40475 22.93097
#
# Velocity S-wave (km/s) = 3.26481 3.80328 3.54428
# Velocity P-wave (km/s) = 5.87866 7.35760 6.65931
#
# Compressibility (1/GPa) = 0.02692416
#
# Stress axis : x y z
#
# Youngs Moduli (GPa) = 32.16343 71.41895 46.90612
#
# Poissons Ratio (x) = 0.79145 0.27957
# Poissons Ratio (y) = 0.35643 0.12675
# Poissons Ratio (z) = 0.19170 0.19299
#
# Static dielectric constant tensor:
#      x y z
#    x 3.298100 0.000000 -0.117980 
#    y 0.000000 3.578930 0.000000 
#    z -0.117980 0.000000 3.330790 
# 
# 
# High freq. dielectric constant tensor:
#      x y z
#    x 1.695420 0.000000 -0.011160 
#    y 0.000000 1.726980 0.000000 
#    z -0.011160 0.000000 1.696480 
# 
# From -- ./inp_files/249872.got.cif
#   From: 2010.06.25/outbox.cif.g09.slc.cpg/sg12_125_cif.got.tgz:249872.got - 2010.06.28 00:19:55.
