data_PCOD8090512
_publ_section_title
;
Structure prediction by ZEFSAII (Michael W. Deem and Ramdas Pophale) SiO2 
 PCOD8090512
Probable space group: C 2/M
;
_chemical_formula_sum "Si O2"
_cell_formula_units_Z 56
_cell_length_a 18.849526
_cell_length_b 8.920514
_cell_length_c 25.105585
_cell_angle_alpha 90.000000
_cell_angle_beta 45.451794
_cell_angle_gamma 90.000000
_cell_volume 3008.453735
_symmetry_space_group_name_H-M "C 2/M"
_symmetry_group_IT_number 12
_symmetry_cell_setting 'monoclinic'
loop_
_space_group_symop_operation_xyz
x,y,z
-x,y,-z
-x,-y,-z
x,-y,z
1/2+x,1/2+y,z
1/2-x,1/2+y,-z
1/2-x,1/2-y,-z
1/2+x,1/2-y,z
loop_
_atom_site_type_symbol
_atom_site_label
_atom_site_fract_x
_atom_site_fract_y
_atom_site_fract_z
Si Si1 0.298227 0.826052 0.194475
Si Si2 0.395346 0.173044 0.713104
Si Si3 0.301524 0.673120 0.302496
Si Si4 0.419488 0.172643 0.581497
Si Si5 0.141101 0.677652 0.063670
Si Si6 0.505993 0.335837 0.935225
Si Si7 0.993986 0.327057 0.237725
O O1 0.200072 0.765510 0.216953
O O2 0.297061 0.787789 0.256754
O O3 0.390488 0.744666 0.121684
O O4 0.308590 0.000000 0.179029
O O5 0.429092 0.236718 0.637164
O O6 0.475649 0.194777 0.716922
O O7 0.363641 0.000000 0.723502
O O8 0.317455 0.500000 0.276858
O O9 0.191149 0.691047 0.386468
O O10 0.394804 0.725475 0.288484
O O11 0.500000 0.252992 0.500000
O O12 0.448996 0.000000 0.570600
O O13 0.154623 0.500000 0.054657
O O14 0.078972 0.732447 0.045515
O O15 0.080218 0.723674 0.150011
O O16 0.250000 0.750000 0.000000
O O17 0.504219 0.500000 0.907735
O O18 0.500000 0.361784 0.000000
O O19 0.967589 0.500000 0.239657
#
# Coordination Sequence:
#
# PCOD8090512 Si02
#       7
#     8   8   8   8   8   8   8
#     4  11  21  35  55  80 108 139 181 231 276 324
#     4   9  19  35  56  81 110 146 186 223 272 330
#     4  10  19  33  57  82 107 145 186 223 271 329
#     4   8  15  31  56  84 111 143 185 228 268 321
#     4  11  24  40  57  80 111 148 189 233 284 331
#     4  11  24  40  58  79 107 142 184 231 279 333
#     4  10  21  37  56  79 111 148 185 230 278 328
#
# _framework density 18.614214
#
# number of rings (size 3 to 8) (size 9 to 14) (size 15 to 20)
#    0.000    2.000    1.429    3.429    2.000    2.286 
#    0.000    0.714    0.000   10.714    0.000    0.000 
#    0.000    0.000    0.000    0.000    0.000    0.000 
#
# Total GULP energy -346886.093780 kJ/mol
# GULP energy per Si atom -12388.789064 kJ/mol
# Density = 1.857185 g / cm^3
# Si number density = 18.614214 Si / 1000 Ang^3
#
#
#
# Elastic Constant Matrix: (Units=GPa)
#
#
# Indices 1 2 3 4 5 6 
#
# 1 107.9311 52.3089 52.9058 0.0000 -4.8035 0.0002
# 2 52.3089 138.6596 32.8938 0.0001 -12.0141 0.0000
# 3 52.9058 32.8938 127.4701 0.0000 -18.2921 0.0000
# 4 0.0000 0.0001 0.0000 16.1977 0.0000 -5.8520
# 5 -4.8035 -12.0141 -18.2921 0.0000 17.9010 0.0000
# 6 0.0002 0.0000 0.0000 -5.8520 0.0000 30.2577
#
#
#
# Elastic Compliance Matrix: (Units=1/GPa)
#
#
# Indices 1 2 3 4 5 6 
#
# 1 0.013728 -0.004333 -0.005236 0.000000 -0.004575 0.000000
# 2 -0.004333 0.009261 0.000157 0.000000 0.005213 0.000000
# 3 -0.005236 0.000157 0.011474 0.000000 0.010424 0.000000
# 4 0.000000 0.000000 0.000000 0.066375 0.000000 0.012837
# 5 -0.004575 0.005213 0.010424 0.000000 0.068786 0.000000
# 6 0.000000 0.000000 0.000000 0.012837 0.000000 0.035532
#
#
# Mechanical properties :
#
#
# Convention : Reuss Voigt Hill
#
# Bulk Modulus (GPa) = 63.94788 72.25308 68.10048
# Shear Modulus (GPa) = 21.81556 28.60145 25.20850
#
# Velocity S-wave (km/s) = 3.42714 3.92412 3.68402
# Velocity P-wave (km/s) = 7.07738 7.70921 7.40004
#
# Compressibility (1/GPa) = 0.01563773
#
# Stress axis : x y z
#
# Youngs Moduli (GPa) = 72.84209 107.97871 87.15567
#
# Poissons Ratio (x) = 0.46789 0.45636
# Poissons Ratio (y) = 0.31564 -0.01366
# Poissons Ratio (z) = 0.38142 -0.01692
#
# Static dielectric constant tensor:
#      x y z
#    x 3.419060 0.000000 0.091680 
#    y 0.000000 3.441470 0.000000 
#    z 0.091680 0.000000 2.834480 
# 
# 
# High freq. dielectric constant tensor:
#      x y z
#    x 1.720750 0.000000 -0.012300 
#    y 0.000000 1.716010 0.000000 
#    z -0.012300 0.000000 1.716460 
# 
# From -- ./inp_files/342255.got.cif
#   From: 2010.06.25/outbox.cif.g09.slc.cpg/sg12_172_cif.got.tgz:342255.got - 2010.06.28 00:19:55.
