data_PCOD8090528
_publ_section_title
;
Structure prediction by ZEFSAII (Michael W. Deem and Ramdas Pophale) SiO2 
 PCOD8090528
Probable space group: C 2/M
;
_chemical_formula_sum "Si O2"
_cell_formula_units_Z 48
_cell_length_a 19.067358
_cell_length_b 8.843961
_cell_length_c 15.794242
_cell_angle_alpha 90.000000
_cell_angle_beta 103.892382
_cell_angle_gamma 90.000000
_cell_volume 2585.489730
_symmetry_space_group_name_H-M "C 2/M"
_symmetry_group_IT_number 12
_symmetry_cell_setting 'monoclinic'
loop_
_space_group_symop_operation_xyz
x,y,z
-x,y,-z
-x,-y,-z
x,-y,z
1/2+x,1/2+y,z
1/2-x,1/2+y,-z
1/2-x,1/2-y,-z
1/2+x,1/2-y,z
loop_
_atom_site_type_symbol
_atom_site_label
_atom_site_fract_x
_atom_site_fract_y
_atom_site_fract_z
Si Si1 0.982926 0.176032 0.399707
Si Si2 0.557626 0.175659 0.267506
Si Si3 0.664938 0.325224 0.726680
Si Si4 0.590602 0.171822 0.855159
Si Si5 0.688600 0.677699 0.215993
Si Si6 0.313404 0.174234 0.965663
O O1 0.898790 0.212215 0.357898
O O2 0.000000 0.223828 0.500000
O O3 0.033239 0.275814 0.354002
O O4 0.999449 0.000000 0.387467
O O5 0.493669 0.210743 0.181756
O O6 0.626437 0.273119 0.262155
O O7 0.578553 0.000000 0.273791
O O8 0.686015 0.500000 0.731680
O O9 0.640297 0.282269 0.814141
O O10 0.735521 0.230551 0.721910
O O11 0.605704 0.000000 0.828827
O O12 0.612114 0.191593 0.959554
O O13 0.688751 0.500000 0.205809
O O14 0.674508 0.748900 0.120462
O O15 0.293661 0.000000 0.944853
O O16 0.250000 0.250000 0.000000
#
# Coordination Sequence:
#
# PCOD8090528 Si02
#       6
#     8   8   8   8   8   8
#     4   9  19  38  63  89 114 140 174 220 276 338
#     4  10  21  38  58  82 112 145 184 229 278 329
#     4  10  19  33  57  83 109 144 184 224 270 330
#     4   9  19  35  55  78 108 145 185 230 275 322
#     4  12  24  37  53  78 114 152 188 232 279 320
#     4  11  21  34  54  81 111 147 190 233 274 321
#
# _framework density 18.565149000000002
#
# number of rings (size 3 to 8) (size 9 to 14) (size 15 to 20)
#    0.000    1.833    1.667    3.000    0.000    3.000 
#    0.000    4.167    0.000    0.000    0.000    0.000 
#    0.000    0.000    0.000    0.000    0.000    0.000 
#
# Total GULP energy -297669.816966 kJ/mol
# GULP energy per Si atom -12402.909040 kJ/mol
# Density = 1.852289 g / cm^3
# Si number density = 18.565149 Si / 1000 Ang^3
#
#
#
# Elastic Constant Matrix: (Units=GPa)
#
#
# Indices 1 2 3 4 5 6 
#
# 1 116.4622 55.4813 53.2290 0.0000 2.0697 0.0000
# 2 55.4813 118.2545 45.0563 0.0000 -0.7523 0.0000
# 3 53.2290 45.0563 111.3259 0.0000 12.3170 0.0000
# 4 0.0000 0.0000 0.0000 27.2901 0.0000 -4.3129
# 5 2.0697 -0.7523 12.3170 0.0000 20.5566 0.0000
# 6 0.0000 0.0000 0.0000 -4.3129 0.0000 30.2798
#
#
#
# Elastic Compliance Matrix: (Units=1/GPa)
#
#
# Indices 1 2 3 4 5 6 
#
# 1 0.012609 -0.004207 -0.004465 0.000000 0.001252 0.000000
# 2 -0.004207 0.011576 -0.002964 0.000000 0.002623 0.000000
# 3 -0.004465 -0.002964 0.013151 0.000000 -0.007539 0.000000
# 4 0.000000 0.000000 0.000000 0.037487 0.000000 0.005339
# 5 0.001252 0.002623 -0.007539 0.000000 0.053133 0.000000
# 6 0.000000 0.000000 0.000000 0.005339 0.000000 0.033786
#
#
# Mechanical properties :
#
#
# Convention : Reuss Voigt Hill
#
# Bulk Modulus (GPa) = 71.09714 72.61954 71.85834
# Shear Modulus (GPa) = 26.35728 28.44369 27.40049
#
# Velocity S-wave (km/s) = 3.77200 3.91845 3.84592
# Velocity P-wave (km/s) = 7.57297 7.72485 7.64929
#
# Compressibility (1/GPa) = 0.01406526
#
# Stress axis : x y z
#
# Youngs Moduli (GPa) = 79.30973 86.38612 76.03968
#
# Poissons Ratio (x) = 0.36339 0.33949
# Poissons Ratio (y) = 0.33362 0.22538
# Poissons Ratio (z) = 0.35409 0.25605
#
# Static dielectric constant tensor:
#      x y z
#    x 3.457910 0.000000 0.287730 
#    y 0.000000 3.508710 0.000000 
#    z 0.287730 0.000000 3.249670 
# 
# 
# High freq. dielectric constant tensor:
#      x y z
#    x 1.720230 0.000000 0.014800 
#    y 0.000000 1.731690 0.000000 
#    z 0.014800 0.000000 1.704480 
# 
# From -- ./inp_files/221608.got.cif
#   From: 2010.06.25/outbox.cif.g09.slc.cpg/sg12_111_cif.got.tgz:221608.got - 2010.06.28 00:19:55.
