data_PCOD8090811
_publ_section_title
;
Structure prediction by ZEFSAII (Michael W. Deem and Ramdas Pophale) SiO2 
 PCOD8090811
Probable space group: C 2/M
;
_chemical_formula_sum "Si O2"
_cell_formula_units_Z 52
_cell_length_a 16.621955
_cell_length_b 14.738122
_cell_length_c 12.177438
_cell_angle_alpha 90.000000
_cell_angle_beta 97.308357
_cell_angle_gamma 90.000000
_cell_volume 2958.949234
_symmetry_space_group_name_H-M "C 2/M"
_symmetry_group_IT_number 12
_symmetry_cell_setting 'monoclinic'
loop_
_space_group_symop_operation_xyz
x,y,z
-x,y,-z
-x,-y,-z
x,-y,z
1/2+x,1/2+y,z
1/2-x,1/2+y,-z
1/2-x,1/2-y,-z
1/2+x,1/2-y,z
loop_
_atom_site_type_symbol
_atom_site_label
_atom_site_fract_x
_atom_site_fract_y
_atom_site_fract_z
Si Si1 0.195777 0.398332 0.979856
Si Si2 0.624690 0.206032 0.156933
Si Si3 0.000000 0.175828 0.000000
Si Si4 0.698728 0.771934 0.783181
Si Si5 0.137888 0.898147 0.880111
Si Si6 0.564455 0.897384 0.354174
Si Si7 0.882401 0.396738 0.396742
O O1 0.176125 0.500000 0.937961
O O2 0.166268 0.330689 0.880227
O O3 0.146257 0.378284 0.082118
O O4 0.291240 0.384086 0.017920
O O5 0.556210 0.264635 0.087554
O O6 0.704581 0.264916 0.194672
O O7 0.591943 0.171366 0.266414
O O8 0.053158 0.113950 0.928014
O O9 0.653005 0.674312 0.784177
O O10 0.677853 0.823478 0.667113
O O11 0.141183 0.000000 0.830525
O O12 0.469820 0.883858 0.358101
O O13 0.614380 0.875811 0.473381
O O14 0.582386 0.000000 0.319724
O O15 0.851648 0.500000 0.371681
#
# Coordination Sequence:
#
# PCOD8090811 Si02
#       7
#     8   8   4   8   8   8   8
#     4  10  19  34  51  74 106 138 168 210 264 313
#     4  11  21  32  52  77 109 139 174 218 255 304
#     4  12  19  34  49  74 108 138 181 212 251 310
#     4  11  19  36  52  76 106 135 179 214 254 314
#     4  10  20  33  50  70 101 143 175 209 256 303
#     4   9  19  36  54  80 107 134 171 213 266 318
#     4   9  19  36  58  78 105 138 170 212 265 318
#
# _framework density 17.573806000000001
#
# number of rings (size 3 to 8) (size 9 to 14) (size 15 to 20)
#    0.000    1.846    3.077    3.923    0.000    1.231 
#    0.000    0.769    0.000    0.000    0.000    9.692 
#    0.000    0.000    0.000    0.000    0.000    0.000 
#
# Total GULP energy -322403.176032 kJ/mol
# GULP energy per Si atom -12400.122155 kJ/mol
# Density = 1.753381 g / cm^3
# Si number density = 17.573806 Si / 1000 Ang^3
#
#
#
# Elastic Constant Matrix: (Units=GPa)
#
#
# Indices 1 2 3 4 5 6 
#
# 1 65.8157 34.9509 30.0776 0.0000 1.6834 0.0000
# 2 34.9509 113.6157 48.7507 0.0000 9.6513 0.0000
# 3 30.0776 48.7507 83.8741 0.0000 4.6522 0.0000
# 4 0.0000 0.0000 0.0000 24.8665 0.0000 -6.6715
# 5 1.6834 9.6513 4.6522 0.0000 23.2060 0.0000
# 6 0.0000 0.0000 0.0000 -6.6715 0.0000 17.3724
#
#
#
# Elastic Compliance Matrix: (Units=1/GPa)
#
#
# Indices 1 2 3 4 5 6 
#
# 1 0.019469 -0.004088 -0.004674 0.000000 0.001225 0.000000
# 2 -0.004088 0.012881 -0.005805 0.000000 -0.003897 0.000000
# 3 -0.004674 -0.005805 0.017009 0.000000 -0.000657 0.000000
# 4 0.000000 0.000000 0.000000 0.044834 0.000000 0.017217
# 5 0.001225 -0.003897 -0.000657 0.000000 0.044756 0.000000
# 6 0.000000 0.000000 0.000000 0.017217 0.000000 0.064174
#
#
# Mechanical properties :
#
#
# Convention : Reuss Voigt Hill
#
# Bulk Modulus (GPa) = 49.43996 54.54043 51.99019
# Shear Modulus (GPa) = 20.92065 23.05740 21.98902
#
# Velocity S-wave (km/s) = 3.45403 3.62613 3.54112
# Velocity P-wave (km/s) = 6.64085 6.97382 6.80937
#
# Compressibility (1/GPa) = 0.02022655
#
# Stress axis : x y z
#
# Youngs Moduli (GPa) = 51.36286 77.63436 58.79232
#
# Poissons Ratio (x) = 0.31736 0.27478
# Poissons Ratio (y) = 0.20996 0.34128
# Poissons Ratio (z) = 0.24006 0.45065
#
# Static dielectric constant tensor:
#      x y z
#    x 3.247290 0.000000 0.021150 
#    y 0.000000 3.335740 0.000000 
#    z 0.021150 0.000000 3.132010 
# 
# 
# High freq. dielectric constant tensor:
#      x y z
#    x 1.676020 0.000000 -0.000950 
#    y 0.000000 1.682000 0.000000 
#    z -0.000950 0.000000 1.661830 
# 
# From -- ./inp_files/155419.got.cif
#   From: 2010.06.25/outbox.cif.g09.slc.cpg/sg12_78_cif.got.tgz:155419.got - 2010.06.28 00:19:55.
