data_PCOD8090389
_publ_section_title
;
Structure prediction by ZEFSAII (Michael W. Deem and Ramdas Pophale) SiO2 
 PCOD8090389
Probable space group: C 2/M
;
_chemical_formula_sum "Si O2"
_cell_formula_units_Z 48
_cell_length_a 20.493291
_cell_length_b 8.682501
_cell_length_c 31.846867
_cell_angle_alpha 90.000000
_cell_angle_beta 152.750084
_cell_angle_gamma 90.000000
_cell_volume 2594.585159
_symmetry_space_group_name_H-M "C 2/M"
_symmetry_group_IT_number 12
_symmetry_cell_setting 'monoclinic'
loop_
_space_group_symop_operation_xyz
x,y,z
-x,y,-z
-x,-y,-z
x,-y,z
1/2+x,1/2+y,z
1/2-x,1/2+y,-z
1/2-x,1/2-y,-z
1/2+x,1/2-y,z
loop_
_atom_site_type_symbol
_atom_site_label
_atom_site_fract_x
_atom_site_fract_y
_atom_site_fract_z
Si Si1 0.934058 0.319708 0.273818
Si Si2 0.146480 0.180251 0.066966
Si Si3 0.112690 0.181422 0.443346
Si Si4 0.934713 0.818798 0.732467
Si Si5 0.639459 0.319361 0.554706
Si Si6 0.301281 0.183072 0.073060
O O1 0.967671 0.500000 0.289908
O O2 0.768187 0.284234 0.170826
O O3 0.972499 0.254423 0.341542
O O4 0.032313 0.236954 0.295682
O O5 0.195559 0.244550 0.049537
O O6 0.121846 0.000000 0.047624
O O7 0.000000 0.258255 0.000000
O O8 0.250000 0.250000 0.500000
O O9 0.112271 0.229964 0.491359
O O10 0.110088 0.000000 0.435832
O O11 0.773207 0.771343 0.650786
O O12 0.039179 0.739486 0.825902
O O13 0.954248 0.000000 0.747108
O O14 0.500000 0.268497 0.500000
O O15 0.670362 0.500000 0.576632
O O16 0.301865 0.000000 0.071698
O O17 0.250000 0.250000 0.000000
#
# Coordination Sequence:
#
# PCOD8090389 Si02
#       6
#     8   8   8   8   8   8
#     4  10  19  33  56  83 111 145 184 228 277 328
#     4   8  16  33  56  80 108 142 178 223 274 320
#     4  11  21  34  57  83 110 143 185 229 273 330
#     4  11  21  35  58  83 110 145 189 232 275 331
#     4  10  22  40  58  78 112 152 184 225 284 335
#     4  10  20  36  59  83 112 145 185 229 276 333
#
# _framework density 18.500067999999999
#
# number of rings (size 3 to 8) (size 9 to 14) (size 15 to 20)
#    0.000    2.000    1.667    4.000    0.000    1.000 
#    3.000    0.000    0.000   17.000    0.000    0.000 
#    0.000    0.000    0.000    0.000    0.000    0.000 
#
# Total GULP energy -297622.264845 kJ/mol
# GULP energy per Si atom -12400.927702 kJ/mol
# Density = 1.845796 g / cm^3
# Si number density = 18.500068 Si / 1000 Ang^3
#
#
#
# Elastic Constant Matrix: (Units=GPa)
#
#
# Indices 1 2 3 4 5 6 
#
# 1 118.2412 40.3033 86.2986 -0.0004 -0.1729 0.0006
# 2 40.3033 79.1698 48.8730 0.0000 -2.2991 0.0011
# 3 86.2986 48.8730 156.2080 0.0008 -3.8939 0.0003
# 4 -0.0004 0.0000 0.0008 32.5689 0.0000 -7.8617
# 5 -0.1729 -2.2991 -3.8939 0.0000 36.6634 -0.0002
# 6 0.0006 0.0011 0.0003 -7.8617 -0.0002 20.4837
#
#
#
# Elastic Compliance Matrix: (Units=1/GPa)
#
#
# Indices 1 2 3 4 5 6 
#
# 1 0.014779 -0.003093 -0.007220 0.000000 -0.000891 0.000000
# 2 -0.003093 0.016310 -0.003378 0.000000 0.000649 -0.000001
# 3 -0.007220 -0.003378 0.011471 0.000000 0.000972 0.000000
# 4 0.000000 0.000000 0.000000 0.033839 0.000000 0.012987
# 5 -0.000891 0.000649 0.000972 0.000000 0.027415 0.000000
# 6 0.000000 -0.000001 0.000000 0.012987 0.000000 0.053804
#
#
# Mechanical properties :
#
#
# Convention : Reuss Voigt Hill
#
# Bulk Modulus (GPa) = 65.87773 78.28544 72.08159
# Shear Modulus (GPa) = 26.30758 29.81947 28.06352
#
# Velocity S-wave (km/s) = 3.77507 4.01915 3.89902
# Velocity P-wave (km/s) = 7.39515 7.99664 7.70177
#
# Compressibility (1/GPa) = 0.01517964
#
# Stress axis : x y z
#
# Youngs Moduli (GPa) = 67.66149 61.31309 87.17375
#
# Poissons Ratio (x) = 0.18964 0.62936
# Poissons Ratio (y) = 0.20927 0.29447
# Poissons Ratio (z) = 0.48849 0.20711
#
# Static dielectric constant tensor:
#      x y z
#    x 3.560150 0.000000 -0.032410 
#    y 0.000000 3.320110 0.000000 
#    z -0.032410 0.000000 3.690830 
# 
# 
# High freq. dielectric constant tensor:
#      x y z
#    x 1.701500 0.000000 -0.004330 
#    y 0.000000 1.711460 0.000000 
#    z -0.004330 0.000000 1.731220 
# 
# From -- ./inp_files/280811.got.cif
#   From: 2010.06.25/outbox.cif.g09.slc.cpg/sg12_141_cif.got.tgz:280811.got - 2010.06.28 00:19:55.
