data_PCOD8090668
_publ_section_title
;
Structure prediction by ZEFSAII (Michael W. Deem and Ramdas Pophale) SiO2 
 PCOD8090668
Probable space group: C 2/M
;
_chemical_formula_sum "Si O2"
_cell_formula_units_Z 48
_cell_length_a 11.272527
_cell_length_b 26.657456
_cell_length_c 14.669118
_cell_angle_alpha 90.000000
_cell_angle_beta 31.593210
_cell_angle_gamma 90.000000
_cell_volume 2309.297700
_symmetry_space_group_name_H-M "C 2/M"
_symmetry_group_IT_number 12
_symmetry_cell_setting 'monoclinic'
loop_
_space_group_symop_operation_xyz
x,y,z
-x,y,-z
-x,-y,-z
x,-y,z
1/2+x,1/2+y,z
1/2-x,1/2+y,-z
1/2-x,1/2-y,-z
1/2+x,1/2-y,z
loop_
_atom_site_type_symbol
_atom_site_label
_atom_site_fract_x
_atom_site_fract_y
_atom_site_fract_z
Si Si1 0.359832 0.557068 0.433728
Si Si2 0.420886 0.654482 0.648449
Si Si3 0.996792 0.194948 0.217053
Si Si4 0.844771 0.558466 0.801131
Si Si5 0.494951 0.215400 0.101513
Si Si6 0.057537 0.090021 0.819545
O O1 0.403416 0.500000 0.438766
O O2 0.535484 0.595002 0.367480
O O3 0.401366 0.558167 0.298502
O O4 0.107051 0.575431 0.627197
O O5 0.500000 0.674808 0.500000
O O6 0.544470 0.686806 0.647613
O O7 0.153919 0.665717 0.820523
O O8 0.890834 0.246339 0.245738
O O9 0.890966 0.148336 0.232344
O O10 0.264412 0.196086 0.021244
O O11 0.827192 0.500000 0.830615
O O12 0.737006 0.570679 0.774461
O O13 0.701917 0.584738 0.975261
O O14 0.500000 0.244417 0.000000
#
# Coordination Sequence:
#
# PCOD8090668 Si02
#       6
#     8   8   8   8   8   8
#     4  10  21  38  58  83 119 160 197 242 296 346
#     4  10  22  38  58  84 116 151 193 248 287 345
#     4   9  20  37  59  84 109 154 192 235 295 353
#     4  10  20  33  55  87 119 154 193 240 297 353
#     4   9  19  38  61  83 114 148 192 236 295 349
#     4  10  19  33  58  87 117 152 194 244 292 353
#
# _framework density 20.785540000000001
#
# number of rings (size 3 to 8) (size 9 to 14) (size 15 to 20)
#    0.000    2.333    0.000    2.500    4.667    2.333 
#    0.000    3.333    0.000    5.500    0.000    0.000 
#    0.000    0.000    0.000    0.000    0.000    0.000 
#
# Total GULP energy -297420.802361 kJ/mol
# GULP energy per Si atom -12392.533432 kJ/mol
# Density = 2.073823 g / cm^3
# Si number density = 20.785540 Si / 1000 Ang^3
#
#
#
# Elastic Constant Matrix: (Units=GPa)
#
#
# Indices 1 2 3 4 5 6 
#
# 1 62.9314 40.1032 37.3543 -0.0001 6.3049 0.0001
# 2 40.1032 100.8276 39.6842 0.0000 -5.1307 -0.0001
# 3 37.3543 39.6842 91.6477 0.0002 13.0697 -0.0001
# 4 -0.0001 0.0000 0.0002 20.9092 0.0000 -5.9991
# 5 6.3049 -5.1307 13.0697 0.0000 33.5719 -0.0001
# 6 0.0001 -0.0001 -0.0001 -5.9991 -0.0001 29.3029
#
#
#
# Elastic Compliance Matrix: (Units=1/GPa)
#
#
# Indices 1 2 3 4 5 6 
#
# 1 0.024804 -0.007525 -0.006377 0.000000 -0.003326 0.000000
# 2 -0.007525 0.014787 -0.004087 0.000000 0.005264 0.000000
# 3 -0.006377 -0.004087 0.016092 0.000000 -0.005691 0.000000
# 4 0.000000 0.000000 0.000000 0.050810 0.000000 0.010402
# 5 -0.003326 0.005264 -0.005691 0.000000 0.033432 0.000000
# 6 0.000000 0.000000 0.000000 0.010402 0.000000 0.036256
#
#
# Mechanical properties :
#
#
# Convention : Reuss Voigt Hill
#
# Bulk Modulus (GPa) = 50.74684 54.41002 52.57843
# Shear Modulus (GPa) = 22.85956 25.97445 24.41700
#
# Velocity S-wave (km/s) = 3.31989 3.53886 3.43112
# Velocity P-wave (km/s) = 6.25804 6.55223 6.40683
#
# Compressibility (1/GPa) = 0.01970566
#
# Stress axis : x y z
#
# Youngs Moduli (GPa) = 40.31600 67.62627 62.14337
#
# Poissons Ratio (x) = 0.50888 0.39630
# Poissons Ratio (y) = 0.30337 0.25396
# Poissons Ratio (z) = 0.25710 0.27636
#
# Static dielectric constant tensor:
#      x y z
#    x 3.772620 0.000000 0.185220 
#    y 0.000000 3.686690 0.000000 
#    z 0.185220 0.000000 4.024510 
# 
# 
# High freq. dielectric constant tensor:
#      x y z
#    x 1.808390 0.000000 0.015580 
#    y 0.000000 1.806360 0.000000 
#    z 0.015580 0.000000 1.807760 
# 
# From -- ./inp_files/209294.got.cif
#   From: 2010.06.25/outbox.cif.g09.slc.cpg/sg12_105_cif.got.tgz:209294.got - 2010.06.28 00:19:55.
