data_PCOD8090055
_publ_section_title
;
Structure prediction by ZEFSAII (Michael W. Deem and Ramdas Pophale) SiO2 
 PCOD8090055
Probable space group: C 2/M
;
_chemical_formula_sum "Si O2"
_cell_formula_units_Z 64
_cell_length_a 28.756590
_cell_length_b 13.795251
_cell_length_c 11.460330
_cell_angle_alpha 90.000000
_cell_angle_beta 130.943010
_cell_angle_gamma 90.000000
_cell_volume 3434.148832
_symmetry_space_group_name_H-M "C 2/M"
_symmetry_group_IT_number 12
_symmetry_cell_setting 'monoclinic'
loop_
_space_group_symop_operation_xyz
x,y,z
-x,y,-z
-x,-y,-z
x,-y,z
1/2+x,1/2+y,z
1/2-x,1/2+y,-z
1/2-x,1/2-y,-z
1/2+x,1/2-y,z
loop_
_atom_site_type_symbol
_atom_site_label
_atom_site_fract_x
_atom_site_fract_y
_atom_site_fract_z
Si Si1 0.268654 0.105279 0.550529
Si Si2 0.120418 0.614907 0.948527
Si Si3 0.013221 0.112254 0.710091
Si Si4 0.563916 0.212877 0.644060
Si Si5 0.653234 0.279303 0.329167
Si Si6 0.253789 0.395802 0.219317
Si Si7 0.118458 0.183695 0.536120
Si Si8 0.049924 0.763732 0.987743
O O1 0.332251 0.164505 0.653548
O O2 0.214679 0.162013 0.393914
O O3 0.244556 0.091537 0.640303
O O4 0.280021 0.000000 0.511216
O O5 0.118552 0.500000 0.972812
O O6 0.099897 0.637288 0.783595
O O7 0.190289 0.658090 0.077599
O O8 0.073670 0.668987 0.958495
O O9 0.052062 0.181454 0.686223
O O10 0.940604 0.111797 0.556679
O O11 0.036035 0.000000 0.740627
O O12 0.022872 0.154773 0.856513
O O13 0.500000 0.164355 0.500000
O O14 0.601708 0.222919 0.585868
O O15 0.628694 0.294800 0.418199
O O16 0.604682 0.311910 0.152355
O O17 0.252156 0.500000 0.153876
O O18 0.319288 0.349463 0.294797
O O19 0.000000 0.728135 0.000000
#
# Coordination Sequence:
#
# PCOD8090055 Si02
#       8
#     8   8   8   8   8   8   8   8
#     4   9  18  33  53  79 109 142 175 212 266 320
#     4  10  21  38  58  78 103 140 184 227 269 314
#     4  10  21  36  55  80 111 146 177 216 265 319
#     4   9  21  38  57  77 106 142 182 222 266 319
#     4  10  19  33  55  80 111 142 173 219 262 319
#     4   9  17  30  53  80 102 132 178 220 261 315
#     4  10  19  34  54  80 107 141 178 219 267 312
#     4  11  21  36  54  80 114 142 177 218 265 322
#
# _framework density 18.636351000000001
#
# number of rings (size 3 to 8) (size 9 to 14) (size 15 to 20)
#    0.000    2.250    2.500    0.375    0.000    5.000 
#    0.000    0.625    0.000    0.000    0.000    0.000 
#    0.000    0.000    0.000    0.000    0.000    0.000 
#
# Total GULP energy -396422.769118 kJ/mol
# GULP energy per Si atom -12388.211535 kJ/mol
# Density = 1.859393 g / cm^3
# Si number density = 18.636351 Si / 1000 Ang^3
#
#
#
# Elastic Constant Matrix: (Units=GPa)
#
#
# Indices 1 2 3 4 5 6 
#
# 1 31.7862 2.9847 18.4956 0.0000 4.6279 0.0000
# 2 2.9847 71.5206 24.8466 0.0000 9.2534 0.0000
# 3 18.4956 24.8466 126.5516 0.0000 13.3520 0.0000
# 4 0.0000 0.0000 0.0000 17.8026 0.0000 0.6951
# 5 4.6279 9.2534 13.3520 0.0000 32.4782 0.0000
# 6 0.0000 0.0000 0.0000 0.6951 0.0000 8.2436
#
#
#
# Elastic Compliance Matrix: (Units=1/GPa)
#
#
# Indices 1 2 3 4 5 6 
#
# 1 0.034686 0.000648 -0.004867 0.000000 -0.003126 0.000000
# 2 0.000648 0.015343 -0.002756 0.000000 -0.003331 0.000000
# 3 -0.004867 -0.002756 0.009406 0.000000 -0.002388 0.000000
# 4 0.000000 0.000000 0.000000 0.056357 0.000000 -0.004752
# 5 -0.003126 -0.003331 -0.002388 0.000000 0.033166 0.000000
# 6 0.000000 0.000000 0.000000 -0.004752 0.000000 0.121707
#
#
# Mechanical properties :
#
#
# Convention : Reuss Voigt Hill
#
# Bulk Modulus (GPa) = 21.98458 35.83468 28.90963
# Shear Modulus (GPa) = 16.67900 23.94029 20.30965
#
# Velocity S-wave (km/s) = 2.99485 3.58802 3.30477
# Velocity P-wave (km/s) = 4.87658 6.03617 5.48709
#
# Compressibility (1/GPa) = 0.04548643
#
# Stress axis : x y z
#
# Youngs Moduli (GPa) = 28.82971 65.17527 106.31270
#
# Poissons Ratio (x) = -0.04221 0.51740
# Poissons Ratio (y) = -0.01867 0.29296
# Poissons Ratio (z) = 0.14031 0.17960
#
# Static dielectric constant tensor:
#      x y z
#    x 3.374300 0.000000 0.139900 
#    y 0.000000 3.335090 0.000000 
#    z 0.139900 0.000000 3.699650 
# 
# 
# High freq. dielectric constant tensor:
#      x y z
#    x 1.713700 0.000000 0.010360 
#    y 0.000000 1.695330 0.000000 
#    z 0.010360 0.000000 1.737080 
# 
# From -- ./inp_files/189481.got.cif
#   From: 2010.06.25/outbox.cif.g09.slc.cpg/sg12_95_cif.got.tgz:189481.got - 2010.06.28 00:19:55.
