data_PCOD8090821
_publ_section_title
;
Structure prediction by ZEFSAII (Michael W. Deem and Ramdas Pophale) SiO2 
 PCOD8090821
Probable space group: C 2/M
;
_chemical_formula_sum "Si O2"
_cell_formula_units_Z 48
_cell_length_a 9.119606
_cell_length_b 22.917370
_cell_length_c 12.957319
_cell_angle_alpha 90.000000
_cell_angle_beta 103.701543
_cell_angle_gamma 90.000000
_cell_volume 2630.982228
_symmetry_space_group_name_H-M "C 2/M"
_symmetry_group_IT_number 12
_symmetry_cell_setting 'monoclinic'
loop_
_space_group_symop_operation_xyz
x,y,z
-x,y,-z
-x,-y,-z
x,-y,z
1/2+x,1/2+y,z
1/2-x,1/2+y,-z
1/2-x,1/2-y,-z
1/2+x,1/2-y,z
loop_
_atom_site_type_symbol
_atom_site_label
_atom_site_fract_x
_atom_site_fract_y
_atom_site_fract_z
Si Si1 0.836875 0.832161 0.459864
Si Si2 0.432143 0.852217 0.723321
Si Si3 0.329673 0.342585 0.970382
Si Si4 0.424107 0.067347 0.097806
Si Si5 0.355860 0.219425 0.902040
Si Si6 0.867704 0.296752 0.403474
O O1 0.707698 0.867987 0.376670
O O2 0.860827 0.773353 0.396129
O O3 0.786850 0.819490 0.569925
O O4 0.000000 0.864461 0.500000
O O5 0.463803 0.910789 0.793614
O O6 0.387138 0.799556 0.791416
O O7 0.586653 0.828876 0.695235
O O8 0.229893 0.396768 0.917861
O O9 0.312213 0.287728 0.889282
O O10 0.500000 0.365823 0.000000
O O11 0.282324 0.318708 0.075576
O O12 0.386977 0.000000 0.109610
O O13 0.500000 0.078647 0.000000
O O14 0.500000 0.208903 0.000000
O O15 0.000000 0.316533 0.500000
#
# Coordination Sequence:
#
# PCOD8090821 Si02
#       6
#     8   8   8   8   8   8
#     4   9  18  33  49  80 117 146 174 227 288 337
#     4  11  19  33  57  79 108 154 192 217 272 342
#     4  10  20  34  52  80 121 142 178 237 281 321
#     4  11  23  42  59  76 112 159 199 227 267 338
#     4  10  19  34  51  83 123 146 177 222 286 350
#     4   8  17  32  49  75 114 148 177 219 277 348
#
# _framework density 18.244136999999998
#
# number of rings (size 3 to 8) (size 9 to 14) (size 15 to 20)
#    0.000    2.167    3.333    1.000    2.333    0.333 
#    3.000    0.000    0.000    5.000    0.000    0.000 
#    0.000    0.000    0.000    0.000    0.000    0.000 
#
# Total GULP energy -297404.089182 kJ/mol
# GULP energy per Si atom -12391.837049 kJ/mol
# Density = 1.820261 g / cm^3
# Si number density = 18.244137 Si / 1000 Ang^3
#
#
#
# Elastic Constant Matrix: (Units=GPa)
#
#
# Indices 1 2 3 4 5 6 
#
# 1 130.0102 44.9189 41.7768 0.0000 5.0509 0.0000
# 2 44.9189 101.6503 34.8402 0.0000 0.7885 0.0000
# 3 41.7768 34.8402 76.7770 0.0000 -2.1651 0.0000
# 4 0.0000 0.0000 0.0000 11.3455 0.0000 0.0840
# 5 5.0509 0.7885 -2.1651 0.0000 31.4285 0.0000
# 6 0.0000 0.0000 0.0000 0.0840 0.0000 21.8815
#
#
#
# Elastic Compliance Matrix: (Units=1/GPa)
#
#
# Indices 1 2 3 4 5 6 
#
# 1 0.010163 -0.003036 -0.004205 0.000000 -0.001847 0.000000
# 2 -0.003036 0.012570 -0.004055 0.000000 -0.000107 0.000000
# 3 -0.004205 -0.004055 0.017208 0.000000 0.001963 0.000000
# 4 0.000000 0.000000 0.000000 0.088143 0.000000 -0.000338
# 5 -0.001847 -0.000107 0.001963 0.000000 0.032253 0.000000
# 6 0.000000 0.000000 0.000000 -0.000338 0.000000 0.045702
#
#
# Mechanical properties :
#
#
# Convention : Reuss Voigt Hill
#
# Bulk Modulus (GPa) = 57.63633 61.27883 59.45758
# Shear Modulus (GPa) = 21.32972 25.39119 23.36045
#
# Velocity S-wave (km/s) = 3.42296 3.73466 3.58220
# Velocity P-wave (km/s) = 6.87623 7.22897 7.05480
#
# Compressibility (1/GPa) = 0.01735017
#
# Stress axis : x y z
#
# Youngs Moduli (GPa) = 98.39197 79.55556 58.11178
#
# Poissons Ratio (x) = 0.24151 0.24435
# Poissons Ratio (y) = 0.29869 0.23565
# Poissons Ratio (z) = 0.41372 0.32261
#
# Static dielectric constant tensor:
#      x y z
#    x 3.834590 0.000000 -0.208850 
#    y 0.000000 2.994480 0.000000 
#    z -0.208850 0.000000 3.396210 
# 
# 
# High freq. dielectric constant tensor:
#      x y z
#    x 1.724320 0.000000 -0.008160 
#    y 0.000000 1.650430 0.000000 
#    z -0.008160 0.000000 1.699120 
# 
# From -- ./inp_files/122017.got.cif
#   From: 2010.06.25/outbox.cif.g09.slc.cpg/sg12_62_cif.got.tgz:122017.got - 2010.06.28 00:19:55.
