data_PCOD8090919
_publ_section_title
;
Structure prediction by ZEFSAII (Michael W. Deem and Ramdas Pophale) SiO2 
 PCOD8090919
Probable space group: C 2/M
;
_chemical_formula_sum "Si O2"
_cell_formula_units_Z 60
_cell_length_a 29.020142
_cell_length_b 11.371824
_cell_length_c 12.938167
_cell_angle_alpha 90.000000
_cell_angle_beta 49.624155
_cell_angle_gamma 90.000000
_cell_volume 3252.744315
_symmetry_space_group_name_H-M "C 2/M"
_symmetry_group_IT_number 12
_symmetry_cell_setting 'monoclinic'
loop_
_space_group_symop_operation_xyz
x,y,z
-x,y,-z
-x,-y,-z
x,-y,z
1/2+x,1/2+y,z
1/2-x,1/2+y,-z
1/2-x,1/2-y,-z
1/2+x,1/2-y,z
loop_
_atom_site_type_symbol
_atom_site_label
_atom_site_fract_x
_atom_site_fract_y
_atom_site_fract_z
Si Si1 0.456169 0.860112 0.474292
Si Si2 0.170135 0.361542 0.262167
Si Si3 0.152396 0.364590 0.060965
Si Si4 0.500000 0.262024 0.000000
Si Si5 0.779941 0.132649 0.503656
Si Si6 0.270590 0.228041 0.226557
Si Si7 0.870058 0.869005 0.206585
Si Si8 0.024421 0.360662 0.175460
O O1 0.500000 0.810093 0.500000
O O2 0.388680 0.812238 0.592335
O O3 0.478007 0.815256 0.330541
O O4 0.457815 0.000000 0.475021
O O5 0.167224 0.500000 0.260112
O O6 0.170611 0.307589 0.145032
O O7 0.229901 0.330541 0.238504
O O8 0.138796 0.500000 0.100679
O O9 0.090500 0.307449 0.106987
O O10 0.206172 0.351406 0.901091
O O11 0.440471 0.340895 0.095415
O O12 0.502158 0.181325 0.097167
O O13 0.750000 0.250000 0.500000
O O14 0.771944 0.146991 0.638366
O O15 0.848405 0.136089 0.358975
O O16 0.753171 0.000000 0.513634
O O17 0.328412 0.281045 0.201267
O O18 0.860716 0.000000 0.175806
O O19 0.026683 0.500000 0.168029
#
# Coordination Sequence:
#
# PCOD8090919 Si02
#       8
#     8   8   8   4   8   8   8   8
#     4   9  16  31  53  76 106 143 179 221 280 339
#     4  10  20  32  53  82 112 145 181 225 281 341
#     4  10  19  34  53  79 112 144 176 223 284 342
#     4  12  22  36  56  78 104 142 192 224 290 338
#     4   9  20  38  58  81 111 150 191 236 286 338
#     4  11  20  35  55  81 108 145 186 229 279 337
#     4  10  22  39  55  75 106 142 188 239 280 332
#     4  10  20  34  53  80 113 140 175 231 288 344
#
# _framework density 18.445964
#
# number of rings (size 3 to 8) (size 9 to 14) (size 15 to 20)
#    0.000    2.000    2.667    1.600    1.867    0.533 
#    0.000    0.667    0.000    0.000    0.000    0.000 
#    0.000    5.333    0.000    0.000    0.000    0.000 
#
# Total GULP energy -371678.700428 kJ/mol
# GULP energy per Si atom -12389.290014 kJ/mol
# Density = 1.840398 g / cm^3
# Si number density = 18.445964 Si / 1000 Ang^3
#
#
#
# Elastic Constant Matrix: (Units=GPa)
#
#
# Indices 1 2 3 4 5 6 
#
# 1 97.3017 18.8058 55.7627 0.0000 -2.1175 0.0000
# 2 18.8058 57.5514 27.9722 0.0000 3.8523 0.0000
# 3 55.7627 27.9722 163.7274 0.0000 11.0996 0.0000
# 4 0.0000 0.0000 0.0000 21.8564 0.0000 -5.5470
# 5 -2.1175 3.8523 11.0996 0.0000 29.5515 0.0000
# 6 0.0000 0.0000 0.0000 -5.5470 0.0000 16.0604
#
#
#
# Elastic Compliance Matrix: (Units=1/GPa)
#
#
# Indices 1 2 3 4 5 6 
#
# 1 0.013276 -0.002441 -0.004300 0.000000 0.002885 0.000000
# 2 -0.002441 0.019446 -0.002367 0.000000 -0.001821 0.000000
# 3 -0.004300 -0.002367 0.008185 0.000000 -0.003074 0.000000
# 4 0.000000 0.000000 0.000000 0.050149 0.000000 0.017321
# 5 0.002885 -0.001821 -0.003074 0.000000 0.035438 0.000000
# 6 0.000000 0.000000 0.000000 0.017321 0.000000 0.068247
#
#
# Mechanical properties :
#
#
# Convention : Reuss Voigt Hill
#
# Bulk Modulus (GPa) = 44.07270 58.18465 51.12868
# Shear Modulus (GPa) = 22.67341 27.89629 25.28485
#
# Velocity S-wave (km/s) = 3.50977 3.89308 3.70638
# Velocity P-wave (km/s) = 6.35369 7.19860 6.78930
#
# Compressibility (1/GPa) = 0.02268978
#
# Stress axis : x y z
#
# Youngs Moduli (GPa) = 75.32212 51.42439 122.17292
#
# Poissons Ratio (x) = 0.12554 0.52536
# Poissons Ratio (y) = 0.18388 0.28923
# Poissons Ratio (z) = 0.32390 0.12174
#
# Static dielectric constant tensor:
#      x y z
#    x 3.334350 0.000000 0.030810 
#    y 0.000000 3.088450 0.000000 
#    z 0.030810 0.000000 3.914960 
# 
# 
# High freq. dielectric constant tensor:
#      x y z
#    x 1.699920 0.000000 0.001100 
#    y 0.000000 1.677910 0.000000 
#    z 0.001100 0.000000 1.745030 
# 
# From -- ./inp_files/188693.got.cif
#   From: 2010.06.25/outbox.cif.g09.slc.cpg/sg12_95_cif.got.tgz:188693.got - 2010.06.28 00:19:55.
