data_PCOD8090995
_publ_section_title
;
Structure prediction by ZEFSAII (Michael W. Deem and Ramdas Pophale) SiO2 
 PCOD8090995
Probable space group: C 2/M
;
_chemical_formula_sum "Si O2"
_cell_formula_units_Z 64
_cell_length_a 18.613585
_cell_length_b 23.078073
_cell_length_c 12.066595
_cell_angle_alpha 90.000000
_cell_angle_beta 46.340981
_cell_angle_gamma 90.000000
_cell_volume 3749.984741
_symmetry_space_group_name_H-M "C 2/M"
_symmetry_group_IT_number 12
_symmetry_cell_setting 'monoclinic'
loop_
_space_group_symop_operation_xyz
x,y,z
-x,y,-z
-x,-y,-z
x,-y,z
1/2+x,1/2+y,z
1/2-x,1/2+y,-z
1/2-x,1/2-y,-z
1/2+x,1/2-y,z
loop_
_atom_site_type_symbol
_atom_site_label
_atom_site_fract_x
_atom_site_fract_y
_atom_site_fract_z
Si Si1 0.610395 0.280492 0.142067
Si Si2 0.885873 0.162080 0.091871
Si Si3 0.789661 0.673751 0.070854
Si Si4 0.050640 0.387675 0.561592
Si Si5 0.264670 0.065796 0.737009
Si Si6 0.298730 0.227040 0.291991
Si Si7 0.634958 0.067193 0.134165
Si Si8 0.096694 0.734521 0.598667
O O1 0.674983 0.307113 0.173885
O O2 0.494774 0.279216 0.296260
O O3 0.629334 0.322784 0.019685
O O4 0.642423 0.214675 0.079166
O O5 0.836832 0.100707 0.169894
O O6 0.829217 0.208501 0.226494
O O7 0.000000 0.159621 0.000000
O O8 0.814616 0.682263 0.174130
O O9 0.812306 0.607176 0.015117
O O10 0.158522 0.417942 0.443227
O O11 0.063973 0.318993 0.558232
O O12 0.000000 0.402204 0.500000
O O13 0.981516 0.415188 0.731437
O O14 0.311381 0.079415 0.806860
O O15 0.233271 0.000000 0.757779
O O16 0.184314 0.228044 0.450827
O O17 0.369889 0.208502 0.317632
O O18 0.644089 0.000000 0.088406
#
# Coordination Sequence:
#
# PCOD8090995 Si02
#       8
#     8   8   8   8   8   8   8   8
#     4  10  20  31  53  76 107 132 167 208 261 312
#     4  11  19  33  50  75 106 137 168 213 261 309
#     4  10  20  33  51  80 103 135 171 215 254 307
#     4  10  20  31  53  80 107 135 171 210 256 316
#     4  10  20  34  51  74 106 140 174 213 256 303
#     4  10  23  33  51  77 107 138 172 210 268 313
#     4  10  19  34  54  78 104 137 175 213 257 303
#     4  11  20  35  51  78 105 142 167 206 267 321
#
# _framework density 17.066735999999999
#
# number of rings (size 3 to 8) (size 9 to 14) (size 15 to 20)
#    0.000    1.750    5.000    0.375    1.750    1.750 
#    0.000    0.000    0.000    2.250    0.000    2.625 
#    0.000    0.000    0.000    0.000    0.000    0.000 
#
# Total GULP energy -396835.563875 kJ/mol
# GULP energy per Si atom -12401.111371 kJ/mol
# Density = 1.702789 g / cm^3
# Si number density = 17.066736 Si / 1000 Ang^3
#
#
#
# Elastic Constant Matrix: (Units=GPa)
#
#
# Indices 1 2 3 4 5 6 
#
# 1 53.7524 15.9284 32.4563 0.0001 -12.4953 -0.0001
# 2 15.9284 86.4078 39.6314 0.0000 -5.0786 0.0000
# 3 32.4563 39.6314 84.0636 0.0001 -16.1315 -0.0001
# 4 0.0001 0.0000 0.0001 33.8242 -0.0001 -4.2865
# 5 -12.4953 -5.0786 -16.1315 -0.0001 28.1657 0.0001
# 6 -0.0001 0.0000 -0.0001 -4.2865 0.0001 18.1704
#
#
#
# Elastic Compliance Matrix: (Units=1/GPa)
#
#
# Indices 1 2 3 4 5 6 
#
# 1 0.025233 -0.000471 -0.008301 0.000000 0.006355 0.000000
# 2 -0.000471 0.014830 -0.007119 0.000000 -0.001612 0.000000
# 3 -0.008301 -0.007119 0.019665 0.000000 0.006297 0.000000
# 4 0.000000 0.000000 0.000000 0.030476 0.000000 0.007189
# 5 0.006355 -0.001612 0.006297 0.000000 0.041639 0.000000
# 6 0.000000 0.000000 0.000000 0.007189 0.000000 0.056731
#
#
# Mechanical properties :
#
#
# Convention : Reuss Voigt Hill
#
# Bulk Modulus (GPa) = 35.78225 44.47290 40.12758
# Shear Modulus (GPa) = 21.77027 25.11258 23.44142
#
# Velocity S-wave (km/s) = 3.57542 3.84009 3.71012
# Velocity P-wave (km/s) = 6.16899 6.76583 6.47429
#
# Compressibility (1/GPa) = 0.02794682
#
# Stress axis : x y z
#
# Youngs Moduli (GPa) = 39.63115 67.42923 50.85101
#
# Poissons Ratio (x) = 0.03174 0.42210
# Poissons Ratio (y) = 0.01866 0.36203
# Poissons Ratio (z) = 0.32897 0.48005
#
# Static dielectric constant tensor:
#      x y z
#    x 3.164210 0.000000 -0.095910 
#    y 0.000000 2.942940 0.000000 
#    z -0.095910 0.000000 3.201400 
# 
# 
# High freq. dielectric constant tensor:
#      x y z
#    x 1.651380 0.000000 -0.014940 
#    y 0.000000 1.635190 0.000000 
#    z -0.014940 0.000000 1.656790 
# 
# From -- ./inp_files/159517.got.cif
#   From: 2010.06.25/outbox.cif.g09.slc.cpg/sg12_80_cif.got.tgz:159517.got - 2010.06.28 00:19:55.
