data_PCOD8090713
_publ_section_title
;
Structure prediction by ZEFSAII (Michael W. Deem and Ramdas Pophale) SiO2 
 PCOD8090713
Probable space group: C 2/M
;
_chemical_formula_sum "Si O2"
_cell_formula_units_Z 28
_cell_length_a 4.865051
_cell_length_b 30.443466
_cell_length_c 7.849740
_cell_angle_alpha 90.000000
_cell_angle_beta 92.735218
_cell_angle_gamma 90.000000
_cell_volume 1161.292724
_symmetry_space_group_name_H-M "C 2/M"
_symmetry_group_IT_number 12
_symmetry_cell_setting 'monoclinic'
loop_
_space_group_symop_operation_xyz
x,y,z
-x,y,-z
-x,-y,-z
x,-y,z
1/2+x,1/2+y,z
1/2-x,1/2+y,-z
1/2-x,1/2-y,-z
1/2+x,1/2-y,z
loop_
_atom_site_type_symbol
_atom_site_label
_atom_site_fract_x
_atom_site_fract_y
_atom_site_fract_z
Si Si1 0.117379 0.363162 0.314199
Si Si2 0.108014 0.912179 0.192236
Si Si3 0.739906 0.500000 0.375484
Si Si4 0.078747 0.225519 0.700161
O O1 0.354501 0.400331 0.311495
O O2 0.273046 0.319955 0.249140
O O3 0.000000 0.356864 0.500000
O O4 0.850548 0.375594 0.194600
O O5 0.240508 0.957614 0.255184
O O6 0.000000 0.917337 0.000000
O O7 0.500000 0.500000 0.500000
O O8 0.000000 0.500000 0.500000
O O9 0.280629 0.264994 0.774159
O O10 0.000000 0.228347 0.500000
#
# Coordination Sequence:
#
# PCOD8090713 Si02
#       4
#     8   8   4   8
#     4  12  23  40  67  96 127 168 219 267 312 373
#     4  12  26  44  65  94 133 171 207 255 322 385
#     4  12  25  44  71  98 125 160 213 266 311 370
#     4  10  19  33  58  94 128 160 209 273 323 360
#
# _framework density 24.111062
#
# number of rings (size 3 to 8) (size 9 to 14) (size 15 to 20)
#    0.000    0.571    0.000   12.429    0.000    0.000 
#    0.000    4.286    0.000   17.143    0.000    0.000 
#    0.000    0.000    0.000    0.000    0.000    0.000 
#
# Total GULP energy -173477.164258 kJ/mol
# GULP energy per Si atom -12391.226018 kJ/mol
# Density = 2.405618 g / cm^3
# Si number density = 24.111062 Si / 1000 Ang^3
#
#
#
# Elastic Constant Matrix: (Units=GPa)
#
#
# Indices 1 2 3 4 5 6 
#
# 1 129.0246 32.7103 31.9796 0.0000 37.7332 0.0000
# 2 32.7103 114.6279 56.1353 0.0000 24.5931 0.0000
# 3 31.9796 56.1353 95.6638 0.0000 38.0279 0.0000
# 4 0.0000 0.0000 0.0000 14.6969 0.0000 18.5596
# 5 37.7332 24.5931 38.0279 0.0000 43.0407 0.0000
# 6 0.0000 0.0000 0.0000 18.5596 0.0000 47.2315
#
#
#
# Elastic Compliance Matrix: (Units=1/GPa)
#
#
# Indices 1 2 3 4 5 6 
#
# 1 0.010618 -0.001551 0.001092 0.000000 -0.009388 0.000000
# 2 -0.001551 0.012496 -0.006961 0.000000 0.000370 0.000000
# 3 0.001092 -0.006961 0.019995 0.000000 -0.014646 0.000000
# 4 0.000000 0.000000 0.000000 0.135063 0.000000 -0.053073
# 5 -0.009388 0.000370 -0.014646 0.000000 0.044193 0.000000
# 6 0.000000 0.000000 0.000000 -0.053073 0.000000 0.042027
#
#
# Mechanical properties :
#
#
# Convention : Reuss Voigt Hill
#
# Bulk Modulus (GPa) = 35.37337 64.55183 49.96260
# Shear Modulus (GPa) = 17.32162 35.55990 26.44076
#
# Velocity S-wave (km/s) = 2.68322 3.84453 3.31512
# Velocity P-wave (km/s) = 4.92975 6.82188 5.95149
#
# Compressibility (1/GPa) = 0.02826986
#
# Stress axis : x y z
#
# Youngs Moduli (GPa) = 94.17621 80.02472 50.01194
#
# Poissons Ratio (x) = 0.12410 -0.05462
# Poissons Ratio (y) = 0.14605 0.34815
# Poissons Ratio (z) = -0.10286 0.55708
#
# Static dielectric constant tensor:
#      x y z
#    x 5.203270 0.000000 0.355670 
#    y 0.000000 4.660590 0.000000 
#    z 0.355670 0.000000 3.919970 
# 
# 
# High freq. dielectric constant tensor:
#      x y z
#    x 1.990740 0.000000 0.028210 
#    y 0.000000 1.960920 0.000000 
#    z 0.028210 0.000000 1.920930 
# 
# From -- ./inp_files/34385.got.cif
#   From: 2010.06.25/outbox.cif.g09.slc.cpg/sg12_18_cif.got.tgz:34385.got - 2010.06.28 00:19:55.
