data_PCOD8090823
_publ_section_title
;
Structure prediction by ZEFSAII (Michael W. Deem and Ramdas Pophale) SiO2 
 PCOD8090823
Probable space group: C 2/M
;
_chemical_formula_sum "Si O2"
_cell_formula_units_Z 64
_cell_length_a 34.722906
_cell_length_b 18.739765
_cell_length_c 19.097934
_cell_angle_alpha 90.000000
_cell_angle_beta 18.226790
_cell_angle_gamma 90.000000
_cell_volume 3886.908096
_symmetry_space_group_name_H-M "C 2/M"
_symmetry_group_IT_number 12
_symmetry_cell_setting 'monoclinic'
loop_
_space_group_symop_operation_xyz
x,y,z
-x,y,-z
-x,-y,-z
x,-y,z
1/2+x,1/2+y,z
1/2-x,1/2+y,-z
1/2-x,1/2-y,-z
1/2+x,1/2-y,z
loop_
_atom_site_type_symbol
_atom_site_label
_atom_site_fract_x
_atom_site_fract_y
_atom_site_fract_z
Si Si1 0.236631 0.584371 0.699253
Si Si2 0.603311 0.081895 0.375054
Si Si3 0.752021 0.309715 0.092016
Si Si4 0.969008 0.335705 0.366148
Si Si5 0.529661 0.084345 0.777380
Si Si6 0.682041 0.347035 0.063232
Si Si7 0.368429 0.917084 0.258693
Si Si8 0.589380 0.675093 0.508761
O O1 0.262728 0.500000 0.658051
O O2 0.229579 0.611711 0.629621
O O3 0.349297 0.626556 0.538095
O O4 0.109860 0.602275 0.958568
O O5 0.500000 0.111899 0.500000
O O6 0.602707 0.126834 0.447052
O O7 0.576664 0.000000 0.439442
O O8 0.736560 0.089003 0.108691
O O9 0.686992 0.347697 0.138697
O O10 0.670520 0.326571 0.299484
O O11 0.758608 0.225431 0.068888
O O12 0.886175 0.343281 0.870335
O O13 0.933065 0.374094 0.356469
O O14 0.925293 0.254435 0.436053
O O15 0.627556 0.112103 0.668223
O O16 0.543009 0.000000 0.741616
O O17 0.542772 0.358539 0.279866
O O18 0.344975 0.000000 0.305127
O O19 0.500000 0.900675 0.000000
#
# Coordination Sequence:
#
# PCOD8090823 Si02
#       8
#     8   8   8   8   8   8   8   8
#     4   9  17  31  51  74 103 129 158 206 258 302
#     4  11  22  36  52  72 102 134 170 211 250 290
#     4  10  19  34  52  69  96 129 174 211 246 288
#     4  11  20  32  52  75 100 133 172 207 250 298
#     4   9  16  29  51  76 100 127 164 208 250 295
#     4  10  21  34  52  70  94 136 173 207 240 299
#     4   7  12  25  47  73  97 127 161 196 247 304
#     4  11  21  32  52  77 100 133 168 208 252 306
#
# _framework density 16.465530000000001
#
# number of rings (size 3 to 8) (size 9 to 14) (size 15 to 20)
#    0.000    2.250    3.750    2.250    0.000    0.500 
#    0.000    1.250    0.000    1.500    0.000    0.875 
#    0.000    4.000    0.000    0.000    0.000    0.000 
#
# Total GULP energy -396618.091121 kJ/mol
# GULP energy per Si atom -12394.315348 kJ/mol
# Density = 1.642805 g / cm^3
# Si number density = 16.465530 Si / 1000 Ang^3
#
#
#
# Elastic Constant Matrix: (Units=GPa)
#
#
# Indices 1 2 3 4 5 6 
#
# 1 156.1936 46.3812 48.8337 -0.0002 -19.3847 0.0000
# 2 46.3812 47.0804 27.4147 -0.0006 -7.9823 0.0000
# 3 48.8337 27.4147 75.6808 -0.0007 -12.2327 0.0001
# 4 -0.0002 -0.0006 -0.0007 17.9045 0.0000 -2.2842
# 5 -19.3847 -7.9823 -12.2327 0.0000 19.6131 0.0001
# 6 0.0000 0.0000 0.0001 -2.2842 0.0001 24.8376
#
#
#
# Elastic Compliance Matrix: (Units=1/GPa)
#
#
# Indices 1 2 3 4 5 6 
#
# 1 0.010194 -0.007380 -0.003071 0.000000 0.005156 0.000000
# 2 -0.007380 0.032789 -0.006826 0.000001 0.001794 0.000000
# 3 -0.003071 -0.006826 0.018603 0.000001 0.005790 0.000000
# 4 0.000000 0.000001 0.000001 0.056515 0.000000 0.005198
# 5 0.005156 0.001794 0.005790 0.000000 0.060424 0.000000
# 6 0.000000 0.000000 0.000000 0.005198 0.000000 0.040740
#
#
# Mechanical properties :
#
#
# Convention : Reuss Voigt Hill
#
# Bulk Modulus (GPa) = 36.99144 58.24597 47.61871
# Shear Modulus (GPa) = 19.02376 22.89271 20.95824
#
# Velocity S-wave (km/s) = 3.40276 3.73277 3.57158
# Velocity P-wave (km/s) = 6.16061 7.35047 6.78169
#
# Compressibility (1/GPa) = 0.02703328
#
# Stress axis : x y z
#
# Youngs Moduli (GPa) = 98.09871 30.49766 53.75402
#
# Poissons Ratio (x) = 0.22507 0.16507
# Poissons Ratio (y) = 0.72397 0.36691
# Poissons Ratio (z) = 0.30125 0.20817
#
# Static dielectric constant tensor:
#      x y z
#    x 3.412760 0.000000 -0.105680 
#    y 0.000000 2.856370 0.000000 
#    z -0.105680 0.000000 2.909640 
# 
# 
# High freq. dielectric constant tensor:
#      x y z
#    x 1.649140 0.000000 -0.002970 
#    y 0.000000 1.611260 0.000000 
#    z -0.002970 0.000000 1.611350 
# 
# From -- ./inp_files/297075.got.cif
#   From: 2010.06.25/outbox.cif.g09.slc.cpg/sg12_149_cif.got.tgz:297075.got - 2010.06.28 00:19:55.
