data_PCOD8090400
_publ_section_title
;
Structure prediction by ZEFSAII (Michael W. Deem and Ramdas Pophale) SiO2 
 PCOD8090400
Probable space group: C 2/M
;
_chemical_formula_sum "Si O2"
_cell_formula_units_Z 56
_cell_length_a 17.853410
_cell_length_b 8.830058
_cell_length_c 18.524869
_cell_angle_alpha 90.000000
_cell_angle_beta 104.246658
_cell_angle_gamma 90.000000
_cell_volume 2830.567845
_symmetry_space_group_name_H-M "C 2/M"
_symmetry_group_IT_number 12
_symmetry_cell_setting 'monoclinic'
loop_
_space_group_symop_operation_xyz
x,y,z
-x,y,-z
-x,-y,-z
x,-y,z
1/2+x,1/2+y,z
1/2-x,1/2+y,-z
1/2-x,1/2-y,-z
1/2+x,1/2-y,z
loop_
_atom_site_type_symbol
_atom_site_label
_atom_site_fract_x
_atom_site_fract_y
_atom_site_fract_z
Si Si1 0.410450 0.669793 0.497498
Si Si2 0.809633 0.322052 0.069110
Si Si3 0.265728 0.675612 0.207539
Si Si4 0.530959 0.675018 0.928220
Si Si5 0.452002 0.824358 0.646156
Si Si6 0.626299 0.177195 0.652531
Si Si7 0.089310 0.325307 0.202343
O O1 0.500000 0.672689 0.500000
O O2 0.376838 0.500000 0.486587
O O3 0.400251 0.735000 0.575582
O O4 0.365581 0.773445 0.429077
O O5 0.799548 0.500000 0.062522
O O6 0.794444 0.269791 0.146425
O O7 0.895493 0.279271 0.066724
O O8 0.750000 0.250000 0.000000
O O9 0.283124 0.500000 0.197913
O O10 0.310598 0.729739 0.288628
O O11 0.175707 0.705879 0.197475
O O12 0.554096 0.500000 0.924329
O O13 0.465346 0.715934 0.855604
O O14 0.500000 0.710237 0.000000
O O15 0.542181 0.779182 0.663863
O O16 0.418867 0.781008 0.716051
O O17 0.442526 0.000000 0.625798
O O18 0.643161 0.000000 0.663731
O O19 0.065188 0.500000 0.184403
#
# Coordination Sequence:
#
# PCOD8090400 Si02
#       7
#     8   8   8   8   8   8   8
#     4   9  17  30  51  80 111 143 183 234 289 343
#     4  12  25  42  64  89 119 154 193 236 284 338
#     4  11  23  39  59  85 118 154 194 239 287 341
#     4  11  24  41  63  91 120 151 190 236 285 340
#     4   9  18  34  55  80 109 143 187 235 286 345
#     4  10  19  33  56  83 112 149 191 237 289 346
#     4  10  22  39  59  84 116 154 192 236 290 344
#
# _framework density 19.784018
#
# number of rings (size 3 to 8) (size 9 to 14) (size 15 to 20)
#    0.000    1.714    0.000    4.714    0.000    8.571 
#    0.000    0.714    0.000    0.000    0.000    0.000 
#    0.000    0.000    0.000    0.000    0.000    0.000 
#
# Total GULP energy -347343.488336 kJ/mol
# GULP energy per Si atom -12405.124583 kJ/mol
# Density = 1.973899 g / cm^3
# Si number density = 19.784018 Si / 1000 Ang^3
#
#
#
# Elastic Constant Matrix: (Units=GPa)
#
#
# Indices 1 2 3 4 5 6 
#
# 1 77.2469 51.1842 46.7335 0.0000 1.7391 0.0000
# 2 51.1842 114.2047 54.8843 0.0000 1.6798 0.0000
# 3 46.7335 54.8843 129.0254 0.0000 -0.0200 0.0000
# 4 0.0000 0.0000 0.0000 31.2496 0.0000 13.2574
# 5 1.7391 1.6798 -0.0200 0.0000 28.9106 0.0000
# 6 0.0000 0.0000 0.0000 13.2574 0.0000 16.2722
#
#
#
# Elastic Compliance Matrix: (Units=1/GPa)
#
#
# Indices 1 2 3 4 5 6 
#
# 1 0.020207 -0.006947 -0.004364 0.000000 -0.000815 0.000000
# 2 -0.006947 0.013407 -0.003187 0.000000 -0.000363 0.000000
# 3 -0.004364 -0.003187 0.010687 0.000000 0.000455 0.000000
# 4 0.000000 0.000000 0.000000 0.048903 0.000000 -0.039843
# 5 -0.000815 -0.000363 0.000455 0.000000 0.034660 0.000000
# 6 0.000000 0.000000 0.000000 -0.039843 0.000000 0.093915
#
#
# Mechanical properties :
#
#
# Convention : Reuss Voigt Hill
#
# Bulk Modulus (GPa) = 65.33921 69.56454 67.45187
# Shear Modulus (GPa) = 19.54068 26.46482 23.00275
#
# Velocity S-wave (km/s) = 3.14618 3.66141 3.41353
# Velocity P-wave (km/s) = 6.80411 7.28786 7.05013
#
# Compressibility (1/GPa) = 0.01530475
#
# Stress axis : x y z
#
# Youngs Moduli (GPa) = 49.48689 74.59043 93.57447
#
# Poissons Ratio (x) = 0.51820 0.40837
# Poissons Ratio (y) = 0.34380 0.29818
# Poissons Ratio (z) = 0.21597 0.23769
#
# Static dielectric constant tensor:
#      x y z
#    x 3.468710 0.000000 -0.049610 
#    y 0.000000 3.702610 0.000000 
#    z -0.049610 0.000000 3.793440 
# 
# 
# High freq. dielectric constant tensor:
#      x y z
#    x 1.757460 0.000000 -0.002330 
#    y 0.000000 1.780000 0.000000 
#    z -0.002330 0.000000 1.789490 
# 
# From -- ./inp_files/275498.got.cif
#   From: 2010.06.25/outbox.cif.g09.slc.cpg/sg12_138_cif.got.tgz:275498.got - 2010.06.28 00:19:55.
