data_PCOD8090929
_publ_section_title
;
Structure prediction by ZEFSAII (Michael W. Deem and Ramdas Pophale) SiO2 
 PCOD8090929
Probable space group: C 2/M
;
_chemical_formula_sum "Si O2"
_cell_formula_units_Z 64
_cell_length_a 15.444217
_cell_length_b 22.805340
_cell_length_c 14.472448
_cell_angle_alpha 90.000000
_cell_angle_beta 40.405786
_cell_angle_gamma 90.000000
_cell_volume 3304.085888
_symmetry_space_group_name_H-M "C 2/M"
_symmetry_group_IT_number 12
_symmetry_cell_setting 'monoclinic'
loop_
_space_group_symop_operation_xyz
x,y,z
-x,y,-z
-x,-y,-z
x,-y,z
1/2+x,1/2+y,z
1/2-x,1/2+y,-z
1/2-x,1/2-y,-z
1/2+x,1/2-y,z
loop_
_atom_site_type_symbol
_atom_site_label
_atom_site_fract_x
_atom_site_fract_y
_atom_site_fract_z
Si Si1 0.485005 0.380404 0.791299
Si Si2 0.070758 0.066841 0.539779
Si Si3 0.084760 0.288576 0.559488
Si Si4 0.357565 0.566045 0.066656
Si Si5 0.769425 0.852492 0.286613
Si Si6 0.260295 0.676776 0.585153
Si Si7 0.153403 0.766735 0.161789
Si Si8 0.855850 0.728531 0.151746
O O1 0.477767 0.420558 0.704986
O O2 0.635040 0.380512 0.711583
O O3 0.451509 0.313955 0.790389
O O4 0.373930 0.404250 0.952921
O O5 0.196847 0.109496 0.445042
O O6 0.000000 0.079926 0.500000
O O7 0.120986 0.000000 0.502421
O O8 0.121166 0.332050 0.443210
O O9 0.192799 0.310777 0.543472
O O10 0.114982 0.221660 0.502747
O O11 0.933797 0.288170 0.723748
O O12 0.303970 0.500000 0.097998
O O13 0.251868 0.601189 0.216806
O O14 0.500000 0.566870 0.000000
O O15 0.847830 0.797051 0.181509
O O16 0.154204 0.687962 0.750899
O O17 0.244858 0.791955 0.168626
O O18 0.250000 0.750000 0.000000
O O19 0.000000 0.713190 0.000000
#
# Coordination Sequence:
#
# PCOD8090929 Si02
#       8
#     8   8   8   8   8   8   8   8
#     4  11  19  36  56  81 120 156 196 248 296 348
#     4  11  22  35  55  86 118 155 204 255 296 338
#     4  10  19  34  53  82 113 157 188 230 304 357
#     4   9  18  31  52  83 118 157 201 244 290 343
#     4  10  19  34  55  81 120 154 189 241 290 362
#     4  10  19  35  55  76 117 152 187 240 285 356
#     4  12  22  33  54  84 117 154 193 240 300 369
#     4  11  22  35  54  83 114 149 188 238 301 361
#
# _framework density 19.369955000000001
#
# number of rings (size 3 to 8) (size 9 to 14) (size 15 to 20)
#    0.000    1.500    2.500    6.000    0.000    2.000 
#    0.000    0.000    0.000    0.375    0.000   17.500 
#    0.000    0.000    0.000    0.000    0.000    0.000 
#
# Total GULP energy -396612.321596 kJ/mol
# GULP energy per Si atom -12394.135050 kJ/mol
# Density = 1.932587 g / cm^3
# Si number density = 19.369955 Si / 1000 Ang^3
#
#
#
# Elastic Constant Matrix: (Units=GPa)
#
#
# Indices 1 2 3 4 5 6 
#
# 1 47.9557 25.7662 25.4577 0.0177 15.6773 -0.0053
# 2 25.7662 110.2587 57.1858 -0.0151 12.6524 0.0087
# 3 25.4577 57.1858 156.2143 0.0673 20.5291 -0.0126
# 4 0.0177 -0.0151 0.0673 -130.9287 -0.0096 52.7879
# 5 15.6773 12.6524 20.5291 -0.0096 34.3211 -0.0001
# 6 -0.0053 0.0087 -0.0126 52.7879 -0.0001 7.5542
#
#
#
# Elastic Compliance Matrix: (Units=1/GPa)
#
#
# Indices 1 2 3 4 5 6 
#
# 1 0.027292 -0.004455 -0.001513 0.000003 -0.009919 -0.000002
# 2 -0.004455 0.012028 -0.003649 -0.000003 -0.000217 0.000001
# 3 -0.001513 -0.003649 0.008374 0.000003 -0.002973 -0.000004
# 4 0.000003 -0.000003 0.000003 -0.002001 -0.000003 0.013981
# 5 -0.009919 -0.000217 -0.002973 -0.000003 0.035526 0.000007
# 6 -0.000002 0.000001 -0.000004 0.013981 0.000007 0.034677
#
#
# Mechanical properties :
#
#
# Convention : Reuss Voigt Hill
#
# Bulk Modulus (GPa) = 35.13585 59.02754 47.08169
# Shear Modulus (GPa) = 34.57409 -4.07607 15.24901
#
# Velocity S-wave (km/s) = 4.22943 -1.45220 2.80884
# Velocity P-wave (km/s) = 6.48302 5.26574 5.90583
#
# Compressibility (1/GPa) = 0.02846096
#
# Stress axis : x y z
#
# Youngs Moduli (GPa) = 36.64059 83.14062 119.41118
#
# Poissons Ratio (x) = 0.37036 0.18072
# Poissons Ratio (y) = 0.16322 0.43568
# Poissons Ratio (z) = 0.05545 0.30335
#
# Static dielectric constant tensor:
#      x y z
#    x 3.574090 0.000000 0.363710 
#    y 0.000000 3.485670 0.000000 
#    z 0.363710 0.000000 3.837660 
# 
# 
# High freq. dielectric constant tensor:
#      x y z
#    x 1.746850 0.000000 0.035610 
#    y 0.000000 1.726610 0.000000 
#    z 0.035610 0.000000 1.759680 
# 
# From -- ./inp_files/218497.got.cif
#   From: 2010.06.25/outbox.cif.g09.slc.cpg/sg12_110_cif.got.tgz:218497.got - 2010.06.28 00:19:55.
