data_PCOD8090577
_publ_section_title
;
Structure prediction by ZEFSAII (Michael W. Deem and Ramdas Pophale) SiO2 
 PCOD8090577
Probable space group: C 2/M
;
_chemical_formula_sum "Si O2"
_cell_formula_units_Z 48
_cell_length_a 24.118084
_cell_length_b 9.393949
_cell_length_c 11.344719
_cell_angle_alpha 90.000000
_cell_angle_beta 109.856024
_cell_angle_gamma 90.000000
_cell_volume 2417.498520
_symmetry_space_group_name_H-M "C 2/M"
_symmetry_group_IT_number 12
_symmetry_cell_setting 'monoclinic'
loop_
_space_group_symop_operation_xyz
x,y,z
-x,y,-z
-x,-y,-z
x,-y,z
1/2+x,1/2+y,z
1/2-x,1/2+y,-z
1/2-x,1/2-y,-z
1/2+x,1/2-y,z
loop_
_atom_site_type_symbol
_atom_site_label
_atom_site_fract_x
_atom_site_fract_y
_atom_site_fract_z
Si Si1 0.513311 0.340043 0.189674
Si Si2 0.104742 0.668395 0.897303
Si Si3 0.371712 0.664999 0.864461
Si Si4 0.557645 0.661833 0.478452
Si Si5 0.233085 0.163278 0.372402
Si Si6 0.150632 0.662400 0.677414
O O1 0.486415 0.500000 0.159752
O O2 0.462016 0.224930 0.152885
O O3 0.559409 0.311700 0.117636
O O4 0.551830 0.326771 0.334946
O O5 0.103484 0.500000 0.915412
O O6 0.137683 0.713502 0.800986
O O7 0.141091 0.741241 0.029226
O O8 0.358524 0.500000 0.882957
O O9 0.328877 0.715992 0.727683
O O10 0.500000 0.727262 0.500000
O O11 0.566351 0.500000 0.527464
O O12 0.614763 0.748058 0.556509
O O13 0.250000 0.250000 0.500000
O O14 0.280871 0.183157 0.302926
O O15 0.228523 0.000000 0.409480
O O16 0.130425 0.500000 0.648671
#
# Coordination Sequence:
#
# PCOD8090577 Si02
#       6
#     8   8   8   8   8   8
#     4  10  20  36  57  83 114 148 188 236 284 331
#     4  11  23  37  55  83 117 150 188 232 281 338
#     4  10  22  39  59  81 111 151 192 233 280 332
#     4  10  19  33  57  86 113 145 190 234 274 332
#     4  10  22  42  64  86 113 147 188 234 284 338
#     4  10  22  38  57  84 119 152 184 231 289 340
#
# _framework density 19.855236000000001
#
# number of rings (size 3 to 8) (size 9 to 14) (size 15 to 20)
#    0.000    1.833    1.667    2.000    0.000    7.667 
#    0.000    0.000    0.000    0.000    0.000    0.000 
#    0.000    0.000    0.000    0.000    0.000    0.000 
#
# Total GULP energy -297675.309323 kJ/mol
# GULP energy per Si atom -12403.137888 kJ/mol
# Density = 1.981004 g / cm^3
# Si number density = 19.855236 Si / 1000 Ang^3
#
#
#
# Elastic Constant Matrix: (Units=GPa)
#
#
# Indices 1 2 3 4 5 6 
#
# 1 74.7045 32.4046 31.2887 0.0000 1.7876 0.0000
# 2 32.4046 73.3997 54.0196 0.0000 1.0978 0.0000
# 3 31.2887 54.0196 112.3284 0.0000 -2.3168 0.0000
# 4 0.0000 0.0000 0.0000 36.0079 0.0000 2.3834
# 5 1.7876 1.0978 -2.3168 0.0000 33.5727 0.0000
# 6 0.0000 0.0000 0.0000 2.3834 0.0000 26.7305
#
#
#
# Elastic Compliance Matrix: (Units=1/GPa)
#
#
# Indices 1 2 3 4 5 6 
#
# 1 0.016791 -0.006108 -0.001757 0.000000 -0.000816 0.000000
# 2 -0.006108 0.023375 -0.009562 0.000000 -0.001099 0.000000
# 3 -0.001757 -0.009562 0.014019 0.000000 0.001374 0.000000
# 4 0.000000 0.000000 0.000000 0.027937 0.000000 -0.002491
# 5 -0.000816 -0.001099 0.001374 0.000000 0.029960 0.000000
# 6 0.000000 0.000000 0.000000 -0.002491 0.000000 0.037633
#
#
# Mechanical properties :
#
#
# Convention : Reuss Voigt Hill
#
# Bulk Modulus (GPa) = 51.73173 55.09538 53.41355
# Shear Modulus (GPa) = 26.17663 28.77686 27.47674
#
# Velocity S-wave (km/s) = 3.63488 3.81114 3.72405
# Velocity P-wave (km/s) = 6.61268 6.86842 6.74176
#
# Compressibility (1/GPa) = 0.01933050
#
# Stress axis : x y z
#
# Youngs Moduli (GPa) = 59.55684 42.78165 71.33345
#
# Poissons Ratio (x) = 0.26130 0.12530
# Poissons Ratio (y) = 0.36376 0.68211
# Poissons Ratio (z) = 0.10461 0.40909
#
# Static dielectric constant tensor:
#      x y z
#    x 3.628990 0.000000 -0.107020 
#    y 0.000000 3.516170 0.000000 
#    z -0.107020 0.000000 3.649670 
# 
# 
# High freq. dielectric constant tensor:
#      x y z
#    x 1.775120 0.000000 -0.007090 
#    y 0.000000 1.762690 0.000000 
#    z -0.007090 0.000000 1.784440 
# 
# From -- ./inp_files/172384.got.cif
#   From: 2010.06.25/outbox.cif.g09.slc.cpg/sg12_87_cif.got.tgz:172384.got - 2010.06.28 00:19:55.
