data_PCOD8090971
_publ_section_title
;
Structure prediction by ZEFSAII (Michael W. Deem and Ramdas Pophale) SiO2 
 PCOD8090971
Probable space group: C 2/M
;
_chemical_formula_sum "Si O2"
_cell_formula_units_Z 64
_cell_length_a 24.037495
_cell_length_b 9.149563
_cell_length_c 29.649341
_cell_angle_alpha 90.000000
_cell_angle_beta 27.679419
_cell_angle_gamma 90.000000
_cell_volume 3029.093919
_symmetry_space_group_name_H-M "C 2/M"
_symmetry_group_IT_number 12
_symmetry_cell_setting 'monoclinic'
loop_
_space_group_symop_operation_xyz
x,y,z
-x,y,-z
-x,-y,-z
x,-y,z
1/2+x,1/2+y,z
1/2-x,1/2+y,-z
1/2-x,1/2-y,-z
1/2+x,1/2-y,z
loop_
_atom_site_type_symbol
_atom_site_label
_atom_site_fract_x
_atom_site_fract_y
_atom_site_fract_z
Si Si1 0.650948 0.327572 0.207055
Si Si2 0.920347 0.336617 0.598183
Si Si3 0.279290 0.171817 0.294648
Si Si4 0.949924 0.663998 0.400994
Si Si5 0.385884 0.668711 0.052833
Si Si6 0.452365 0.670601 0.808664
Si Si7 0.480796 0.331810 0.887334
Si Si8 0.779335 0.172703 0.385726
O O1 0.666787 0.500000 0.201089
O O2 0.522675 0.279704 0.319146
O O3 0.644145 0.274220 0.159160
O O4 0.762640 0.252646 0.152840
O O5 0.871751 0.500000 0.623543
O O6 0.808668 0.225310 0.682101
O O7 0.996636 0.333584 0.587959
O O8 0.000000 0.279506 0.500000
O O9 0.409765 0.223025 0.186062
O O10 0.234711 0.246048 0.372858
O O11 0.277664 0.000000 0.301114
O O12 0.960391 0.500000 0.372738
O O13 0.809652 0.709808 0.508377
O O14 0.366902 0.500000 0.079270
O O15 0.400042 0.692549 0.989109
O O16 0.500000 0.728409 0.000000
O O17 0.460863 0.500000 0.795402
O O18 0.413227 0.708539 0.888441
O O19 0.585960 0.731544 0.701341
O O20 0.525454 0.500000 0.852824
O O21 0.776363 0.000000 0.378020
#
# Coordination Sequence:
#
# PCOD8090971 Si02
#       8
#     8   8   8   8   8   8   8   8
#     4  11  24  40  58  86 123 156 187 238 305 357
#     4  10  19  34  54  76 106 154 207 242 278 335
#     4  11  21  31  50  85 122 148 183 237 297 348
#     4  10  21  36  57  82 111 156 208 245 278 334
#     4  10  23  43  65  89 113 146 196 246 288 345
#     4   8  17  36  62  88 116 153 196 236 285 347
#     4   9  19  39  65  85 109 152 198 239 283 339
#     4   9  17  36  60  81 111 156 204 239 273 331
#
# _framework density 21.128430999999999
#
# number of rings (size 3 to 8) (size 9 to 14) (size 15 to 20)
#    0.000    2.250    1.250    2.250    1.750    3.000 
#    0.000    5.000    0.000    0.000    0.000    0.000 
#    0.000    0.000    0.000    0.000    0.000    0.000 
#
# Total GULP energy -396541.466427 kJ/mol
# GULP energy per Si atom -12391.920826 kJ/mol
# Density = 2.108034 g / cm^3
# Si number density = 21.128431 Si / 1000 Ang^3
#
#
#
# Elastic Constant Matrix: (Units=GPa)
#
#
# Indices 1 2 3 4 5 6 
#
# 1 73.3281 14.1206 20.7107 -0.0167 -5.6950 0.0001
# 2 14.1206 72.6115 22.5171 -0.0289 -4.1530 0.0204
# 3 20.7107 22.5171 62.7488 -0.0070 3.0093 0.0014
# 4 -0.0167 -0.0289 -0.0070 21.4146 0.0132 0.7558
# 5 -5.6950 -4.1530 3.0093 0.0132 27.8348 -0.0061
# 6 0.0001 0.0204 0.0014 0.7558 -0.0061 11.1919
#
#
#
# Elastic Compliance Matrix: (Units=1/GPa)
#
#
# Indices 1 2 3 4 5 6 
#
# 1 0.015525 -0.001325 -0.004816 0.000006 0.003499 0.000004
# 2 -0.001325 0.015851 -0.005379 0.000018 0.002675 -0.000028
# 3 -0.004816 -0.005379 0.019644 -0.000002 -0.003912 0.000005
# 4 0.000006 0.000018 -0.000002 0.046809 -0.000019 -0.003161
# 5 0.003499 0.002675 -0.003912 -0.000019 0.037464 0.000017
# 6 0.000004 -0.000028 0.000005 -0.003161 0.000017 0.089564
#
#
# Mechanical properties :
#
#
# Convention : Reuss Voigt Hill
#
# Bulk Modulus (GPa) = 35.74177 35.93169 35.83673
# Shear Modulus (GPa) = 19.43836 22.17758 20.80797
#
# Velocity S-wave (km/s) = 3.03646 3.24335 3.14161
# Velocity P-wave (km/s) = 5.40801 5.57396 5.49161
#
# Compressibility (1/GPa) = 0.02797846
#
# Stress axis : x y z
#
# Youngs Moduli (GPa) = 64.41385 63.08873 50.90631
#
# Poissons Ratio (x) = 0.08362 0.24518
# Poissons Ratio (y) = 0.08537 0.27381
# Poissons Ratio (z) = 0.31023 0.33934
#
# Static dielectric constant tensor:
#      x y z
#    x 4.098020 -0.000040 -0.008890 
#    y -0.000040 3.552520 0.000040 
#    z -0.008890 0.000040 3.783280 
# 
# 
# High freq. dielectric constant tensor:
#      x y z
#    x 1.830370 0.000000 -0.003340 
#    y 0.000000 1.798550 0.000000 
#    z -0.003340 0.000000 1.821400 
# 
# From -- ./inp_files/382357.got.cif
#   From: 2010.06.25/outbox.cif.g09.slc.cpg/sg12_192_cif.got.tgz:382357.got - 2010.06.28 00:19:55.
