data_PCOD8090117
_publ_section_title
;
Structure prediction by ZEFSAII (Michael W. Deem and Ramdas Pophale) SiO2 
 PCOD8090117
Probable space group: C 2/M
;
_chemical_formula_sum "Si O2"
_cell_formula_units_Z 64
_cell_length_a 24.642982
_cell_length_b 8.873353
_cell_length_c 16.527392
_cell_angle_alpha 90.000000
_cell_angle_beta 105.671023
_cell_angle_gamma 90.000000
_cell_volume 3479.639673
_symmetry_space_group_name_H-M "C 2/M"
_symmetry_group_IT_number 12
_symmetry_cell_setting 'monoclinic'
loop_
_space_group_symop_operation_xyz
x,y,z
-x,y,-z
-x,-y,-z
x,-y,z
1/2+x,1/2+y,z
1/2-x,1/2+y,-z
1/2-x,1/2-y,-z
1/2+x,1/2-y,z
loop_
_atom_site_type_symbol
_atom_site_label
_atom_site_fract_x
_atom_site_fract_y
_atom_site_fract_z
Si Si1 0.875315 0.679707 0.229138
Si Si2 0.811472 0.822020 0.348248
Si Si3 0.084890 0.323895 0.178050
Si Si4 0.474619 0.322359 0.178302
Si Si5 0.312091 0.677961 0.700072
Si Si6 0.081880 0.329153 0.990910
Si Si7 0.308765 0.672788 0.523012
Si Si8 0.305977 0.829469 0.049016
O O1 0.879903 0.500000 0.233160
O O2 0.855334 0.743798 0.306283
O O3 0.936445 0.746704 0.232289
O O4 0.831402 0.735958 0.142790
O O5 0.749380 0.751360 0.313486
O O6 0.838322 0.787758 0.448976
O O7 0.807726 0.000000 0.329148
O O8 0.087535 0.500000 0.199357
O O9 0.145626 0.250812 0.218818
O O10 0.068427 0.294464 0.078199
O O11 0.037589 0.243271 0.213564
O O12 0.475738 0.500000 0.191897
O O13 0.451963 0.284690 0.079532
O O14 0.306738 0.500000 0.714266
O O15 0.338808 0.713044 0.620655
O O16 0.063479 0.500000 0.960079
O O17 0.148671 0.310801 0.004212
O O18 0.293674 0.500000 0.517271
O O19 0.250000 0.750000 0.500000
O O20 0.289112 0.000000 0.057497
O O21 0.250000 0.750000 0.000000
#
# Coordination Sequence:
#
# PCOD8090117 Si02
#       8
#     8   8   8   8   8   8   8   8
#     4  10  21  37  54  76 104 139 177 218 263 313
#     4  10  19  33  55  82 109 141 178 214 258 318
#     4  11  22  36  55  78 106 142 178 221 267 314
#     4  11  22  37  56  78 102 136 180 225 267 312
#     4  10  20  34  52  80 113 142 174 216 264 312
#     4   9  20  37  53  72 101 139 179 218 263 312
#     4   8  16  31  51  75 107 141 172 210 258 310
#     4   9  19  33  48  69 100 137 171 209 257 306
#
# _framework density 18.392709
#
# number of rings (size 3 to 8) (size 9 to 14) (size 15 to 20)
#    0.000    2.250    0.000    3.750    1.750    6.000 
#    0.000    0.000    0.000    0.750    0.000    5.250 
#    0.000    0.000    0.000    0.000    0.000    0.000 
#
# Total GULP energy -396598.484647 kJ/mol
# GULP energy per Si atom -12393.702645 kJ/mol
# Density = 1.835085 g / cm^3
# Si number density = 18.392709 Si / 1000 Ang^3
#
#
#
# Elastic Constant Matrix: (Units=GPa)
#
#
# Indices 1 2 3 4 5 6 
#
# 1 68.2294 30.2837 22.8049 0.0000 -18.8470 0.0000
# 2 30.2837 91.0701 34.5432 0.0000 -12.2809 0.0000
# 3 22.8049 34.5432 66.6205 0.0000 -25.7655 0.0000
# 4 0.0000 0.0000 0.0000 26.0465 0.0000 -3.4247
# 5 -18.8470 -12.2809 -25.7655 0.0000 26.1552 0.0000
# 6 0.0000 0.0000 0.0000 -3.4247 0.0000 30.0725
#
#
#
# Elastic Compliance Matrix: (Units=1/GPa)
#
#
# Indices 1 2 3 4 5 6 
#
# 1 0.020322 -0.005318 0.000806 0.000000 0.012941 0.000000
# 2 -0.005318 0.015074 -0.007658 0.000000 -0.004298 0.000000
# 3 0.000806 -0.007658 0.028334 0.000000 0.024897 0.000000
# 4 0.000000 0.000000 0.000000 0.038976 0.000000 0.004439
# 5 0.012941 -0.004298 0.024897 0.000000 0.070066 0.000000
# 6 0.000000 0.000000 0.000000 0.004439 0.000000 0.033758
#
#
# Mechanical properties :
#
#
# Convention : Reuss Voigt Hill
#
# Bulk Modulus (GPa) = 25.38726 44.57592 34.98159
# Shear Modulus (GPa) = 20.49162 25.67406 23.08284
#
# Velocity S-wave (km/s) = 3.34146 3.74020 3.54644
# Velocity P-wave (km/s) = 5.35910 6.55289 5.98583
#
# Compressibility (1/GPa) = 0.03938984
#
# Stress axis : x y z
#
# Youngs Moduli (GPa) = 49.20726 66.33889 35.29308
#
# Poissons Ratio (x) = 0.35282 -0.02844
# Poissons Ratio (y) = 0.26170 0.27027
# Poissons Ratio (z) = -0.03966 0.50801
#
# Static dielectric constant tensor:
#      x y z
#    x 3.256660 0.000000 -0.181550 
#    y 0.000000 3.381060 0.000000 
#    z -0.181550 0.000000 3.471890 
# 
# 
# High freq. dielectric constant tensor:
#      x y z
#    x 1.697380 0.000000 -0.014550 
#    y 0.000000 1.721860 0.000000 
#    z -0.014550 0.000000 1.707780 
# 
# From -- ./inp_files/291580.got.cif
#   From: 2010.06.25/outbox.cif.g09.slc.cpg/sg12_146_cif.got.tgz:291580.got - 2010.06.28 00:19:55.
