data_PCOD8090344
_publ_section_title
;
Structure prediction by ZEFSAII (Michael W. Deem and Ramdas Pophale) SiO2 
 PCOD8090344
Probable space group: C 2/M
;
_chemical_formula_sum "Si O2"
_cell_formula_units_Z 64
_cell_length_a 29.567443
_cell_length_b 13.438803
_cell_length_c 23.067729
_cell_angle_alpha 90.000000
_cell_angle_beta 157.137643
_cell_angle_gamma 90.000000
_cell_volume 3561.156588
_symmetry_space_group_name_H-M "C 2/M"
_symmetry_group_IT_number 12
_symmetry_cell_setting 'monoclinic'
loop_
_space_group_symop_operation_xyz
x,y,z
-x,y,-z
-x,-y,-z
x,-y,z
1/2+x,1/2+y,z
1/2-x,1/2+y,-z
1/2-x,1/2-y,-z
1/2+x,1/2-y,z
loop_
_atom_site_type_symbol
_atom_site_label
_atom_site_fract_x
_atom_site_fract_y
_atom_site_fract_z
Si Si1 0.427855 0.384936 0.041220
Si Si2 0.125070 0.237147 0.130477
Si Si3 0.096480 0.787328 0.869415
Si Si4 0.475534 0.616793 0.408010
Si Si5 0.701487 0.383863 0.608455
Si Si6 0.174378 0.762331 0.468085
Si Si7 0.779195 0.882312 0.091112
Si Si8 0.681773 0.388996 0.301630
O O1 0.395256 0.500000 0.988315
O O2 0.378405 0.355592 0.045273
O O3 0.568082 0.372470 0.207649
O O4 0.369797 0.306157 0.928382
O O5 0.213096 0.326974 0.246488
O O6 0.150050 0.141582 0.199356
O O7 0.000000 0.281733 0.000000
O O8 0.139596 0.852501 0.866713
O O9 0.960800 0.763593 0.705218
O O10 0.160974 0.681017 0.950431
O O11 0.500000 0.667301 0.500000
O O12 0.481813 0.500000 0.423672
O O13 0.572843 0.648749 0.476524
O O14 0.349657 0.645763 0.233159
O O15 0.726999 0.500000 0.645831
O O16 0.714580 0.356246 0.555621
O O17 0.250000 0.750000 0.500000
O O18 0.204139 0.667349 0.542002
O O19 0.750103 0.000000 0.053982
O O20 0.724388 0.500000 0.351358
#
# Coordination Sequence:
#
# PCOD8090344 Si02
#       8
#     8   8   8   8   8   8   8   8
#     4  10  19  33  56  82 108 145 191 232 277 337
#     4   9  19  34  52  78 113 142 181 230 275 339
#     4  11  22  36  59  83 112 152 190 237 290 342
#     4   9  18  34  57  82 103 139 192 238 282 337
#     4  10  21  36  57  82 112 153 191 237 293 347
#     4  11  21  36  55  83 119 149 192 237 280 348
#     4  10  22  40  58  81 113 148 191 242 292 341
#     4   9  18  33  54  77 106 147 186 227 275 327
#
# _framework density 17.971689000000001
#
# number of rings (size 3 to 8) (size 9 to 14) (size 15 to 20)
#    0.000    2.125    2.500    0.750    1.750    3.250 
#    0.000    0.000    0.000    0.000    0.000    0.875 
#    0.000    0.000    0.000    0.000    0.000    0.000 
#
# Total GULP energy -396628.314322 kJ/mol
# GULP energy per Si atom -12394.634823 kJ/mol
# Density = 1.793078 g / cm^3
# Si number density = 17.971689 Si / 1000 Ang^3
#
#
#
# Elastic Constant Matrix: (Units=GPa)
#
#
# Indices 1 2 3 4 5 6 
#
# 1 87.7247 30.6891 34.7751 0.0000 -13.5152 0.0000
# 2 30.6891 100.1679 48.8558 0.0000 1.2838 0.0000
# 3 34.7751 48.8558 106.0159 0.0000 -3.9179 0.0000
# 4 0.0000 0.0000 0.0000 14.4902 0.0000 -1.8826
# 5 -13.5152 1.2838 -3.9179 0.0000 23.9440 0.0000
# 6 0.0000 0.0000 0.0000 -1.8826 0.0000 21.2541
#
#
#
# Elastic Compliance Matrix: (Units=1/GPa)
#
#
# Indices 1 2 3 4 5 6 
#
# 1 0.015012 -0.003158 -0.003169 0.000000 0.008124 0.000000
# 2 -0.003158 0.013609 -0.005361 0.000000 -0.003389 0.000000
# 3 -0.003169 -0.005361 0.012965 0.000000 0.000620 0.000000
# 4 0.000000 0.000000 0.000000 0.069815 0.000000 0.006184
# 5 0.008124 -0.003389 0.000620 0.000000 0.046633 0.000000
# 6 0.000000 0.000000 0.000000 0.006184 0.000000 0.047597
#
#
# Mechanical properties :
#
#
# Convention : Reuss Voigt Hill
#
# Bulk Modulus (GPa) = 54.91128 58.06093 56.48610
# Shear Modulus (GPa) = 21.26964 23.91025 22.58995
#
# Velocity S-wave (km/s) = 3.44395 3.65148 3.54923
# Velocity P-wave (km/s) = 6.81432 7.08200 6.94945
#
# Compressibility (1/GPa) = 0.01821119
#
# Stress axis : x y z
#
# Youngs Moduli (GPa) = 66.61449 73.48150 77.12903
#
# Poissons Ratio (x) = 0.23205 0.24439
# Poissons Ratio (y) = 0.21036 0.41348
# Poissons Ratio (z) = 0.21108 0.39392
#
# Static dielectric constant tensor:
#      x y z
#    x 3.455800 0.000000 -0.186180 
#    y 0.000000 3.156530 0.000000 
#    z -0.186180 0.000000 3.668080 
# 
# 
# High freq. dielectric constant tensor:
#      x y z
#    x 1.696820 0.000000 -0.014940 
#    y 0.000000 1.684080 0.000000 
#    z -0.014940 0.000000 1.698380 
# 
# From -- ./inp_files/327865.got.cif
#   From: 2010.06.25/outbox.cif.g09.slc.cpg/sg12_164_cif.got.tgz:327865.got - 2010.06.28 00:19:55.
