data_PCOD8090536
_publ_section_title
;
Structure prediction by ZEFSAII (Michael W. Deem and Ramdas Pophale) SiO2 
 PCOD8090536
Probable space group: C 2/M
;
_chemical_formula_sum "Si O2"
_cell_formula_units_Z 56
_cell_length_a 18.603643
_cell_length_b 8.851804
_cell_length_c 22.697832
_cell_angle_alpha 90.000000
_cell_angle_beta 128.282671
_cell_angle_gamma 90.000000
_cell_volume 2934.024825
_symmetry_space_group_name_H-M "C 2/M"
_symmetry_group_IT_number 12
_symmetry_cell_setting 'monoclinic'
loop_
_space_group_symop_operation_xyz
x,y,z
-x,y,-z
-x,-y,-z
x,-y,z
1/2+x,1/2+y,z
1/2-x,1/2+y,-z
1/2-x,1/2-y,-z
1/2+x,1/2-y,z
loop_
_atom_site_type_symbol
_atom_site_label
_atom_site_fract_x
_atom_site_fract_y
_atom_site_fract_z
Si Si1 0.344337 0.322590 0.066804
Si Si2 0.293096 0.678114 0.787664
Si Si3 0.491203 0.679531 0.929565
Si Si4 0.819485 0.824425 0.369514
Si Si5 0.150319 0.174687 0.795860
Si Si6 0.510332 0.672086 0.626103
Si Si7 0.672782 0.822822 0.500396
O O1 0.335253 0.500000 0.053249
O O2 0.425706 0.256293 0.067709
O O3 0.367843 0.281610 0.146021
O O4 0.250000 0.250000 0.000000
O O5 0.286280 0.500000 0.773683
O O6 0.396045 0.732348 0.852725
O O7 0.261078 0.763868 0.712962
O O8 0.231664 0.721776 0.812660
O O9 0.495188 0.500000 0.933555
O O10 0.500000 0.745910 0.000000
O O11 0.917200 0.796439 0.388783
O O12 0.817447 0.734957 0.428690
O O13 0.802556 0.000000 0.373219
O O14 0.056764 0.205056 0.712734
O O15 0.179609 0.000000 0.802688
O O16 0.474681 0.500000 0.604178
O O17 0.426094 0.784095 0.576311
O O18 0.750000 0.750000 0.500000
O O19 0.686574 0.000000 0.506946
#
# Coordination Sequence:
#
# PCOD8090536 Si02
#       7
#     8   8   8   8   8   8   8
#     4  10  20  35  54  77 106 142 183 224 272 326
#     4  10  19  33  57  84 108 140 183 227 269 320
#     4   9  18  32  51  77 109 144 181 223 271 323
#     4  10  21  39  61  84 114 149 183 224 276 332
#     4   9  19  35  55  79 110 145 177 219 277 334
#     4   9  19  37  59  81 109 147 185 224 277 336
#     4  12  25  39  57  83 115 148 186 232 278 326
#
# _framework density 19.086410000000001
#
# number of rings (size 3 to 8) (size 9 to 14) (size 15 to 20)
#    0.000    2.143    0.000    4.286    0.000    7.429 
#    0.000    4.286    0.000    3.857    0.000    0.000 
#    0.000    0.000    0.000    0.000    0.000    0.000 
#
# Total GULP energy -347286.662105 kJ/mol
# GULP energy per Si atom -12403.095075 kJ/mol
# Density = 1.904297 g / cm^3
# Si number density = 19.086410 Si / 1000 Ang^3
#
#
#
# Elastic Constant Matrix: (Units=GPa)
#
#
# Indices 1 2 3 4 5 6 
#
# 1 136.8772 53.2446 99.1123 0.0000 -3.3186 0.0000
# 2 53.2446 92.7248 58.3681 0.0000 1.6776 0.0000
# 3 99.1123 58.3681 151.6053 0.0000 -0.7355 0.0000
# 4 0.0000 0.0000 0.0000 32.0826 0.0000 2.1549
# 5 -3.3186 1.6776 -0.7355 0.0000 37.2979 0.0000
# 6 0.0000 0.0000 0.0000 2.1549 0.0000 29.1083
#
#
#
# Elastic Compliance Matrix: (Units=1/GPa)
#
#
# Indices 1 2 3 4 5 6 
#
# 1 0.014586 -0.003168 -0.008310 0.000000 0.001276 0.000000
# 2 -0.003168 0.014943 -0.003687 0.000000 -0.001027 0.000000
# 3 -0.008310 -0.003687 0.013447 0.000000 -0.000308 0.000000
# 4 0.000000 0.000000 0.000000 0.031325 0.000000 -0.002319
# 5 0.001276 -0.001027 -0.000308 0.000000 0.026965 0.000000
# 6 0.000000 0.000000 0.000000 -0.002319 0.000000 0.034526
#
#
# Mechanical properties :
#
#
# Convention : Reuss Voigt Hill
#
# Bulk Modulus (GPa) = 79.07453 89.18415 84.12934
# Shear Modulus (GPa) = 29.35341 31.06324 30.20833
#
# Velocity S-wave (km/s) = 3.92589 4.03861 3.98265
# Velocity P-wave (km/s) = 7.87844 8.28101 8.08223
#
# Compressibility (1/GPa) = 0.01264630
#
# Stress axis : x y z
#
# Youngs Moduli (GPa) = 68.55746 66.92009 74.36733
#
# Poissons Ratio (x) = 0.21200 0.61799
# Poissons Ratio (y) = 0.21719 0.27420
# Poissons Ratio (z) = 0.56971 0.24674
#
# Static dielectric constant tensor:
#      x y z
#    x 3.547570 0.000000 -0.112230 
#    y 0.000000 3.385420 0.000000 
#    z -0.112230 0.000000 3.722610 
# 
# 
# High freq. dielectric constant tensor:
#      x y z
#    x 1.742880 0.000000 -0.003960 
#    y 0.000000 1.729630 0.000000 
#    z -0.003960 0.000000 1.758230 
# 
# From -- ./inp_files/342524.got.cif
#   From: 2010.06.25/outbox.cif.g09.slc.cpg/sg12_172_cif.got.tgz:342524.got - 2010.06.28 00:19:55.
