data_PCOD8090103
_publ_section_title
;
Structure prediction by ZEFSAII (Michael W. Deem and Ramdas Pophale) SiO2 
 PCOD8090103
Probable space group: C 2/M
;
_chemical_formula_sum "Si O2"
_cell_formula_units_Z 52
_cell_length_a 29.545124
_cell_length_b 19.749392
_cell_length_c 8.796146
_cell_angle_alpha 90.000000
_cell_angle_beta 30.513557
_cell_angle_gamma 90.000000
_cell_volume 2606.005069
_symmetry_space_group_name_H-M "C 2/M"
_symmetry_group_IT_number 12
_symmetry_cell_setting 'monoclinic'
loop_
_space_group_symop_operation_xyz
x,y,z
-x,y,-z
-x,-y,-z
x,-y,z
1/2+x,1/2+y,z
1/2-x,1/2+y,-z
1/2-x,1/2-y,-z
1/2+x,1/2-y,z
loop_
_atom_site_type_symbol
_atom_site_label
_atom_site_fract_x
_atom_site_fract_y
_atom_site_fract_z
Si Si1 0.104741 0.500000 0.169835
Si Si2 0.484512 0.242430 0.866271
Si Si3 0.600957 0.500000 0.755115
Si Si4 0.058085 0.108822 0.104454
Si Si5 0.840873 0.254705 0.824403
Si Si6 0.408731 0.853767 0.859400
Si Si7 0.627014 0.395988 0.227689
Si Si8 0.265977 0.500000 0.909667
O O1 0.127541 0.430736 0.012206
O O2 0.000000 0.500000 0.500000
O O3 0.161850 0.500000 0.162496
O O4 0.436989 0.311204 0.946328
O O5 0.581424 0.229692 0.518224
O O6 0.422244 0.180803 0.985529
O O7 0.500000 0.240868 0.000000
O O8 0.675437 0.500000 0.411680
O O9 0.500000 0.500000 0.000000
O O10 0.611654 0.569064 0.819958
O O11 0.101989 0.080542 0.131826
O O12 0.952810 0.090082 0.420759
O O13 0.836870 0.311020 0.969104
O O14 0.857404 0.182352 0.850207
O O15 0.750000 0.250000 0.000000
O O16 0.500000 0.853035 0.500000
O O17 0.713094 0.434188 0.046995
#
# Coordination Sequence:
#
# PCOD8090103 Si02
#       8
#     4   8   4   8   8   8   8   4
#     4  10  22  41  66  83 106 144 195 261 297 331
#     4  10  20  35  58  83 114 155 194 229 289 353
#     4  12  21  33  49  80 127 164 184 223 273 339
#     4  10  19  34  53  80 122 165 186 221 282 343
#     4  10  19  34  56  84 112 146 192 243 281 335
#     4   9  18  38  60  82 107 143 191 242 296 336
#     4  10  19  33  55  81 115 158 195 229 272 345
#     4  12  23  34  55  91 116 153 205 231 285 352
#
# _framework density 19.953913
#
# number of rings (size 3 to 8) (size 9 to 14) (size 15 to 20)
#    0.000    1.846    3.077    1.846    2.154    1.231 
#    0.000    2.692    0.000    3.692    0.000    0.000 
#    0.000    0.000    0.000    0.000    0.000    0.000 
#
# Total GULP energy -322174.156216 kJ/mol
# GULP energy per Si atom -12391.313701 kJ/mol
# Density = 1.990850 g / cm^3
# Si number density = 19.953913 Si / 1000 Ang^3
#
#
#
# Elastic Constant Matrix: (Units=GPa)
#
#
# Indices 1 2 3 4 5 6 
#
# 1 140.3362 65.4246 32.5964 0.0000 -10.4826 0.0000
# 2 65.4246 147.7911 24.5695 0.0000 2.5068 0.0000
# 3 32.5964 24.5695 33.1572 0.0000 -5.4558 0.0000
# 4 0.0000 0.0000 0.0000 10.0463 0.0000 0.9233
# 5 -10.4826 2.5068 -5.4558 0.0000 34.3442 0.0000
# 6 0.0000 0.0000 0.0000 0.9233 0.0000 35.3678
#
#
#
# Elastic Compliance Matrix: (Units=1/GPa)
#
#
# Indices 1 2 3 4 5 6 
#
# 1 0.010686 -0.003521 -0.007514 0.000000 0.002325 0.000000
# 2 -0.003521 0.008954 -0.003551 0.000000 -0.002292 0.000000
# 3 -0.007514 -0.003551 0.040912 0.000000 0.004465 0.000000
# 4 0.000000 0.000000 0.000000 0.099778 0.000000 -0.002605
# 5 0.002325 -0.002292 0.004465 0.000000 0.030703 0.000000
# 6 0.000000 0.000000 0.000000 -0.002605 0.000000 0.028342
#
#
# Mechanical properties :
#
#
# Convention : Reuss Voigt Hill
#
# Bulk Modulus (GPa) = 31.86630 62.94061 47.40346
# Shear Modulus (GPa) = 19.30442 29.19792 24.25117
#
# Velocity S-wave (km/s) = 3.11376 3.82942 3.48998
# Velocity P-wave (km/s) = 5.37884 7.15291 6.32835
#
# Compressibility (1/GPa) = 0.03138111
#
# Stress axis : x y z
#
# Youngs Moduli (GPa) = 93.57941 111.68029 24.44263
#
# Poissons Ratio (x) = 0.39321 0.18366
# Poissons Ratio (y) = 0.32948 0.08679
# Poissons Ratio (z) = 0.70314 0.39657
#
# Static dielectric constant tensor:
#      x y z
#    x 3.684120 0.000000 -0.052350 
#    y 0.000000 3.753130 0.000000 
#    z -0.052350 0.000000 3.238950 
# 
# 
# High freq. dielectric constant tensor:
#      x y z
#    x 1.789280 0.000000 -0.008930 
#    y 0.000000 1.794180 0.000000 
#    z -0.008930 0.000000 1.724510 
# 
# From -- ./inp_files/113285.got.cif
#   From: 2010.06.25/outbox.cif.g09.slc.cpg/sg12_57_cif.got.tgz:113285.got - 2010.06.28 00:19:55.
