data_PCOD8090547
_publ_section_title
;
Structure prediction by ZEFSAII (Michael W. Deem and Ramdas Pophale) SiO2 
 PCOD8090547
Probable space group: C 2/M
;
_chemical_formula_sum "Si O2"
_cell_formula_units_Z 56
_cell_length_a 19.472978
_cell_length_b 9.105255
_cell_length_c 21.179001
_cell_angle_alpha 90.000000
_cell_angle_beta 125.964017
_cell_angle_gamma 90.000000
_cell_volume 3039.384419
_symmetry_space_group_name_H-M "C 2/M"
_symmetry_group_IT_number 12
_symmetry_cell_setting 'monoclinic'
loop_
_space_group_symop_operation_xyz
x,y,z
-x,y,-z
-x,-y,-z
x,-y,z
1/2+x,1/2+y,z
1/2-x,1/2+y,-z
1/2-x,1/2-y,-z
1/2+x,1/2-y,z
loop_
_atom_site_type_symbol
_atom_site_label
_atom_site_fract_x
_atom_site_fract_y
_atom_site_fract_z
Si Si1 0.573697 0.174593 0.490891
Si Si2 0.129159 0.829690 0.199741
Si Si3 0.258204 0.671362 0.626220
Si Si4 0.400391 0.662435 0.955520
Si Si5 0.335953 0.167815 0.036353
Si Si6 0.578290 0.675198 0.361061
Si Si7 0.006955 0.670653 0.796233
O O1 0.500000 0.220273 0.500000
O O2 0.664615 0.237766 0.564362
O O3 0.555573 0.253169 0.415229
O O4 0.574365 0.000000 0.481223
O O5 0.212141 0.790559 0.286433
O O6 0.147678 0.800316 0.136240
O O7 0.052391 0.726424 0.179249
O O8 0.102967 0.000000 0.197150
O O9 0.250045 0.500000 0.612110
O O10 0.328740 0.728592 0.613920
O O11 0.371772 0.500000 0.962971
O O12 0.500000 0.664523 0.000000
O O13 0.378079 0.782846 0.994223
O O14 0.396796 0.194698 0.129138
O O15 0.313646 0.000000 0.016370
O O16 0.250000 0.250000 0.000000
O O17 0.572931 0.500000 0.362456
O O18 0.507597 0.733417 0.274206
O O19 0.987640 0.500000 0.772055
#
# Coordination Sequence:
#
# PCOD8090547 Si02
#       7
#     8   8   8   8   8   8   8
#     4  10  20  35  54  78 111 145 178 219 269 324
#     4   9  17  32  55  82 110 142 182 228 275 325
#     4   8  16  32  54  79 105 139 181 221 264 314
#     4  10  19  33  57  84 111 146 185 227 280 333
#     4  11  24  39  56  79 112 150 189 231 276 331
#     4  10  20  35  58  81 104 138 180 226 273 326
#     4  10  20  35  56  82 109 140 182 230 275 323
#
# _framework density 18.424783999999999
#
# number of rings (size 3 to 8) (size 9 to 14) (size 15 to 20)
#    0.000    2.286    1.429    2.571    0.000    2.857 
#    2.571    2.857    0.000    0.000    0.000    0.000 
#    0.000    0.000    0.000    0.000    0.000    0.000 
#
# Total GULP energy -347128.399210 kJ/mol
# GULP energy per Si atom -12397.442829 kJ/mol
# Density = 1.838285 g / cm^3
# Si number density = 18.424784 Si / 1000 Ang^3
#
#
#
# Elastic Constant Matrix: (Units=GPa)
#
#
# Indices 1 2 3 4 5 6 
#
# 1 95.2210 50.5312 65.7038 0.0000 -1.9831 0.0000
# 2 50.5312 77.2337 59.4381 0.0000 3.4285 0.0000
# 3 65.7038 59.4381 125.0668 0.0000 -9.4045 0.0000
# 4 0.0000 0.0000 0.0000 28.7590 0.0000 -5.9516
# 5 -1.9831 3.4285 -9.4045 0.0000 26.0656 0.0000
# 6 0.0000 0.0000 0.0000 -5.9516 0.0000 17.7592
#
#
#
# Elastic Compliance Matrix: (Units=1/GPa)
#
#
# Indices 1 2 3 4 5 6 
#
# 1 0.018834 -0.007442 -0.006349 0.000000 0.000121 0.000000
# 2 -0.007442 0.024434 -0.008210 0.000000 -0.006742 0.000000
# 3 -0.006349 -0.008210 0.015704 0.000000 0.006263 0.000000
# 4 0.000000 0.000000 0.000000 0.037363 0.000000 0.012521
# 5 0.000121 -0.006742 0.006263 0.000000 0.041520 0.000000
# 6 0.000000 0.000000 0.000000 0.012521 0.000000 0.060505
#
#
# Mechanical properties :
#
#
# Convention : Reuss Voigt Hill
#
# Bulk Modulus (GPa) = 66.79463 72.09641 69.44552
# Shear Modulus (GPa) = 20.21412 22.63999 21.42706
#
# Velocity S-wave (km/s) = 3.31587 3.50920 3.41390
# Velocity P-wave (km/s) = 7.14082 7.45884 7.30156
#
# Compressibility (1/GPa) = 0.01497126
#
# Stress axis : x y z
#
# Youngs Moduli (GPa) = 53.09429 40.92626 63.68002
#
# Poissons Ratio (x) = 0.30458 0.40428
# Poissons Ratio (y) = 0.39514 0.52279
# Poissons Ratio (z) = 0.33707 0.33599
#
# Static dielectric constant tensor:
#      x y z
#    x 3.160360 0.000000 0.158130 
#    y 0.000000 3.402110 0.000000 
#    z 0.158130 0.000000 3.650180 
# 
# 
# High freq. dielectric constant tensor:
#      x y z
#    x 1.692360 0.000000 -0.000760 
#    y 0.000000 1.705060 0.000000 
#    z -0.000760 0.000000 1.731000 
# 
# From -- ./inp_files/314369.got.cif
#   From: 2010.06.25/outbox.cif.g09.slc.cpg/sg12_158_cif.got.tgz:314369.got - 2010.06.28 00:19:55.
