data_PCOD8090982
_publ_section_title
;
Structure prediction by ZEFSAII (Michael W. Deem and Ramdas Pophale) SiO2 
 PCOD8090982
Probable space group: C 2/M
;
_chemical_formula_sum "Si O2"
_cell_formula_units_Z 56
_cell_length_a 18.891623
_cell_length_b 9.176121
_cell_length_c 20.357243
_cell_angle_alpha 90.000000
_cell_angle_beta 60.697410
_cell_angle_gamma 90.000000
_cell_volume 3077.423951
_symmetry_space_group_name_H-M "C 2/M"
_symmetry_group_IT_number 12
_symmetry_cell_setting 'monoclinic'
loop_
_space_group_symop_operation_xyz
x,y,z
-x,y,-z
-x,-y,-z
x,-y,z
1/2+x,1/2+y,z
1/2-x,1/2+y,-z
1/2-x,1/2-y,-z
1/2+x,1/2-y,z
loop_
_atom_site_type_symbol
_atom_site_label
_atom_site_fract_x
_atom_site_fract_y
_atom_site_fract_z
Si Si1 0.996764 0.664768 0.295849
Si Si2 0.120206 0.669188 0.768212
Si Si3 0.327240 0.657801 0.950195
Si Si4 0.501071 0.327312 0.076945
Si Si5 0.149480 0.841290 0.208438
Si Si6 0.783930 0.672817 0.709743
Si Si7 0.041398 0.330740 0.417433
O O1 0.031616 0.500000 0.273582
O O2 0.059565 0.780282 0.239833
O O3 0.984195 0.697882 0.379503
O O4 0.917715 0.683605 0.287298
O O5 0.131581 0.500000 0.782604
O O6 0.069220 0.744729 0.850151
O O7 0.205627 0.747736 0.716614
O O8 0.321342 0.500000 0.988186
O O9 0.412480 0.729233 0.934090
O O10 0.317268 0.636157 0.878163
O O11 0.250000 0.750000 0.000000
O O12 0.489020 0.500000 0.093746
O O13 0.500000 0.287690 0.000000
O O14 0.206724 0.725898 0.219502
O O15 0.147922 0.000000 0.244990
O O16 0.771972 0.500000 0.712339
O O17 0.866541 0.727197 0.635693
O O18 0.050144 0.500000 0.428130
O O19 0.000000 0.254407 0.500000
#
# Coordination Sequence:
#
# PCOD8090982 Si02
#       7
#     8   8   8   8   8   8   8
#     4   9  18  33  55  81 106 141 179 215 264 318
#     4  11  22  36  55  80 112 146 183 227 271 322
#     4  10  22  36  52  76 105 137 176 223 273 321
#     4  10  22  40  57  77 106 144 186 228 276 324
#     4  10  19  34  54  77 104 136 178 225 268 317
#     4  10  21  35  55  81 109 143 182 221 269 322
#     4   8  15  32  58  84 108 138 180 222 262 317
#
# _framework density 18.197037999999999
#
# number of rings (size 3 to 8) (size 9 to 14) (size 15 to 20)
#    0.000    2.286    1.429    2.143    2.000    2.571 
#    0.000    0.714    0.000   10.714    0.000    0.000 
#    0.000    0.000    0.000    0.000    0.000    0.000 
#
# Total GULP energy -346919.634956 kJ/mol
# GULP energy per Si atom -12389.986963 kJ/mol
# Density = 1.815562 g / cm^3
# Si number density = 18.197038 Si / 1000 Ang^3
#
#
#
# Elastic Constant Matrix: (Units=GPa)
#
#
# Indices 1 2 3 4 5 6 
#
# 1 120.3769 48.5578 61.5795 0.0000 -6.3437 -0.0002
# 2 48.5578 85.3867 45.7401 0.0000 -4.6031 -0.0004
# 3 61.5795 45.7401 113.8097 0.0000 3.9969 0.0000
# 4 0.0000 0.0000 0.0000 15.6374 0.0000 -3.3440
# 5 -6.3437 -4.6031 3.9969 0.0000 23.4746 0.0000
# 6 -0.0002 -0.0004 0.0000 -3.3440 0.0000 32.5992
#
#
#
# Elastic Compliance Matrix: (Units=1/GPa)
#
#
# Indices 1 2 3 4 5 6 
#
# 1 0.013012 -0.004290 -0.005443 0.000000 0.003602 0.000000
# 2 -0.004290 0.016716 -0.004498 0.000000 0.002884 0.000000
# 3 -0.005443 -0.004498 0.013704 0.000000 -0.004686 0.000000
# 4 0.000000 0.000000 0.000000 0.065383 0.000000 0.006707
# 5 0.003602 0.002884 -0.004686 0.000000 0.044936 0.000000
# 6 0.000000 0.000000 0.000000 0.006707 0.000000 0.031364
#
#
# Mechanical properties :
#
#
# Convention : Reuss Voigt Hill
#
# Bulk Modulus (GPa) = 66.80024 70.14757 68.47391
# Shear Modulus (GPa) = 22.87628 25.25530 24.06579
#
# Velocity S-wave (km/s) = 3.54947 3.72947 3.64058
# Velocity P-wave (km/s) = 7.32034 7.56160 7.44195
#
# Compressibility (1/GPa) = 0.01497001
#
# Stress axis : x y z
#
# Youngs Moduli (GPa) = 76.85365 59.82231 72.97132
#
# Poissons Ratio (x) = 0.25663 0.39716
# Poissons Ratio (y) = 0.32969 0.32826
# Poissons Ratio (z) = 0.41829 0.26911
#
# Static dielectric constant tensor:
#      x y z
#    x 3.374820 0.000000 -0.019300 
#    y 0.000000 3.172450 0.000000 
#    z -0.019300 0.000000 3.227640 
# 
# 
# High freq. dielectric constant tensor:
#      x y z
#    x 1.709830 0.000000 0.007690 
#    y 0.000000 1.701090 0.000000 
#    z 0.007690 0.000000 1.688960 
# 
# From -- ./inp_files/313793.got.cif
#   From: 2010.06.25/outbox.cif.g09.slc.cpg/sg12_157_cif.got.tgz:313793.got - 2010.06.28 00:19:55.
