data_PCOD8090434
_publ_section_title
;
Structure prediction by ZEFSAII (Michael W. Deem and Ramdas Pophale) SiO2 
 PCOD8090434
Probable space group: C 2/M
;
_chemical_formula_sum "Si O2"
_cell_formula_units_Z 56
_cell_length_a 31.544960
_cell_length_b 10.649971
_cell_length_c 24.859592
_cell_angle_alpha 90.000000
_cell_angle_beta 20.158209
_cell_angle_gamma 90.000000
_cell_volume 2878.092776
_symmetry_space_group_name_H-M "C 2/M"
_symmetry_group_IT_number 12
_symmetry_cell_setting 'monoclinic'
loop_
_space_group_symop_operation_xyz
x,y,z
-x,y,-z
-x,-y,-z
x,-y,z
1/2+x,1/2+y,z
1/2-x,1/2+y,-z
1/2-x,1/2-y,-z
1/2+x,1/2-y,z
loop_
_atom_site_type_symbol
_atom_site_label
_atom_site_fract_x
_atom_site_fract_y
_atom_site_fract_z
Si Si1 0.093690 0.713883 0.129044
Si Si2 0.183241 0.359064 0.545837
Si Si3 0.145407 0.143051 0.752495
Si Si4 0.089446 0.145753 0.024893
Si Si5 0.860225 0.864077 0.820473
Si Si6 0.961379 0.857916 0.485023
Si Si7 0.260351 0.852227 0.723609
O O1 0.091265 0.777552 0.189898
O O2 0.964364 0.643727 0.275389
O O3 0.115655 0.806292 0.053177
O O4 0.213067 0.625776 0.987737
O O5 0.223595 0.500000 0.517399
O O6 0.250000 0.250000 0.500000
O O7 0.227377 0.338586 0.431859
O O8 0.162579 0.185987 0.793616
O O9 0.103966 0.000000 0.804315
O O10 0.032132 0.211992 0.856655
O O11 0.203967 0.173150 0.849351
O O12 0.066864 0.000000 0.059057
O O13 0.921030 0.824613 0.691651
O O14 0.907901 0.000000 0.780645
O O15 0.869065 0.744609 0.584161
O O16 0.000000 0.852600 0.500000
O O17 0.909999 0.000000 0.533502
O O18 0.300854 0.000000 0.669364
#
# Coordination Sequence:
#
# PCOD8090434 Si02
#       7
#     8   8   8   8   8   8   8
#     4  11  21  36  58  85 116 151 194 241 286 341
#     4  11  22  37  59  86 117 151 190 236 285 341
#     4   9  18  34  55  82 114 147 184 230 285 340
#     4  10  19  33  56  84 114 150 190 234 288 345
#     4  10  22  38  57  82 115 155 196 239 292 346
#     4  10  21  39  59  79 110 153 191 231 289 347
#     4  10  20  35  59  86 111 144 190 242 286 333
#
# _framework density 19.457329999999999
#
# number of rings (size 3 to 8) (size 9 to 14) (size 15 to 20)
#    0.000    1.857    1.429    3.000    0.000    2.571 
#    0.000    5.000    0.000    0.857    0.000    0.000 
#    0.000    0.000    0.000    0.000    0.000    0.000 
#
# Total GULP energy -346887.473513 kJ/mol
# GULP energy per Si atom -12388.838340 kJ/mol
# Density = 1.941304 g / cm^3
# Si number density = 19.457330 Si / 1000 Ang^3
#
#
#
# Elastic Constant Matrix: (Units=GPa)
#
#
# Indices 1 2 3 4 5 6 
#
# 1 107.9067 38.6075 36.3409 0.0010 15.6656 -0.0002
# 2 38.6075 85.7783 46.1439 0.0042 1.8752 -0.0004
# 3 36.3409 46.1439 86.5512 0.0023 4.8157 -0.0005
# 4 0.0010 0.0042 0.0023 30.5783 -0.0006 -1.8138
# 5 15.6656 1.8752 4.8157 -0.0006 35.3342 -0.0002
# 6 -0.0002 -0.0004 -0.0005 -1.8138 -0.0002 21.7174
#
#
#
# Elastic Compliance Matrix: (Units=1/GPa)
#
#
# Indices 1 2 3 4 5 6 
#
# 1 0.012327 -0.003931 -0.002809 0.000000 -0.004874 0.000000
# 2 -0.003931 0.017603 -0.007839 -0.000002 0.001877 0.000000
# 3 -0.002809 -0.007839 0.016949 0.000000 -0.000648 0.000000
# 4 0.000000 -0.000002 0.000000 0.032866 0.000001 0.002745
# 5 -0.004874 0.001877 -0.000648 0.000001 0.030451 0.000000
# 6 0.000000 0.000000 0.000000 0.002745 0.000000 0.046275
#
#
# Mechanical properties :
#
#
# Convention : Reuss Voigt Hill
#
# Bulk Modulus (GPa) = 56.42858 58.04674 57.23766
# Shear Modulus (GPa) = 26.10488 28.13557 27.12022
#
# Velocity S-wave (km/s) = 3.66682 3.80677 3.73745
# Velocity P-wave (km/s) = 6.85504 7.01567 6.93582
#
# Compressibility (1/GPa) = 0.01772152
#
# Stress axis : x y z
#
# Youngs Moduli (GPa) = 81.12125 56.80886 59.00163
#
# Poissons Ratio (x) = 0.22329 0.16575
# Poissons Ratio (y) = 0.31885 0.46251
# Poissons Ratio (z) = 0.22789 0.44532
#
# Static dielectric constant tensor:
#      x y z
#    x 3.741400 0.000010 0.002370 
#    y 0.000010 3.483640 0.000000 
#    z 0.002370 0.000000 3.747150 
# 
# 
# High freq. dielectric constant tensor:
#      x y z
#    x 1.764890 0.000000 0.013680 
#    y 0.000000 1.737160 0.000000 
#    z 0.013680 0.000000 1.765100 
# 
# From -- ./inp_files/173924.got.cif
#   From: 2010.06.25/outbox.cif.g09.slc.cpg/sg12_87_cif.got.tgz:173924.got - 2010.06.28 00:19:55.
