data_PCOD8090088
_publ_section_title
;
Structure prediction by ZEFSAII (Michael W. Deem and Ramdas Pophale) SiO2 
 PCOD8090088
Probable space group: C 2/M
;
_chemical_formula_sum "Si O2"
_cell_formula_units_Z 56
_cell_length_a 33.331206
_cell_length_b 8.796261
_cell_length_c 14.929953
_cell_angle_alpha 90.000000
_cell_angle_beta 45.885550
_cell_angle_gamma 90.000000
_cell_volume 3142.695028
_symmetry_space_group_name_H-M "C 2/M"
_symmetry_group_IT_number 12
_symmetry_cell_setting 'monoclinic'
loop_
_space_group_symop_operation_xyz
x,y,z
-x,y,-z
-x,-y,-z
x,-y,z
1/2+x,1/2+y,z
1/2-x,1/2+y,-z
1/2-x,1/2-y,-z
1/2+x,1/2-y,z
loop_
_atom_site_type_symbol
_atom_site_label
_atom_site_fract_x
_atom_site_fract_y
_atom_site_fract_z
Si Si1 0.681986 0.320555 0.239888
Si Si2 0.599711 0.678989 0.524558
Si Si3 0.006274 0.322050 0.389094
Si Si4 0.297121 0.676698 0.112857
Si Si5 0.706323 0.674988 0.678451
Si Si6 0.169905 0.322602 0.564151
Si Si7 0.131855 0.678353 0.143937
O O1 0.676979 0.500000 0.231037
O O2 0.639578 0.262832 0.382398
O O3 0.744367 0.279844 0.171129
O O4 0.668633 0.231574 0.170247
O O5 0.599577 0.500000 0.528630
O O6 0.537226 0.737645 0.607025
O O7 0.620912 0.740471 0.586421
O O8 0.993514 0.500000 0.405294
O O9 0.067496 0.280865 0.259277
O O10 0.000000 0.260788 0.500000
O O11 0.282796 0.500000 0.118003
O O12 0.314518 0.704017 0.188677
O O13 0.349450 0.730044 0.972838
O O14 0.701076 0.500000 0.658043
O O15 0.770845 0.727094 0.570490
O O16 0.667835 0.772585 0.671308
O O17 0.159355 0.500000 0.573009
O O18 0.141229 0.500000 0.115114
#
# Coordination Sequence:
#
# PCOD8090088 Si02
#       7
#     8   8   8   8   8   8   8
#     4  11  22  35  53  80 112 147 183 222 268 321
#     4  11  22  34  55  83 113 143 179 227 272 320
#     4  10  21  38  58  78 105 143 185 227 272 321
#     4  11  22  37  56  79 112 149 182 221 268 325
#     4   9  19  34  53  79 110 143 178 218 268 323
#     4  10  19  33  55  81 110 142 178 221 270 324
#     4  11  23  38  56  78 108 146 186 227 269 322
#
# _framework density 17.819102000000001
#
# number of rings (size 3 to 8) (size 9 to 14) (size 15 to 20)
#    0.000    1.571    2.857    2.571    0.000    4.286 
#    0.000    0.000    0.000    0.857    0.000    6.000 
#    0.000    0.000    0.000    0.000    0.000    0.000 
#
# Total GULP energy -347363.109150 kJ/mol
# GULP energy per Si atom -12405.825327 kJ/mol
# Density = 1.777854 g / cm^3
# Si number density = 17.819102 Si / 1000 Ang^3
#
#
#
# Elastic Constant Matrix: (Units=GPa)
#
#
# Indices 1 2 3 4 5 6 
#
# 1 109.5949 33.2837 45.3155 0.0002 9.0313 0.0002
# 2 33.2837 48.2386 30.1687 -0.0030 2.2222 0.0007
# 3 45.3155 30.1687 91.2182 0.0000 8.0674 0.0000
# 4 0.0002 -0.0030 0.0000 26.6705 0.0004 0.5786
# 5 9.0313 2.2222 8.0674 0.0004 23.9552 0.0000
# 6 0.0002 0.0007 0.0000 0.5786 0.0000 33.5089
#
#
#
# Elastic Compliance Matrix: (Units=1/GPa)
#
#
# Indices 1 2 3 4 5 6 
#
# 1 0.012961 -0.006232 -0.004119 -0.000001 -0.002921 0.000000
# 2 -0.006232 0.029139 -0.006710 0.000003 0.001906 -0.000001
# 3 -0.004119 -0.006710 0.015497 -0.000001 -0.003044 0.000000
# 4 -0.000001 0.000003 -0.000001 0.037509 0.000000 -0.000648
# 5 -0.002921 0.001906 -0.003044 0.000000 0.043694 0.000000
# 6 0.000000 -0.000001 0.000000 -0.000648 0.000000 0.029854
#
#
# Mechanical properties :
#
#
# Convention : Reuss Voigt Hill
#
# Bulk Modulus (GPa) = 42.59841 51.84304 47.22073
# Shear Modulus (GPa) = 23.74153 26.17918 24.96036
#
# Velocity S-wave (km/s) = 3.65412 3.83713 3.74674
# Velocity P-wave (km/s) = 6.46230 6.98489 6.72867
#
# Compressibility (1/GPa) = 0.02347506
#
# Stress axis : x y z
#
# Youngs Moduli (GPa) = 77.15341 34.31854 64.52676
#
# Poissons Ratio (x) = 0.21388 0.26581
# Poissons Ratio (y) = 0.48083 0.43295
# Poissons Ratio (z) = 0.31782 0.23027
#
# Static dielectric constant tensor:
#      x y z
#    x 3.232480 0.000000 0.104980 
#    y 0.000000 3.311570 0.000000 
#    z 0.104980 0.000000 3.288950 
# 
# 
# High freq. dielectric constant tensor:
#      x y z
#    x 1.687180 0.000000 0.010050 
#    y 0.000000 1.699400 0.000000 
#    z 0.010050 0.000000 1.673010 
# 
# From -- ./inp_files/237306.got.cif
#   From: 2010.06.25/outbox.cif.g09.slc.cpg/sg12_119_cif.got.tgz:237306.got - 2010.06.28 00:19:55.
