data_PCOD8090738
_publ_section_title
;
Structure prediction by ZEFSAII (Michael W. Deem and Ramdas Pophale) SiO2 
 PCOD8090738
Probable space group: C 2/M
;
_chemical_formula_sum "Si O2"
_cell_formula_units_Z 48
_cell_length_a 10.030244
_cell_length_b 15.604918
_cell_length_c 14.768253
_cell_angle_alpha 90.000000
_cell_angle_beta 102.266204
_cell_angle_gamma 90.000000
_cell_volume 2258.773632
_symmetry_space_group_name_H-M "C 2/M"
_symmetry_group_IT_number 12
_symmetry_cell_setting 'monoclinic'
loop_
_space_group_symop_operation_xyz
x,y,z
-x,y,-z
-x,-y,-z
x,-y,z
1/2+x,1/2+y,z
1/2-x,1/2+y,-z
1/2-x,1/2-y,-z
1/2+x,1/2-y,z
loop_
_atom_site_type_symbol
_atom_site_label
_atom_site_fract_x
_atom_site_fract_y
_atom_site_fract_z
Si Si1 0.857299 0.181902 0.151093
Si Si2 0.834079 0.000000 0.378683
Si Si3 0.339420 0.000000 0.475903
Si Si4 0.563183 0.319595 0.628968
Si Si5 0.838819 0.176005 0.843902
Si Si6 0.237003 0.175657 0.375702
Si Si7 0.404867 0.500000 0.899584
Si Si8 0.661775 0.500000 0.829120
O O1 0.886376 0.177598 0.261542
O O2 0.748263 0.255027 0.111652
O O3 0.000703 0.199466 0.121687
O O4 0.791015 0.088691 0.115272
O O5 0.920352 0.914180 0.412060
O O6 0.788141 0.000000 0.267281
O O7 0.703242 0.000000 0.424910
O O8 0.500000 0.000000 0.500000
O O9 0.284973 0.083527 0.416663
O O10 0.650693 0.248869 0.586601
O O11 0.595947 0.295488 0.402949
O O12 0.787490 0.170873 0.734608
O O13 0.810507 0.084203 0.886241
O O14 0.495282 0.500000 0.818662
O O15 0.500000 0.500000 0.000000
#
# Coordination Sequence:
#
# PCOD8090738 Si02
#       8
#     8   4   4   8   8   8   4   4
#     4   8  15  30  55  82 108 141 189 229 266 335
#     4  10  21  39  57  78 109 153 197 231 289 350
#     4  12  28  41  53  82 118 149 199 254 299 331
#     4   9  19  35  61  82 103 148 194 235 288 343
#     4   9  17  34  56  83 114 149 189 227 279 338
#     4  10  21  39  60  82 115 152 193 242 289 345
#     4  10  19  33  59  90 119 149 186 229 278 337
#     4   8  16  35  55  75 108 149 185 219 275 345
#
# _framework density 21.250468999999999
#
# number of rings (size 3 to 8) (size 9 to 14) (size 15 to 20)
#    0.000    2.667    0.000    2.000    2.333    3.333 
#    3.000    4.167    0.000    0.000    0.000    5.250 
#    0.000    0.000    0.000    0.000    0.000    0.000 
#
# Total GULP energy -297401.478171 kJ/mol
# GULP energy per Si atom -12391.728257 kJ/mol
# Density = 2.120210 g / cm^3
# Si number density = 21.250469 Si / 1000 Ang^3
#
#
#
# Elastic Constant Matrix: (Units=GPa)
#
#
# Indices 1 2 3 4 5 6 
#
# 1 150.8475 97.7022 20.5861 0.0000 -3.5139 0.0000
# 2 97.7022 229.9465 17.1707 0.0000 6.3604 0.0000
# 3 20.5861 17.1707 35.2170 0.0000 -2.5418 0.0000
# 4 0.0000 0.0000 0.0000 2.8699 0.0000 3.2425
# 5 -3.5139 6.3604 -2.5418 0.0000 15.2494 0.0000
# 6 0.0000 0.0000 0.0000 3.2425 0.0000 30.1039
#
#
#
# Elastic Compliance Matrix: (Units=1/GPa)
#
#
# Indices 1 2 3 4 5 6 
#
# 1 0.009764 -0.003977 -0.003529 0.000000 0.003320 0.000000
# 2 -0.003977 0.006212 -0.000969 0.000000 -0.003669 0.000000
# 3 -0.003529 -0.000969 0.031277 0.000000 0.004804 0.000000
# 4 0.000000 0.000000 0.000000 0.396719 0.000000 -0.042730
# 5 0.003320 -0.003669 0.004804 0.000000 0.068673 0.000000
# 6 0.000000 0.000000 0.000000 -0.042730 0.000000 0.037821
#
#
# Mechanical properties :
#
#
# Convention : Reuss Voigt Hill
#
# Bulk Modulus (GPa) = 32.99886 76.32547 54.66217
# Shear Modulus (GPa) = 8.65775 28.34810 18.50293
#
# Velocity S-wave (km/s) = 2.02064 3.65636 2.95398
# Velocity P-wave (km/s) = 4.58326 7.33623 6.11664
#
# Compressibility (1/GPa) = 0.03030408
#
# Stress axis : x y z
#
# Youngs Moduli (GPa) = 102.41733 160.96666 31.97195
#
# Poissons Ratio (x) = 0.64016 0.11282
# Poissons Ratio (y) = 0.40731 0.03098
# Poissons Ratio (z) = 0.36141 0.15599
#
# Static dielectric constant tensor:
#      x y z
#    x 3.915580 0.000000 -0.191190 
#    y 0.000000 4.405490 0.000000 
#    z -0.191190 0.000000 3.512410 
# 
# 
# High freq. dielectric constant tensor:
#      x y z
#    x 1.807510 0.000000 -0.018560 
#    y 0.000000 1.854240 0.000000 
#    z -0.018560 0.000000 1.816190 
# 
# From -- ./inp_files/204550.got.cif
#   From: 2010.06.25/outbox.cif.g09.slc.cpg/sg12_103_cif.got.tgz:204550.got - 2010.06.28 00:19:55.
