data_PCOD8090684
_publ_section_title
;
Structure prediction by ZEFSAII (Michael W. Deem and Ramdas Pophale) SiO2 
 PCOD8090684
Probable space group: C 2/M
;
_chemical_formula_sum "Si O2"
_cell_formula_units_Z 56
_cell_length_a 20.588587
_cell_length_b 14.219358
_cell_length_c 19.351685
_cell_angle_alpha 90.000000
_cell_angle_beta 151.895898
_cell_angle_gamma 90.000000
_cell_volume 2668.796167
_symmetry_space_group_name_H-M "C 2/M"
_symmetry_group_IT_number 12
_symmetry_cell_setting 'monoclinic'
loop_
_space_group_symop_operation_xyz
x,y,z
-x,y,-z
-x,-y,-z
x,-y,z
1/2+x,1/2+y,z
1/2-x,1/2+y,-z
1/2-x,1/2-y,-z
1/2+x,1/2-y,z
loop_
_atom_site_type_symbol
_atom_site_label
_atom_site_fract_x
_atom_site_fract_y
_atom_site_fract_z
Si Si1 0.832514 0.111955 0.163477
Si Si2 0.258182 0.716452 0.655323
Si Si3 0.504492 0.110379 0.628880
Si Si4 0.566361 0.106886 0.837418
Si Si5 0.924097 0.894674 0.712780
Si Si6 0.262363 0.897591 0.585008
Si Si7 0.866683 0.234821 0.330373
O O1 0.843317 0.157642 0.249277
O O2 0.956695 0.140065 0.227780
O O3 0.830576 0.000000 0.173233
O O4 0.692419 0.153104 0.997710
O O5 0.149489 0.633362 0.541015
O O6 0.402743 0.678461 0.757104
O O7 0.194491 0.810048 0.559644
O O8 0.266151 0.748043 0.743460
O O9 0.537573 0.152779 0.735902
O O10 0.612471 0.161657 0.681004
O O11 0.527565 0.000000 0.645508
O O12 0.426057 0.112827 0.749459
O O13 0.609928 0.000000 0.864814
O O14 0.779410 0.894324 0.534959
O O15 0.957225 0.000000 0.771570
O O16 0.213681 0.000000 0.569115
O O17 0.000000 0.203165 0.500000
#
# Coordination Sequence:
#
# PCOD8090684 Si02
#       7
#     8   8   8   8   8   8   8
#     4  10  22  40  62  89 119 154 198 247 295 349
#     4  11  21  34  57  87 121 151 194 240 294 351
#     4  10  20  37  60  87 118 153 196 245 291 347
#     4   9  19  37  61  87 113 150 200 242 289 348
#     4  10  19  33  58  89 117 146 192 253 301 335
#     4  10  20  35  58  87 116 152 194 244 295 341
#     4  10  23  37  54  87 122 159 198 232 291 358
#
# _framework density 20.983243999999999
#
# number of rings (size 3 to 8) (size 9 to 14) (size 15 to 20)
#    0.000    2.000    1.429    2.571    2.000    4.571 
#    0.000    0.714    0.000    2.571    0.000    4.000 
#    0.000    0.000    0.000    0.000    0.000    0.000 
#
# Total GULP energy -346905.621606 kJ/mol
# GULP energy per Si atom -12389.486486 kJ/mol
# Density = 2.093549 g / cm^3
# Si number density = 20.983244 Si / 1000 Ang^3
#
#
#
# Elastic Constant Matrix: (Units=GPa)
#
#
# Indices 1 2 3 4 5 6 
#
# 1 117.6303 39.1925 29.1323 0.0004 -13.4568 0.0003
# 2 39.1925 77.0814 5.5512 0.0004 1.2143 0.0002
# 3 29.1323 5.5512 88.7052 0.0000 3.6905 0.0001
# 4 0.0004 0.0004 0.0000 16.8703 0.0005 -7.9860
# 5 -13.4568 1.2143 3.6905 0.0005 20.4461 0.0004
# 6 0.0003 0.0002 0.0001 -7.9860 0.0004 27.4129
#
#
#
# Elastic Compliance Matrix: (Units=1/GPa)
#
#
# Indices 1 2 3 4 5 6 
#
# 1 0.012731 -0.006322 -0.004181 -0.000001 0.009509 0.000000
# 2 -0.006322 0.016179 0.001286 0.000000 -0.005354 0.000000
# 3 -0.004181 0.001286 0.012780 0.000000 -0.005135 0.000000
# 4 -0.000001 0.000000 0.000000 0.068758 -0.000002 0.020031
# 5 0.009509 -0.005354 -0.005135 -0.000002 0.056412 -0.000002
# 6 0.000000 0.000000 0.000000 0.020031 -0.000002 0.042315
#
#
# Mechanical properties :
#
#
# Convention : Reuss Voigt Hill
#
# Bulk Modulus (GPa) = 42.99788 47.90765 45.45277
# Shear Modulus (GPa) = 21.24407 26.91525 24.07966
#
# Velocity S-wave (km/s) = 3.18532 3.58537 3.39125
# Velocity P-wave (km/s) = 5.83647 6.32620 6.08626
#
# Compressibility (1/GPa) = 0.02325696
#
# Stress axis : x y z
#
# Youngs Moduli (GPa) = 78.54973 61.80734 78.25010
#
# Poissons Ratio (x) = 0.39073 0.32716
# Poissons Ratio (y) = 0.49657 -0.10066
# Poissons Ratio (z) = 0.32842 -0.07951
#
# Static dielectric constant tensor:
#      x y z
#    x 3.842340 0.000000 -0.073790 
#    y 0.000000 3.821170 0.000000 
#    z -0.073790 0.000000 3.638620 
# 
# 
# High freq. dielectric constant tensor:
#      x y z
#    x 1.814720 0.000000 0.002770 
#    y 0.000000 1.831470 0.000000 
#    z 0.002770 0.000000 1.784310 
# 
# From -- ./inp_files/284604.got.cif
#   From: 2010.06.25/outbox.cif.g09.slc.cpg/sg12_143_cif.got.tgz:284604.got - 2010.06.28 00:19:55.
