data_PCOD8090962
_publ_section_title
;
Structure prediction by ZEFSAII (Michael W. Deem and Ramdas Pophale) SiO2 
 PCOD8090962
Probable space group: C 2/M
;
_chemical_formula_sum "Si O2"
_cell_formula_units_Z 56
_cell_length_a 7.791831
_cell_length_b 28.809637
_cell_length_c 14.252946
_cell_angle_alpha 90.000000
_cell_angle_beta 60.047498
_cell_angle_gamma 90.000000
_cell_volume 2772.172466
_symmetry_space_group_name_H-M "C 2/M"
_symmetry_group_IT_number 12
_symmetry_cell_setting 'monoclinic'
loop_
_space_group_symop_operation_xyz
x,y,z
-x,y,-z
-x,-y,-z
x,-y,z
1/2+x,1/2+y,z
1/2-x,1/2+y,-z
1/2-x,1/2-y,-z
1/2+x,1/2-y,z
loop_
_atom_site_type_symbol
_atom_site_label
_atom_site_fract_x
_atom_site_fract_y
_atom_site_fract_z
Si Si1 0.397516 0.231159 0.625006
Si Si2 0.573131 0.404207 0.381477
Si Si3 0.217772 0.365813 0.933135
Si Si4 0.823978 0.375542 0.854722
Si Si5 0.101104 0.150160 0.728596
Si Si6 0.332312 0.183098 0.302744
Si Si7 0.874786 0.447166 0.173392
O O1 0.500000 0.245230 0.500000
O O2 0.212089 0.196041 0.664366
O O3 0.570629 0.207436 0.634766
O O4 0.314851 0.277571 0.699784
O O5 0.500000 0.425187 0.500000
O O6 0.399881 0.386499 0.357254
O O7 0.707791 0.360374 0.372622
O O8 0.697586 0.444584 0.297416
O O9 0.369778 0.339063 0.821396
O O10 0.186600 0.418064 0.902179
O O11 0.307008 0.368010 0.014923
O O12 0.000000 0.341694 0.000000
O O13 0.700397 0.372978 0.793127
O O14 0.996651 0.335715 0.813086
O O15 0.927318 0.425888 0.833120
O O16 0.913313 0.500000 0.133739
#
# Coordination Sequence:
#
# PCOD8090962 Si02
#       7
#     8   8   8   8   8   8   8
#     4  11  20  32  52  78 110 144 184 230 268 308
#     4  10  19  34  54  75 106 145 182 222 271 321
#     4   9  18  34  57  78 104 140 174 215 267 321
#     4   9  19  34  53  77 108 142 174 220 274 320
#     4  10  20  34  54  80 109 142 183 224 266 319
#     4  10  20  32  49  76 106 141 184 224 267 318
#     4   9  19  35  56  82 107 137 178 218 263 326
#
# _framework density 20.200762999999998
#
# number of rings (size 3 to 8) (size 9 to 14) (size 15 to 20)
#    0.000    2.286    0.000    3.857    0.000    2.857 
#    0.000    3.571    0.000   16.286    0.000    0.000 
#    0.000    0.000    0.000    0.000    0.000    0.000 
#
# Total GULP energy -346926.654561 kJ/mol
# GULP energy per Si atom -12390.237663 kJ/mol
# Density = 2.015478 g / cm^3
# Si number density = 20.200763 Si / 1000 Ang^3
#
#
#
# Elastic Constant Matrix: (Units=GPa)
#
#
# Indices 1 2 3 4 5 6 
#
# 1 76.3738 13.1607 19.8768 0.0000 1.6780 0.0000
# 2 13.1607 75.7887 12.3024 0.0000 -6.9519 0.0000
# 3 19.8768 12.3024 115.9353 0.0000 6.4049 0.0000
# 4 0.0000 0.0000 0.0000 16.2494 0.0000 1.7082
# 5 1.6780 -6.9519 6.4049 0.0000 26.5643 0.0000
# 6 0.0000 0.0000 0.0000 1.7082 0.0000 19.0424
#
#
#
# Elastic Compliance Matrix: (Units=1/GPa)
#
#
# Indices 1 2 3 4 5 6 
#
# 1 0.014043 -0.002180 -0.002124 0.000000 -0.000946 0.000000
# 2 -0.002180 0.014177 -0.001361 0.000000 0.004176 0.000000
# 3 -0.002124 -0.001361 0.009270 0.000000 -0.002457 0.000000
# 4 0.000000 0.000000 0.000000 0.062127 0.000000 -0.005573
# 5 -0.000946 0.004176 -0.002457 0.000000 0.039390 0.000000
# 6 0.000000 0.000000 0.000000 -0.005573 0.000000 0.053014
#
#
# Mechanical properties :
#
#
# Convention : Reuss Voigt Hill
#
# Bulk Modulus (GPa) = 38.22865 39.86418 39.04642
# Shear Modulus (GPa) = 23.57699 27.22177 25.39938
#
# Velocity S-wave (km/s) = 3.42004 3.67490 3.54976
# Velocity P-wave (km/s) = 5.87886 6.14681 6.01433
#
# Compressibility (1/GPa) = 0.02615839
#
# Stress axis : x y z
#
# Youngs Moduli (GPa) = 71.21094 70.53555 107.87669
#
# Poissons Ratio (x) = 0.15380 0.22913
# Poissons Ratio (y) = 0.15527 0.14685
# Poissons Ratio (z) = 0.15125 0.09602
#
# Static dielectric constant tensor:
#      x y z
#    x 4.032330 0.000000 -0.090090 
#    y 0.000000 3.356980 0.000000 
#    z -0.090090 0.000000 3.834780 
# 
# 
# High freq. dielectric constant tensor:
#      x y z
#    x 1.796500 0.000000 0.002310 
#    y 0.000000 1.748590 0.000000 
#    z 0.002310 0.000000 1.802240 
# 
# From -- ./inp_files/199695.got.cif
#   From: 2010.06.25/outbox.cif.g09.slc.cpg/sg12_100_cif.got.tgz:199695.got - 2010.06.28 00:19:55.
