data_PCOD8090894
_publ_section_title
;
Structure prediction by ZEFSAII (Michael W. Deem and Ramdas Pophale) SiO2 
 PCOD8090894
Probable space group: C 2/M
;
_chemical_formula_sum "Si O2"
_cell_formula_units_Z 56
_cell_length_a 28.928361
_cell_length_b 9.188248
_cell_length_c 21.498003
_cell_angle_alpha 90.000000
_cell_angle_beta 31.341606
_cell_angle_gamma 90.000000
_cell_volume 2972.175504
_symmetry_space_group_name_H-M "C 2/M"
_symmetry_group_IT_number 12
_symmetry_cell_setting 'monoclinic'
loop_
_space_group_symop_operation_xyz
x,y,z
-x,y,-z
-x,-y,-z
x,-y,z
1/2+x,1/2+y,z
1/2-x,1/2+y,-z
1/2-x,1/2-y,-z
1/2+x,1/2-y,z
loop_
_atom_site_type_symbol
_atom_site_label
_atom_site_fract_x
_atom_site_fract_y
_atom_site_fract_z
Si Si1 0.729497 0.330706 0.377628
Si Si2 0.735187 0.167124 0.801505
Si Si3 0.383058 0.667437 0.273322
Si Si4 0.384870 0.831223 0.859753
Si Si5 0.526971 0.833066 0.037223
Si Si6 0.247523 0.668764 0.098600
Si Si7 0.065571 0.165145 0.648840
O O1 0.755991 0.500000 0.350612
O O2 0.731590 0.277206 0.303837
O O3 0.800523 0.245743 0.336750
O O4 0.631121 0.301037 0.516320
O O5 0.630505 0.189489 0.927394
O O6 0.780855 0.263870 0.802487
O O7 0.762720 0.000000 0.780196
O O8 0.380628 0.500000 0.256161
O O9 0.377486 0.687111 0.353889
O O10 0.476651 0.735456 0.145142
O O11 0.334842 0.804436 0.852443
O O12 0.484466 0.775583 0.737505
O O13 0.386615 0.000000 0.876387
O O14 0.335692 0.747267 0.971727
O O15 0.497952 0.000000 0.079951
O O16 0.500000 0.778811 0.000000
O O17 0.270136 0.500000 0.080316
O O18 0.029036 0.000000 0.687122
#
# Coordination Sequence:
#
# PCOD8090894 Si02
#       7
#     8   8   8   8   8   8   8
#     4  10  21  39  57  76 109 151 191 226 265 324
#     4  10  20  35  57  82 108 146 189 224 270 326
#     4  11  22  34  52  82 112 143 184 230 280 323
#     4  10  21  38  60  85 111 142 180 222 273 332
#     4  10  19  34  53  75 106 144 182 222 267 321
#     4  10  21  37  59  86 114 141 174 224 280 328
#     4  10  22  38  57  81 110 145 186 232 275 318
#
# _framework density 18.841417
#
# number of rings (size 3 to 8) (size 9 to 14) (size 15 to 20)
#    0.000    1.857    1.429    2.571    0.000    7.143 
#    0.000    0.714    0.000    4.286    0.000    0.000 
#    0.000    0.000    0.000    0.000    0.000    0.000 
#
# Total GULP energy -347333.307540 kJ/mol
# GULP energy per Si atom -12404.760984 kJ/mol
# Density = 1.879853 g / cm^3
# Si number density = 18.841417 Si / 1000 Ang^3
#
#
#
# Elastic Constant Matrix: (Units=GPa)
#
#
# Indices 1 2 3 4 5 6 
#
# 1 94.2172 55.4967 48.1697 0.0042 14.9355 -0.0038
# 2 55.4967 99.2123 51.6481 0.0065 4.7787 -0.0013
# 3 48.1697 51.6481 99.6088 0.0088 9.7698 -0.0056
# 4 0.0042 0.0065 0.0088 22.8868 0.0005 -1.8488
# 5 14.9355 4.7787 9.7698 0.0005 22.2177 -0.0001
# 6 -0.0038 -0.0013 -0.0056 -1.8488 -0.0001 34.9748
#
#
#
# Elastic Compliance Matrix: (Units=1/GPa)
#
#
# Indices 1 2 3 4 5 6 
#
# 1 0.018853 -0.007980 -0.004081 0.000001 -0.009163 0.000001
# 2 -0.007980 0.017185 -0.005450 -0.000001 0.004065 -0.000001
# 3 -0.004081 -0.005450 0.015106 -0.000003 -0.002727 0.000002
# 4 0.000001 -0.000001 -0.000003 0.043881 0.000000 0.002320
# 5 -0.009163 0.004065 -0.002727 0.000000 0.051494 -0.000001
# 6 0.000001 -0.000001 0.000002 0.002320 -0.000001 0.028715
#
#
# Mechanical properties :
#
#
# Convention : Reuss Voigt Hill
#
# Bulk Modulus (GPa) = 62.02662 67.07415 64.55038
# Shear Modulus (GPa) = 23.18799 25.19743 24.19271
#
# Velocity S-wave (km/s) = 3.51193 3.66094 3.58721
# Velocity P-wave (km/s) = 7.03112 7.31755 7.17577
#
# Compressibility (1/GPa) = 0.01612211
#
# Stress axis : x y z
#
# Youngs Moduli (GPa) = 53.04129 58.19110 66.19912
#
# Poissons Ratio (x) = 0.46439 0.27013
# Poissons Ratio (y) = 0.42329 0.36078
# Poissons Ratio (z) = 0.21644 0.31714
#
# Static dielectric constant tensor:
#      x y z
#    x 3.473170 -0.000010 0.201870 
#    y -0.000010 3.475830 0.000010 
#    z 0.201870 0.000010 3.439410 
# 
# 
# High freq. dielectric constant tensor:
#      x y z
#    x 1.734280 0.000000 0.011540 
#    y 0.000000 1.733090 0.000000 
#    z 0.011540 0.000000 1.725930 
# 
# From -- ./inp_files/238322.got.cif
#   From: 2010.06.25/outbox.cif.g09.slc.cpg/sg12_120_cif.got.tgz:238322.got - 2010.06.28 00:19:55.
