data_PCOD8090268
_publ_section_title
;
Structure prediction by ZEFSAII (Michael W. Deem and Ramdas Pophale) SiO2 
 PCOD8090268
Probable space group: C 2/M
;
_chemical_formula_sum "Si O2"
_cell_formula_units_Z 64
_cell_length_a 18.584004
_cell_length_b 9.068358
_cell_length_c 29.621876
_cell_angle_alpha 90.000000
_cell_angle_beta 136.928211
_cell_angle_gamma 90.000000
_cell_volume 3409.154123
_symmetry_space_group_name_H-M "C 2/M"
_symmetry_group_IT_number 12
_symmetry_cell_setting 'monoclinic'
loop_
_space_group_symop_operation_xyz
x,y,z
-x,y,-z
-x,-y,-z
x,-y,z
1/2+x,1/2+y,z
1/2-x,1/2+y,-z
1/2-x,1/2-y,-z
1/2+x,1/2-y,z
loop_
_atom_site_type_symbol
_atom_site_label
_atom_site_fract_x
_atom_site_fract_y
_atom_site_fract_z
Si Si1 0.098018 0.826483 0.516812
Si Si2 0.392927 0.329306 0.927148
Si Si3 0.667893 0.173151 0.363710
Si Si4 0.683832 0.668480 0.843865
Si Si5 0.483539 0.174930 0.785784
Si Si6 0.930799 0.826761 0.596809
Si Si7 0.869508 0.170481 0.812120
Si Si8 0.663389 0.666852 0.729255
O O1 0.209847 0.789088 0.591757
O O2 0.102419 0.766312 0.467566
O O3 0.000000 0.756010 0.500000
O O4 0.078944 0.000000 0.505150
O O5 0.367909 0.500000 0.925170
O O6 0.299520 0.233514 0.905840
O O7 0.404214 0.299001 0.879226
O O8 0.500000 0.278283 0.000000
O O9 0.595057 0.232840 0.289635
O O10 0.637826 0.246394 0.397081
O O11 0.652034 0.000000 0.362580
O O12 0.681520 0.500000 0.859431
O O13 0.600226 0.762772 0.833313
O O14 0.652448 0.682617 0.777589
O O15 0.445563 0.233097 0.816361
O O16 0.487719 0.000000 0.788233
O O17 0.053322 0.786625 0.657453
O O18 0.911594 0.000000 0.594074
O O19 0.749808 0.222127 0.749285
O O20 0.878831 0.000000 0.803120
O O21 0.695202 0.500000 0.730319
#
# Coordination Sequence:
#
# PCOD8090268 Si02
#       8
#     8   8   8   8   8   8   8   8
#     4   9  19  34  53  76 103 138 183 229 274 328
#     4   9  19  38  62  86 114 147 181 218 266 323
#     4  10  21  35  54  78 104 141 184 228 274 327
#     4  10  19  34  56  83 114 143 181 226 267 318
#     4  11  22  35  54  80 113 147 184 229 277 325
#     4  10  19  33  56  78 103 140 179 224 274 327
#     4  10  21  35  55  82 112 143 178 221 269 318
#     4   9  18  32  52  79 106 138 179 221 269 323
#
# _framework density 18.772986
#
# number of rings (size 3 to 8) (size 9 to 14) (size 15 to 20)
#    0.000    2.250    1.250    1.500    1.750    2.250 
#    0.000    0.625    0.000    0.750    0.000    0.000 
#    0.000    0.000    0.000    0.000    0.000    0.000 
#
# Total GULP energy -396857.203342 kJ/mol
# GULP energy per Si atom -12401.787604 kJ/mol
# Density = 1.873026 g / cm^3
# Si number density = 18.772986 Si / 1000 Ang^3
#
#
#
# Elastic Constant Matrix: (Units=GPa)
#
#
# Indices 1 2 3 4 5 6 
#
# 1 122.6828 50.5565 45.0626 0.0000 15.9340 0.0000
# 2 50.5565 66.3644 34.7997 0.0000 12.3381 0.0001
# 3 45.0626 34.7997 97.6450 0.0000 18.3026 0.0000
# 4 0.0000 0.0000 0.0000 19.4976 0.0000 3.5248
# 5 15.9340 12.3381 18.3026 0.0000 19.7232 0.0000
# 6 0.0000 0.0001 0.0000 3.5248 0.0000 36.0702
#
#
#
# Elastic Compliance Matrix: (Units=1/GPa)
#
#
# Indices 1 2 3 4 5 6 
#
# 1 0.012670 -0.007771 -0.002506 0.000000 -0.003049 0.000000
# 2 -0.007771 0.024039 -0.004042 0.000000 -0.005009 0.000000
# 3 -0.002506 -0.004042 0.014508 0.000000 -0.008910 0.000000
# 4 0.000000 0.000000 0.000000 0.052211 0.000000 -0.005102
# 5 -0.003049 -0.005009 -0.008910 0.000000 0.064567 0.000000
# 6 0.000000 0.000000 0.000000 -0.005102 0.000000 0.028222
#
#
# Mechanical properties :
#
#
# Convention : Reuss Voigt Hill
#
# Bulk Modulus (GPa) = 44.28899 60.83665 52.56282
# Shear Modulus (GPa) = 21.51626 25.47640 23.49633
#
# Velocity S-wave (km/s) = 3.38913 3.68785 3.54164
# Velocity P-wave (km/s) = 6.24163 7.11410 6.69210
#
# Compressibility (1/GPa) = 0.02257898
#
# Stress axis : x y z
#
# Youngs Moduli (GPa) = 78.92660 41.59878 68.92540
#
# Poissons Ratio (x) = 0.32327 0.17274
# Poissons Ratio (y) = 0.61334 0.27861
# Poissons Ratio (z) = 0.19780 0.16815
#
# Static dielectric constant tensor:
#      x y z
#    x 3.442130 0.000000 0.071090 
#    y 0.000000 3.341120 0.000000 
#    z 0.071090 0.000000 3.485180 
# 
# 
# High freq. dielectric constant tensor:
#      x y z
#    x 1.731050 0.000000 0.010370 
#    y 0.000000 1.715170 0.000000 
#    z 0.010370 0.000000 1.725920 
# 
# From -- ./inp_files/378390.got.cif
#   From: 2010.06.25/outbox.cif.g09.slc.cpg/sg12_190_cif.got.tgz:378390.got - 2010.06.28 00:19:55.
