data_PCOD8090976
_publ_section_title
;
Structure prediction by ZEFSAII (Michael W. Deem and Ramdas Pophale) SiO2 
 PCOD8090976
Probable space group: C 2/M
;
_chemical_formula_sum "Si O2"
_cell_formula_units_Z 60
_cell_length_a 27.776251
_cell_length_b 23.403983
_cell_length_c 15.374820
_cell_angle_alpha 90.000000
_cell_angle_beta 161.815045
_cell_angle_gamma 90.000000
_cell_volume 3119.226967
_symmetry_space_group_name_H-M "C 2/M"
_symmetry_group_IT_number 12
_symmetry_cell_setting 'monoclinic'
loop_
_space_group_symop_operation_xyz
x,y,z
-x,y,-z
-x,-y,-z
x,-y,z
1/2+x,1/2+y,z
1/2-x,1/2+y,-z
1/2-x,1/2-y,-z
1/2+x,1/2-y,z
loop_
_atom_site_type_symbol
_atom_site_label
_atom_site_fract_x
_atom_site_fract_y
_atom_site_fract_z
Si Si1 0.384666 0.433391 0.961797
Si Si2 0.327265 0.893322 0.849162
Si Si3 0.500000 0.349897 0.500000
Si Si4 0.158857 0.856368 0.394798
Si Si5 0.351021 0.132448 0.554838
Si Si6 0.986086 0.062972 0.631198
Si Si7 0.531825 0.742637 0.287611
Si Si8 0.774646 0.207965 0.222154
O O1 0.375720 0.500000 0.922315
O O2 0.231309 0.401849 0.664393
O O3 0.535531 0.407135 0.175617
O O4 0.402258 0.423849 0.095671
O O5 0.294167 0.870088 0.695845
O O6 0.194481 0.938640 0.647706
O O7 0.324678 0.845607 0.918533
O O8 0.509932 0.909115 0.169630
O O9 0.473800 0.389770 0.371324
O O10 0.646517 0.307892 0.735093
O O11 0.231484 0.851545 0.425186
O O12 0.075496 0.796971 0.279923
O O13 0.404488 0.193962 0.613317
O O14 0.021864 0.000000 0.654998
O O15 0.591071 0.715734 0.477863
O O16 0.346344 0.739960 0.985318
#
# Coordination Sequence:
#
# PCOD8090976 Si02
#       8
#     8   8   4   8   8   8   8   8
#     4  10  22  37  53  78 113 148 180 224 281 331
#     4   8  18  33  49  75 107 136 172 224 273 305
#     4  10  19  34  58  82  98 128 179 230 278 338
#     4  10  19  34  54  76 109 150 195 231 255 313
#     4  11  20  32  54  80 110 149 189 227 267 322
#     4   9  18  36  59  78 100 135 180 225 272 334
#     4  10  20  35  52  79 111 146 182 226 281 322
#     4   9  19  33  51  74 106 134 169 221 277 333
#
# _framework density 19.235534999999999
#
# number of rings (size 3 to 8) (size 9 to 14) (size 15 to 20)
#    0.000    2.400    0.000    3.000    0.000    2.133 
#    0.000    4.000    0.000   10.400    0.000   17.733 
#    0.000    0.000    0.000    0.000    0.000    0.000 
#
# Total GULP energy -371649.100414 kJ/mol
# GULP energy per Si atom -12388.303347 kJ/mol
# Density = 1.919175 g / cm^3
# Si number density = 19.235535 Si / 1000 Ang^3
#
#
#
# Elastic Constant Matrix: (Units=GPa)
#
#
# Indices 1 2 3 4 5 6 
#
# 1 97.2883 41.6002 41.5672 0.0000 6.8748 0.0000
# 2 41.6002 83.0778 40.4851 0.0000 -4.1155 0.0000
# 3 41.5672 40.4851 106.1782 -0.0001 -4.0804 0.0000
# 4 0.0000 0.0000 -0.0001 25.6765 0.0000 -0.5629
# 5 6.8748 -4.1155 -4.0804 0.0000 12.4397 0.0000
# 6 0.0000 0.0000 0.0000 -0.5629 0.0000 14.4931
#
#
#
# Elastic Compliance Matrix: (Units=1/GPa)
#
#
# Indices 1 2 3 4 5 6 
#
# 1 0.015652 -0.006418 -0.004147 0.000000 -0.012134 0.000000
# 2 -0.006418 0.017533 -0.003862 0.000000 0.008081 0.000000
# 3 -0.004147 -0.003862 0.012713 0.000000 0.005184 0.000000
# 4 0.000000 0.000000 0.000000 0.038979 0.000000 0.001514
# 5 -0.012134 0.008081 0.005184 0.000000 0.091467 0.000000
# 6 0.000000 0.000000 0.000000 0.001514 0.000000 0.069057
#
#
# Mechanical properties :
#
#
# Convention : Reuss Voigt Hill
#
# Bulk Modulus (GPa) = 58.66888 59.31660 58.99274
# Shear Modulus (GPa) = 17.86114 21.38132 19.62123
#
# Velocity S-wave (km/s) = 3.05052 3.33761 3.19729
# Velocity P-wave (km/s) = 6.55546 6.76438 6.66074
#
# Compressibility (1/GPa) = 0.01704481
#
# Stress axis : x y z
#
# Youngs Moduli (GPa) = 63.88896 57.03535 78.65730
#
# Poissons Ratio (x) = 0.36605 0.32617
# Poissons Ratio (y) = 0.41003 0.30379
# Poissons Ratio (z) = 0.26493 0.22028
#
# Static dielectric constant tensor:
#      x y z
#    x 3.397730 0.000000 0.090310 
#    y 0.000000 3.963810 0.000000 
#    z 0.090310 0.000000 3.962270 
# 
# 
# High freq. dielectric constant tensor:
#      x y z
#    x 1.734590 0.000000 -0.002930 
#    y 0.000000 1.741200 0.000000 
#    z -0.002930 0.000000 1.751510 
# 
# From -- ./inp_files/247457.got.cif
#   From: 2010.06.25/outbox.cif.g09.slc.cpg/sg12_124_cif.got.tgz:247457.got - 2010.06.28 00:19:55.
