data_PCOD8090463
_publ_section_title
;
Structure prediction by ZEFSAII (Michael W. Deem and Ramdas Pophale) SiO2 
 PCOD8090463
Probable space group: C 2/M
;
_chemical_formula_sum "Si O2"
_cell_formula_units_Z 64
_cell_length_a 20.496491
_cell_length_b 8.954722
_cell_length_c 22.108375
_cell_angle_alpha 90.000000
_cell_angle_beta 124.605370
_cell_angle_gamma 90.000000
_cell_volume 3339.889929
_symmetry_space_group_name_H-M "C 2/M"
_symmetry_group_IT_number 12
_symmetry_cell_setting 'monoclinic'
loop_
_space_group_symop_operation_xyz
x,y,z
-x,y,-z
-x,-y,-z
x,-y,z
1/2+x,1/2+y,z
1/2-x,1/2+y,-z
1/2-x,1/2-y,-z
1/2+x,1/2-y,z
loop_
_atom_site_type_symbol
_atom_site_label
_atom_site_fract_x
_atom_site_fract_y
_atom_site_fract_z
Si Si1 0.953755 0.324701 0.804635
Si Si2 0.555217 0.174954 0.974317
Si Si3 0.175302 0.328631 0.786227
Si Si4 0.010989 0.175933 0.711682
Si Si5 0.745783 0.829962 0.584496
Si Si6 0.781475 0.171387 0.957316
Si Si7 0.875569 0.327403 0.577609
Si Si8 0.789767 0.828077 0.739970
O O1 0.952116 0.500000 0.791210
O O2 0.867357 0.272913 0.779659
O O3 0.015397 0.283505 0.889706
O O4 0.981088 0.243667 0.758667
O O5 0.571721 0.000000 0.988196
O O6 0.500000 0.230326 0.000000
O O7 0.637978 0.258081 0.024608
O O8 0.150103 0.500000 0.761495
O O9 0.099476 0.223867 0.742874
O O10 0.214200 0.309691 0.871883
O O11 0.236344 0.273615 0.767365
O O12 0.955205 0.231867 0.627553
O O13 0.005797 0.000000 0.714142
O O14 0.812400 0.718195 0.595492
O O15 0.661385 0.795397 0.508238
O O16 0.737573 0.807091 0.651811
O O17 0.771833 0.000000 0.582600
O O18 0.797677 0.000000 0.981156
O O19 0.750000 0.250000 0.000000
O O20 0.896791 0.500000 0.597910
O O21 0.815922 0.000000 0.761982
#
# Coordination Sequence:
#
# PCOD8090463 Si02
#       8
#     8   8   8   8   8   8   8   8
#     4  11  22  36  58  86 114 147 188 233 284 338
#     4  10  22  39  58  83 116 149 183 229 284 343
#     4  10  23  41  59  82 115 151 188 234 288 342
#     4  12  24  38  57  83 113 150 195 239 282 331
#     4   9  18  33  56  87 117 148 186 228 279 338
#     4  11  23  39  60  84 111 148 193 237 284 340
#     4  10  19  33  56  85 117 150 186 232 282 331
#     4  10  20  37  60  86 116 149 186 232 284 340
#
# _framework density 19.162307999999999
#
# number of rings (size 3 to 8) (size 9 to 14) (size 15 to 20)
#    0.000    1.625    1.250    3.750    0.000    6.250 
#    0.000    0.625    0.000    3.750    0.000    0.000 
#    0.000    0.000    0.000    0.000    0.000    0.000 
#
# Total GULP energy -396940.170440 kJ/mol
# GULP energy per Si atom -12404.380326 kJ/mol
# Density = 1.911869 g / cm^3
# Si number density = 19.162308 Si / 1000 Ang^3
#
#
#
# Elastic Constant Matrix: (Units=GPa)
#
#
# Indices 1 2 3 4 5 6 
#
# 1 84.7748 29.9522 11.9183 0.0000 9.6268 0.0000
# 2 29.9522 81.5008 28.3681 0.0000 12.2858 0.0000
# 3 11.9183 28.3681 56.3984 0.0000 11.0851 0.0000
# 4 0.0000 0.0000 0.0000 25.5034 0.0000 5.2754
# 5 9.6268 12.2858 11.0851 0.0000 32.6680 0.0000
# 6 0.0000 0.0000 0.0000 5.2754 0.0000 36.1352
#
#
#
# Elastic Compliance Matrix: (Units=1/GPa)
#
#
# Indices 1 2 3 4 5 6 
#
# 1 0.013714 -0.004662 -0.000111 0.000000 -0.002250 0.000000
# 2 -0.004662 0.016793 -0.006954 0.000000 -0.002582 0.000000
# 3 -0.000111 -0.006954 0.022213 0.000000 -0.004890 0.000000
# 4 0.000000 0.000000 0.000000 0.040431 0.000000 -0.005903
# 5 -0.002250 -0.002582 -0.004890 0.000000 0.033904 0.000000
# 6 0.000000 0.000000 0.000000 -0.005903 0.000000 0.028536
#
#
# Mechanical properties :
#
#
# Convention : Reuss Voigt Hill
#
# Bulk Modulus (GPa) = 34.16885 40.35013 37.25949
# Shear Modulus (GPa) = 26.48284 29.02370 27.75327
#
# Velocity S-wave (km/s) = 3.72160 3.89604 3.80982
# Velocity P-wave (km/s) = 6.02802 6.42974 6.23212
#
# Compressibility (1/GPa) = 0.02926642
#
# Stress axis : x y z
#
# Youngs Moduli (GPa) = 72.91631 59.54875 45.01814
#
# Poissons Ratio (x) = 0.27764 0.00498
# Poissons Ratio (y) = 0.33996 0.31306
# Poissons Ratio (z) = 0.00807 0.41410
#
# Static dielectric constant tensor:
#      x y z
#    x 3.444770 0.000000 0.048160 
#    y 0.000000 3.556000 0.000000 
#    z 0.048160 0.000000 3.788090 
# 
# 
# High freq. dielectric constant tensor:
#      x y z
#    x 1.734400 0.000000 0.004250 
#    y 0.000000 1.748960 0.000000 
#    z 0.004250 0.000000 1.761470 
# 
# From -- ./inp_files/320171.got.cif
#   From: 2010.06.25/outbox.cif.g09.slc.cpg/sg12_161_cif.got.tgz:320171.got - 2010.06.28 00:19:55.
