data_PCOD8090375
_publ_section_title
;
Structure prediction by ZEFSAII (Michael W. Deem and Ramdas Pophale) SiO2 
 PCOD8090375
Probable space group: C 2/M
;
_chemical_formula_sum "Si O2"
_cell_formula_units_Z 40
_cell_length_a 20.245048
_cell_length_b 9.034439
_cell_length_c 11.723272
_cell_angle_alpha 90.000000
_cell_angle_beta 100.182847
_cell_angle_gamma 90.000000
_cell_volume 2110.443056
_symmetry_space_group_name_H-M "C 2/M"
_symmetry_group_IT_number 12
_symmetry_cell_setting 'monoclinic'
loop_
_space_group_symop_operation_xyz
x,y,z
-x,y,-z
-x,-y,-z
x,-y,z
1/2+x,1/2+y,z
1/2-x,1/2+y,-z
1/2-x,1/2-y,-z
1/2+x,1/2-y,z
loop_
_atom_site_type_symbol
_atom_site_label
_atom_site_fract_x
_atom_site_fract_y
_atom_site_fract_z
Si Si1 0.986582 0.328813 0.126570
Si Si2 0.749275 0.166694 0.746559
Si Si3 0.376020 0.325117 0.231735
Si Si4 0.876764 0.326472 0.706442
Si Si5 0.364902 0.166713 0.447241
O O1 0.967024 0.500000 0.137345
O O2 0.925287 0.227836 0.147655
O O3 0.051767 0.287136 0.219297
O O4 0.000000 0.291022 0.000000
O O5 0.698218 0.256012 0.814635
O O6 0.820944 0.244888 0.764487
O O7 0.714607 0.165195 0.609758
O O8 0.758681 0.000000 0.795946
O O9 0.371197 0.500000 0.230953
O O10 0.403273 0.266599 0.363845
O O11 0.860625 0.500000 0.704984
O O12 0.875184 0.266630 0.576127
O O13 0.394613 0.000000 0.450247
#
# Coordination Sequence:
#
# PCOD8090375 Si02
#       5
#     8   8   8   8   8
#     4  10  22  40  58  76 104 142 182 224 268 313
#     4   9  18  33  54  82 114 142 170 212 266 322
#     4  10  20  35  56  79 109 143 177 218 263 316
#     4  10  19  33  56  83 109 141 179 216 261 317
#     4   8  17  32  53  81 113 142 169 211 266 320
#
# _framework density 18.953365999999999
#
# number of rings (size 3 to 8) (size 9 to 14) (size 15 to 20)
#    1.200    1.400    0.000    2.400    0.000    2.800 
#    0.000    5.000    0.000    0.000    0.000    0.000 
#    0.000    0.000    0.000    0.000    0.000    0.000 
#
# Total GULP energy -247867.623138 kJ/mol
# GULP energy per Si atom -12393.381157 kJ/mol
# Density = 1.891023 g / cm^3
# Si number density = 18.953366 Si / 1000 Ang^3
#
#
#
# Elastic Constant Matrix: (Units=GPa)
#
#
# Indices 1 2 3 4 5 6 
#
# 1 68.3440 47.7073 25.0027 0.0000 -33.9687 0.0000
# 2 47.7073 113.1616 27.7819 0.0000 -26.3267 0.0000
# 3 25.0027 27.7819 37.4115 0.0000 -18.8295 0.0000
# 4 0.0000 0.0000 0.0000 17.0225 0.0000 -10.9146
# 5 -33.9687 -26.3267 -18.8295 0.0000 23.0895 0.0000
# 6 0.0000 0.0000 0.0000 -10.9146 0.0000 34.3310
#
#
#
# Elastic Compliance Matrix: (Units=1/GPa)
#
#
# Indices 1 2 3 4 5 6 
#
# 1 0.059271 -0.007104 0.009285 0.000000 0.086670 0.000000
# 2 -0.007104 0.013146 -0.004632 0.000000 0.000761 0.000000
# 3 0.009285 -0.004632 0.047801 0.000000 0.047361 0.000000
# 4 0.000000 0.000000 0.000000 0.073787 0.000000 0.023459
# 5 0.086670 0.000761 0.047361 0.000000 0.210306 0.000000
# 6 0.000000 0.000000 0.000000 0.023459 0.000000 0.036586
#
#
# Mechanical properties :
#
#
# Convention : Reuss Voigt Hill
#
# Bulk Modulus (GPa) = 8.67176 46.65567 27.66371
# Shear Modulus (GPa) = 10.32555 22.78362 16.55459
#
# Velocity S-wave (km/s) = 2.33660 3.47088 2.95860
# Velocity P-wave (km/s) = 3.44454 6.38217 5.12820
#
# Compressibility (1/GPa) = 0.11531690
#
# Stress axis : x y z
#
# Youngs Moduli (GPa) = 16.87172 76.06922 20.92026
#
# Poissons Ratio (x) = 0.54038 -0.19425
# Poissons Ratio (y) = 0.11985 0.09689
# Poissons Ratio (z) = -0.15666 0.35232
#
# Static dielectric constant tensor:
#      x y z
#    x 3.227230 0.000000 -0.018290 
#    y 0.000000 3.326020 0.000000 
#    z -0.018290 0.000000 3.263660 
# 
# 
# High freq. dielectric constant tensor:
#      x y z
#    x 1.724640 0.000000 -0.008460 
#    y 0.000000 1.731430 0.000000 
#    z -0.008460 0.000000 1.713160 
# 
# From -- ./inp_files/162515.got.cif
#   From: 2010.06.25/outbox.cif.g09.slc.cpg/sg12_82_cif.got.tgz:162515.got - 2010.06.28 00:19:55.
