data_PCOD8090060
_publ_section_title
;
Structure prediction by ZEFSAII (Michael W. Deem and Ramdas Pophale) SiO2 
 PCOD8090060
Probable space group: C 2/M
;
_chemical_formula_sum "Si O2"
_cell_formula_units_Z 64
_cell_length_a 28.568305
_cell_length_b 9.473235
_cell_length_c 13.906243
_cell_angle_alpha 90.000000
_cell_angle_beta 61.251367
_cell_angle_gamma 90.000000
_cell_volume 3299.609487
_symmetry_space_group_name_H-M "C 2/M"
_symmetry_group_IT_number 12
_symmetry_cell_setting 'monoclinic'
loop_
_space_group_symop_operation_xyz
x,y,z
-x,y,-z
-x,-y,-z
x,-y,z
1/2+x,1/2+y,z
1/2-x,1/2+y,-z
1/2-x,1/2-y,-z
1/2+x,1/2-y,z
loop_
_atom_site_type_symbol
_atom_site_label
_atom_site_fract_x
_atom_site_fract_y
_atom_site_fract_z
Si Si1 0.621895 0.661788 0.448505
Si Si2 0.794908 0.334123 0.900064
Si Si3 0.948430 0.661297 0.609368
Si Si4 0.290832 0.662190 0.395579
Si Si5 0.213883 0.340795 0.311668
Si Si6 0.092212 0.162323 0.686025
Si Si7 0.509309 0.666323 0.101869
Si Si8 0.586418 0.838114 0.149516
O O1 0.630651 0.500000 0.413374
O O2 0.598994 0.739712 0.378359
O O3 0.678531 0.735699 0.412354
O O4 0.584363 0.680197 0.579062
O O5 0.785518 0.500000 0.923073
O O6 0.786597 0.289794 0.797599
O O7 0.853642 0.290924 0.880694
O O8 0.750000 0.250000 0.000000
O O9 0.934214 0.500000 0.597671
O O10 0.952915 0.680376 0.719465
O O11 0.000000 0.711667 0.500000
O O12 0.292163 0.500000 0.432984
O O13 0.250000 0.750000 0.500000
O O14 0.272553 0.666001 0.301684
O O15 0.350566 0.728559 0.340045
O O16 0.190832 0.500000 0.340943
O O17 0.041864 0.230926 0.790451
O O18 0.093162 0.000000 0.716331
O O19 0.516841 0.500000 0.112183
O O20 0.563012 0.742361 0.086906
O O21 0.500000 0.701886 0.000000
O O22 0.586546 0.000000 0.114793
#
# Coordination Sequence:
#
# PCOD8090060 Si02
#       8
#     8   8   8   8   8   8   8   8
#     4  11  20  31  53  81 115 150 181 232 287 336
#     4  10  22  40  60  85 117 152 192 238 283 335
#     4  10  20  35  56  82 114 152 190 228 279 346
#     4  10  19  33  55  80 112 152 189 233 287 341
#     4  10  20  36  57  80 112 152 190 231 281 339
#     4   9  19  35  53  82 119 148 184 240 293 332
#     4  10  22  40  62  85 111 149 197 241 281 338
#     4  10  21  39  60  84 117 150 184 236 290 334
#
# _framework density 19.396232999999999
#
# number of rings (size 3 to 8) (size 9 to 14) (size 15 to 20)
#    0.000    2.000    2.500    1.125    0.000    3.000 
#    0.000    3.750    0.000    0.000    0.000    0.000 
#    0.000    0.000    0.000    0.000    0.000    0.000 
#
# Total GULP energy -396685.631579 kJ/mol
# GULP energy per Si atom -12396.425987 kJ/mol
# Density = 1.935209 g / cm^3
# Si number density = 19.396233 Si / 1000 Ang^3
#
#
#
# Elastic Constant Matrix: (Units=GPa)
#
#
# Indices 1 2 3 4 5 6 
#
# 1 118.1987 38.1050 40.5767 0.0000 10.1463 0.0000
# 2 38.1050 57.3582 33.5635 0.0000 2.5105 0.0000
# 3 40.5767 33.5635 90.8003 0.0000 -3.2345 0.0000
# 4 0.0000 0.0000 0.0000 26.2290 0.0000 -3.0208
# 5 10.1463 2.5105 -3.2345 0.0000 29.8414 0.0000
# 6 0.0000 0.0000 0.0000 -3.0208 0.0000 25.8671
#
#
#
# Elastic Compliance Matrix: (Units=1/GPa)
#
#
# Indices 1 2 3 4 5 6 
#
# 1 0.011765 -0.005728 -0.003278 0.000000 -0.003874 0.000000
# 2 -0.005728 0.025266 -0.006812 0.000000 -0.000916 0.000000
# 3 -0.003278 -0.006812 0.015115 0.000000 0.003326 0.000000
# 4 0.000000 0.000000 0.000000 0.038646 0.000000 0.004513
# 5 -0.003874 -0.000916 0.003326 0.000000 0.035265 0.000000
# 6 0.000000 0.000000 0.000000 0.004513 0.000000 0.039186
#
#
# Mechanical properties :
#
#
# Convention : Reuss Voigt Hill
#
# Bulk Modulus (GPa) = 48.75987 54.53862 51.64924
# Shear Modulus (GPa) = 24.54408 26.66164 25.60286
#
# Velocity S-wave (km/s) = 3.56111 3.71155 3.63711
# Velocity P-wave (km/s) = 6.48861 6.82251 6.65766
#
# Compressibility (1/GPa) = 0.02050867
#
# Stress axis : x y z
#
# Youngs Moduli (GPa) = 84.99944 39.57901 66.16101
#
# Poissons Ratio (x) = 0.22671 0.21688
# Poissons Ratio (y) = 0.48688 0.45070
# Poissons Ratio (z) = 0.27864 0.26962
#
# Static dielectric constant tensor:
#      x y z
#    x 3.714690 0.000000 -0.054790 
#    y 0.000000 3.369600 0.000000 
#    z -0.054790 0.000000 3.466270 
# 
# 
# High freq. dielectric constant tensor:
#      x y z
#    x 1.765360 0.000000 0.004100 
#    y 0.000000 1.736530 0.000000 
#    z 0.004100 0.000000 1.744260 
# 
# From -- ./inp_files/248951.got.cif
#   From: 2010.06.25/outbox.cif.g09.slc.cpg/sg12_125_cif.got.tgz:248951.got - 2010.06.28 00:19:55.
