data_PCOD8090295
_publ_section_title
;
Structure prediction by ZEFSAII (Michael W. Deem and Ramdas Pophale) SiO2 
 PCOD8090295
Probable space group: C 2/M
;
_chemical_formula_sum "Si O2"
_cell_formula_units_Z 56
_cell_length_a 15.012541
_cell_length_b 25.113972
_cell_length_c 8.899519
_cell_angle_alpha 90.000000
_cell_angle_beta 115.632314
_cell_angle_gamma 90.000000
_cell_volume 3025.133906
_symmetry_space_group_name_H-M "C 2/M"
_symmetry_group_IT_number 12
_symmetry_cell_setting 'monoclinic'
loop_
_space_group_symop_operation_xyz
x,y,z
-x,y,-z
-x,-y,-z
x,-y,z
1/2+x,1/2+y,z
1/2-x,1/2+y,-z
1/2-x,1/2-y,-z
1/2+x,1/2-y,z
loop_
_atom_site_type_symbol
_atom_site_label
_atom_site_fract_x
_atom_site_fract_y
_atom_site_fract_z
Si Si1 0.110177 0.335844 0.031540
Si Si2 0.898374 0.195052 0.352516
Si Si3 0.252327 0.857942 0.591808
Si Si4 0.711589 0.800513 0.683588
Si Si5 0.102265 0.214884 0.985798
Si Si6 0.588005 0.110286 0.724953
Si Si7 0.122692 0.560656 0.464449
O O1 0.124720 0.277259 0.969241
O O2 0.132485 0.382618 0.924839
O O3 0.175366 0.341321 0.223392
O O4 0.000000 0.344037 0.000000
O O5 0.857113 0.142689 0.411850
O O6 0.815368 0.238928 0.326980
O O7 0.907775 0.185026 0.181451
O O8 0.000000 0.213219 0.500000
O O9 0.258933 0.814868 0.464331
O O10 0.280900 0.916631 0.550584
O O11 0.614941 0.834441 0.660467
O O12 0.807507 0.811923 0.858154
O O13 0.000000 0.207521 0.000000
O O14 0.637891 0.063931 0.657836
O O15 0.470605 0.098290 0.646527
O O16 0.104820 0.500000 0.402048
#
# Coordination Sequence:
#
# PCOD8090295 Si02
#       7
#     8   8   8   8   8   8   8
#     4  11  20  32  51  80 115 157 191 234 279 338
#     4  12  24  34  54  83 119 154 199 239 281 349
#     4  11  23  37  56  81 117 154 195 244 295 340
#     4  11  22  35  54  82 119 162 196 228 282 351
#     4  11  23  37  54  78 121 165 207 230 273 344
#     4  10  19  33  56  80 113 149 188 232 292 340
#     4  10  22  40  60  82 111 153 203 250 299 357
#
# _framework density 18.511579000000001
#
# number of rings (size 3 to 8) (size 9 to 14) (size 15 to 20)
#    0.000    1.143    4.286    3.429    8.000    0.000 
#    0.000    2.143    0.000    0.429    0.000    0.000 
#    0.000   20.571    0.000    0.000    0.000    0.000 
#
# Total GULP energy -346946.403851 kJ/mol
# GULP energy per Si atom -12390.942995 kJ/mol
# Density = 1.846945 g / cm^3
# Si number density = 18.511579 Si / 1000 Ang^3
#
#
#
# Elastic Constant Matrix: (Units=GPa)
#
#
# Indices 1 2 3 4 5 6 
#
# 1 76.8006 47.7295 51.5900 0.0000 -6.7366 0.0000
# 2 47.7295 62.8608 25.6729 0.0000 -6.0003 0.0000
# 3 51.5900 25.6729 143.7273 0.0000 -13.5856 0.0000
# 4 0.0000 0.0000 0.0000 15.0773 0.0000 -2.7110
# 5 -6.7366 -6.0003 -13.5856 0.0000 33.0277 0.0000
# 6 0.0000 0.0000 0.0000 -2.7110 0.0000 15.9198
#
#
#
# Elastic Compliance Matrix: (Units=1/GPa)
#
#
# Indices 1 2 3 4 5 6 
#
# 1 0.030469 -0.020167 -0.007380 0.000000 -0.000485 0.000000
# 2 -0.020167 0.030627 0.001982 0.000000 0.002266 0.000000
# 3 -0.007380 0.001982 0.009514 0.000000 0.002768 0.000000
# 4 0.000000 0.000000 0.000000 0.068420 0.000000 0.011651
# 5 -0.000485 0.002266 0.002768 0.000000 0.031729 0.000000
# 6 0.000000 0.000000 0.000000 0.011651 0.000000 0.064799
#
#
# Mechanical properties :
#
#
# Convention : Reuss Voigt Hill
#
# Bulk Modulus (GPa) = 51.33218 59.26373 55.29796
# Shear Modulus (GPa) = 17.05425 23.36470 20.20948
#
# Velocity S-wave (km/s) = 3.03854 3.55655 3.30770
# Velocity P-wave (km/s) = 6.33248 6.99638 6.67269
#
# Compressibility (1/GPa) = 0.01948096
#
# Stress axis : x y z
#
# Youngs Moduli (GPa) = 32.82035 32.65052 105.10498
#
# Poissons Ratio (x) = 0.65846 0.77569
# Poissons Ratio (y) = 0.66188 -0.20834
# Poissons Ratio (z) = 0.24222 -0.06472
#
# Static dielectric constant tensor:
#      x y z
#    x 3.487520 0.000000 -0.302140 
#    y 0.000000 3.075930 0.000000 
#    z -0.302140 0.000000 3.503360 
# 
# 
# High freq. dielectric constant tensor:
#      x y z
#    x 1.725930 0.000000 -0.020060 
#    y 0.000000 1.661330 0.000000 
#    z -0.020060 0.000000 1.728590 
# 
# From -- ./inp_files/66493.got.cif
#   From: 2010.06.25/outbox.cif.g09.slc.cpg/sg12_34_cif.got.tgz:66493.got - 2010.06.28 00:19:55.
