data_PCOD8090687
_publ_section_title
;
Structure prediction by ZEFSAII (Michael W. Deem and Ramdas Pophale) SiO2 
 PCOD8090687
Probable space group: C 2/M
;
_chemical_formula_sum "Si O2"
_cell_formula_units_Z 64
_cell_length_a 15.244664
_cell_length_b 9.110758
_cell_length_c 32.623023
_cell_angle_alpha 90.000000
_cell_angle_beta 45.886415
_cell_angle_gamma 90.000000
_cell_volume 3253.101321
_symmetry_space_group_name_H-M "C 2/M"
_symmetry_group_IT_number 12
_symmetry_cell_setting 'monoclinic'
loop_
_space_group_symop_operation_xyz
x,y,z
-x,y,-z
-x,-y,-z
x,-y,z
1/2+x,1/2+y,z
1/2-x,1/2+y,-z
1/2-x,1/2-y,-z
1/2+x,1/2-y,z
loop_
_atom_site_type_symbol
_atom_site_label
_atom_site_fract_x
_atom_site_fract_y
_atom_site_fract_z
Si Si1 0.232498 0.331214 0.623753
Si Si2 0.073626 0.328349 0.392180
Si Si3 0.846048 0.330494 0.872957
Si Si4 0.710284 0.673984 0.190280
Si Si5 0.843873 0.828998 0.499070
Si Si6 0.103112 0.172241 0.997836
Si Si7 0.041675 0.329677 0.307529
Si Si8 0.487198 0.169807 0.108382
O O1 0.243782 0.500000 0.633726
O O2 0.291907 0.228673 0.639255
O O3 0.301726 0.303947 0.558892
O O4 0.091695 0.285384 0.665267
O O5 0.061243 0.500000 0.405497
O O6 0.049060 0.293271 0.352947
O O7 0.977158 0.240421 0.451097
O O8 0.829848 0.500000 0.865427
O O9 0.854509 0.235194 0.829262
O O10 0.969711 0.305519 0.858722
O O11 0.732779 0.278281 0.937608
O O12 0.703837 0.500000 0.192029
O O13 0.641515 0.732241 0.252440
O O14 0.850069 0.730483 0.147447
O O15 0.750000 0.750000 0.500000
O O16 0.847873 0.000000 0.486385
O O17 0.081755 0.248010 0.048248
O O18 0.096759 0.000000 0.007310
O O19 0.000000 0.226563 0.000000
O O20 0.069173 0.500000 0.290233
O O21 0.493764 0.000000 0.094469
#
# Coordination Sequence:
#
# PCOD8090687 Si02
#       8
#     8   8   8   8   8   8   8   8
#     4  10  22  41  62  88 121 158 196 239 297 357
#     4  11  23  40  62  93 124 156 199 243 296 358
#     4  10  21  39  60  84 117 156 191 232 293 353
#     4  11  24  40  59  86 114 147 199 248 287 341
#     4  11  21  37  62  91 125 161 199 243 297 358
#     4  10  19  33  58  89 117 149 192 234 283 350
#     4  10  23  44  63  81 116 159 197 242 297 351
#     4  10  22  38  58  85 118 153 189 235 292 349
#
# _framework density 19.673535000000001
#
# number of rings (size 3 to 8) (size 9 to 14) (size 15 to 20)
#    0.000    1.625    2.500    1.875    0.000    6.750 
#    0.000    3.750    0.000    0.000    0.000    0.000 
#    0.000    0.000    0.000    0.000    0.000    0.000 
#
# Total GULP energy -396969.602517 kJ/mol
# GULP energy per Si atom -12405.300079 kJ/mol
# Density = 1.962876 g / cm^3
# Si number density = 19.673535 Si / 1000 Ang^3
#
#
#
# Elastic Constant Matrix: (Units=GPa)
#
#
# Indices 1 2 3 4 5 6 
#
# 1 94.1119 28.8203 9.1963 0.0000 -3.9314 -0.0001
# 2 28.8203 67.1836 33.0652 0.0006 0.2402 -0.0001
# 3 9.1963 33.0652 73.8301 0.0000 -9.0184 -0.0001
# 4 0.0000 0.0006 0.0000 35.5967 0.0001 1.0748
# 5 -3.9314 0.2402 -9.0184 0.0001 14.8936 0.0002
# 6 -0.0001 -0.0001 -0.0001 1.0748 0.0002 33.5894
#
#
#
# Elastic Compliance Matrix: (Units=1/GPa)
#
#
# Indices 1 2 3 4 5 6 
#
# 1 0.012565 -0.006295 0.001805 0.000000 0.004511 0.000000
# 2 -0.006295 0.022743 -0.010420 0.000000 -0.008338 0.000000
# 3 0.001805 -0.010420 0.019508 0.000000 0.012457 0.000000
# 4 0.000000 0.000000 0.000000 0.028120 0.000000 -0.000900
# 5 0.004511 -0.008338 0.012457 0.000000 0.076012 0.000000
# 6 0.000000 0.000000 0.000000 -0.000900 0.000000 0.029800
#
#
# Mechanical properties :
#
#
# Convention : Reuss Voigt Hill
#
# Bulk Modulus (GPa) = 40.00470 41.92104 40.96287
# Shear Modulus (GPa) = 22.03617 27.75217 24.89417
#
# Velocity S-wave (km/s) = 3.35041 3.75992 3.56105
# Velocity P-wave (km/s) = 5.94520 6.34065 6.14611
#
# Compressibility (1/GPa) = 0.02499706
#
# Stress axis : x y z
#
# Youngs Moduli (GPa) = 79.58358 43.96944 51.26081
#
# Poissons Ratio (x) = 0.27678 -0.09253
# Poissons Ratio (y) = 0.50096 0.53414
# Poissons Ratio (z) = -0.14365 0.45816
#
# Static dielectric constant tensor:
#      x y z
#    x 3.861470 0.000000 0.077070 
#    y 0.000000 3.510600 0.000000 
#    z 0.077070 0.000000 3.776030 
# 
# 
# High freq. dielectric constant tensor:
#      x y z
#    x 1.781790 0.000000 -0.001610 
#    y 0.000000 1.763190 0.000000 
#    z -0.001610 0.000000 1.760990 
# 
# From -- ./inp_files/375393.got.cif
#   From: 2010.06.25/outbox.cif.g09.slc.cpg/sg12_188_cif.got.tgz:375393.got - 2010.06.28 00:19:55.
