data_PCOD8090413
_publ_section_title
;
Structure prediction by ZEFSAII (Michael W. Deem and Ramdas Pophale) SiO2 
 PCOD8090413
Probable space group: C 2/M
;
_chemical_formula_sum "Si O2"
_cell_formula_units_Z 56
_cell_length_a 27.268110
_cell_length_b 9.030496
_cell_length_c 19.961266
_cell_angle_alpha 90.000000
_cell_angle_beta 144.909734
_cell_angle_gamma 90.000000
_cell_volume 2825.670611
_symmetry_space_group_name_H-M "C 2/M"
_symmetry_group_IT_number 12
_symmetry_cell_setting 'monoclinic'
loop_
_space_group_symop_operation_xyz
x,y,z
-x,y,-z
-x,-y,-z
x,-y,z
1/2+x,1/2+y,z
1/2-x,1/2+y,-z
1/2-x,1/2-y,-z
1/2+x,1/2-y,z
loop_
_atom_site_type_symbol
_atom_site_label
_atom_site_fract_x
_atom_site_fract_y
_atom_site_fract_z
Si Si1 0.038723 0.332757 0.616233
Si Si2 0.220041 0.327069 0.788499
Si Si3 0.731565 0.676198 0.303353
Si Si4 0.488146 0.171857 0.194346
Si Si5 0.446193 0.825347 0.875593
Si Si6 0.182174 0.827408 0.971687
Si Si7 0.099365 0.326967 0.439188
O O1 0.052146 0.500000 0.657268
O O2 0.131729 0.253726 0.717141
O O3 0.000000 0.329114 0.500000
O O4 0.973565 0.252779 0.594810
O O5 0.201887 0.500000 0.757332
O O6 0.247744 0.261425 0.747865
O O7 0.294101 0.296427 0.924490
O O8 0.720827 0.500000 0.292163
O O9 0.644188 0.746746 0.229867
O O10 0.806518 0.733800 0.437253
O O11 0.503023 0.221496 0.134604
O O12 0.411678 0.261652 0.143412
O O13 0.574246 0.203800 0.333815
O O14 0.463535 0.000000 0.170668
O O15 0.430995 0.000000 0.861528
O O16 0.500000 0.770014 0.000000
O O17 0.181765 0.000000 0.954102
O O18 0.250000 0.750000 0.000000
O O19 0.102231 0.500000 0.459521
#
# Coordination Sequence:
#
# PCOD8090413 Si02
#       7
#     8   8   8   8   8   8   8
#     4   9  13  22  43  72 105 133 160 201 259 316
#     4   9  17  29  49  79 108 136 174 223 267 309
#     4  10  19  33  56  84 107 131 176 232 277 315
#     4  10  21  38  57  77 106 144 183 221 264 318
#     4  10  22  39  56  75 105 146 184 218 267 326
#     4  11  22  36  55  81 112 143 178 217 264 317
#     4   9  17  30  51  80 109 136 172 221 274 322
#
# _framework density 19.818304000000001
#
# number of rings (size 3 to 8) (size 9 to 14) (size 15 to 20)
#    0.000    2.286    1.429    2.143    0.000    3.714 
#    0.000    1.429    0.000    0.000    0.000    2.000 
#    0.000    0.000    0.000    0.000    0.000    0.000 
#
# Total GULP energy -347106.341297 kJ/mol
# GULP energy per Si atom -12396.655046 kJ/mol
# Density = 1.977320 g / cm^3
# Si number density = 19.818304 Si / 1000 Ang^3
#
#
#
# Elastic Constant Matrix: (Units=GPa)
#
#
# Indices 1 2 3 4 5 6 
#
# 1 119.3936 36.9252 59.2711 0.0000 3.5843 0.0000
# 2 36.9252 39.8707 36.5366 0.0000 4.5975 0.0000
# 3 59.2711 36.5366 129.2473 0.0000 7.8159 0.0000
# 4 0.0000 0.0000 0.0000 19.7019 0.0000 6.9277
# 5 3.5843 4.5975 7.8159 0.0000 39.3172 0.0000
# 6 0.0000 0.0000 0.0000 6.9277 0.0000 21.6298
#
#
#
# Elastic Compliance Matrix: (Units=1/GPa)
#
#
# Indices 1 2 3 4 5 6 
#
# 1 0.012760 -0.008755 -0.003409 0.000000 0.000538 0.000000
# 2 -0.008755 0.040026 -0.007151 0.000000 -0.002461 0.000000
# 3 -0.003409 -0.007151 0.011390 0.000000 -0.001117 0.000000
# 4 0.000000 0.000000 0.000000 0.057198 0.000000 -0.018320
# 5 0.000538 -0.002461 -0.001117 0.000000 0.025895 0.000000
# 6 0.000000 0.000000 0.000000 -0.018320 0.000000 0.052100
#
#
# Mechanical properties :
#
#
# Convention : Reuss Voigt Hill
#
# Bulk Modulus (GPa) = 39.14673 61.55305 50.34989
# Shear Modulus (GPa) = 20.28283 26.51503 23.39893
#
# Velocity S-wave (km/s) = 3.20259 3.66171 3.43982
# Velocity P-wave (km/s) = 5.78543 7.00026 6.42163
#
# Compressibility (1/GPa) = 0.02554492
#
# Stress axis : x y z
#
# Youngs Moduli (GPa) = 78.37287 24.98360 87.80008
#
# Poissons Ratio (x) = 0.21873 0.29931
# Poissons Ratio (y) = 0.68616 0.62787
# Poissons Ratio (z) = 0.26717 0.17866
#
# Static dielectric constant tensor:
#      x y z
#    x 3.670480 0.000000 -0.035670 
#    y 0.000000 3.081100 0.000000 
#    z -0.035670 0.000000 3.791450 
# 
# 
# High freq. dielectric constant tensor:
#      x y z
#    x 1.778680 0.000000 -0.001210 
#    y 0.000000 1.711760 0.000000 
#    z -0.001210 0.000000 1.790370 
# 
# From -- ./inp_files/329669.got.cif
#   From: 2010.06.25/outbox.cif.g09.slc.cpg/sg12_165_cif.got.tgz:329669.got - 2010.06.28 00:19:55.
