data_PCOD8090646
_publ_section_title
;
Structure prediction by ZEFSAII (Michael W. Deem and Ramdas Pophale) SiO2 
 PCOD8090646
Probable space group: C 2/M
;
_chemical_formula_sum "Si O2"
_cell_formula_units_Z 56
_cell_length_a 10.171158
_cell_length_b 18.487767
_cell_length_c 23.703762
_cell_angle_alpha 90.000000
_cell_angle_beta 132.586924
_cell_angle_gamma 90.000000
_cell_volume 3281.696066
_symmetry_space_group_name_H-M "C 2/M"
_symmetry_group_IT_number 12
_symmetry_cell_setting 'monoclinic'
loop_
_space_group_symop_operation_xyz
x,y,z
-x,y,-z
-x,-y,-z
x,-y,z
1/2+x,1/2+y,z
1/2-x,1/2+y,-z
1/2-x,1/2-y,-z
1/2+x,1/2-y,z
loop_
_atom_site_type_symbol
_atom_site_label
_atom_site_fract_x
_atom_site_fract_y
_atom_site_fract_z
Si Si1 0.876173 0.792194 0.578906
Si Si2 0.198412 0.083194 0.170814
Si Si3 0.153382 0.215786 0.090146
Si Si4 0.945650 0.419084 0.344467
Si Si5 0.160513 0.083400 0.507342
Si Si6 0.262304 0.784444 0.336819
Si Si7 0.496169 0.707286 0.838430
O O1 0.750000 0.750000 0.500000
O O2 0.850302 0.876443 0.556044
O O3 0.820999 0.774273 0.626152
O O4 0.080940 0.771983 0.628774
O O5 0.229994 0.133760 0.124455
O O6 0.378657 0.087250 0.260479
O O7 0.034946 0.120448 0.159471
O O8 0.151118 0.000000 0.141232
O O9 0.078337 0.248371 0.127347
O O10 0.000000 0.208638 0.000000
O O11 0.201728 0.227864 0.890810
O O12 0.913062 0.500000 0.358233
O O13 0.836654 0.365833 0.353305
O O14 0.154910 0.399352 0.406411
O O15 0.000000 0.111548 0.500000
O O16 0.138609 0.000000 0.486445
O O17 0.108910 0.766905 0.247246
#
# Coordination Sequence:
#
# PCOD8090646 Si02
#       7
#     8   8   8   8   8   8   8
#     4  12  23  33  51  76 106 133 175 229 268 304
#     4   8  18  33  55  81 108 142 179 217 265 322
#     4  10  19  33  58  85 112 138 177 221 270 323
#     4   9  18  35  54  73 101 137 178 216 260 317
#     4  10  21  35  51  72 102 140 176 220 273 315
#     4  11  22  36  53  75 104 140 178 216 266 313
#     4   9  20  35  56  80 108 144 181 217 267 326
#
# _framework density 17.064346
#
# number of rings (size 3 to 8) (size 9 to 14) (size 15 to 20)
#    0.857    1.286    1.429    2.571    0.000    0.857 
#    0.000    1.429    0.000    1.286    0.000    0.000 
#    0.000    0.000    0.000    0.000    0.000    0.000 
#
# Total GULP energy -346979.058895 kJ/mol
# GULP energy per Si atom -12392.109246 kJ/mol
# Density = 1.702551 g / cm^3
# Si number density = 17.064346 Si / 1000 Ang^3
#
#
#
# Elastic Constant Matrix: (Units=GPa)
#
#
# Indices 1 2 3 4 5 6 
#
# 1 102.2563 31.8002 44.8830 0.0000 -3.9557 0.0000
# 2 31.8002 74.1985 42.9579 0.0000 6.1879 0.0000
# 3 44.8830 42.9579 104.6456 0.0000 0.1167 0.0000
# 4 0.0000 0.0000 0.0000 20.5157 0.0000 -1.2288
# 5 -3.9557 6.1879 0.1167 0.0000 25.9557 0.0000
# 6 0.0000 0.0000 0.0000 -1.2288 0.0000 24.6259
#
#
#
# Elastic Compliance Matrix: (Units=1/GPa)
#
#
# Indices 1 2 3 4 5 6 
#
# 1 0.012712 -0.003304 -0.004099 0.000000 0.002743 0.000000
# 2 -0.003304 0.019004 -0.006379 0.000000 -0.005005 0.000000
# 3 -0.004099 -0.006379 0.013932 0.000000 0.000833 0.000000
# 4 0.000000 0.000000 0.000000 0.048889 0.000000 0.002440
# 5 0.002743 -0.005005 0.000833 0.000000 0.040135 0.000000
# 6 0.000000 0.000000 0.000000 0.002440 0.000000 0.040729
#
#
# Mechanical properties :
#
#
# Convention : Reuss Voigt Hill
#
# Bulk Modulus (GPa) = 55.29577 57.82030 56.55803
# Shear Modulus (GPa) = 23.92436 24.98343 24.45389
#
# Velocity S-wave (km/s) = 3.74840 3.83047 3.78966
# Velocity P-wave (km/s) = 7.15602 7.31578 7.23634
#
# Compressibility (1/GPa) = 0.01808457
#
# Stress axis : x y z
#
# Youngs Moduli (GPa) = 78.66520 52.62147 71.77861
#
# Poissons Ratio (x) = 0.17385 0.29423
# Poissons Ratio (y) = 0.25989 0.45785
# Poissons Ratio (z) = 0.32246 0.33565
#
# Static dielectric constant tensor:
#      x y z
#    x 3.045380 0.000000 0.001150 
#    y 0.000000 3.289000 0.000000 
#    z 0.001150 0.000000 3.258410 
# 
# 
# High freq. dielectric constant tensor:
#      x y z
#    x 1.639380 0.000000 0.002120 
#    y 0.000000 1.654050 0.000000 
#    z 0.002120 0.000000 1.663340 
# 
# From -- ./inp_files/333620.got.cif
#   From: 2010.06.25/outbox.cif.g09.slc.cpg/sg12_167_cif.got.tgz:333620.got - 2010.06.28 00:19:55.
