data_PCOD8090233
_publ_section_title
;
Structure prediction by ZEFSAII (Michael W. Deem and Ramdas Pophale) SiO2 
 PCOD8090233
Probable space group: C 2/M
;
_chemical_formula_sum "Si O2"
_cell_formula_units_Z 64
_cell_length_a 15.932723
_cell_length_b 15.978364
_cell_length_c 14.622399
_cell_angle_alpha 90.000000
_cell_angle_beta 59.326494
_cell_angle_gamma 90.000000
_cell_volume 3201.724546
_symmetry_space_group_name_H-M "C 2/M"
_symmetry_group_IT_number 12
_symmetry_cell_setting 'monoclinic'
loop_
_space_group_symop_operation_xyz
x,y,z
-x,y,-z
-x,-y,-z
x,-y,z
1/2+x,1/2+y,z
1/2-x,1/2+y,-z
1/2-x,1/2-y,-z
1/2+x,1/2-y,z
loop_
_atom_site_type_symbol
_atom_site_label
_atom_site_fract_x
_atom_site_fract_y
_atom_site_fract_z
Si Si1 0.398645 0.188970 0.017943
Si Si2 0.555976 0.907861 0.562652
Si Si3 0.757259 0.906728 0.369680
Si Si4 0.539221 0.744101 0.375948
Si Si5 0.726126 0.906048 0.058513
Si Si6 0.245278 0.289016 0.213870
Si Si7 0.552690 0.634036 0.066344
Si Si8 0.034499 0.091446 0.697011
O O1 0.331423 0.225555 0.137686
O O2 0.500000 0.147839 0.000000
O O3 0.333935 0.122858 0.997933
O O4 0.431129 0.266193 0.935864
O O5 0.500000 0.920189 0.500000
O O6 0.665182 0.875517 0.480074
O O7 0.502677 0.831312 0.646234
O O8 0.555219 0.000000 0.613817
O O9 0.786443 0.851595 0.266447
O O10 0.849727 0.905944 0.385128
O O11 0.733287 0.000000 0.346805
O O12 0.500000 0.736310 0.500000
O O13 0.655819 0.740878 0.309929
O O14 0.512550 0.663135 0.335033
O O15 0.703114 0.841199 0.151796
O O16 0.690977 0.000000 0.102264
O O17 0.842358 0.909189 0.978036
O O18 0.483949 0.603278 0.185180
O O19 0.500000 0.609300 0.000000
O O20 0.994363 0.000000 0.688926
#
# Coordination Sequence:
#
# PCOD8090233 Si02
#       8
#     8   8   8   8   8   8   8   8
#     4  10  21  37  57  81 115 154 193 240 289 350
#     4   9  17  33  55  80 112 145 185 240 293 339
#     4  10  19  33  55  85 111 140 184 240 297 345
#     4  11  22  39  58  84 115 160 198 236 287 339
#     4  11  22  34  55  85 116 150 189 237 298 362
#     4  11  20  35  59  85 109 145 190 242 293 356
#     4  10  20  38  61  88 119 149 188 247 308 352
#     4  11  23  36  57  86 119 156 195 235 284 351
#
# _framework density 19.989227
#
# number of rings (size 3 to 8) (size 9 to 14) (size 15 to 20)
#    0.000    1.625    2.500    6.000    0.000    3.500 
#    0.000    0.000    0.000    0.375    0.000    0.000 
#    0.000    0.000    0.000    0.000    0.000    0.000 
#
# Total GULP energy -396559.663956 kJ/mol
# GULP energy per Si atom -12392.489499 kJ/mol
# Density = 1.994373 g / cm^3
# Si number density = 19.989227 Si / 1000 Ang^3
#
#
#
# Elastic Constant Matrix: (Units=GPa)
#
#
# Indices 1 2 3 4 5 6 
#
# 1 107.2562 41.4977 32.0651 0.0000 -14.3338 0.0000
# 2 41.4977 99.0798 27.1893 0.0000 3.8715 0.0000
# 3 32.0651 27.1893 65.2782 0.0000 -18.1031 0.0000
# 4 0.0000 0.0000 0.0000 17.2809 0.0000 -2.1689
# 5 -14.3338 3.8715 -18.1031 0.0000 29.5156 0.0000
# 6 0.0000 0.0000 0.0000 -2.1689 0.0000 45.5067
#
#
#
# Elastic Compliance Matrix: (Units=1/GPa)
#
#
# Indices 1 2 3 4 5 6 
#
# 1 0.012677 -0.004717 -0.002872 0.000000 0.005014 0.000000
# 2 -0.004717 0.013886 -0.005551 0.000000 -0.007517 0.000000
# 3 -0.002872 -0.005551 0.022722 0.000000 0.013270 0.000000
# 4 0.000000 0.000000 0.000000 0.058216 0.000000 0.002775
# 5 0.005014 -0.007517 0.013270 0.000000 0.045440 0.000000
# 6 0.000000 0.000000 0.000000 0.002775 0.000000 0.022107
#
#
# Mechanical properties :
#
#
# Convention : Reuss Voigt Hill
#
# Bulk Modulus (GPa) = 43.47032 52.56873 48.01952
# Shear Modulus (GPa) = 23.92394 29.85146 26.88770
#
# Velocity S-wave (km/s) = 3.46329 3.86862 3.67155
# Velocity P-wave (km/s) = 6.14708 6.80519 6.48449
#
# Compressibility (1/GPa) = 0.02300420
#
# Stress axis : x y z
#
# Youngs Moduli (GPa) = 78.88120 72.01656 44.01083
#
# Poissons Ratio (x) = 0.33974 0.12639
# Poissons Ratio (y) = 0.37212 0.24430
# Poissons Ratio (z) = 0.22653 0.39976
#
# Static dielectric constant tensor:
#      x y z
#    x 3.528920 0.000000 -0.234910 
#    y 0.000000 3.831080 0.000000 
#    z -0.234910 0.000000 3.411560 
# 
# 
# High freq. dielectric constant tensor:
#      x y z
#    x 1.773730 0.000000 -0.033910 
#    y 0.000000 1.775640 0.000000 
#    z -0.033910 0.000000 1.760150 
# 
# From -- ./inp_files/216366.got.cif
#   From: 2010.06.25/outbox.cif.g09.slc.cpg/sg12_109_cif.got.tgz:216366.got - 2010.06.28 00:19:55.
