data_PCOD8090650
_publ_section_title
;
Structure prediction by ZEFSAII (Michael W. Deem and Ramdas Pophale) SiO2 
 PCOD8090650
Probable space group: C 2/M
;
_chemical_formula_sum "Si O2"
_cell_formula_units_Z 56
_cell_length_a 19.404157
_cell_length_b 22.606438
_cell_length_c 17.766376
_cell_angle_alpha 90.000000
_cell_angle_beta 158.518817
_cell_angle_gamma 90.000000
_cell_volume 2853.901216
_symmetry_space_group_name_H-M "C 2/M"
_symmetry_group_IT_number 12
_symmetry_cell_setting 'monoclinic'
loop_
_space_group_symop_operation_xyz
x,y,z
-x,y,-z
-x,-y,-z
x,-y,z
1/2+x,1/2+y,z
1/2-x,1/2+y,-z
1/2-x,1/2-y,-z
1/2+x,1/2-y,z
loop_
_atom_site_type_symbol
_atom_site_label
_atom_site_fract_x
_atom_site_fract_y
_atom_site_fract_z
Si Si1 0.687505 0.099412 0.476227
Si Si2 0.230801 0.761370 0.067298
Si Si3 0.517924 0.327869 0.429904
Si Si4 0.282497 0.896470 0.104747
Si Si5 0.534835 0.567201 0.118973
Si Si6 0.513471 0.566188 0.705376
Si Si7 0.843217 0.710319 0.656793
O O1 0.489198 0.073612 0.304956
O O2 0.820262 0.108986 0.685672
O O3 0.814608 0.060562 0.548498
O O4 0.611708 0.154084 0.349703
O O5 0.360280 0.717504 0.244609
O O6 0.285244 0.829237 0.139592
O O7 0.250000 0.750000 0.000000
O O8 0.017684 0.744199 0.871774
O O9 0.500000 0.330929 0.500000
O O10 0.497944 0.395304 0.381427
O O11 0.714924 0.304040 0.598209
O O12 0.169468 0.935632 0.049828
O O13 0.169969 0.899108 0.912171
O O14 0.615634 0.500000 0.198295
O O15 0.500000 0.593032 0.000000
O O16 0.578691 0.500000 0.750901
O O17 0.750000 0.750000 0.500000
#
# Coordination Sequence:
#
# PCOD8090650 Si02
#       7
#     8   8   8   8   8   8   8
#     4  10  19  33  58  86 107 143 202 247 287 355
#     4  12  20  39  63  90 119 157 198 243 299 363
#     4  11  24  40  58  91 127 158 202 246 301 362
#     4  11  20  37  62  87 114 149 202 251 298 359
#     4  10  23  40  53  77 120 159 195 247 304 353
#     4  10  21  37  60  87 116 154 200 250 298 353
#     4  11  19  36  64  82 115 156 192 243 296 346
#
# _framework density 19.622261999999999
#
# number of rings (size 3 to 8) (size 9 to 14) (size 15 to 20)
#    0.000    1.286    4.286    3.429    0.000    3.714 
#    7.714    1.429    0.000    0.000    0.000    6.000 
#    0.000    0.000    0.000    0.000    0.000    0.000 
#
# Total GULP energy -346877.525469 kJ/mol
# GULP energy per Si atom -12388.483052 kJ/mol
# Density = 1.957760 g / cm^3
# Si number density = 19.622262 Si / 1000 Ang^3
#
#
#
# Elastic Constant Matrix: (Units=GPa)
#
#
# Indices 1 2 3 4 5 6 
#
# 1 135.4911 22.8145 65.1419 0.0002 -9.9076 0.0001
# 2 22.8145 97.4968 32.0047 0.0000 -2.8175 0.0001
# 3 65.1419 32.0047 113.1422 0.0007 14.8109 0.0005
# 4 0.0002 0.0000 0.0007 16.6881 0.0003 2.6426
# 5 -9.9076 -2.8175 14.8109 0.0003 36.6853 0.0002
# 6 0.0001 0.0001 0.0005 2.6426 0.0002 18.0682
#
#
#
# Elastic Compliance Matrix: (Units=1/GPa)
#
#
# Indices 1 2 3 4 5 6 
#
# 1 0.011338 -0.000087 -0.007288 0.000000 0.005998 0.000000
# 2 -0.000087 0.011491 -0.003497 0.000000 0.002271 0.000000
# 3 -0.007288 -0.003497 0.015116 0.000000 -0.008340 0.000000
# 4 0.000000 0.000000 0.000000 0.061344 0.000000 -0.008972
# 5 0.005998 0.002271 -0.008340 0.000000 0.032420 0.000000
# 6 0.000000 0.000000 0.000000 -0.008972 0.000000 0.056658
#
#
# Mechanical properties :
#
#
# Convention : Reuss Voigt Hill
#
# Bulk Modulus (GPa) = 61.73438 65.11693 63.42566
# Shear Modulus (GPa) = 23.20055 29.36625 26.28340
#
# Velocity S-wave (km/s) = 3.44227 3.87276 3.66385
# Velocity P-wave (km/s) = 6.87959 7.29760 7.09167
#
# Compressibility (1/GPa) = 0.01619843
#
# Stress axis : x y z
#
# Youngs Moduli (GPa) = 88.19939 87.02548 66.15619
#
# Poissons Ratio (x) = 0.00760 0.48217
# Poissons Ratio (y) = 0.00770 0.23138
# Poissons Ratio (z) = 0.64282 0.30437
#
# Static dielectric constant tensor:
#      x y z
#    x 3.561600 0.000000 0.326370 
#    y 0.000000 3.805230 0.000000 
#    z 0.326370 0.000000 3.509090 
# 
# 
# High freq. dielectric constant tensor:
#      x y z
#    x 1.754180 0.000000 0.017220 
#    y 0.000000 1.763140 0.000000 
#    z 0.017220 0.000000 1.760440 
# 
# From -- ./inp_files/286355.got.cif
#   From: 2010.06.25/outbox.cif.g09.slc.cpg/sg12_144_cif.got.tgz:286355.got - 2010.06.28 00:19:55.
