data_PCOD8090431
_publ_section_title
;
Structure prediction by ZEFSAII (Michael W. Deem and Ramdas Pophale) SiO2 
 PCOD8090431
Probable space group: C 2/M
;
_chemical_formula_sum "Si O2"
_cell_formula_units_Z 64
_cell_length_a 19.230154
_cell_length_b 20.445992
_cell_length_c 9.848103
_cell_angle_alpha 90.000000
_cell_angle_beta 63.968860
_cell_angle_gamma 90.000000
_cell_volume 3479.273069
_symmetry_space_group_name_H-M "C 2/M"
_symmetry_group_IT_number 12
_symmetry_cell_setting 'monoclinic'
loop_
_space_group_symop_operation_xyz
x,y,z
-x,y,-z
-x,-y,-z
x,-y,z
1/2+x,1/2+y,z
1/2-x,1/2+y,-z
1/2-x,1/2-y,-z
1/2+x,1/2-y,z
loop_
_atom_site_type_symbol
_atom_site_label
_atom_site_fract_x
_atom_site_fract_y
_atom_site_fract_z
Si Si1 0.292119 0.576655 0.124261
Si Si2 0.656868 0.759704 0.426874
Si Si3 0.808218 0.305975 0.891308
Si Si4 0.703249 0.166596 0.630979
Si Si5 0.537427 0.653733 0.606127
Si Si6 0.318790 0.424774 0.415176
Si Si7 0.911915 0.296465 0.045353
Si Si8 0.062420 0.151717 0.049190
O O1 0.273400 0.500000 0.113013
O O2 0.230967 0.624125 0.104395
O O3 0.295863 0.592886 0.280864
O O4 0.373894 0.595529 0.986651
O O5 0.649722 0.780073 0.278147
O O6 0.661007 0.821241 0.523715
O O7 0.736956 0.722208 0.377876
O O8 0.580377 0.720442 0.532069
O O9 0.750000 0.250000 0.000000
O O10 0.878883 0.321865 0.931232
O O11 0.751725 0.099772 0.574811
O O12 0.637753 0.165526 0.800133
O O13 0.500000 0.624354 0.500000
O O14 0.597895 0.604145 0.620241
O O15 0.471494 0.669142 0.773814
O O16 0.327031 0.500000 0.432929
O O17 0.902991 0.217226 0.052724
O O18 0.000000 0.316622 0.000000
O O19 0.000000 0.121420 0.000000
#
# Coordination Sequence:
#
# PCOD8090431 Si02
#       8
#     8   8   8   8   8   8   8   8
#     4  11  23  39  62  89 116 164 211 245 292 362
#     4  10  19  33  56  84 113 157 196 240 290 343
#     4  12  21  38  63  89 120 159 201 256 300 347
#     4  10  19  35  58  83 113 148 195 245 297 339
#     4  11  23  34  54  87 126 158 194 240 294 358
#     4  10  22  40  60  82 115 161 207 241 289 358
#     4  11  23  36  60  91 123 150 192 249 314 357
#     4  11  20  36  57  88 127 166 195 237 290 367
#
# _framework density 18.394648
#
# number of rings (size 3 to 8) (size 9 to 14) (size 15 to 20)
#    0.000    1.250    5.000    2.250    1.750    1.000 
#    0.000    1.875    0.000    1.500    0.000    1.750 
#    0.000    0.000    0.000    0.000    0.000    0.000 
#
# Total GULP energy -396688.573505 kJ/mol
# GULP energy per Si atom -12396.517922 kJ/mol
# Density = 1.835278 g / cm^3
# Si number density = 18.394648 Si / 1000 Ang^3
#
#
#
# Elastic Constant Matrix: (Units=GPa)
#
#
# Indices 1 2 3 4 5 6 
#
# 1 108.9729 45.0962 36.0802 0.0000 12.5398 0.0000
# 2 45.0962 89.7869 30.4253 0.0000 -1.7580 0.0000
# 3 36.0802 30.4253 120.9926 0.0000 -2.9275 0.0000
# 4 0.0000 0.0000 0.0000 18.2393 0.0000 4.8415
# 5 12.5398 -1.7580 -2.9275 0.0000 31.6375 0.0000
# 6 0.0000 0.0000 0.0000 4.8415 0.0000 19.6998
#
#
#
# Elastic Compliance Matrix: (Units=1/GPa)
#
#
# Indices 1 2 3 4 5 6 
#
# 1 0.013102 -0.005818 -0.002583 0.000000 -0.005755 0.000000
# 2 -0.005818 0.014763 -0.001906 0.000000 0.002950 0.000000
# 3 -0.002583 -0.001906 0.009558 0.000000 0.001802 0.000000
# 4 0.000000 0.000000 0.000000 0.058653 0.000000 -0.014415
# 5 -0.005755 0.002950 0.001802 0.000000 0.034220 0.000000
# 6 0.000000 0.000000 0.000000 -0.014415 0.000000 0.054305
#
#
# Mechanical properties :
#
#
# Convention : Reuss Voigt Hill
#
# Bulk Modulus (GPa) = 59.49272 60.32843 59.91058
# Shear Modulus (GPa) = 23.71713 27.79202 25.75458
#
# Velocity S-wave (km/s) = 3.59465 3.89122 3.74587
# Velocity P-wave (km/s) = 7.04566 7.28400 7.16582
#
# Compressibility (1/GPa) = 0.01680878
#
# Stress axis : x y z
#
# Youngs Moduli (GPa) = 76.32581 67.73606 104.62170
#
# Poissons Ratio (x) = 0.39407 0.27026
# Poissons Ratio (y) = 0.44405 0.19943
# Poissons Ratio (z) = 0.19717 0.12912
#
# Static dielectric constant tensor:
#      x y z
#    x 36.593830 0.000000 -9.318750 
#    y 0.000000 3.103800 0.000000 
#    z -9.318750 0.000000 6.208700 
# 
# 
# High freq. dielectric constant tensor:
#      x y z
#    x 1.718220 0.000000 0.007490 
#    y 0.000000 1.677030 0.000000 
#    z 0.007490 0.000000 1.724330 
# 
# From -- ./inp_files/89596.got.cif
#   From: 2010.06.25/outbox.cif.g09.slc.cpg/sg12_45_cif.got.tgz:89596.got - 2010.06.28 00:19:55.
