data_PCOD8090497
_publ_section_title
;
Structure prediction by ZEFSAII (Michael W. Deem and Ramdas Pophale) SiO2 
 PCOD8090497
Probable space group: C 2/M
;
_chemical_formula_sum "Si O2"
_cell_formula_units_Z 40
_cell_length_a 22.927240
_cell_length_b 8.681604
_cell_length_c 26.129739
_cell_angle_alpha 90.000000
_cell_angle_beta 156.639338
_cell_angle_gamma 90.000000
_cell_volume 2062.288336
_symmetry_space_group_name_H-M "C 2/M"
_symmetry_group_IT_number 12
_symmetry_cell_setting 'monoclinic'
loop_
_space_group_symop_operation_xyz
x,y,z
-x,y,-z
-x,-y,-z
x,-y,z
1/2+x,1/2+y,z
1/2-x,1/2+y,-z
1/2-x,1/2-y,-z
1/2+x,1/2-y,z
loop_
_atom_site_type_symbol
_atom_site_label
_atom_site_fract_x
_atom_site_fract_y
_atom_site_fract_z
Si Si1 0.155529 0.174828 0.785619
Si Si2 0.164334 0.825268 0.680479
Si Si3 0.347370 0.817599 0.732118
Si Si4 0.331427 0.680731 0.017311
Si Si5 0.413913 0.818897 0.531807
O O1 0.238639 0.180588 0.797233
O O2 0.241440 0.281850 0.893838
O O3 0.989826 0.241899 0.643243
O O4 0.146464 0.000000 0.799303
O O5 0.279122 0.761150 0.731394
O O6 0.012323 0.726218 0.560720
O O7 0.119073 0.000000 0.630313
O O8 0.248721 0.750355 0.606541
O O9 0.354623 0.000000 0.733864
O O10 0.508453 0.751706 0.857438
O O11 0.344463 0.500000 0.034517
O O12 0.250000 0.750000 0.000000
O O13 0.404912 0.000000 0.531958
#
# Coordination Sequence:
#
# PCOD8090497 Si02
#       5
#     8   8   8   8   8
#     4   9  19  39  61  85 118 157 192 234 288 347
#     4   8  18  34  58  87 122 158 191 228 286 350
#     4  11  21  37  60  88 120 159 197 235 284 345
#     4  12  26  44  62  84 112 151 197 246 294 343
#     4  10  19  33  56  91 126 155 190 237 286 341
#
# _framework density 19.395931000000001
#
# number of rings (size 3 to 8) (size 9 to 14) (size 15 to 20)
#    1.200    0.800    0.000    4.800    0.000    4.800 
#    0.000    5.000    0.000    0.000    0.000    0.000 
#    0.000    0.000    0.000    0.000    0.000    0.000 
#
# Total GULP energy -247867.300902 kJ/mol
# GULP energy per Si atom -12393.365045 kJ/mol
# Density = 1.935178 g / cm^3
# Si number density = 19.395931 Si / 1000 Ang^3
#
#
#
# Elastic Constant Matrix: (Units=GPa)
#
#
# Indices 1 2 3 4 5 6 
#
# 1 6.5077 -64.5307 -34.2930 -0.0027 -97.7603 0.0033
# 2 -64.5307 -19.9804 -93.5305 -0.0035 -154.1177 0.0052
# 3 -34.2930 -93.5305 19.5987 -0.0011 -149.9078 0.0057
# 4 -0.0027 -0.0035 -0.0011 38.9614 -0.0081 2.1432
# 5 -97.7603 -154.1177 -149.9078 -0.0081 -197.2316 0.0057
# 6 0.0033 0.0052 0.0057 2.1432 0.0057 25.9369
#
#
#
# Elastic Compliance Matrix: (Units=1/GPa)
#
#
# Indices 1 2 3 4 5 6 
#
# 1 0.023398 -0.001163 -0.006805 0.000000 -0.005517 0.000000
# 2 -0.001163 0.010445 -0.001498 -0.000001 -0.006446 0.000000
# 3 -0.006805 -0.001498 0.009792 -0.000001 -0.002899 0.000000
# 4 0.000000 -0.000001 -0.000001 0.025784 0.000000 -0.002130
# 5 -0.005517 -0.006446 -0.002899 0.000000 0.004905 0.000002
# 6 0.000000 0.000000 0.000000 -0.002130 0.000002 0.038731
#
#
# Mechanical properties :
#
#
# Convention : Reuss Voigt Hill
#
# Bulk Modulus (GPa) = 40.48082 -42.06470 -0.79194
# Shear Modulus (GPa) = 35.65768 -13.23465 11.21151
#
# Velocity S-wave (km/s) = 4.29232 -2.61500 2.40684
# Velocity P-wave (km/s) = 6.74399 5.55447 2.70456
#
# Compressibility (1/GPa) = 0.02470306
#
# Stress axis : x y z
#
# Youngs Moduli (GPa) = 42.73783 95.74116 102.12108
#
# Poissons Ratio (x) = 0.11137 0.69494
# Poissons Ratio (y) = 0.04971 0.15298
# Poissons Ratio (z) = 0.29083 0.14342
#
# Static dielectric constant tensor:
#      x y z
#    x 3.407390 0.000000 -0.060880 
#    y 0.000000 3.518550 0.000000 
#    z -0.060880 0.000000 3.507280 
# 
# 
# High freq. dielectric constant tensor:
#      x y z
#    x 1.727070 0.000000 -0.009250 
#    y 0.000000 1.762600 0.000000 
#    z -0.009250 0.000000 1.758020 
# 
# From -- ./inp_files/368918.got.cif
#   From: 2010.06.25/outbox.cif.g09.slc.cpg/sg12_185_cif.got.tgz:368918.got - 2010.06.28 00:19:55.
