data_PCOD8090925
_publ_section_title
;
Structure prediction by ZEFSAII (Michael W. Deem and Ramdas Pophale) SiO2 
 PCOD8090925
Probable space group: C 2/M
;
_chemical_formula_sum "Si O2"
_cell_formula_units_Z 64
_cell_length_a 16.812087
_cell_length_b 16.992512
_cell_length_c 11.867486
_cell_angle_alpha 90.000000
_cell_angle_beta 96.850936
_cell_angle_gamma 90.000000
_cell_volume 3366.091311
_symmetry_space_group_name_H-M "C 2/M"
_symmetry_group_IT_number 12
_symmetry_cell_setting 'monoclinic'
loop_
_space_group_symop_operation_xyz
x,y,z
-x,y,-z
-x,-y,-z
x,-y,z
1/2+x,1/2+y,z
1/2-x,1/2+y,-z
1/2-x,1/2-y,-z
1/2+x,1/2-y,z
loop_
_atom_site_type_symbol
_atom_site_label
_atom_site_fract_x
_atom_site_fract_y
_atom_site_fract_z
Si Si1 0.005575 0.588955 0.297168
Si Si2 0.301073 0.287362 0.742818
Si Si3 0.912286 0.814325 0.438606
Si Si4 0.854922 0.670307 0.568736
Si Si5 0.116580 0.725819 0.774469
Si Si6 0.919779 0.412923 0.926723
Si Si7 0.202908 0.090513 0.447847
Si Si8 0.660958 0.236203 0.021760
O O1 0.976166 0.500000 0.322346
O O2 0.060020 0.625799 0.405493
O O3 0.066349 0.585271 0.203537
O O4 0.929677 0.644348 0.259615
O O5 0.321586 0.207206 0.679072
O O6 0.208883 0.289295 0.762607
O O7 0.322092 0.362125 0.669226
O O8 0.355466 0.287923 0.867367
O O9 0.866181 0.739096 0.480526
O O10 0.917550 0.798450 0.305377
O O11 0.859821 0.890364 0.462219
O O12 0.000000 0.826841 0.500000
O O13 0.791711 0.609990 0.505565
O O14 0.104384 0.752727 0.903343
O O15 0.897788 0.500000 0.968585
O O16 0.847345 0.355582 0.946147
O O17 0.000000 0.381562 0.000000
O O18 0.197349 0.000000 0.415314
O O19 0.750000 0.250000 0.000000
#
# Coordination Sequence:
#
# PCOD8090925 Si02
#       8
#     8   8   8   8   8   8   8   8
#     4  11  22  32  54  90 121 151 183 225 288 350
#     4  10  20  38  58  80 111 150 197 240 273 339
#     4  11  21  37  60  84 113 150 191 236 282 339
#     4  11  19  37  60  81 114 152 190 228 283 347
#     4  11  20  36  54  82 119 153 186 230 279 337
#     4  10  19  34  53  80 119 151 183 228 279 337
#     4  11  23  39  61  83 111 152 192 241 294 333
#     4  10  21  34  57  82 112 154 199 225 273 340
#
# _framework density 19.013148999999999
#
# number of rings (size 3 to 8) (size 9 to 14) (size 15 to 20)
#    0.000    1.375    6.250    1.125    0.000    0.750 
#    0.000    2.500    0.000    0.750    0.000    0.875 
#    0.000    0.000    0.000    0.000    0.000    0.000 
#
# Total GULP energy -396641.608335 kJ/mol
# GULP energy per Si atom -12395.050260 kJ/mol
# Density = 1.896987 g / cm^3
# Si number density = 19.013149 Si / 1000 Ang^3
#
#
#
# Elastic Constant Matrix: (Units=GPa)
#
#
# Indices 1 2 3 4 5 6 
#
# 1 72.1349 36.8531 17.2803 0.0000 8.9145 0.0000
# 2 36.8531 97.6043 38.7994 0.0000 7.9158 0.0000
# 3 17.2803 38.7994 117.0590 0.0000 16.5196 0.0000
# 4 0.0000 0.0000 0.0000 16.7604 0.0000 -0.8797
# 5 8.9145 7.9158 16.5196 0.0000 26.5065 0.0000
# 6 0.0000 0.0000 0.0000 -0.8797 0.0000 30.4553
#
#
#
# Elastic Compliance Matrix: (Units=1/GPa)
#
#
# Indices 1 2 3 4 5 6 
#
# 1 0.017587 -0.006342 0.000080 0.000000 -0.004071 0.000000
# 2 -0.006342 0.014122 -0.003783 0.000000 0.000273 0.000000
# 3 0.000080 -0.003783 0.010558 0.000000 -0.005477 0.000000
# 4 0.000000 0.000000 0.000000 0.059755 0.000000 0.001726
# 5 -0.004071 0.000273 -0.005477 0.000000 0.042428 0.000000
# 6 0.000000 0.000000 0.000000 0.001726 0.000000 0.032885
#
#
# Mechanical properties :
#
#
# Convention : Reuss Voigt Hill
#
# Bulk Modulus (GPa) = 45.09234 52.51818 48.80526
# Shear Modulus (GPa) = 24.41219 27.66879 26.04049
#
# Velocity S-wave (km/s) = 3.58713 3.81891 3.70483
# Velocity P-wave (km/s) = 6.39723 6.86494 6.63521
#
# Compressibility (1/GPa) = 0.02217672
#
# Stress axis : x y z
#
# Youngs Moduli (GPa) = 56.86046 70.81258 94.71794
#
# Poissons Ratio (x) = 0.44911 -0.00762
# Poissons Ratio (y) = 0.36062 0.35832
# Poissons Ratio (z) = -0.00457 0.26789
#
# Static dielectric constant tensor:
#      x y z
#    x 3.382420 0.000000 0.025770 
#    y 0.000000 3.397650 0.000000 
#    z 0.025770 0.000000 4.147860 
# 
# 
# High freq. dielectric constant tensor:
#      x y z
#    x 1.729280 0.000000 0.003370 
#    y 0.000000 1.709650 0.000000 
#    z 0.003370 0.000000 1.756310 
# 
# From -- ./inp_files/157862.got.cif
#   From: 2010.06.25/outbox.cif.g09.slc.cpg/sg12_79_cif.got.tgz:157862.got - 2010.06.28 00:19:55.
