data_PCOD8090418
_publ_section_title
;
Structure prediction by ZEFSAII (Michael W. Deem and Ramdas Pophale) SiO2 
 PCOD8090418
Probable space group: C 2/M
;
_chemical_formula_sum "Si O2"
_cell_formula_units_Z 48
_cell_length_a 17.902421
_cell_length_b 9.066417
_cell_length_c 30.138989
_cell_angle_alpha 90.000000
_cell_angle_beta 149.418350
_cell_angle_gamma 90.000000
_cell_volume 2488.822812
_symmetry_space_group_name_H-M "C 2/M"
_symmetry_group_IT_number 12
_symmetry_cell_setting 'monoclinic'
loop_
_space_group_symop_operation_xyz
x,y,z
-x,y,-z
-x,-y,-z
x,-y,z
1/2+x,1/2+y,z
1/2-x,1/2+y,-z
1/2-x,1/2-y,-z
1/2+x,1/2-y,z
loop_
_atom_site_type_symbol
_atom_site_label
_atom_site_fract_x
_atom_site_fract_y
_atom_site_fract_z
Si Si1 0.401185 0.172439 0.320084
Si Si2 0.488819 0.327035 0.200696
Si Si3 0.547308 0.670554 0.474815
Si Si4 0.605334 0.826315 0.171766
Si Si5 0.614305 0.829669 0.349361
Si Si6 0.305924 0.831373 0.986373
O O1 0.450315 0.230640 0.392931
O O2 0.252313 0.252084 0.228597
O O3 0.525557 0.210697 0.348052
O O4 0.370909 0.000000 0.308128
O O5 0.521997 0.500000 0.211930
O O6 0.560958 0.241719 0.196459
O O7 0.558902 0.272052 0.281634
O O8 0.310546 0.296489 0.112651
O O9 0.500000 0.713182 0.500000
O O10 0.513168 0.500000 0.447282
O O11 0.717403 0.707537 0.554503
O O12 0.631116 0.000000 0.191445
O O13 0.479374 0.793061 0.069432
O O14 0.594125 0.000000 0.325282
O O15 0.294276 0.000000 0.993390
O O16 0.250000 0.750000 0.000000
#
# Coordination Sequence:
#
# PCOD8090418 Si02
#       6
#     8   8   8   8   8   8
#     4  11  23  37  54  79 111 144 181 223 264 313
#     4  10  19  33  56  84 110 138 179 226 269 318
#     4  10  21  38  60  82 104 136 178 221 269 326
#     4  10  19  34  56  79 108 145 182 222 270 319
#     4  10  22  38  54  78 113 147 177 215 268 325
#     4   8  16  30  50  78 107 137 176 222 268 314
#
# _framework density 19.286225000000002
#
# number of rings (size 3 to 8) (size 9 to 14) (size 15 to 20)
#    0.000    2.167    0.000    3.000    0.000    5.000 
#    0.000    0.833    0.000    5.000    0.000    0.000 
#    0.000    0.000    0.000    0.000    0.000    0.000 
#
# Total GULP energy -297462.565108 kJ/mol
# GULP energy per Si atom -12394.273546 kJ/mol
# Density = 1.924233 g / cm^3
# Si number density = 19.286225 Si / 1000 Ang^3
#
#
#
# Elastic Constant Matrix: (Units=GPa)
#
#
# Indices 1 2 3 4 5 6 
#
# 1 67.3623 21.6328 16.1471 0.0000 25.5909 0.0000
# 2 21.6328 63.2794 18.0376 -0.0002 15.5650 0.0001
# 3 16.1471 18.0376 59.3178 -0.0001 33.5622 0.0000
# 4 0.0000 -0.0002 -0.0001 33.4104 0.0000 2.0688
# 5 25.5909 15.5650 33.5622 0.0000 29.7069 0.0000
# 6 0.0000 0.0001 0.0000 2.0688 0.0000 25.7476
#
#
#
# Elastic Compliance Matrix: (Units=1/GPa)
#
#
# Indices 1 2 3 4 5 6 
#
# 1 0.027477 -0.004235 0.016480 0.000000 -0.040070 0.000000
# 2 -0.004235 0.018797 -0.002924 0.000000 -0.002897 0.000000
# 3 0.016480 -0.002924 0.056621 0.000000 -0.076634 0.000000
# 4 0.000000 0.000000 0.000000 0.030080 0.000000 -0.002417
# 5 -0.040070 -0.002897 -0.076634 0.000000 0.156278 0.000000
# 6 0.000000 0.000000 0.000000 -0.002417 0.000000 0.039033
#
#
# Mechanical properties :
#
#
# Convention : Reuss Voigt Hill
#
# Bulk Modulus (GPa) = 8.22792 33.51051 20.86922
# Shear Modulus (GPa) = 14.27935 26.71576 20.49755
#
# Velocity S-wave (km/s) = 2.72396 3.72590 3.26361
# Velocity P-wave (km/s) = 3.76415 5.99357 5.00458
#
# Compressibility (1/GPa) = 0.12153736
#
# Stress axis : x y z
#
# Youngs Moduli (GPa) = 36.39373 53.20071 17.66128
#
# Poissons Ratio (x) = 0.22530 -0.29105
# Poissons Ratio (y) = 0.15412 0.05163
# Poissons Ratio (z) = -0.59975 0.15554
#
# Static dielectric constant tensor:
#      x y z
#    x 3.289860 0.000000 0.292100 
#    y 0.000000 3.555840 0.000000 
#    z 0.292100 0.000000 4.141700 
# 
# 
# High freq. dielectric constant tensor:
#      x y z
#    x 1.723340 0.000000 0.016200 
#    y 0.000000 1.756960 0.000000 
#    z 0.016200 0.000000 1.773860 
# 
# From -- ./inp_files/274010.got.cif
#   From: 2010.06.25/outbox.cif.g09.slc.cpg/sg12_138_cif.got.tgz:274010.got - 2010.06.28 00:19:55.
