data_PCOD8090297
_publ_section_title
;
Structure prediction by ZEFSAII (Michael W. Deem and Ramdas Pophale) SiO2 
 PCOD8090297
Probable space group: C 2/M
;
_chemical_formula_sum "Si O2"
_cell_formula_units_Z 64
_cell_length_a 14.351237
_cell_length_b 9.384549
_cell_length_c 29.006907
_cell_angle_alpha 90.000000
_cell_angle_beta 61.913518
_cell_angle_gamma 90.000000
_cell_volume 3446.592273
_symmetry_space_group_name_H-M "C 2/M"
_symmetry_group_IT_number 12
_symmetry_cell_setting 'monoclinic'
loop_
_space_group_symop_operation_xyz
x,y,z
-x,y,-z
-x,-y,-z
x,-y,z
1/2+x,1/2+y,z
1/2-x,1/2+y,-z
1/2-x,1/2-y,-z
1/2+x,1/2-y,z
loop_
_atom_site_type_symbol
_atom_site_label
_atom_site_fract_x
_atom_site_fract_y
_atom_site_fract_z
Si Si1 0.227931 0.839033 0.406774
Si Si2 0.955378 0.337732 0.380454
Si Si3 0.895589 0.339205 0.494705
Si Si4 0.976441 0.834529 0.862466
Si Si5 0.555740 0.330237 0.941311
Si Si6 0.285064 0.834271 0.862270
Si Si7 0.711611 0.337351 0.777378
Si Si8 0.344602 0.330745 0.675712
O O1 0.354004 0.830971 0.370994
O O2 0.195019 0.750717 0.459348
O O3 0.177765 0.780509 0.371389
O O4 0.190347 0.000000 0.424328
O O5 0.998025 0.500000 0.374951
O O6 0.921863 0.277053 0.438315
O O7 0.043549 0.238332 0.336595
O O8 0.853060 0.500000 0.499779
O O9 0.000000 0.330450 0.500000
O O10 0.884685 0.749830 0.858372
O O11 0.990167 0.778134 0.911827
O O12 0.086948 0.809348 0.810819
O O13 0.945395 0.000000 0.869196
O O14 0.556583 0.500000 0.940338
O O15 0.677429 0.278239 0.911739
O O16 0.500000 0.268360 0.000000
O O17 0.273049 0.807440 0.810630
O O18 0.303039 0.000000 0.868630
O O19 0.732149 0.500000 0.757099
O O20 0.753514 0.228786 0.729580
O O21 0.348524 0.500000 0.679978
#
# Coordination Sequence:
#
# PCOD8090297 Si02
#       8
#     8   8   8   8   8   8   8   8
#     4  10  22  37  54  77 105 135 166 206 257 307
#     4  10  21  38  56  76 106 140 169 202 252 312
#     4  10  19  33  56  81 103 134 173 206 243 300
#     4   9  18  33  54  79 105 138 180 219 259 307
#     4   8  15  30  51  76 110 149 182 211 252 312
#     4   9  18  33  54  78 103 137 179 217 259 309
#     4   9  20  38  55  71  99 139 174 209 260 318
#     4  11  23  37  54  79 104 129 169 218 262 304
#
# _framework density 18.569067
#
# number of rings (size 3 to 8) (size 9 to 14) (size 15 to 20)
#    0.000    2.500    1.250    2.250    0.000    4.250 
#    0.000    5.625    0.000    0.750    0.000    0.000 
#    0.000    0.000    0.000    0.000    0.000    0.000 
#
# Total GULP energy -396781.592993 kJ/mol
# GULP energy per Si atom -12399.424781 kJ/mol
# Density = 1.852680 g / cm^3
# Si number density = 18.569067 Si / 1000 Ang^3
#
#
#
# Elastic Constant Matrix: (Units=GPa)
#
#
# Indices 1 2 3 4 5 6 
#
# 1 108.0774 42.5683 28.4863 0.0000 -8.9944 0.0000
# 2 42.5683 69.2935 46.7115 0.0000 -6.9539 0.0000
# 3 28.4863 46.7115 94.1646 0.0000 -11.8696 0.0000
# 4 0.0000 0.0000 0.0000 23.5344 0.0000 -1.7877
# 5 -8.9944 -6.9539 -11.8696 0.0000 16.8355 0.0000
# 6 0.0000 0.0000 0.0000 -1.7877 0.0000 31.9894
#
#
#
# Elastic Compliance Matrix: (Units=1/GPa)
#
#
# Indices 1 2 3 4 5 6 
#
# 1 0.012429 -0.007575 0.000483 0.000000 0.003852 0.000000
# 2 -0.007575 0.026333 -0.010877 0.000000 -0.000839 0.000000
# 3 0.000483 -0.010877 0.016831 0.000000 0.007632 0.000000
# 4 0.000000 0.000000 0.000000 0.042672 0.000000 0.002385
# 5 0.003852 -0.000839 0.007632 0.000000 0.066491 0.000000
# 6 0.000000 0.000000 0.000000 0.002385 0.000000 0.031394
#
#
# Mechanical properties :
#
#
# Convention : Reuss Voigt Hill
#
# Bulk Modulus (GPa) = 50.87458 56.34086 53.60772
# Shear Modulus (GPa) = 20.95218 24.72315 22.83766
#
# Velocity S-wave (km/s) = 3.36272 3.65282 3.51076
# Velocity P-wave (km/s) = 6.52182 6.94247 6.73543
#
# Compressibility (1/GPa) = 0.01965618
#
# Stress axis : x y z
#
# Youngs Moduli (GPa) = 80.45512 37.97572 59.41331
#
# Poissons Ratio (x) = 0.28765 -0.02869
# Poissons Ratio (y) = 0.60941 0.64623
# Poissons Ratio (z) = -0.03886 0.41306
#
# Static dielectric constant tensor:
#      x y z
#    x 3.388780 0.000000 0.018630 
#    y 0.000000 3.213260 0.000000 
#    z 0.018630 0.000000 3.435190 
# 
# 
# High freq. dielectric constant tensor:
#      x y z
#    x 1.727140 0.000000 -0.001880 
#    y 0.000000 1.701130 0.000000 
#    z -0.001880 0.000000 1.716370 
# 
# From -- ./inp_files/359720.got.cif
#   From: 2010.06.25/outbox.cif.g09.slc.cpg/sg12_180_cif.got.tgz:359720.got - 2010.06.28 00:19:55.
