data_PCOD8090106
_publ_section_title
;
Structure prediction by ZEFSAII (Michael W. Deem and Ramdas Pophale) SiO2 
 PCOD8090106
Probable space group: C 2/M
;
_chemical_formula_sum "Si O2"
_cell_formula_units_Z 64
_cell_length_a 22.731278
_cell_length_b 9.146375
_cell_length_c 29.341408
_cell_angle_alpha 90.000000
_cell_angle_beta 34.692112
_cell_angle_gamma 90.000000
_cell_volume 3472.106274
_symmetry_space_group_name_H-M "C 2/M"
_symmetry_group_IT_number 12
_symmetry_cell_setting 'monoclinic'
loop_
_space_group_symop_operation_xyz
x,y,z
-x,y,-z
-x,-y,-z
x,-y,z
1/2+x,1/2+y,z
1/2-x,1/2+y,-z
1/2-x,1/2-y,-z
1/2+x,1/2-y,z
loop_
_atom_site_type_symbol
_atom_site_label
_atom_site_fract_x
_atom_site_fract_y
_atom_site_fract_z
Si Si1 0.645536 0.670812 0.553997
Si Si2 0.401513 0.837294 0.503644
Si Si3 0.858419 0.338123 0.630001
Si Si4 0.160347 0.671517 0.117488
Si Si5 0.936449 0.826610 0.737033
Si Si6 0.726984 0.672637 0.233987
Si Si7 0.869307 0.670544 0.967566
Si Si8 0.455859 0.173585 0.075180
O O1 0.663713 0.500000 0.545689
O O2 0.750000 0.750000 0.500000
O O3 0.620886 0.711828 0.518053
O O4 0.550830 0.718085 0.647130
O O5 0.336581 0.801719 0.590847
O O6 0.520813 0.833811 0.438786
O O7 0.370862 0.000000 0.505108
O O8 0.815862 0.500000 0.668889
O O9 0.803429 0.219293 0.696036
O O10 0.167007 0.500000 0.123472
O O11 0.083658 0.746874 0.202310
O O12 0.115129 0.702751 0.095871
O O13 0.274216 0.739640 0.049106
O O14 0.853095 0.768566 0.753021
O O15 0.926762 0.000000 0.750079
O O16 0.726967 0.500000 0.232443
O O17 0.840759 0.738044 0.152912
O O18 0.845747 0.500000 0.991405
O O19 0.972552 0.722426 0.927985
O O20 0.450865 0.000000 0.076433
O O21 0.500000 0.237461 0.000000
#
# Coordination Sequence:
#
# PCOD8090106 Si02
#       8
#     8   8   8   8   8   8   8   8
#     4  11  23  39  58  81 109 144 184 232 282 328
#     4   9  18  35  57  79 108 144 180 217 268 335
#     4   9  18  33  55  81 109 143 177 218 273 326
#     4  10  20  33  55  82 107 143 183 222 264 314
#     4  10  21  37  56  79 107 140 180 225 272 326
#     4  10  19  33  55  82 107 136 183 231 272 323
#     4   9  18  35  55  78 110 142 179 221 266 321
#     4   9  17  31  54  79 106 141 174 215 269 318
#
# _framework density 18.432617
#
# number of rings (size 3 to 8) (size 9 to 14) (size 15 to 20)
#    0.000    2.375    1.250    2.250    0.000    4.500 
#    2.250    1.875    0.000    1.500    0.000    0.000 
#    0.000    0.000    0.000    0.000    0.000    0.000 
#
# Total GULP energy -396744.865009 kJ/mol
# GULP energy per Si atom -12398.277032 kJ/mol
# Density = 1.839066 g / cm^3
# Si number density = 18.432617 Si / 1000 Ang^3
#
#
#
# Elastic Constant Matrix: (Units=GPa)
#
#
# Indices 1 2 3 4 5 6 
#
# 1 102.8225 42.2831 75.3512 0.0083 0.3878 -0.0179
# 2 42.2831 45.7202 46.3858 0.0148 0.0399 -0.0450
# 3 75.3512 46.3858 141.7706 -0.0030 3.6973 0.0035
# 4 0.0083 0.0148 -0.0030 30.2881 -0.0029 3.2583
# 5 0.3878 0.0399 3.6973 -0.0029 31.1237 0.0100
# 6 -0.0179 -0.0450 0.0035 3.2583 0.0100 26.0944
#
#
#
# Elastic Compliance Matrix: (Units=1/GPa)
#
#
# Indices 1 2 3 4 5 6 
#
# 1 0.019022 -0.010958 -0.006539 0.000000 0.000554 -0.000005
# 2 -0.010958 0.039100 -0.006993 -0.000024 0.000917 0.000063
# 3 -0.006539 -0.006993 0.012855 0.000008 -0.001437 -0.000019
# 4 0.000000 -0.000024 0.000008 0.033466 0.000004 -0.004179
# 5 0.000554 0.000917 -0.001437 0.000004 0.032292 -0.000011
# 6 -0.000005 0.000063 -0.000019 -0.004179 -0.000011 0.038844
#
#
# Mechanical properties :
#
#
# Convention : Reuss Voigt Hill
#
# Bulk Modulus (GPa) = 45.46146 68.70596 57.08371
# Shear Modulus (GPa) = 21.56183 25.92079 23.74131
#
# Velocity S-wave (km/s) = 3.42389 3.75406 3.59277
# Velocity P-wave (km/s) = 6.35200 7.49304 6.94599
#
# Compressibility (1/GPa) = 0.02199665
#
# Stress axis : x y z
#
# Youngs Moduli (GPa) = 52.57182 25.57532 77.79221
#
# Poissons Ratio (x) = 0.28025 0.50870
# Poissons Ratio (y) = 0.57607 0.54400
# Poissons Ratio (z) = 0.34378 0.17885
#
# Static dielectric constant tensor:
#      x y z
#    x 3.239130 -0.000210 -0.074350 
#    y -0.000210 1.097320 -0.000090 
#    z -0.074350 -0.000090 3.479830 
# 
# 
# High freq. dielectric constant tensor:
#      x y z
#    x 1.715530 0.000000 0.009350 
#    y 0.000000 1.697820 0.000000 
#    z 0.009350 0.000000 1.716130 
# 
# From -- ./inp_files/382336.got.cif
#   From: 2010.06.25/outbox.cif.g09.slc.cpg/sg12_192_cif.got.tgz:382336.got - 2010.06.28 00:19:55.
