data_PCOD8090767
_publ_section_title
;
Structure prediction by ZEFSAII (Michael W. Deem and Ramdas Pophale) SiO2 
 PCOD8090767
Probable space group: C 2/M
;
_chemical_formula_sum "Si O2"
_cell_formula_units_Z 64
_cell_length_a 30.771667
_cell_length_b 17.285332
_cell_length_c 12.332006
_cell_angle_alpha 90.000000
_cell_angle_beta 27.853632
_cell_angle_gamma 90.000000
_cell_volume 3064.634915
_symmetry_space_group_name_H-M "C 2/M"
_symmetry_group_IT_number 12
_symmetry_cell_setting 'monoclinic'
loop_
_space_group_symop_operation_xyz
x,y,z
-x,y,-z
-x,-y,-z
x,-y,z
1/2+x,1/2+y,z
1/2-x,1/2+y,-z
1/2-x,1/2-y,-z
1/2+x,1/2-y,z
loop_
_atom_site_type_symbol
_atom_site_label
_atom_site_fract_x
_atom_site_fract_y
_atom_site_fract_z
Si Si1 0.044505 0.817789 0.009831
Si Si2 0.780390 0.354907 0.770119
Si Si3 0.602545 0.306740 0.280361
Si Si4 0.788038 0.588620 0.180338
Si Si5 0.604412 0.127970 0.269579
Si Si6 0.827671 0.686866 0.296510
Si Si7 0.132989 0.194459 0.459257
Si Si8 0.225363 0.085909 0.675218
O O1 0.971778 0.806433 0.267218
O O2 0.075622 0.731957 0.902519
O O3 0.131407 0.864386 0.866878
O O4 0.000000 0.857691 0.000000
O O5 0.848144 0.384900 0.716708
O O6 0.816736 0.276664 0.630470
O O7 0.767376 0.416670 0.703717
O O8 0.675093 0.347758 0.043225
O O9 0.500000 0.344542 0.500000
O O10 0.598990 0.217842 0.253040
O O11 0.641055 0.317508 0.314496
O O12 0.785072 0.500000 0.229728
O O13 0.833180 0.649402 0.164271
O O14 0.683375 0.621112 0.401690
O O15 0.838677 0.587734 0.952048
O O16 0.500000 0.092817 0.500000
O O17 0.750000 0.750000 0.500000
O O18 0.811009 0.615409 0.413141
O O19 0.199044 0.000000 0.697242
#
# Coordination Sequence:
#
# PCOD8090767 Si02
#       8
#     8   8   8   8   8   8   8   8
#     4  11  23  39  68  98 121 163 219 277 322 384
#     4  11  20  40  65  96 130 177 224 269 324 375
#     4  10  19  33  61  95 124 166 219 277 317 365
#     4  12  24  40  63  93 134 172 209 264 331 395
#     4  10  22  38  65  95 128 174 224 273 317 375
#     4  10  23  42  65  89 118 160 215 267 317 376
#     4  11  20  37  62  93 125 162 218 271 319 373
#     4  11  24  42  65  94 134 174 208 259 333 401
#
# _framework density 20.883400999999999
#
# number of rings (size 3 to 8) (size 9 to 14) (size 15 to 20)
#    0.000    1.250    2.500    5.625    5.250    1.500 
#    0.000    0.000    0.000    3.000    0.000    0.000 
#    0.000    0.000    0.000    0.000    0.000    0.000 
#
# Total GULP energy -396563.151671 kJ/mol
# GULP energy per Si atom -12392.598490 kJ/mol
# Density = 2.083587 g / cm^3
# Si number density = 20.883401 Si / 1000 Ang^3
#
#
#
# Elastic Constant Matrix: (Units=GPa)
#
#
# Indices 1 2 3 4 5 6 
#
# 1 88.9489 37.7040 29.1652 0.0000 -2.4473 0.0000
# 2 37.7040 82.0068 36.2432 0.0000 1.2108 0.0000
# 3 29.1652 36.2432 123.4464 0.0000 -2.3045 0.0000
# 4 0.0000 0.0000 0.0000 8.4795 0.0000 3.9827
# 5 -2.4473 1.2108 -2.3045 0.0000 38.0275 0.0000
# 6 0.0000 0.0000 0.0000 3.9827 0.0000 16.3635
#
#
#
# Elastic Compliance Matrix: (Units=1/GPa)
#
#
# Indices 1 2 3 4 5 6 
#
# 1 0.014292 -0.005862 -0.001637 0.000000 0.001007 0.000000
# 2 -0.005862 0.016435 -0.003461 0.000000 -0.001110 0.000000
# 3 -0.001637 -0.003461 0.009514 0.000000 0.000581 0.000000
# 4 0.000000 0.000000 0.000000 0.133152 0.000000 -0.032408
# 5 0.001007 -0.001110 0.000581 0.000000 0.026432 0.000000
# 6 0.000000 0.000000 0.000000 -0.032408 0.000000 0.068999
#
#
# Mechanical properties :
#
#
# Convention : Reuss Voigt Hill
#
# Bulk Modulus (GPa) = 54.58085 55.62522 55.10303
# Shear Modulus (GPa) = 16.84339 25.32677 21.08508
#
# Velocity S-wave (km/s) = 2.84305 3.48626 3.18096
# Velocity P-wave (km/s) = 6.08030 6.54976 6.31939
#
# Compressibility (1/GPa) = 0.01832144
#
# Stress axis : x y z
#
# Youngs Moduli (GPa) = 69.97062 60.84401 105.10463
#
# Poissons Ratio (x) = 0.35669 0.17201
# Poissons Ratio (y) = 0.41020 0.36377
# Poissons Ratio (z) = 0.11451 0.21058
#
# Static dielectric constant tensor:
#      x y z
#    x 3.924830 0.000000 -0.024370 
#    y 0.000000 3.587650 0.000000 
#    z -0.024370 0.000000 4.046340 
# 
# 
# High freq. dielectric constant tensor:
#      x y z
#    x 1.823850 0.000000 0.009560 
#    y 0.000000 1.788240 0.000000 
#    z 0.009560 0.000000 1.828770 
# 
# From -- ./inp_files/190055.got.cif
#   From: 2010.06.25/outbox.cif.g09.slc.cpg/sg12_96_cif.got.tgz:190055.got - 2010.06.28 00:19:55.
