data_PCOD8090770
_publ_section_title
;
Structure prediction by ZEFSAII (Michael W. Deem and Ramdas Pophale) SiO2 
 PCOD8090770
Probable space group: C 2/M
;
_chemical_formula_sum "Si O2"
_cell_formula_units_Z 48
_cell_length_a 20.946375
_cell_length_b 17.371857
_cell_length_c 9.562227
_cell_angle_alpha 90.000000
_cell_angle_beta 130.809638
_cell_angle_gamma 90.000000
_cell_volume 2633.565610
_symmetry_space_group_name_H-M "C 2/M"
_symmetry_group_IT_number 12
_symmetry_cell_setting 'monoclinic'
loop_
_space_group_symop_operation_xyz
x,y,z
-x,y,-z
-x,-y,-z
x,-y,z
1/2+x,1/2+y,z
1/2-x,1/2+y,-z
1/2-x,1/2-y,-z
1/2+x,1/2-y,z
loop_
_atom_site_type_symbol
_atom_site_label
_atom_site_fract_x
_atom_site_fract_y
_atom_site_fract_z
Si Si1 0.218733 0.197402 0.828316
Si Si2 0.051380 0.409995 0.266515
Si Si3 0.069330 0.278431 0.477892
Si Si4 0.425697 0.590169 0.288062
Si Si5 0.884933 0.342509 0.920922
Si Si6 0.525464 0.689015 0.888124
O O1 0.163011 0.254263 0.654264
O O2 0.161901 0.126875 0.794457
O O3 0.291164 0.151869 0.847542
O O4 0.250000 0.250000 0.000000
O O5 0.072286 0.500000 0.304720
O O6 0.073001 0.369242 0.444922
O O7 0.109756 0.368899 0.232498
O O8 0.951611 0.397248 0.096462
O O9 0.000000 0.263655 0.500000
O O10 0.046734 0.231624 0.304771
O O11 0.500000 0.617317 0.500000
O O12 0.415530 0.500000 0.276378
O O13 0.441822 0.617233 0.153416
O O14 0.905419 0.252845 0.973144
O O15 0.500000 0.652602 0.000000
#
# Coordination Sequence:
#
# PCOD8090770 Si02
#       6
#     8   8   8   8   8   8
#     4  12  21  36  63  89 117 156 206 244 289 356
#     4  10  21  39  58  87 123 153 196 248 300 351
#     4  11  20  38  62  88 115 158 201 243 291 365
#     4  11  23  40  61  88 124 159 196 250 300 348
#     4  10  19  33  62  88 113 160 197 238 291 355
#     4  11  18  38  64  88 114 155 208 241 288 357
#
# _framework density 18.226240000000001
#
# number of rings (size 3 to 8) (size 9 to 14) (size 15 to 20)
#    0.000    1.167    8.333    2.000    0.000    2.667 
#    0.000    0.833    0.000    0.000    0.000    0.000 
#    0.000    0.000    0.000    0.000    0.000    0.000 
#
# Total GULP energy -297427.796020 kJ/mol
# GULP energy per Si atom -12392.824834 kJ/mol
# Density = 1.818476 g / cm^3
# Si number density = 18.226240 Si / 1000 Ang^3
#
#
#
# Elastic Constant Matrix: (Units=GPa)
#
#
# Indices 1 2 3 4 5 6 
#
# 1 145.8796 56.4690 69.4188 0.0000 3.5040 0.0000
# 2 56.4690 113.2305 47.8946 0.0000 -6.7923 0.0000
# 3 69.4188 47.8946 88.9536 0.0000 -9.8790 0.0000
# 4 0.0000 0.0000 0.0000 24.6777 0.0000 -12.8231
# 5 3.5040 -6.7923 -9.8790 0.0000 28.6417 0.0000
# 6 0.0000 0.0000 0.0000 -12.8231 0.0000 9.1203
#
#
#
# Elastic Compliance Matrix: (Units=1/GPa)
#
#
# Indices 1 2 3 4 5 6 
#
# 1 0.012092 -0.002725 -0.008532 0.000000 -0.005068 0.000000
# 2 -0.002725 0.012061 -0.004172 0.000000 0.001755 0.000000
# 3 -0.008532 -0.004172 0.020955 0.000000 0.007282 0.000000
# 4 0.000000 0.000000 0.000000 0.150406 0.000000 0.211468
# 5 -0.005068 0.001755 0.007282 0.000000 0.038462 0.000000
# 6 0.000000 0.000000 0.000000 0.211468 0.000000 0.406965
#
#
# Mechanical properties :
#
#
# Convention : Reuss Voigt Hill
#
# Bulk Modulus (GPa) = 70.18011 77.29204 73.73607
# Shear Modulus (GPa) = 7.39046 24.10671 15.74858
#
# Velocity S-wave (km/s) = 2.01585 3.64075 2.94268
# Velocity P-wave (km/s) = 6.63376 7.75710 7.21732
#
# Compressibility (1/GPa) = 0.01424905
#
# Stress axis : x y z
#
# Youngs Moduli (GPa) = 82.70188 82.91413 47.72172
#
# Poissons Ratio (x) = 0.22598 0.40714
# Poissons Ratio (y) = 0.22540 0.19909
# Poissons Ratio (z) = 0.70558 0.34591
#
# Static dielectric constant tensor:
#      x y z
#    x 3.486630 0.000000 -0.189420 
#    y 0.000000 3.310660 0.000000 
#    z -0.189420 0.000000 3.466760 
# 
# 
# High freq. dielectric constant tensor:
#      x y z
#    x 1.703520 0.000000 -0.011980 
#    y 0.000000 1.702540 0.000000 
#    z -0.011980 0.000000 1.698710 
# 
# From -- ./inp_files/88147.got.cif
#   From: 2010.06.25/outbox.cif.g09.slc.cpg/sg12_45_cif.got.tgz:88147.got - 2010.06.28 00:19:55.
