data_PCOD8090267
_publ_section_title
;
Structure prediction by ZEFSAII (Michael W. Deem and Ramdas Pophale) SiO2 
 PCOD8090267
Probable space group: C 2/M
;
_chemical_formula_sum "Si O2"
_cell_formula_units_Z 56
_cell_length_a 11.434897
_cell_length_b 30.965992
_cell_length_c 8.407829
_cell_angle_alpha 90.000000
_cell_angle_beta 121.081305
_cell_angle_gamma 90.000000
_cell_volume 2549.739578
_symmetry_space_group_name_H-M "C 2/M"
_symmetry_group_IT_number 12
_symmetry_cell_setting 'monoclinic'
loop_
_space_group_symop_operation_xyz
x,y,z
-x,y,-z
-x,-y,-z
x,-y,z
1/2+x,1/2+y,z
1/2-x,1/2+y,-z
1/2-x,1/2-y,-z
1/2+x,1/2-y,z
loop_
_atom_site_type_symbol
_atom_site_label
_atom_site_fract_x
_atom_site_fract_y
_atom_site_fract_z
Si Si1 0.889304 0.874221 0.173545
Si Si2 0.942052 0.796410 0.781849
Si Si3 0.512100 0.797348 0.195192
Si Si4 0.716074 0.156155 0.773003
Si Si5 0.129672 0.381333 0.208379
Si Si6 0.563025 0.452796 0.217174
Si Si7 0.635873 0.075879 0.533872
O O1 0.770541 0.882894 0.214529
O O2 0.968977 0.829329 0.264159
O O3 0.995748 0.913768 0.269147
O O4 0.827928 0.871044 0.952536
O O5 0.788391 0.814246 0.690116
O O6 0.943444 0.748936 0.699890
O O7 0.000000 0.793623 0.000000
O O8 0.369131 0.812594 0.170762
O O9 0.622004 0.835494 0.296931
O O10 0.500000 0.790345 0.000000
O O11 0.624137 0.121770 0.617221
O O12 0.129024 0.419167 0.337983
O O13 0.000000 0.386981 0.000000
O O14 0.529988 0.500000 0.270125
O O15 0.726692 0.448727 0.323390
O O16 0.500000 0.451034 0.000000
O O17 0.500000 0.050319 0.500000
#
# Coordination Sequence:
#
# PCOD8090267 Si02
#       7
#     8   8   8   8   8   8   8
#     4  11  19  40  65  91 129 172 213 265 331 385
#     4   9  20  30  58  91 125 174 219 267 316 382
#     4  10  19  33  55  95 127 173 223 267 314 374
#     4  11  19  37  62  91 132 173 216 270 321 380
#     4  11  23  39  63  94 128 177 219 265 317 382
#     4  11  24  44  74 105 130 164 213 267 326 397
#     4  12  23  42  70  97 132 169 219 266 329 387
#
# _framework density 21.963025999999999
#
# number of rings (size 3 to 8) (size 9 to 14) (size 15 to 20)
#    0.000    1.286    7.143    0.429    2.000    2.571 
#    0.000    2.143    3.143    0.857    0.000    0.000 
#    0.000    0.000    0.000    0.000    0.000    0.000 
#
# Total GULP energy -347009.710051 kJ/mol
# GULP energy per Si atom -12393.203930 kJ/mol
# Density = 2.191304 g / cm^3
# Si number density = 21.963026 Si / 1000 Ang^3
#
#
#
# Elastic Constant Matrix: (Units=GPa)
#
#
# Indices 1 2 3 4 5 6 
#
# 1 159.7172 39.4721 28.7665 0.0000 17.1422 0.0000
# 2 39.4721 111.0785 23.5221 0.0000 11.0026 0.0000
# 3 28.7665 23.5221 63.1641 0.0000 5.8025 0.0000
# 4 0.0000 0.0000 0.0000 -20.8437 0.0000 -3.9431
# 5 17.1422 11.0026 5.8025 0.0000 27.5720 0.0000
# 6 0.0000 0.0000 0.0000 -3.9431 0.0000 12.5661
#
#
#
# Elastic Compliance Matrix: (Units=1/GPa)
#
#
# Indices 1 2 3 4 5 6 
#
# 1 0.007517 -0.001816 -0.002431 0.000000 -0.003437 0.000000
# 2 -0.001816 0.010496 -0.002856 0.000000 -0.002459 0.000000
# 3 -0.002431 -0.002856 0.018109 0.000000 -0.001160 0.000000
# 4 0.000000 0.000000 0.000000 -0.045288 0.000000 -0.014211
# 5 -0.003437 -0.002459 -0.001160 0.000000 0.039631 0.000000
# 6 0.000000 0.000000 0.000000 -0.014211 0.000000 0.075120
#
#
# Mechanical properties :
#
#
# Convention : Reuss Voigt Hill
#
# Bulk Modulus (GPa) = 45.62903 57.49793 51.56348
# Shear Modulus (GPa) = 39.34034 20.00549 29.67291
#
# Velocity S-wave (km/s) = 4.23686 3.02134 3.67964
# Velocity P-wave (km/s) = 6.68993 6.19738 6.44836
#
# Compressibility (1/GPa) = 0.02191587
#
# Stress axis : x y z
#
# Youngs Moduli (GPa) = 133.03893 95.27273 55.22070
#
# Poissons Ratio (x) = 0.17299 0.13426
# Poissons Ratio (y) = 0.24156 0.15771
# Poissons Ratio (z) = 0.32346 0.27209
#
# Static dielectric constant tensor:
#      x y z
#    x 4.006360 0.000000 0.125140 
#    y 0.000000 4.272310 0.000000 
#    z 0.125140 0.000000 3.681510 
# 
# 
# High freq. dielectric constant tensor:
#      x y z
#    x 1.873390 0.000000 0.011660 
#    y 0.000000 1.850120 0.000000 
#    z 0.011660 0.000000 1.839480 
# 
# From -- ./inp_files/54804.got.cif
#   From: 2010.06.25/outbox.cif.g09.slc.cpg/sg12_28_cif.got.tgz:54804.got - 2010.06.28 00:19:55.
