data_PCOD8090890
_publ_section_title
;
Structure prediction by ZEFSAII (Michael W. Deem and Ramdas Pophale) SiO2 
 PCOD8090890
Probable space group: C 2/M
;
_chemical_formula_sum "Si O2"
_cell_formula_units_Z 52
_cell_length_a 10.467320
_cell_length_b 17.278285
_cell_length_c 19.141255
_cell_angle_alpha 90.000000
_cell_angle_beta 59.461091
_cell_angle_gamma 90.000000
_cell_volume 2981.625356
_symmetry_space_group_name_H-M "C 2/M"
_symmetry_group_IT_number 12
_symmetry_cell_setting 'monoclinic'
loop_
_space_group_symop_operation_xyz
x,y,z
-x,y,-z
-x,-y,-z
x,-y,z
1/2+x,1/2+y,z
1/2-x,1/2+y,-z
1/2-x,1/2-y,-z
1/2+x,1/2-y,z
loop_
_atom_site_type_symbol
_atom_site_label
_atom_site_fract_x
_atom_site_fract_y
_atom_site_fract_z
Si Si1 0.704189 0.294120 0.206342
Si Si2 0.779073 0.413886 0.529713
Si Si3 0.026943 0.161772 0.385641
Si Si4 0.500000 0.792199 0.500000
Si Si5 0.180529 0.412212 0.640257
Si Si6 0.080578 0.590495 0.906551
Si Si7 0.011299 0.320122 0.798767
O O1 0.571750 0.321125 0.293576
O O2 0.759849 0.365958 0.142844
O O3 0.847713 0.267214 0.213403
O O4 0.638039 0.228295 0.174060
O O5 0.808002 0.500000 0.552308
O O6 0.604262 0.400035 0.578218
O O7 0.851629 0.408692 0.432722
O O8 0.858330 0.347683 0.553434
O O9 0.975307 0.240559 0.437948
O O10 0.159055 0.124457 0.392400
O O11 0.180119 0.500000 0.668588
O O12 0.055049 0.364370 0.715714
O O13 0.111664 0.500000 0.894214
O O14 0.977564 0.617527 0.869693
O O15 0.000000 0.614823 0.000000
#
# Coordination Sequence:
#
# PCOD8090890 Si02
#       7
#     8   8   8   4   8   8   8
#     4   9  21  33  56  81 109 135 179 217 262 313
#     4  11  23  35  49  72 103 137 175 218 262 306
#     4  11  21  32  56  74  98 133 180 216 258 303
#     4  12  23  34  51  72 104 138 172 216 265 310
#     4  10  19  34  53  75 101 135 178 218 255 305
#     4   9  19  35  58  83 108 141 176 210 258 318
#     4   9  19  34  54  82 108 139 168 222 260 310
#
# _framework density 17.440152000000001
#
# number of rings (size 3 to 8) (size 9 to 14) (size 15 to 20)
#    0.923    1.077    1.538    2.538    4.308    2.462 
#    0.000    0.000    0.000    1.846    0.000    2.154 
#    0.000    0.000    0.000    0.000    0.000    0.000 
#
# Total GULP energy -322251.151005 kJ/mol
# GULP energy per Si atom -12394.275039 kJ/mol
# Density = 1.740046 g / cm^3
# Si number density = 17.440152 Si / 1000 Ang^3
#
#
#
# Elastic Constant Matrix: (Units=GPa)
#
#
# Indices 1 2 3 4 5 6 
#
# 1 42.7500 33.3406 8.4721 0.0000 -4.2469 0.0000
# 2 33.3406 107.3229 33.6698 0.0000 -12.1408 0.0000
# 3 8.4721 33.6698 97.4612 0.0000 -6.4721 0.0000
# 4 0.0000 0.0000 0.0000 21.0099 0.0000 -2.4621
# 5 -4.2469 -12.1408 -6.4721 0.0000 11.7347 0.0000
# 6 0.0000 0.0000 0.0000 -2.4621 0.0000 31.9474
#
#
#
# Elastic Compliance Matrix: (Units=1/GPa)
#
#
# Indices 1 2 3 4 5 6 
#
# 1 0.030942 -0.009667 0.000757 0.000000 0.001614 0.000000
# 2 -0.009667 0.014513 -0.003538 0.000000 0.009565 0.000000
# 3 0.000757 -0.003538 0.011618 0.000000 0.003021 0.000000
# 4 0.000000 0.000000 0.000000 0.048030 0.000000 0.003702
# 5 0.001614 0.009565 0.003021 0.000000 0.097364 0.000000
# 6 0.000000 0.000000 0.000000 0.003702 0.000000 0.031587
#
#
# Mechanical properties :
#
#
# Convention : Reuss Voigt Hill
#
# Bulk Modulus (GPa) = 31.07940 44.27770 37.67855
# Shear Modulus (GPa) = 18.54087 24.40850 21.47468
#
# Velocity S-wave (km/s) = 3.26408 3.74512 3.51285
# Velocity P-wave (km/s) = 5.66259 6.64415 6.17291
#
# Compressibility (1/GPa) = 0.03217565
#
# Stress axis : x y z
#
# Youngs Moduli (GPa) = 32.31902 68.90416 86.07607
#
# Poissons Ratio (x) = 0.66611 -0.06518
# Poissons Ratio (y) = 0.31243 0.30456
# Poissons Ratio (z) = -0.02447 0.24380
#
# Static dielectric constant tensor:
#      x y z
#    x 3.018360 0.000000 0.043930 
#    y 0.000000 3.258800 0.000000 
#    z 0.043930 0.000000 3.172020 
# 
# 
# High freq. dielectric constant tensor:
#      x y z
#    x 1.653250 0.000000 0.002130 
#    y 0.000000 1.674560 0.000000 
#    z 0.002130 0.000000 1.662990 
# 
# From -- ./inp_files/305132.got.cif
#   From: 2010.06.25/outbox.cif.g09.slc.cpg/sg12_153_cif.got.tgz:305132.got - 2010.06.28 00:19:55.
