data_PCOD8090978
_publ_section_title
;
Structure prediction by ZEFSAII (Michael W. Deem and Ramdas Pophale) SiO2 
 PCOD8090978
Probable space group: C 2/M
;
_chemical_formula_sum "Si O2"
_cell_formula_units_Z 56
_cell_length_a 15.177767
_cell_length_b 8.430712
_cell_length_c 26.574628
_cell_angle_alpha 90.000000
_cell_angle_beta 55.461555
_cell_angle_gamma 90.000000
_cell_volume 2801.125847
_symmetry_space_group_name_H-M "C 2/M"
_symmetry_group_IT_number 12
_symmetry_cell_setting 'monoclinic'
loop_
_space_group_symop_operation_xyz
x,y,z
-x,y,-z
-x,-y,-z
x,-y,z
1/2+x,1/2+y,z
1/2-x,1/2+y,-z
1/2-x,1/2-y,-z
1/2+x,1/2-y,z
loop_
_atom_site_type_symbol
_atom_site_label
_atom_site_fract_x
_atom_site_fract_y
_atom_site_fract_z
Si Si1 0.610533 0.327085 0.993149
Si Si2 0.946783 0.187926 0.785297
Si Si3 0.005893 0.189991 0.875884
Si Si4 0.845885 0.314296 0.571352
Si Si5 0.282951 0.689439 0.137475
Si Si6 0.544326 0.314252 0.559142
Si Si7 0.604746 0.311712 0.649327
O O1 0.658671 0.500000 0.990064
O O2 0.691599 0.241470 0.927500
O O3 0.500000 0.349192 0.000000
O O4 0.583356 0.240695 0.055310
O O5 0.828555 0.240666 0.807561
O O6 0.979132 0.257730 0.829426
O O7 0.028880 0.258216 0.717578
O O8 0.953468 0.000000 0.784223
O O9 0.125065 0.245643 0.853332
O O10 0.000764 0.000000 0.879255
O O11 0.859151 0.500000 0.577678
O O12 0.877293 0.279947 0.503530
O O13 0.725583 0.255213 0.620299
O O14 0.921127 0.217522 0.584948
O O15 0.278424 0.500000 0.136973
O O16 0.569434 0.500000 0.546411
O O17 0.564883 0.248030 0.608342
O O18 0.598832 0.500000 0.650970
#
# Coordination Sequence:
#
# PCOD8090978 Si02
#       7
#     8   8   8   8   8   8   8
#     4   7  11  23  45  70  92 118 156 200 244 288
#     4  10  20  34  49  69  97 131 167 197 236 289
#     4   8  15  29  50  70  92 127 165 198 239 294
#     4  10  19  34  55  79 101 125 161 201 237 277
#     4   9  17  31  50  72  96 123 161 207 246 285
#     4  10  19  34  54  77 102 128 157 194 245 291
#     4   9  20  35  50  69 100 136 164 194 235 286
#
# _framework density 19.991962000000001
#
# number of rings (size 3 to 8) (size 9 to 14) (size 15 to 20)
#    0.000    3.000    0.000    3.857    0.000    1.714 
#    0.000    7.143    0.000    3.857    0.000    0.000 
#    0.000    0.000    0.000    0.000    0.000    0.000 
#
# Total GULP energy -346970.470329 kJ/mol
# GULP energy per Si atom -12391.802512 kJ/mol
# Density = 1.994646 g / cm^3
# Si number density = 19.991962 Si / 1000 Ang^3
#
#
#
# Elastic Constant Matrix: (Units=GPa)
#
#
# Indices 1 2 3 4 5 6 
#
# 1 58.0724 1.5255 33.6752 0.0000 -7.0283 0.0001
# 2 1.5255 15.9584 3.5823 0.0000 -0.4887 0.0001
# 3 33.6752 3.5823 114.9616 0.0000 -15.6773 0.0000
# 4 0.0000 0.0000 0.0000 15.1398 0.0000 -8.2662
# 5 -7.0283 -0.4887 -15.6773 0.0000 33.3001 0.0000
# 6 0.0001 0.0001 0.0000 -8.2662 0.0000 20.3530
#
#
#
# Elastic Compliance Matrix: (Units=1/GPa)
#
#
# Indices 1 2 3 4 5 6 
#
# 1 0.020832 -0.000626 -0.005861 0.000000 0.001628 0.000000
# 2 -0.000626 0.063123 -0.001790 0.000000 -0.000048 0.000000
# 3 -0.005861 -0.001790 0.011005 0.000000 0.003918 0.000000
# 4 0.000000 0.000000 0.000000 0.084871 0.000000 0.034470
# 5 0.001628 -0.000048 0.003918 0.000000 0.032217 0.000000
# 6 0.000000 0.000000 0.000000 0.034470 0.000000 0.063132
#
#
# Mechanical properties :
#
#
# Convention : Reuss Voigt Hill
#
# Bulk Modulus (GPa) = 12.75398 29.61759 21.18578
# Shear Modulus (GPa) = 15.72965 23.77253 19.75109
#
# Velocity S-wave (km/s) = 2.80804 3.45208 3.14658
# Velocity P-wave (km/s) = 4.11179 5.54401 4.88072
#
# Compressibility (1/GPa) = 0.07840692
#
# Stress axis : x y z
#
# Youngs Moduli (GPa) = 48.00328 15.84203 90.86482
#
# Poissons Ratio (x) = 0.00992 0.53252
# Poissons Ratio (y) = 0.03005 0.16267
# Poissons Ratio (z) = 0.28133 0.02836
#
# Static dielectric constant tensor:
#      x y z
#    x 3.680340 0.000000 0.094310 
#    y 0.000000 3.090710 0.000000 
#    z 0.094310 0.000000 4.034980 
# 
# 
# High freq. dielectric constant tensor:
#      x y z
#    x 1.779070 0.000000 0.000050 
#    y 0.000000 1.730250 0.000000 
#    z 0.000050 0.000000 1.785860 
# 
# From -- ./inp_files/374948.got.cif
#   From: 2010.06.25/outbox.cif.g09.slc.cpg/sg12_188_cif.got.tgz:374948.got - 2010.06.28 00:19:55.
