data_PCOD8090632
_publ_section_title
;
Structure prediction by ZEFSAII (Michael W. Deem and Ramdas Pophale) SiO2 
 PCOD8090632
Probable space group: C 2/M
;
_chemical_formula_sum "Si O2"
_cell_formula_units_Z 64
_cell_length_a 18.152151
_cell_length_b 17.848999
_cell_length_c 14.177010
_cell_angle_alpha 90.000000
_cell_angle_beta 43.492345
_cell_angle_gamma 90.000000
_cell_volume 3161.386960
_symmetry_space_group_name_H-M "C 2/M"
_symmetry_group_IT_number 12
_symmetry_cell_setting 'monoclinic'
loop_
_space_group_symop_operation_xyz
x,y,z
-x,y,-z
-x,-y,-z
x,-y,z
1/2+x,1/2+y,z
1/2-x,1/2+y,-z
1/2-x,1/2-y,-z
1/2+x,1/2-y,z
loop_
_atom_site_type_symbol
_atom_site_label
_atom_site_fract_x
_atom_site_fract_y
_atom_site_fract_z
Si Si1 0.693459 0.412732 0.626120
Si Si2 0.036976 0.918385 0.216360
Si Si3 0.108634 0.083791 0.358028
Si Si4 0.713464 0.324115 0.978923
Si Si5 0.116619 0.585348 0.676927
Si Si6 0.885341 0.588396 0.924868
Si Si7 0.623753 0.312884 0.863600
Si Si8 0.171345 0.647671 0.818798
O O1 0.711412 0.500000 0.634449
O O2 0.589395 0.401903 0.655876
O O3 0.793717 0.376589 0.474446
O O4 0.673935 0.368915 0.741140
O O5 0.097947 0.923784 0.257295
O O6 0.091167 0.849554 0.111450
O O7 0.051111 0.000000 0.152007
O O8 0.200398 0.143367 0.294807
O O9 0.000000 0.117914 0.500000
O O10 0.132033 0.000000 0.378518
O O11 0.750000 0.250000 0.000000
O O12 0.792290 0.390157 0.938220
O O13 0.708767 0.312705 0.871472
O O14 0.121670 0.500000 0.642538
O O15 0.138066 0.590161 0.768596
O O16 0.995846 0.615316 0.772333
O O17 0.881471 0.500000 0.946459
O O18 0.877996 0.627947 0.033615
O O19 0.628414 0.227722 0.822670
O O20 0.500000 0.335730 0.000000
#
# Coordination Sequence:
#
# PCOD8090632 Si02
#       8
#     8   8   8   8   8   8   8   8
#     4  10  23  43  65  91 123 164 215 268 314 369
#     4  10  19  35  60  86 117 156 205 258 311 361
#     4  10  19  33  57  91 128 163 202 254 314 372
#     4  12  23  40  61  89 125 161 201 260 310 366
#     4  10  22  40  63  93 128 165 208 256 311 375
#     4  11  22  39  65  94 124 165 210 256 314 380
#     4  12  25  42  64  92 124 164 212 260 318 376
#     4  12  22  37  61  93 130 166 206 258 313 380
#
# _framework density 20.244278999999999
#
# number of rings (size 3 to 8) (size 9 to 14) (size 15 to 20)
#    0.000    1.125    3.750    3.375    0.000    4.750 
#    0.000    3.125    0.000    2.250    0.000    0.000 
#    0.000    0.000    0.000    0.000    0.000    0.000 
#
# Total GULP energy -396592.985324 kJ/mol
# GULP energy per Si atom -12393.530791 kJ/mol
# Density = 2.019820 g / cm^3
# Si number density = 20.244279 Si / 1000 Ang^3
#
#
#
# Elastic Constant Matrix: (Units=GPa)
#
#
# Indices 1 2 3 4 5 6 
#
# 1 86.8885 16.2721 33.1690 0.0000 -4.1596 0.0000
# 2 16.2721 66.8993 38.7734 0.0000 -9.2622 0.0000
# 3 33.1690 38.7734 133.5196 0.0000 -24.1800 0.0000
# 4 0.0000 0.0000 0.0000 23.3837 0.0000 -0.6208
# 5 -4.1596 -9.2622 -24.1800 0.0000 24.6822 0.0000
# 6 0.0000 0.0000 0.0000 -0.6208 0.0000 31.3389
#
#
#
# Elastic Compliance Matrix: (Units=1/GPa)
#
#
# Indices 1 2 3 4 5 6 
#
# 1 0.012881 -0.001591 -0.002982 0.000000 -0.001348 0.000000
# 2 -0.001591 0.018250 -0.004513 0.000000 0.002159 0.000000
# 3 -0.002982 -0.004513 0.011115 0.000000 0.008693 0.000000
# 4 0.000000 0.000000 0.000000 0.042787 0.000000 0.000848
# 5 -0.001348 0.002159 0.008693 0.000000 0.049614 0.000000
# 6 0.000000 0.000000 0.000000 0.000848 0.000000 0.031926
#
#
# Mechanical properties :
#
#
# Convention : Reuss Voigt Hill
#
# Bulk Modulus (GPa) = 41.54109 51.52625 46.53367
# Shear Modulus (GPa) = 25.93766 29.15383 27.54574
#
# Velocity S-wave (km/s) = 3.58332 3.79898 3.69273
# Velocity P-wave (km/s) = 6.13878 6.68959 6.42009
#
# Compressibility (1/GPa) = 0.02407255
#
# Stress axis : x y z
#
# Youngs Moduli (GPa) = 77.63507 54.79569 89.96734
#
# Poissons Ratio (x) = 0.08720 0.26826
# Poissons Ratio (y) = 0.12355 0.40605
# Poissons Ratio (z) = 0.23149 0.24731
#
# Static dielectric constant tensor:
#      x y z
#    x 3.737590 0.000000 -0.214160 
#    y 0.000000 3.771820 0.000000 
#    z -0.214160 0.000000 3.933590 
# 
# 
# High freq. dielectric constant tensor:
#      x y z
#    x 1.790530 0.000000 -0.016360 
#    y 0.000000 1.777040 0.000000 
#    z -0.016360 0.000000 1.790430 
# 
# From -- ./inp_files/226820.got.cif
#   From: 2010.06.25/outbox.cif.g09.slc.cpg/sg12_114_cif.got.tgz:226820.got - 2010.06.28 00:19:55.
