data_PCOD8090184
_publ_section_title
;
Structure prediction by ZEFSAII (Michael W. Deem and Ramdas Pophale) SiO2 
 PCOD8090184
Probable space group: C 2/M
;
_chemical_formula_sum "Si O2"
_cell_formula_units_Z 56
_cell_length_a 15.259029
_cell_length_b 8.481324
_cell_length_c 22.814806
_cell_angle_alpha 90.000000
_cell_angle_beta 68.133517
_cell_angle_gamma 90.000000
_cell_volume 2740.190231
_symmetry_space_group_name_H-M "C 2/M"
_symmetry_group_IT_number 12
_symmetry_cell_setting 'monoclinic'
loop_
_space_group_symop_operation_xyz
x,y,z
-x,y,-z
-x,-y,-z
x,-y,z
1/2+x,1/2+y,z
1/2-x,1/2+y,-z
1/2-x,1/2-y,-z
1/2+x,1/2-y,z
loop_
_atom_site_type_symbol
_atom_site_label
_atom_site_fract_x
_atom_site_fract_y
_atom_site_fract_z
Si Si1 0.133280 0.685303 0.441127
Si Si2 0.459719 0.686219 0.421655
Si Si3 0.419428 0.816298 0.876670
Si Si4 0.880499 0.315005 0.213873
Si Si5 0.764715 0.183596 0.140895
Si Si6 0.100966 0.186201 0.994502
Si Si7 0.832084 0.686067 0.355042
O O1 0.118051 0.500000 0.454492
O O2 0.108282 0.775828 0.506974
O O3 0.240760 0.719916 0.399032
O O4 0.064903 0.747249 0.406574
O O5 0.463989 0.500000 0.410649
O O6 0.420372 0.771771 0.373945
O O7 0.520612 0.740458 0.834080
O O8 0.346057 0.784055 0.842126
O O9 0.429974 0.000000 0.886249
O O10 0.375788 0.742201 0.946069
O O11 0.893896 0.500000 0.214772
O O12 0.795103 0.273197 0.191938
O O13 0.856667 0.250505 0.284161
O O14 0.822004 0.250550 0.070628
O O15 0.786508 0.000000 0.144497
O O16 0.100866 0.000000 0.994142
O O17 0.000000 0.255099 0.000000
O O18 0.811747 0.500000 0.361553
#
# Coordination Sequence:
#
# PCOD8090184 Si02
#       7
#     8   8   8   8   8   8   8
#     4  11  22  39  63  92 122 156 196 242 294 347
#     4  11  22  39  63  93 124 156 194 240 294 350
#     4  10  21  37  57  82 109 144 188 234 285 341
#     4  10  23  40  57  80 112 149 191 237 284 336
#     4  10  21  37  57  81 112 147 187 234 287 346
#     4  10  19  33  55  83 113 144 181 232 290 342
#     4  11  23  40  59  84 120 159 200 246 294 350
#
# _framework density 20.436537999999999
#
# number of rings (size 3 to 8) (size 9 to 14) (size 15 to 20)
#    0.000    1.571    1.429    4.714    0.000    3.714 
#    0.000    1.429    0.000    0.000    0.000    0.000 
#    0.000    0.000    0.000    0.000    0.000    0.000 
#
# Total GULP energy -347300.145803 kJ/mol
# GULP energy per Si atom -12403.576636 kJ/mol
# Density = 2.039002 g / cm^3
# Si number density = 20.436538 Si / 1000 Ang^3
#
#
#
# Elastic Constant Matrix: (Units=GPa)
#
#
# Indices 1 2 3 4 5 6 
#
# 1 100.8879 10.2545 26.4286 0.0000 20.5097 0.0000
# 2 10.2545 37.8203 5.7257 0.0000 -1.2558 0.0001
# 3 26.4286 5.7257 64.6267 0.0000 25.2819 0.0000
# 4 0.0000 0.0000 0.0000 23.4605 0.0000 4.4199
# 5 20.5097 -1.2558 25.2819 0.0000 29.7276 0.0000
# 6 0.0000 0.0001 0.0000 4.4199 0.0000 34.1046
#
#
#
# Elastic Compliance Matrix: (Units=1/GPa)
#
#
# Indices 1 2 3 4 5 6 
#
# 1 0.012151 -0.003214 -0.002026 0.000000 -0.006796 0.000000
# 2 -0.003214 0.028100 -0.003757 0.000000 0.006599 0.000000
# 3 -0.002026 -0.003757 0.024202 0.000000 -0.019344 0.000000
# 4 0.000000 0.000000 0.000000 0.043692 0.000000 -0.005662
# 5 -0.006796 0.006599 -0.019344 0.000000 0.055057 0.000000
# 6 0.000000 0.000000 0.000000 -0.005662 0.000000 0.030055
#
#
# Mechanical properties :
#
#
# Convention : Reuss Voigt Hill
#
# Bulk Modulus (GPa) = 21.52369 32.01694 26.77031
# Shear Modulus (GPa) = 22.05202 28.18694 25.11948
#
# Velocity S-wave (km/s) = 3.28845 3.71784 3.50972
# Velocity P-wave (km/s) = 4.99734 5.84212 5.43616
#
# Compressibility (1/GPa) = 0.04646044
#
# Stress axis : x y z
#
# Youngs Moduli (GPa) = 82.29858 35.58715 41.31891
#
# Poissons Ratio (x) = 0.11436 0.08370
# Poissons Ratio (y) = 0.26447 0.15524
# Poissons Ratio (z) = 0.16671 0.13370
#
# Static dielectric constant tensor:
#      x y z
#    x 3.838850 0.000000 -0.040840 
#    y 0.000000 3.525790 0.000000 
#    z -0.040840 0.000000 3.764170 
# 
# 
# High freq. dielectric constant tensor:
#      x y z
#    x 1.813650 0.000000 0.002510 
#    y 0.000000 1.789880 0.000000 
#    z 0.002510 0.000000 1.791250 
# 
# From -- ./inp_files/338559.got.cif
#   From: 2010.06.25/outbox.cif.g09.slc.cpg/sg12_170_cif.got.tgz:338559.got - 2010.06.28 00:19:55.
