data_PCOD8090445
_publ_section_title
;
Structure prediction by ZEFSAII (Michael W. Deem and Ramdas Pophale) SiO2 
 PCOD8090445
Probable space group: C 2/M
;
_chemical_formula_sum "Si O2"
_cell_formula_units_Z 64
_cell_length_a 23.660562
_cell_length_b 11.014779
_cell_length_c 13.448603
_cell_angle_alpha 90.000000
_cell_angle_beta 97.600880
_cell_angle_gamma 90.000000
_cell_volume 3474.123314
_symmetry_space_group_name_H-M "C 2/M"
_symmetry_group_IT_number 12
_symmetry_cell_setting 'monoclinic'
loop_
_space_group_symop_operation_xyz
x,y,z
-x,y,-z
-x,-y,-z
x,-y,z
1/2+x,1/2+y,z
1/2-x,1/2+y,-z
1/2-x,1/2-y,-z
1/2+x,1/2-y,z
loop_
_atom_site_type_symbol
_atom_site_label
_atom_site_fract_x
_atom_site_fract_y
_atom_site_fract_z
Si Si1 0.840151 0.271498 0.501333
Si Si2 0.373796 0.132879 0.309175
Si Si3 0.444244 0.639679 0.034602
Si Si4 0.229027 0.722791 0.829913
Si Si5 0.045787 0.137492 0.430169
Si Si6 0.179187 0.861625 0.004542
Si Si7 0.246525 0.361723 0.363817
Si Si8 0.948625 0.862376 0.267433
O O1 0.850515 0.369341 0.416562
O O2 0.898942 0.219851 0.556968
O O3 0.810744 0.333449 0.588878
O O4 0.800727 0.166050 0.446124
O O5 0.322194 0.136590 0.217922
O O6 0.411965 0.254612 0.309213
O O7 0.404091 0.000000 0.299131
O O8 0.445802 0.500000 0.001622
O O9 0.448222 0.658593 0.151931
O O10 0.500000 0.705708 0.000000
O O11 0.383336 0.697843 0.986552
O O12 0.280970 0.647291 0.889467
O O13 0.253417 0.791656 0.740212
O O14 0.206730 0.810059 0.911099
O O15 0.000000 0.184152 0.500000
O O16 0.014329 0.147898 0.316690
O O17 0.064254 0.000000 0.458917
O O18 0.167600 0.000000 0.974882
O O19 0.248387 0.500000 0.333701
O O20 0.925554 0.000000 0.289605
#
# Coordination Sequence:
#
# PCOD8090445 Si02
#       8
#     8   8   8   8   8   8   8   8
#     4  10  21  36  55  82 113 151 190 234 285 337
#     4  11  21  35  55  82 116 150 187 233 285 338
#     4   9  18  33  55  82 109 138 174 227 284 334
#     4  10  21  34  55  82 109 148 186 231 281 337
#     4  10  19  33  56  85 112 140 187 243 284 327
#     4  10  19  34  56  84 111 137 182 235 281 332
#     4  10  21  37  56  78 112 155 195 232 280 340
#     4  10  20  35  57  83 109 145 190 233 280 338
#
# _framework density 18.421914999999998
#
# number of rings (size 3 to 8) (size 9 to 14) (size 15 to 20)
#    0.000    2.000    2.500    1.500    0.000    3.000 
#    0.000    5.000    0.000    0.375    0.000    0.000 
#    0.000    0.000    0.000    0.000    0.000    0.000 
#
# Total GULP energy -396530.926139 kJ/mol
# GULP energy per Si atom -12391.591442 kJ/mol
# Density = 1.837999 g / cm^3
# Si number density = 18.421915 Si / 1000 Ang^3
#
#
#
# Elastic Constant Matrix: (Units=GPa)
#
#
# Indices 1 2 3 4 5 6 
#
# 1 102.9655 25.3288 30.6116 0.0000 12.0169 0.0000
# 2 25.3288 87.6505 22.5485 0.0000 -3.2903 0.0000
# 3 30.6116 22.5485 68.8421 0.0000 7.0344 0.0000
# 4 0.0000 0.0000 0.0000 9.9173 0.0000 -2.2512
# 5 12.0169 -3.2903 7.0344 0.0000 31.4525 0.0000
# 6 0.0000 0.0000 0.0000 -2.2512 0.0000 16.2228
#
#
#
# Elastic Compliance Matrix: (Units=1/GPa)
#
#
# Indices 1 2 3 4 5 6 
#
# 1 0.012024 -0.002567 -0.004102 0.000000 -0.003945 0.000000
# 2 -0.002567 0.013167 -0.003492 0.000000 0.003139 0.000000
# 3 -0.004102 -0.003492 0.017777 0.000000 -0.002774 0.000000
# 4 0.000000 0.000000 0.000000 0.104113 0.000000 0.014448
# 5 -0.003945 0.003139 -0.002774 0.000000 0.034250 0.000000
# 6 0.000000 0.000000 0.000000 0.014448 0.000000 0.063646
#
#
# Mechanical properties :
#
#
# Convention : Reuss Voigt Hill
#
# Bulk Modulus (GPa) = 44.16049 46.27065 45.21557
# Shear Modulus (GPa) = 18.32515 23.58314 20.95415
#
# Velocity S-wave (km/s) = 3.15738 3.58182 3.37628
# Velocity P-wave (km/s) = 6.10867 6.50213 6.30847
#
# Compressibility (1/GPa) = 0.02264468
#
# Stress axis : x y z
#
# Youngs Moduli (GPa) = 83.16998 75.94765 56.25114
#
# Poissons Ratio (x) = 0.19497 0.23077
# Poissons Ratio (y) = 0.21351 0.19643
# Poissons Ratio (z) = 0.34120 0.26520
#
# Static dielectric constant tensor:
#      x y z
#    x 3.654550 0.000000 0.110860 
#    y 0.000000 3.162850 0.000000 
#    z 0.110860 0.000000 3.458050 
# 
# 
# High freq. dielectric constant tensor:
#      x y z
#    x 1.716440 0.000000 0.009530 
#    y 0.000000 1.688650 0.000000 
#    z 0.009530 0.000000 1.720800 
# 
# From -- ./inp_files/174629.got.cif
#   From: 2010.06.25/outbox.cif.g09.slc.cpg/sg12_88_cif.got.tgz:174629.got - 2010.06.28 00:19:55.
