data_PCOD8090961
_publ_section_title
;
Structure prediction by ZEFSAII (Michael W. Deem and Ramdas Pophale) SiO2 
 PCOD8090961
Probable space group: C 2/M
;
_chemical_formula_sum "Si O2"
_cell_formula_units_Z 64
_cell_length_a 33.432744
_cell_length_b 8.762945
_cell_length_c 25.514423
_cell_angle_alpha 90.000000
_cell_angle_beta 153.404526
_cell_angle_gamma 90.000000
_cell_volume 3346.445481
_symmetry_space_group_name_H-M "C 2/M"
_symmetry_group_IT_number 12
_symmetry_cell_setting 'monoclinic'
loop_
_space_group_symop_operation_xyz
x,y,z
-x,y,-z
-x,-y,-z
x,-y,z
1/2+x,1/2+y,z
1/2-x,1/2+y,-z
1/2-x,1/2-y,-z
1/2+x,1/2-y,z
loop_
_atom_site_type_symbol
_atom_site_label
_atom_site_fract_x
_atom_site_fract_y
_atom_site_fract_z
Si Si1 0.483984 0.331670 0.042119
Si Si2 0.303578 0.671898 0.351917
Si Si3 0.929492 0.680837 0.580835
Si Si4 0.279385 0.676812 0.952501
Si Si5 0.193359 0.321261 0.127160
Si Si6 0.880439 0.177963 0.174127
Si Si7 0.842126 0.329434 0.735429
Si Si8 0.720502 0.173426 0.517950
O O1 0.498645 0.500000 0.084773
O O2 0.553217 0.204380 0.142518
O O3 0.500000 0.347995 0.000000
O O4 0.386303 0.276429 0.942361
O O5 0.340969 0.500000 0.400070
O O6 0.378437 0.778984 0.466483
O O7 0.282851 0.715517 0.266820
O O8 0.205835 0.683926 0.264516
O O9 0.945949 0.500000 0.600943
O O10 0.869197 0.737729 0.559402
O O11 0.020964 0.770852 0.694422
O O12 0.275861 0.500000 0.932307
O O13 0.292597 0.777942 0.916630
O O14 0.186100 0.722190 0.869214
O O15 0.359804 0.707670 0.088269
O O16 0.170969 0.500000 0.104867
O O17 0.867427 0.000000 0.172144
O O18 0.827811 0.500000 0.695636
O O19 0.801289 0.197817 0.651998
O O20 0.750000 0.250000 0.500000
O O21 0.704469 0.000000 0.486329
#
# Coordination Sequence:
#
# PCOD8090961 Si02
#       8
#     8   8   8   8   8   8   8   8
#     4  11  22  34  52  79 112 150 191 235 281 332
#     4   9  19  35  55  80 112 150 189 229 278 336
#     4  10  21  36  59  86 112 147 190 235 284 339
#     4  10  22  40  62  89 118 149 185 234 291 343
#     4  11  22  37  58  85 118 154 194 238 286 344
#     4  10  21  40  65  88 114 148 188 233 287 348
#     4  10  19  34  54  75 105 146 191 234 281 334
#     4  10  21  36  53  78 112 149 190 234 284 335
#
# _framework density 19.124770999999999
#
# number of rings (size 3 to 8) (size 9 to 14) (size 15 to 20)
#    0.000    1.875    1.250    2.625    0.000    6.000 
#    0.000    3.125    0.000    3.750    0.000    0.000 
#    0.000    0.000    0.000    0.000    0.000    0.000 
#
# Total GULP energy -396633.063983 kJ/mol
# GULP energy per Si atom -12394.783249 kJ/mol
# Density = 1.908124 g / cm^3
# Si number density = 19.124771 Si / 1000 Ang^3
#
#
#
# Elastic Constant Matrix: (Units=GPa)
#
#
# Indices 1 2 3 4 5 6 
#
# 1 77.2976 23.8133 32.4591 0.0000 -12.5550 0.0000
# 2 23.8133 67.1457 28.5168 0.0000 -2.8159 0.0000
# 3 32.4591 28.5168 105.3525 0.0000 3.0364 0.0000
# 4 0.0000 0.0000 0.0000 34.5081 0.0000 1.1813
# 5 -12.5550 -2.8159 3.0364 0.0000 21.1211 0.0000
# 6 0.0000 0.0000 0.0000 1.1813 0.0000 39.0180
#
#
#
# Elastic Compliance Matrix: (Units=1/GPa)
#
#
# Indices 1 2 3 4 5 6 
#
# 1 0.017888 -0.003862 -0.004777 0.000000 0.010805 0.000000
# 2 -0.003862 0.017841 -0.003657 0.000000 0.000609 0.000000
# 3 -0.004777 -0.003657 0.012100 0.000000 -0.005067 0.000000
# 4 0.000000 0.000000 0.000000 0.029009 0.000000 -0.000878
# 5 0.010805 0.000609 -0.005067 0.000000 0.054579 0.000000
# 6 0.000000 0.000000 0.000000 -0.000878 0.000000 0.025656
#
#
# Mechanical properties :
#
#
# Convention : Reuss Voigt Hill
#
# Bulk Modulus (GPa) = 43.03575 46.59711 44.81643
# Shear Modulus (GPa) = 26.39780 29.92987 28.16384
#
# Velocity S-wave (km/s) = 3.71926 3.96027 3.84166
# Velocity P-wave (km/s) = 6.40276 6.73271 6.56981
#
# Compressibility (1/GPa) = 0.02323649
#
# Stress axis : x y z
#
# Youngs Moduli (GPa) = 55.90386 56.04993 82.64639
#
# Poissons Ratio (x) = 0.21646 0.39483
# Poissons Ratio (y) = 0.21589 0.30223
# Poissons Ratio (z) = 0.26707 0.20497
#
# Static dielectric constant tensor:
#      x y z
#    x 3.507860 0.000000 -0.312410 
#    y 0.000000 3.583310 0.000000 
#    z -0.312410 0.000000 3.017200 
# 
# 
# High freq. dielectric constant tensor:
#      x y z
#    x 1.728750 0.000000 -0.007020 
#    y 0.000000 1.756580 0.000000 
#    z -0.007020 0.000000 1.741150 
# 
# From -- ./inp_files/353583.got.cif
#   From: 2010.06.25/outbox.cif.g09.slc.cpg/sg12_177_cif.got.tgz:353583.got - 2010.06.28 00:19:55.
