data_PCOD8090703
_publ_section_title
;
Structure prediction by ZEFSAII (Michael W. Deem and Ramdas Pophale) SiO2 
 PCOD8090703
Probable space group: C 2/M
;
_chemical_formula_sum "Si O2"
_cell_formula_units_Z 48
_cell_length_a 12.424138
_cell_length_b 14.804622
_cell_length_c 13.545521
_cell_angle_alpha 90.000000
_cell_angle_beta 97.779666
_cell_angle_gamma 90.000000
_cell_volume 2468.559067
_symmetry_space_group_name_H-M "C 2/M"
_symmetry_group_IT_number 12
_symmetry_cell_setting 'monoclinic'
loop_
_space_group_symop_operation_xyz
x,y,z
-x,y,-z
-x,-y,-z
x,-y,z
1/2+x,1/2+y,z
1/2-x,1/2+y,-z
1/2-x,1/2-y,-z
1/2+x,1/2-y,z
loop_
_atom_site_type_symbol
_atom_site_label
_atom_site_fract_x
_atom_site_fract_y
_atom_site_fract_z
Si Si1 0.880722 0.104458 0.443805
Si Si2 0.739558 0.693846 0.097982
Si Si3 0.813552 0.000000 0.957725
Si Si4 0.111206 0.256519 0.702833
Si Si5 0.736704 0.896816 0.611963
Si Si6 0.572590 0.668938 0.228601
Si Si7 0.470236 0.500000 0.145072
O O1 0.850845 0.164044 0.345320
O O2 0.787216 0.125243 0.512120
O O3 0.000000 0.130715 0.500000
O O4 0.879921 0.000000 0.411982
O O5 0.758984 0.587998 0.075125
O O6 0.826636 0.729587 0.186841
O O7 0.617729 0.705549 0.129012
O O8 0.750000 0.750000 0.000000
O O9 0.923549 0.000000 0.909686
O O10 0.854069 0.000000 0.076251
O O11 0.131027 0.336752 0.625855
O O12 0.983131 0.249791 0.715615
O O13 0.825795 0.875769 0.705246
O O14 0.700049 0.000000 0.614974
O O15 0.478619 0.592309 0.209005
#
# Coordination Sequence:
#
# PCOD8090703 Si02
#       7
#     8   8   4   8   8   8   4
#     4  10  20  36  60  92 121 148 193 250 302 352
#     4  10  22  38  55  85 120 154 196 248 290 352
#     4   9  18  34  54  81 111 148 197 239 290 342
#     4  11  22  33  60  89 118 155 194 244 297 349
#     4  10  20  37  60  87 123 155 194 238 291 364
#     4  10  19  33  58  90 115 153 196 243 291 346
#     4   9  16  28  56  83 112 142 186 244 294 333
#
# _framework density 19.444541000000001
#
# number of rings (size 3 to 8) (size 9 to 14) (size 15 to 20)
#    0.000    2.000    2.500    1.500    4.667    2.000 
#    1.500    0.000    1.833    2.500    0.000    0.000 
#    0.000    0.000    0.000    0.000    0.000    0.000 
#
# Total GULP energy -297454.300822 kJ/mol
# GULP energy per Si atom -12393.929201 kJ/mol
# Density = 1.940028 g / cm^3
# Si number density = 19.444541 Si / 1000 Ang^3
#
#
#
# Elastic Constant Matrix: (Units=GPa)
#
#
# Indices 1 2 3 4 5 6 
#
# 1 45.5306 42.4073 16.9366 0.0000 -25.3748 0.0000
# 2 42.4073 120.0726 56.8767 0.0000 -19.2120 0.0000
# 3 16.9366 56.8767 79.2297 0.0000 -16.5048 0.0000
# 4 0.0000 0.0000 0.0000 37.1264 0.0000 0.4245
# 5 -25.3748 -19.2120 -16.5048 0.0000 40.0842 0.0000
# 6 0.0000 0.0000 0.0000 0.4245 0.0000 31.9759
#
#
#
# Elastic Compliance Matrix: (Units=1/GPa)
#
#
# Indices 1 2 3 4 5 6 
#
# 1 0.049293 -0.016392 0.006666 0.000000 0.026092 0.000000
# 2 -0.016392 0.018311 -0.010910 0.000000 -0.006093 0.000000
# 3 0.006666 -0.010910 0.020584 0.000000 0.007466 0.000000
# 4 0.000000 0.000000 0.000000 0.026939 0.000000 -0.000358
# 5 0.026092 -0.006093 0.007466 0.000000 0.041619 0.000000
# 6 0.000000 0.000000 0.000000 -0.000358 0.000000 0.031278
#
#
# Mechanical properties :
#
#
# Convention : Reuss Voigt Hill
#
# Bulk Modulus (GPa) = 21.31518 53.03046 37.17282
# Shear Modulus (GPa) = 20.41370 30.41146 25.41258
#
# Velocity S-wave (km/s) = 3.24364 3.95905 3.61907
# Velocity P-wave (km/s) = 5.00141 6.94483 6.05164
#
# Compressibility (1/GPa) = 0.04691492
#
# Stress axis : x y z
#
# Youngs Moduli (GPa) = 20.28699 54.61339 48.58193
#
# Poissons Ratio (x) = 0.89521 -0.32382
# Poissons Ratio (y) = 0.33254 0.53002
# Poissons Ratio (z) = -0.13522 0.59582
#
# Static dielectric constant tensor:
#      x y z
#    x 3.443350 0.000000 -0.341580 
#    y 0.000000 3.771980 0.000000 
#    z -0.341580 0.000000 3.775410 
# 
# 
# High freq. dielectric constant tensor:
#      x y z
#    x 1.719380 0.000000 -0.019590 
#    y 0.000000 1.755210 0.000000 
#    z -0.019590 0.000000 1.769260 
# 
# From -- ./inp_files/212797.got.cif
#   From: 2010.06.25/outbox.cif.g09.slc.cpg/sg12_107_cif.got.tgz:212797.got - 2010.06.28 00:19:55.
