data_PCOD8090744
_publ_section_title
;
Structure prediction by ZEFSAII (Michael W. Deem and Ramdas Pophale) SiO2 
 PCOD8090744
Probable space group: C 2/M
;
_chemical_formula_sum "Si O2"
_cell_formula_units_Z 64
_cell_length_a 17.532383
_cell_length_b 19.134380
_cell_length_c 27.311360
_cell_angle_alpha 90.000000
_cell_angle_beta 159.195140
_cell_angle_gamma 90.000000
_cell_volume 3254.279294
_symmetry_space_group_name_H-M "C 2/M"
_symmetry_group_IT_number 12
_symmetry_cell_setting 'monoclinic'
loop_
_space_group_symop_operation_xyz
x,y,z
-x,y,-z
-x,-y,-z
x,-y,z
1/2+x,1/2+y,z
1/2-x,1/2+y,-z
1/2-x,1/2-y,-z
1/2+x,1/2-y,z
loop_
_atom_site_type_symbol
_atom_site_label
_atom_site_fract_x
_atom_site_fract_y
_atom_site_fract_z
Si Si1 0.754781 0.718422 0.226375
Si Si2 0.921144 0.744755 0.502151
Si Si3 0.595346 0.077687 0.706034
Si Si4 0.770123 0.226510 0.956301
Si Si5 0.630634 0.923977 0.838327
Si Si6 0.517031 0.294905 0.721659
Si Si7 0.908200 0.078021 0.596538
Si Si8 0.145602 0.899798 0.544844
O O1 0.778626 0.634993 0.250573
O O2 0.879294 0.735638 0.250617
O O3 0.870489 0.758999 0.339691
O O4 0.507380 0.739477 0.077301
O O5 0.740334 0.706721 0.425851
O O6 0.819045 0.817786 0.424351
O O7 0.000000 0.704265 0.500000
O O8 0.692154 0.085379 0.818539
O O9 0.343831 0.094918 0.551805
O O10 0.641608 0.000000 0.713111
O O11 0.710074 0.144003 0.916029
O O12 0.621714 0.281246 0.837408
O O13 0.750000 0.250000 0.000000
O O14 0.375754 0.934757 0.687019
O O15 0.725018 0.000000 0.913840
O O16 0.551795 0.370428 0.716873
O O17 0.970535 0.086043 0.576881
O O18 0.960519 0.000000 0.646281
O O19 0.000000 0.932912 0.500000
#
# Coordination Sequence:
#
# PCOD8090744 Si02
#       8
#     8   8   8   8   8   8   8   8
#     4  12  22  37  63  91 117 160 202 249 302 356
#     4  11  21  35  62  94 123 153 196 250 312 359
#     4   9  18  34  60  94 121 143 189 249 302 357
#     4  12  27  42  58  86 126 164 206 254 303 363
#     4  10  21  38  59  86 122 158 194 246 312 366
#     4  12  21  40  63  88 119 157 206 254 293 362
#     4  10  20  35  59  92 123 157 198 248 301 356
#     4  10  19  33  59  94 127 153 199 257 313 358
#
# _framework density 19.666412999999999
#
# number of rings (size 3 to 8) (size 9 to 14) (size 15 to 20)
#    0.000    1.250    5.000    3.375    1.750    1.500 
#    0.000    1.875    0.000    4.500    0.000    0.000 
#    0.000    0.000    0.000    0.000    0.000    0.000 
#
# Total GULP energy -396567.898338 kJ/mol
# GULP energy per Si atom -12392.746823 kJ/mol
# Density = 1.962165 g / cm^3
# Si number density = 19.666413 Si / 1000 Ang^3
#
#
#
# Elastic Constant Matrix: (Units=GPa)
#
#
# Indices 1 2 3 4 5 6 
#
# 1 89.6470 36.0897 32.4817 -0.0226 -4.3966 0.0073
# 2 36.0897 125.9057 37.1743 0.0034 -11.0510 0.0020
# 3 32.4817 37.1743 78.5055 0.0099 -8.5187 0.0167
# 4 -0.0226 0.0034 0.0099 22.8485 0.0110 -4.3142
# 5 -4.3966 -11.0510 -8.5187 0.0110 33.4175 0.0034
# 6 0.0073 0.0020 0.0167 -4.3142 0.0034 15.0900
#
#
#
# Elastic Compliance Matrix: (Units=1/GPa)
#
#
# Indices 1 2 3 4 5 6 
#
# 1 0.013843 -0.002660 -0.004490 0.000017 -0.000203 0.000003
# 2 -0.002660 0.009876 -0.003352 -0.000003 0.002061 0.000002
# 3 -0.004490 -0.003352 0.016454 -0.000016 0.002495 -0.000021
# 4 0.000017 -0.000003 -0.000016 0.046264 -0.000020 0.013227
# 5 -0.000203 0.002061 0.002495 -0.000020 0.031215 -0.000016
# 6 0.000003 0.000002 -0.000021 0.013227 -0.000016 0.070051
#
#
# Mechanical properties :
#
#
# Convention : Reuss Voigt Hill
#
# Bulk Modulus (GPa) = 52.17029 56.17218 54.17123
# Shear Modulus (GPa) = 23.24553 26.82537 25.03545
#
# Velocity S-wave (km/s) = 3.44174 3.69727 3.57179
# Velocity P-wave (km/s) = 6.50994 6.84477 6.67945
#
# Compressibility (1/GPa) = 0.01916800
#
# Stress axis : x y z
#
# Youngs Moduli (GPa) = 72.24094 101.26005 60.77672
#
# Poissons Ratio (x) = 0.26935 0.27288
# Poissons Ratio (y) = 0.19216 0.20373
# Poissons Ratio (z) = 0.32435 0.33943
#
# Static dielectric constant tensor:
#      x y z
#    x 3.601330 -0.000030 0.061800 
#    y -0.000030 3.587910 -0.000090 
#    z 0.061800 -0.000090 3.377610 
# 
# 
# High freq. dielectric constant tensor:
#      x y z
#    x 1.756270 0.000000 0.007640 
#    y 0.000000 1.768240 -0.000010 
#    z 0.007640 -0.000010 1.741610 
# 
# From -- ./inp_files/364774.got.cif
#   From: 2010.06.25/outbox.cif.g09.slc.cpg/sg12_183_cif.got.tgz:364774.got - 2010.06.28 00:19:55.
