data_PCOD8090725
_publ_section_title
;
Structure prediction by ZEFSAII (Michael W. Deem and Ramdas Pophale) SiO2 
 PCOD8090725
Probable space group: C 2/M
;
_chemical_formula_sum "Si O2"
_cell_formula_units_Z 64
_cell_length_a 18.575224
_cell_length_b 13.940063
_cell_length_c 17.775549
_cell_angle_alpha 90.000000
_cell_angle_beta 46.037625
_cell_angle_gamma 90.000000
_cell_volume 3313.073993
_symmetry_space_group_name_H-M "C 2/M"
_symmetry_group_IT_number 12
_symmetry_cell_setting 'monoclinic'
loop_
_space_group_symop_operation_xyz
x,y,z
-x,y,-z
-x,-y,-z
x,-y,z
1/2+x,1/2+y,z
1/2-x,1/2+y,-z
1/2-x,1/2-y,-z
1/2+x,1/2-y,z
loop_
_atom_site_type_symbol
_atom_site_label
_atom_site_fract_x
_atom_site_fract_y
_atom_site_fract_z
Si Si1 0.285675 0.886334 0.233393
Si Si2 0.543685 0.604376 0.050940
Si Si3 0.522445 0.109934 0.809754
Si Si4 0.962788 0.272113 0.346041
Si Si5 0.097609 0.699887 0.980113
Si Si6 0.393353 0.391627 0.293783
Si Si7 0.592673 0.265329 0.386868
Si Si8 0.660715 0.111169 0.445463
O O1 0.372009 0.857613 0.229919
O O2 0.311153 0.844727 0.132336
O O3 0.183133 0.838631 0.333906
O O4 0.273078 0.000000 0.236796
O O5 0.591076 0.500000 0.039269
O O6 0.457996 0.634839 0.172951
O O7 0.500000 0.592014 0.000000
O O8 0.623737 0.692318 0.992196
O O9 0.500414 0.166275 0.750356
O O10 0.527396 0.000000 0.784921
O O11 0.429508 0.127948 0.932851
O O12 0.916878 0.173219 0.348885
O O13 0.880264 0.331194 0.452634
O O14 0.061430 0.247768 0.322954
O O15 0.000000 0.711180 0.000000
O O16 0.415319 0.500000 0.303486
O O17 0.278928 0.378183 0.354568
O O18 0.500000 0.310671 0.500000
O O19 0.617412 0.159654 0.401479
O O20 0.627236 0.000000 0.473488
#
# Coordination Sequence:
#
# PCOD8090725 Si02
#       8
#     8   8   8   8   8   8   8   8
#     4  10  21  38  60  85 114 150 192 233 278 337
#     4   9  17  29  51  85 119 149 182 226 283 337
#     4  10  19  33  59  88 114 144 184 236 286 333
#     4  11  21  37  55  83 115 150 186 236 289 343
#     4   9  17  31  55  85 115 145 181 234 284 330
#     4  10  20  35  58  87 116 148 189 240 290 334
#     4  10  24  40  57  80 112 155 195 232 283 340
#     4  10  22  39  60  82 109 149 196 242 286 335
#
# _framework density 19.317405999999998
#
# number of rings (size 3 to 8) (size 9 to 14) (size 15 to 20)
#    0.000    2.125    1.250    1.875    3.500    6.000 
#    0.000    5.000    0.000    0.000    0.000    0.000 
#    0.000    0.000    0.000    0.000    0.000    0.000 
#
# Total GULP energy -396688.903111 kJ/mol
# GULP energy per Si atom -12396.528222 kJ/mol
# Density = 1.927344 g / cm^3
# Si number density = 19.317406 Si / 1000 Ang^3
#
#
#
# Elastic Constant Matrix: (Units=GPa)
#
#
# Indices 1 2 3 4 5 6 
#
# 1 74.2743 35.5986 34.6149 0.0000 13.0846 0.0000
# 2 35.5986 107.9774 42.8990 0.0000 4.3203 0.0000
# 3 34.6149 42.8990 86.1204 0.0000 12.0846 0.0000
# 4 0.0000 0.0000 0.0000 35.9263 0.0000 2.7955
# 5 13.0846 4.3203 12.0846 0.0000 19.3735 0.0000
# 6 0.0000 0.0000 0.0000 2.7955 0.0000 6.4357
#
#
#
# Elastic Compliance Matrix: (Units=1/GPa)
#
#
# Indices 1 2 3 4 5 6 
#
# 1 0.019124 -0.004236 -0.004271 0.000000 -0.009307 0.000000
# 2 -0.004236 0.012506 -0.004973 0.000000 0.003174 0.000000
# 3 -0.004271 -0.004973 0.016707 0.000000 -0.006428 0.000000
# 4 0.000000 0.000000 0.000000 0.028808 0.000000 -0.012514
# 5 -0.009307 0.003174 -0.006428 0.000000 0.061205 0.000000
# 6 0.000000 0.000000 0.000000 -0.012514 0.000000 0.160819
#
#
# Mechanical properties :
#
#
# Convention : Reuss Voigt Hill
#
# Bulk Modulus (GPa) = 46.77394 54.95523 50.86459
# Shear Modulus (GPa) = 15.00360 22.69775 18.85067
#
# Velocity S-wave (km/s) = 2.78994 3.43153 3.12723
# Velocity P-wave (km/s) = 5.88594 6.64912 6.27914
#
# Compressibility (1/GPa) = 0.02137943
#
# Stress axis : x y z
#
# Youngs Moduli (GPa) = 52.29136 79.96002 59.85478
#
# Poissons Ratio (x) = 0.33869 0.25561
# Poissons Ratio (y) = 0.22149 0.29763
# Poissons Ratio (z) = 0.22331 0.39760
#
# Static dielectric constant tensor:
#      x y z
#    x 3.259570 0.000000 0.181290 
#    y 0.000000 3.903700 0.000000 
#    z 0.181290 0.000000 3.600280 
# 
# 
# High freq. dielectric constant tensor:
#      x y z
#    x 1.716120 0.000000 0.019270 
#    y 0.000000 1.772270 0.000000 
#    z 0.019270 0.000000 1.753480 
# 
# From -- ./inp_files/278143.got.cif
#   From: 2010.06.25/outbox.cif.g09.slc.cpg/sg12_140_cif.got.tgz:278143.got - 2010.06.28 00:19:55.
