data_PCOD8090473
_publ_section_title
;
Structure prediction by ZEFSAII (Michael W. Deem and Ramdas Pophale) SiO2 
 PCOD8090473
Probable space group: C 2/M
;
_chemical_formula_sum "Si O2"
_cell_formula_units_Z 56
_cell_length_a 22.791217
_cell_length_b 18.210982
_cell_length_c 23.049734
_cell_angle_alpha 90.000000
_cell_angle_beta 17.986138
_cell_angle_gamma 90.000000
_cell_volume 2954.103120
_symmetry_space_group_name_H-M "C 2/M"
_symmetry_group_IT_number 12
_symmetry_cell_setting 'monoclinic'
loop_
_space_group_symop_operation_xyz
x,y,z
-x,y,-z
-x,-y,-z
x,-y,z
1/2+x,1/2+y,z
1/2-x,1/2+y,-z
1/2-x,1/2-y,-z
1/2+x,1/2-y,z
loop_
_atom_site_type_symbol
_atom_site_label
_atom_site_fract_x
_atom_site_fract_y
_atom_site_fract_z
Si Si1 0.292661 0.587527 0.204783
Si Si2 0.061761 0.586077 0.529543
Si Si3 0.490978 0.584691 0.444558
Si Si4 0.567125 0.712147 0.200425
Si Si5 0.247854 0.916379 0.101491
Si Si6 0.663243 0.914284 0.669663
Si Si7 0.317992 0.836408 0.471681
O O1 0.307466 0.500000 0.191921
O O2 0.212239 0.617961 0.341553
O O3 0.150958 0.613855 0.286442
O O4 0.500000 0.622873 0.000000
O O5 0.062364 0.500000 0.522332
O O6 0.122463 0.604799 0.537044
O O7 0.500000 0.622755 0.500000
O O8 0.438184 0.500000 0.503840
O O9 0.691078 0.594828 0.222541
O O10 0.326047 0.618261 0.558686
O O11 0.625012 0.637312 0.177294
O O12 0.466100 0.769086 0.339423
O O13 0.399441 0.690357 0.312408
O O14 0.750000 0.750000 0.000000
O O15 0.198345 0.000000 0.128696
O O16 0.468834 0.899991 0.886878
O O17 0.661537 0.870579 0.611351
O O18 0.695775 0.000000 0.625085
#
# Coordination Sequence:
#
# PCOD8090473 Si02
#       7
#     8   8   8   8   8   8   8
#     4   8  15  31  53  80 116 151 183 230 283 325
#     4   9  18  32  54  85 114 144 192 238 275 330
#     4   9  18  33  55  83 112 145 187 236 285 331
#     4  11  23  39  55  80 114 153 187 224 283 349
#     4  10  20  36  59  84 112 146 186 234 280 336
#     4  10  19  33  56  86 117 146 185 232 279 335
#     4  11  22  35  57  81 111 155 186 233 286 337
#
# _framework density 18.956683999999999
#
# number of rings (size 3 to 8) (size 9 to 14) (size 15 to 20)
#    0.000    2.286    2.857    1.286    0.000    2.286 
#    0.000    2.857    3.143    0.000    0.000    0.000 
#    0.000    0.000    0.000    0.000    0.000    0.000 
#
# Total GULP energy -346986.647484 kJ/mol
# GULP energy per Si atom -12392.380267 kJ/mol
# Density = 1.891354 g / cm^3
# Si number density = 18.956684 Si / 1000 Ang^3
#
#
#
# Elastic Constant Matrix: (Units=GPa)
#
#
# Indices 1 2 3 4 5 6 
#
# 1 136.9944 27.9604 70.2065 0.0273 4.5439 -0.0014
# 2 27.9604 45.5177 30.1709 -0.0351 0.8555 -0.0050
# 3 70.2065 30.1709 166.3956 0.1073 -9.0200 -0.0710
# 4 0.0273 -0.0351 0.1073 24.3403 -0.0621 -7.1767
# 5 4.5439 0.8555 -9.0200 -0.0621 20.2209 0.0325
# 6 -0.0014 -0.0050 -0.0710 -7.1767 0.0325 7.4876
#
#
#
# Elastic Compliance Matrix: (Units=1/GPa)
#
#
# Indices 1 2 3 4 5 6 
#
# 1 0.010123 -0.003612 -0.003824 -0.000022 -0.003828 -0.000041
# 2 -0.003612 0.026457 -0.003371 0.000070 -0.001811 0.000060
# 3 -0.003824 -0.003371 0.008494 -0.000013 0.004791 0.000045
# 4 -0.000022 0.000070 -0.000013 0.057269 0.000084 0.054891
# 5 -0.003828 -0.001811 0.004791 0.000084 0.052528 -0.000104
# 6 -0.000041 0.000060 0.000045 0.054891 -0.000104 0.186166
#
#
# Mechanical properties :
#
#
# Convention : Reuss Voigt Hill
#
# Bulk Modulus (GPa) = 42.62567 67.28704 54.95635
# Shear Modulus (GPa) = 13.49627 25.11442 19.30534
#
# Velocity S-wave (km/s) = 2.67114 3.64377 3.19469
# Velocity P-wave (km/s) = 5.66109 7.29897 6.53157
#
# Compressibility (1/GPa) = 0.02346004
#
# Stress axis : x y z
#
# Youngs Moduli (GPa) = 98.78104 37.79708 117.72731
#
# Poissons Ratio (x) = 0.13652 0.45018
# Poissons Ratio (y) = 0.35680 0.39691
# Poissons Ratio (z) = 0.37773 0.12743
#
# Static dielectric constant tensor:
#      x y z
#    x 3.473890 -0.000140 -0.074490 
#    y -0.000140 3.273630 0.000540 
#    z -0.074490 0.000540 3.858050 
# 
# 
# High freq. dielectric constant tensor:
#      x y z
#    x 1.721270 -0.000010 -0.006640 
#    y -0.000010 1.707780 0.000040 
#    z -0.006640 0.000040 1.754110 
# 
# From -- ./inp_files/322613.got.cif
#   From: 2010.06.25/outbox.cif.g09.slc.cpg/sg12_162_cif.got.tgz:322613.got - 2010.06.28 00:19:55.
