data_PCOD8090120
_publ_section_title
;
Structure prediction by ZEFSAII (Michael W. Deem and Ramdas Pophale) SiO2 
 PCOD8090120
Probable space group: C 2/M
;
_chemical_formula_sum "Si O2"
_cell_formula_units_Z 56
_cell_length_a 18.119167
_cell_length_b 8.786534
_cell_length_c 18.805893
_cell_angle_alpha 90.000000
_cell_angle_beta 75.918926
_cell_angle_gamma 90.000000
_cell_volume 2904.024122
_symmetry_space_group_name_H-M "C 2/M"
_symmetry_group_IT_number 12
_symmetry_cell_setting 'monoclinic'
loop_
_space_group_symop_operation_xyz
x,y,z
-x,y,-z
-x,-y,-z
x,-y,z
1/2+x,1/2+y,z
1/2-x,1/2+y,-z
1/2-x,1/2-y,-z
1/2+x,1/2-y,z
loop_
_atom_site_type_symbol
_atom_site_label
_atom_site_fract_x
_atom_site_fract_y
_atom_site_fract_z
Si Si1 0.338894 0.323347 0.794287
Si Si2 0.986958 0.822651 0.214896
Si Si3 0.707867 0.179472 0.339276
Si Si4 0.327259 0.824783 0.502262
Si Si5 0.726696 0.679622 0.931240
Si Si6 0.560113 0.680962 0.929233
Si Si7 0.632143 0.821637 0.656782
O O1 0.318370 0.500000 0.807810
O O2 0.424335 0.289700 0.797984
O O3 0.328306 0.273390 0.715922
O O4 0.284517 0.225109 0.856419
O O5 0.961266 0.760530 0.144113
O O6 0.942975 0.728923 0.284968
O O7 0.967824 0.000000 0.228614
O O8 0.653619 0.222185 0.420587
O O9 0.795077 0.228877 0.331936
O O10 0.706874 0.000000 0.321987
O O11 0.250000 0.750000 0.500000
O O12 0.385401 0.787716 0.423801
O O13 0.308846 0.000000 0.508884
O O14 0.725536 0.500000 0.939865
O O15 0.643501 0.741663 0.929673
O O16 0.750000 0.750000 0.000000
O O17 0.557084 0.500000 0.931406
O O18 0.500000 0.748159 0.000000
O O19 0.647667 0.000000 0.665424
#
# Coordination Sequence:
#
# PCOD8090120 Si02
#       7
#     8   8   8   8   8   8   8
#     4  11  23  38  56  80 111 146 187 234 279 324
#     4  10  21  37  56  78 107 145 187 230 279 331
#     4  10  19  34  56  80 109 145 184 225 276 337
#     4   8  16  30  50  77 106 139 179 224 274 329
#     4  11  22  37  60  86 112 144 181 224 277 333
#     4   9  18  35  58  80 103 137 178 217 263 320
#     4  10  19  33  55  82 110 140 181 232 280 328
#
# _framework density 19.283587000000001
#
# number of rings (size 3 to 8) (size 9 to 14) (size 15 to 20)
#    0.000    2.143    0.000    3.429    0.000    5.714 
#    0.000    1.429    0.000    7.286    0.000    0.000 
#    0.000    0.000    0.000    0.000    0.000    0.000 
#
# Total GULP energy -347045.994788 kJ/mol
# GULP energy per Si atom -12394.499814 kJ/mol
# Density = 1.923970 g / cm^3
# Si number density = 19.283587 Si / 1000 Ang^3
#
#
#
# Elastic Constant Matrix: (Units=GPa)
#
#
# Indices 1 2 3 4 5 6 
#
# 1 109.5622 31.7008 66.0107 0.0000 7.0307 0.0000
# 2 31.7008 35.2483 31.3079 0.0000 0.3927 0.0000
# 3 66.0107 31.3079 171.2765 0.0000 2.5367 0.0000
# 4 0.0000 0.0000 0.0000 33.1806 0.0000 -0.0874
# 5 7.0307 0.3927 2.5367 0.0000 31.5635 0.0000
# 6 0.0000 0.0000 0.0000 -0.0874 0.0000 27.3074
#
#
#
# Elastic Compliance Matrix: (Units=1/GPa)
#
#
# Indices 1 2 3 4 5 6 
#
# 1 0.014309 -0.009522 -0.003733 0.000000 -0.002769 0.000000
# 2 -0.009522 0.040206 -0.003708 0.000000 0.001919 0.000000
# 3 -0.003733 -0.003708 0.007952 0.000000 0.000239 0.000000
# 4 0.000000 0.000000 0.000000 0.030138 0.000000 0.000096
# 5 -0.002769 0.001919 0.000239 0.000000 0.032256 0.000000
# 6 0.000000 0.000000 0.000000 0.000096 0.000000 0.036620
#
#
# Mechanical properties :
#
#
# Convention : Reuss Voigt Hill
#
# Bulk Modulus (GPa) = 35.03848 63.79178 49.41513
# Shear Modulus (GPa) = 24.39950 30.88146 27.64048
#
# Velocity S-wave (km/s) = 3.56096 4.00614 3.79009
# Velocity P-wave (km/s) = 5.92594 7.38590 6.69583
#
# Compressibility (1/GPa) = 0.02854005
#
# Stress axis : x y z
#
# Youngs Moduli (GPa) = 69.88391 24.87183 125.76170
#
# Poissons Ratio (x) = 0.23684 0.46950
# Poissons Ratio (y) = 0.66547 0.46629
# Poissons Ratio (z) = 0.26090 0.09222
#
# Static dielectric constant tensor:
#      x y z
#    x 3.404750 0.000000 0.020580 
#    y 0.000000 3.426320 0.000000 
#    z 0.020580 0.000000 4.429220 
# 
# 
# High freq. dielectric constant tensor:
#      x y z
#    x 1.731010 0.000000 0.003810 
#    y 0.000000 1.742350 0.000000 
#    z 0.003810 0.000000 1.778730 
# 
# From -- ./inp_files/275297.got.cif
#   From: 2010.06.25/outbox.cif.g09.slc.cpg/sg12_138_cif.got.tgz:275297.got - 2010.06.28 00:19:55.
