data_PCOD8090652
_publ_section_title
;
Structure prediction by ZEFSAII (Michael W. Deem and Ramdas Pophale) SiO2 
 PCOD8090652
Probable space group: C 2/M
;
_chemical_formula_sum "Si O2"
_cell_formula_units_Z 48
_cell_length_a 20.295299
_cell_length_b 8.990212
_cell_length_c 14.808535
_cell_angle_alpha 90.000000
_cell_angle_beta 67.668075
_cell_angle_gamma 90.000000
_cell_volume 2499.299740
_symmetry_space_group_name_H-M "C 2/M"
_symmetry_group_IT_number 12
_symmetry_cell_setting 'monoclinic'
loop_
_space_group_symop_operation_xyz
x,y,z
-x,y,-z
-x,-y,-z
x,-y,z
1/2+x,1/2+y,z
1/2-x,1/2+y,-z
1/2-x,1/2-y,-z
1/2+x,1/2-y,z
loop_
_atom_site_type_symbol
_atom_site_label
_atom_site_fract_x
_atom_site_fract_y
_atom_site_fract_z
Si Si1 0.308237 0.327906 0.817217
Si Si2 0.592505 0.326427 0.395903
Si Si3 0.576078 0.328337 0.099098
Si Si4 0.449797 0.174200 0.411637
Si Si5 0.930093 0.672738 0.217504
Si Si6 0.662331 0.671330 0.875311
O O1 0.291006 0.500000 0.844529
O O2 0.337372 0.302472 0.700783
O O3 0.366116 0.269951 0.859085
O O4 0.237276 0.235121 0.869123
O O5 0.576938 0.500000 0.419205
O O6 0.525755 0.254753 0.378912
O O7 0.603696 0.245155 0.486412
O O8 0.557873 0.500000 0.128233
O O9 0.504774 0.235313 0.144787
O O10 0.604807 0.304896 0.983613
O O11 0.417791 0.203702 0.329747
O O12 0.460020 0.000000 0.425580
O O13 0.929373 0.500000 0.195385
O O14 0.864256 0.747509 0.200736
O O15 0.672891 0.500000 0.846614
#
# Coordination Sequence:
#
# PCOD8090652 Si02
#       6
#     8   8   8   8   8   8
#     4  10  21  38  59  84 116 149 185 231 281 338
#     4  10  19  33  58  86 111 145 183 227 281 333
#     4  10  21  39  60  84 113 148 191 236 281 331
#     4  10  20  34  55  84 114 144 183 233 278 327
#     4  11  23  38  58  84 115 152 190 232 282 333
#     4  11  24  38  57  83 115 153 190 233 283 335
#
# _framework density 19.205379000000001
#
# number of rings (size 3 to 8) (size 9 to 14) (size 15 to 20)
#    0.000    1.667    1.667    4.000    0.000    7.333 
#    0.000    0.833    0.000    0.000    0.000    0.000 
#    0.000    0.000    0.000    0.000    0.000    0.000 
#
# Total GULP energy -297693.528233 kJ/mol
# GULP energy per Si atom -12403.897010 kJ/mol
# Density = 1.916167 g / cm^3
# Si number density = 19.205379 Si / 1000 Ang^3
#
#
#
# Elastic Constant Matrix: (Units=GPa)
#
#
# Indices 1 2 3 4 5 6 
#
# 1 67.5921 26.9502 9.9296 0.0000 14.6218 0.0000
# 2 26.9502 97.8195 31.1318 0.0000 7.4073 0.0000
# 3 9.9296 31.1318 55.7713 0.0000 18.5049 0.0000
# 4 0.0000 0.0000 0.0000 31.1429 0.0000 1.0764
# 5 14.6218 7.4073 18.5049 0.0000 23.2859 0.0000
# 6 0.0000 0.0000 0.0000 1.0764 0.0000 32.3679
#
#
#
# Elastic Compliance Matrix: (Units=1/GPa)
#
#
# Indices 1 2 3 4 5 6 
#
# 1 0.019407 -0.005665 0.004282 0.000000 -0.013786 0.000000
# 2 -0.005665 0.014163 -0.008940 0.000000 0.006157 0.000000
# 3 0.004282 -0.008940 0.030023 0.000000 -0.023704 0.000000
# 4 0.000000 0.000000 0.000000 0.032147 0.000000 -0.001069
# 5 -0.013786 0.006157 -0.023704 0.000000 0.068480 0.000000
# 6 0.000000 0.000000 0.000000 -0.001069 0.000000 0.030930
#
#
# Mechanical properties :
#
#
# Convention : Reuss Voigt Hill
#
# Bulk Modulus (GPa) = 23.28536 39.68956 31.48746
# Shear Modulus (GPa) = 21.72855 27.57078 24.64966
#
# Velocity S-wave (km/s) = 3.36725 3.79301 3.58645
# Velocity P-wave (km/s) = 5.22193 6.31611 5.79490
#
# Compressibility (1/GPa) = 0.04294543
#
# Stress axis : x y z
#
# Youngs Moduli (GPa) = 51.52811 70.60782 33.30769
#
# Poissons Ratio (x) = 0.40003 -0.14261
# Poissons Ratio (y) = 0.29193 0.29776
# Poissons Ratio (z) = -0.22062 0.63122
#
# Static dielectric constant tensor:
#      x y z
#    x 3.293070 0.000000 0.136230 
#    y 0.000000 3.590610 0.000000 
#    z 0.136230 0.000000 3.695320 
# 
# 
# High freq. dielectric constant tensor:
#      x y z
#    x 1.729450 0.000000 0.008970 
#    y 0.000000 1.756650 0.000000 
#    z 0.008970 0.000000 1.759360 
# 
# From -- ./inp_files/229917.got.cif
#   From: 2010.06.25/outbox.cif.g09.slc.cpg/sg12_115_cif.got.tgz:229917.got - 2010.06.28 00:19:55.
