data_PCOD8090588
_publ_section_title
;
Structure prediction by ZEFSAII (Michael W. Deem and Ramdas Pophale) SiO2 
 PCOD8090588
Probable space group: C 2/M
;
_chemical_formula_sum "Si O2"
_cell_formula_units_Z 56
_cell_length_a 29.164479
_cell_length_b 8.906757
_cell_length_c 11.818016
_cell_angle_alpha 90.000000
_cell_angle_beta 70.495971
_cell_angle_gamma 90.000000
_cell_volume 2893.704208
_symmetry_space_group_name_H-M "C 2/M"
_symmetry_group_IT_number 12
_symmetry_cell_setting 'monoclinic'
loop_
_space_group_symop_operation_xyz
x,y,z
-x,y,-z
-x,-y,-z
x,-y,z
1/2+x,1/2+y,z
1/2-x,1/2+y,-z
1/2-x,1/2-y,-z
1/2+x,1/2-y,z
loop_
_atom_site_type_symbol
_atom_site_label
_atom_site_fract_x
_atom_site_fract_y
_atom_site_fract_z
Si Si1 0.817315 0.673775 0.356807
Si Si2 0.090214 0.675945 0.102190
Si Si3 0.452812 0.177510 0.478107
Si Si4 0.792135 0.826303 0.607017
Si Si5 0.898019 0.822909 0.137651
Si Si6 0.021799 0.324043 0.791681
Si Si7 0.363570 0.822902 0.699217
O O1 0.832613 0.500000 0.347628
O O2 0.815772 0.732297 0.485895
O O3 0.765582 0.698652 0.339088
O O4 0.857042 0.764338 0.255306
O O5 0.093897 0.500000 0.074211
O O6 0.121337 0.720680 0.186374
O O7 0.034377 0.723856 0.167774
O O8 0.113317 0.765105 0.978830
O O9 0.500000 0.248962 0.500000
O O10 0.452286 0.222382 0.347027
O O11 0.404708 0.237783 0.578974
O O12 0.455374 0.000000 0.491095
O O13 0.814211 0.763942 0.706403
O O14 0.804824 0.000000 0.578707
O O15 0.951174 0.763253 0.130293
O O16 0.897969 0.000000 0.139136
O O17 0.026889 0.500000 0.811545
O O18 0.355410 0.000000 0.694545
#
# Coordination Sequence:
#
# PCOD8090588 Si02
#       7
#     8   8   8   8   8   8   8
#     4  10  21  40  63  85 111 146 187 229 275 334
#     4  10  21  37  56  80 112 154 201 235 267 330
#     4   9  15  28  52  82 110 137 178 226 265 310
#     4  10  21  37  61  91 119 143 174 225 286 342
#     4  12  25  38  55  80 112 148 190 241 292 334
#     4  10  19  34  58  83 111 149 192 234 276 333
#     4  10  19  33  57  86 116 152 190 229 274 330
#
# _framework density 19.352357999999999
#
# number of rings (size 3 to 8) (size 9 to 14) (size 15 to 20)
#    0.000    1.857    1.429    3.429    0.000    5.714 
#    0.000    0.714    0.000    0.857    0.000    0.000 
#    0.000    0.000    0.000    0.000    0.000    0.000 
#
# Total GULP energy -347297.798843 kJ/mol
# GULP energy per Si atom -12403.492816 kJ/mol
# Density = 1.930831 g / cm^3
# Si number density = 19.352358 Si / 1000 Ang^3
#
#
#
# Elastic Constant Matrix: (Units=GPa)
#
#
# Indices 1 2 3 4 5 6 
#
# 1 111.9595 44.7364 34.2113 0.0000 24.6058 0.0000
# 2 44.7364 66.8801 33.4777 0.0000 10.7161 0.0000
# 3 34.2113 33.4777 69.8607 0.0000 16.1481 0.0000
# 4 0.0000 0.0000 0.0000 24.4258 0.0000 0.3286
# 5 24.6058 10.7161 16.1481 0.0000 28.2234 0.0000
# 6 0.0000 0.0000 0.0000 0.3286 0.0000 25.4211
#
#
#
# Elastic Compliance Matrix: (Units=1/GPa)
#
#
# Indices 1 2 3 4 5 6 
#
# 1 0.014264 -0.007436 -0.001383 0.000000 -0.008821 0.000000
# 2 -0.007436 0.023688 -0.008216 0.000000 0.002190 0.000000
# 3 -0.001383 -0.008216 0.020661 0.000000 -0.007496 0.000000
# 4 0.000000 0.000000 0.000000 0.040947 0.000000 -0.000529
# 5 -0.008821 0.002190 -0.007496 0.000000 0.046580 0.000000
# 6 0.000000 0.000000 0.000000 -0.000529 0.000000 0.039344
#
#
# Mechanical properties :
#
#
# Convention : Reuss Voigt Hill
#
# Bulk Modulus (GPa) = 40.74364 52.61679 46.68022
# Shear Modulus (GPa) = 21.95524 24.69904 23.32714
#
# Velocity S-wave (km/s) = 3.37189 3.57638 3.47564
# Velocity P-wave (km/s) = 6.02153 6.65597 6.34668
#
# Compressibility (1/GPa) = 0.02454371
#
# Stress axis : x y z
#
# Youngs Moduli (GPa) = 70.10527 42.21586 48.39944
#
# Poissons Ratio (x) = 0.31390 0.06694
# Poissons Ratio (y) = 0.52128 0.39766
# Poissons Ratio (z) = 0.09696 0.34685
#
# Static dielectric constant tensor:
#      x y z
#    x 3.651530 0.000000 0.085400 
#    y 0.000000 3.289590 0.000000 
#    z 0.085400 0.000000 3.539290 
# 
# 
# High freq. dielectric constant tensor:
#      x y z
#    x 1.760790 0.000000 0.009570 
#    y 0.000000 1.731600 0.000000 
#    z 0.009570 0.000000 1.749510 
# 
# From -- ./inp_files/186453.got.cif
#   From: 2010.06.25/outbox.cif.g09.slc.cpg/sg12_94_cif.got.tgz:186453.got - 2010.06.28 00:19:55.
