data_PCOD8090959
_publ_section_title
;
Structure prediction by ZEFSAII (Michael W. Deem and Ramdas Pophale) SiO2 
 PCOD8090959
Probable space group: C 2/M
;
_chemical_formula_sum "Si O2"
_cell_formula_units_Z 56
_cell_length_a 29.966101
_cell_length_b 9.122964
_cell_length_c 16.779725
_cell_angle_alpha 90.000000
_cell_angle_beta 134.328343
_cell_angle_gamma 90.000000
_cell_volume 3281.465883
_symmetry_space_group_name_H-M "C 2/M"
_symmetry_group_IT_number 12
_symmetry_cell_setting 'monoclinic'
loop_
_space_group_symop_operation_xyz
x,y,z
-x,y,-z
-x,-y,-z
x,-y,z
1/2+x,1/2+y,z
1/2-x,1/2+y,-z
1/2-x,1/2-y,-z
1/2+x,1/2-y,z
loop_
_atom_site_type_symbol
_atom_site_label
_atom_site_fract_x
_atom_site_fract_y
_atom_site_fract_z
Si Si1 0.121932 0.329994 0.356407
Si Si2 0.533631 0.826909 0.662843
Si Si3 0.907938 0.327133 0.423873
Si Si4 0.057799 0.829485 0.018159
Si Si5 0.667021 0.173232 0.239267
Si Si6 0.992943 0.828877 0.217965
Si Si7 0.295926 0.170963 0.389662
O O1 0.102604 0.500000 0.331152
O O2 0.147986 0.276654 0.304152
O O3 0.175541 0.299923 0.487706
O O4 0.061547 0.238367 0.303339
O O5 0.466930 0.768539 0.547568
O O6 0.585898 0.784303 0.661796
O O7 0.548280 0.742814 0.763073
O O8 0.533371 0.000000 0.678698
O O9 0.910525 0.500000 0.436356
O O10 0.843701 0.269237 0.381636
O O11 0.117979 0.735726 0.115154
O O12 0.072022 0.000000 0.051080
O O13 0.042523 0.794886 0.907911
O O14 0.000000 0.777373 0.000000
O O15 0.734001 0.236596 0.301218
O O16 0.669341 0.000000 0.234481
O O17 0.999710 0.000000 0.241450
O O18 0.280700 0.000000 0.358657
#
# Coordination Sequence:
#
# PCOD8090959 Si02
#       7
#     8   8   8   8   8   8   8
#     4  10  20  34  52  75 105 141 174 206 251 309
#     4   9  16  31  53  77 105 134 171 211 253 307
#     4   8  15  29  53  78 101 137 175 205 245 311
#     4  10  21  38  55  72  99 139 178 213 257 308
#     4  11  23  35  51  78 106 136 176 218 260 298
#     4  11  21  32  52  79 106 134 170 214 262 305
#     4  10  19  34  54  75 105 144 176 202 248 312
#
# _framework density 17.065543000000002
#
# number of rings (size 3 to 8) (size 9 to 14) (size 15 to 20)
#    0.000    2.143    2.857    2.143    0.000    2.571 
#    0.000    2.143    0.000    0.857    0.000    0.000 
#    0.000    0.000    0.000    0.000    0.000    0.000 
#
# Total GULP energy -347211.124525 kJ/mol
# GULP energy per Si atom -12400.397304 kJ/mol
# Density = 1.702670 g / cm^3
# Si number density = 17.065543 Si / 1000 Ang^3
#
#
#
# Elastic Constant Matrix: (Units=GPa)
#
#
# Indices 1 2 3 4 5 6 
#
# 1 115.6473 33.0928 49.0547 0.0000 -18.3965 0.0000
# 2 33.0928 50.5195 39.8747 0.0000 -7.0314 0.0000
# 3 49.0547 39.8747 86.0428 0.0000 -4.2671 0.0000
# 4 0.0000 0.0000 0.0000 26.2887 0.0000 -1.6855
# 5 -18.3965 -7.0314 -4.2671 0.0000 23.6494 0.0000
# 6 0.0000 0.0000 0.0000 -1.6855 0.0000 22.3470
#
#
#
# Elastic Compliance Matrix: (Units=1/GPa)
#
#
# Indices 1 2 3 4 5 6 
#
# 1 0.013287 -0.002969 -0.005782 0.000000 0.008410 0.000000
# 2 -0.002969 0.032973 -0.013335 0.000000 0.005088 0.000000
# 3 -0.005782 -0.013335 0.020866 0.000000 -0.004698 0.000000
# 4 0.000000 0.000000 0.000000 0.038224 0.000000 0.002883
# 5 0.008410 0.005088 -0.004698 0.000000 0.049491 0.000000
# 6 0.000000 0.000000 0.000000 0.002883 0.000000 0.044966
#
#
# Mechanical properties :
#
#
# Convention : Reuss Voigt Hill
#
# Bulk Modulus (GPa) = 43.56930 55.13933 49.35432
# Shear Modulus (GPa) = 19.87031 23.13619 21.50325
#
# Velocity S-wave (km/s) = 3.41596 3.68601 3.55355
# Velocity P-wave (km/s) = 6.41439 7.10606 6.76906
#
# Compressibility (1/GPa) = 0.02295194
#
# Stress axis : x y z
#
# Youngs Moduli (GPa) = 75.26119 30.32769 47.92569
#
# Poissons Ratio (x) = 0.09006 0.27711
# Poissons Ratio (y) = 0.22349 0.63911
# Poissons Ratio (z) = 0.43516 0.40443
#
# Static dielectric constant tensor:
#      x y z
#    x 3.554550 0.000000 -0.135250 
#    y 0.000000 3.044120 0.000000 
#    z -0.135250 0.000000 3.037300 
# 
# 
# High freq. dielectric constant tensor:
#      x y z
#    x 1.665570 0.000000 -0.010590 
#    y 0.000000 1.645550 0.000000 
#    z -0.010590 0.000000 1.640070 
# 
# From -- ./inp_files/248897.got.cif
#   From: 2010.06.25/outbox.cif.g09.slc.cpg/sg12_125_cif.got.tgz:248897.got - 2010.06.28 00:19:55.
