data_PCOD8090080
_publ_section_title
;
Structure prediction by ZEFSAII (Michael W. Deem and Ramdas Pophale) SiO2 
 PCOD8090080
Probable space group: C 2/M
;
_chemical_formula_sum "Si O2"
_cell_formula_units_Z 64
_cell_length_a 18.715316
_cell_length_b 9.171736
_cell_length_c 20.990301
_cell_angle_alpha 90.000000
_cell_angle_beta 107.449741
_cell_angle_gamma 90.000000
_cell_volume 3437.215878
_symmetry_space_group_name_H-M "C 2/M"
_symmetry_group_IT_number 12
_symmetry_cell_setting 'monoclinic'
loop_
_space_group_symop_operation_xyz
x,y,z
-x,y,-z
-x,-y,-z
x,-y,z
1/2+x,1/2+y,z
1/2-x,1/2+y,-z
1/2-x,1/2-y,-z
1/2+x,1/2-y,z
loop_
_atom_site_type_symbol
_atom_site_label
_atom_site_fract_x
_atom_site_fract_y
_atom_site_fract_z
Si Si1 0.563073 0.667683 0.224692
Si Si2 0.177723 0.165467 0.154329
Si Si3 0.255066 0.329602 0.067920
Si Si4 0.125463 0.667989 0.362135
Si Si5 0.393934 0.333913 0.190585
Si Si6 0.078298 0.330927 0.489283
Si Si7 0.822834 0.665448 0.278573
Si Si8 0.296379 0.327345 0.400677
O O1 0.584976 0.500000 0.241447
O O2 0.605813 0.725635 0.173384
O O3 0.585708 0.747833 0.294903
O O4 0.476331 0.689133 0.185003
O O5 0.190671 0.268823 0.097362
O O6 0.244322 0.174706 0.222404
O O7 0.166927 0.000000 0.126745
O O8 0.241899 0.500000 0.054324
O O9 0.336010 0.293072 0.119351
O O10 0.250000 0.250000 0.000000
O O11 0.126155 0.500000 0.342683
O O12 0.076603 0.694234 0.412769
O O13 0.211404 0.720530 0.394734
O O14 0.380100 0.500000 0.209421
O O15 0.386251 0.228461 0.249003
O O16 0.092610 0.500000 0.509687
O O17 0.147898 0.237593 0.532339
O O18 0.000000 0.278361 0.500000
O O19 0.843937 0.500000 0.302884
O O20 0.820607 0.764577 0.339609
O O21 0.305420 0.500000 0.402259
#
# Coordination Sequence:
#
# PCOD8090080 Si02
#       8
#     8   8   8   8   8   8   8   8
#     4  10  20  36  58  84 114 146 182 229 279 332
#     4   9  18  34  56  83 111 143 184 223 267 324
#     4  10  20  36  59  84 114 151 189 228 270 322
#     4  10  22  38  56  80 110 147 186 229 281 335
#     4   9  20  36  55  83 116 147 183 229 277 322
#     4  10  23  41  57  77 108 143 186 236 287 342
#     4  10  19  33  55  81 108 143 183 226 275 329
#     4  11  22  36  56  80 108 142 186 232 278 334
#
# _framework density 18.619720999999998
#
# number of rings (size 3 to 8) (size 9 to 14) (size 15 to 20)
#    0.000    2.125    1.250    1.500    1.750    3.250 
#    0.000    0.625    0.000    3.750    0.000    0.000 
#    0.000    0.000    0.000    0.000    0.000    0.000 
#
# Total GULP energy -396852.922311 kJ/mol
# GULP energy per Si atom -12401.653822 kJ/mol
# Density = 1.857734 g / cm^3
# Si number density = 18.619721 Si / 1000 Ang^3
#
#
#
# Elastic Constant Matrix: (Units=GPa)
#
#
# Indices 1 2 3 4 5 6 
#
# 1 116.5775 40.5106 56.8188 0.0000 -17.5397 0.0000
# 2 40.5106 74.8322 53.8846 0.0000 -5.7788 0.0000
# 3 56.8188 53.8846 115.6600 0.0000 -18.9994 0.0000
# 4 0.0000 0.0000 0.0000 37.0416 0.0000 -0.9612
# 5 -17.5397 -5.7788 -18.9994 0.0000 22.3020 0.0000
# 6 0.0000 0.0000 0.0000 -0.9612 0.0000 24.3439
#
#
#
# Elastic Compliance Matrix: (Units=1/GPa)
#
#
# Indices 1 2 3 4 5 6 
#
# 1 0.012443 -0.003880 -0.003328 0.000000 0.005945 0.000000
# 2 -0.003880 0.021521 -0.008959 0.000000 -0.005108 0.000000
# 3 -0.003328 -0.008959 0.015864 0.000000 0.008575 0.000000
# 4 0.000000 0.000000 0.000000 0.027024 0.000000 0.001067
# 5 0.005945 -0.005108 0.008575 0.000000 0.055497 0.000000
# 6 0.000000 0.000000 0.000000 0.001067 0.000000 0.041120
#
#
# Mechanical properties :
#
#
# Convention : Reuss Voigt Hill
#
# Bulk Modulus (GPa) = 57.16903 67.72196 62.44550
# Shear Modulus (GPa) = 23.62565 27.12788 25.37676
#
# Velocity S-wave (km/s) = 3.56596 3.82113 3.69575
# Velocity P-wave (km/s) = 6.90832 7.47784 7.19872
#
# Compressibility (1/GPa) = 0.01749199
#
# Stress axis : x y z
#
# Youngs Moduli (GPa) = 80.36601 46.46723 63.03705
#
# Poissons Ratio (x) = 0.18031 0.20981
# Poissons Ratio (y) = 0.31185 0.56475
# Poissons Ratio (z) = 0.26749 0.41630
#
# Static dielectric constant tensor:
#      x y z
#    x 3.565870 0.000000 -0.159510 
#    y 0.000000 3.558750 0.000000 
#    z -0.159510 0.000000 3.320750 
# 
# 
# High freq. dielectric constant tensor:
#      x y z
#    x 1.726000 0.000000 -0.012310 
#    y 0.000000 1.723980 0.000000 
#    z -0.012310 0.000000 1.715410 
# 
# From -- ./inp_files/313997.got.cif
#   From: 2010.06.25/outbox.cif.g09.slc.cpg/sg12_157_cif.got.tgz:313997.got - 2010.06.28 00:19:55.
