data_PCOD8090549
_publ_section_title
;
Structure prediction by ZEFSAII (Michael W. Deem and Ramdas Pophale) SiO2 
 PCOD8090549
Probable space group: C 2/M
;
_chemical_formula_sum "Si O2"
_cell_formula_units_Z 64
_cell_length_a 28.191781
_cell_length_b 8.823936
_cell_length_c 13.994482
_cell_angle_alpha 90.000000
_cell_angle_beta 92.070547
_cell_angle_gamma 90.000000
_cell_volume 3479.028979
_symmetry_space_group_name_H-M "C 2/M"
_symmetry_group_IT_number 12
_symmetry_cell_setting 'monoclinic'
loop_
_space_group_symop_operation_xyz
x,y,z
-x,y,-z
-x,-y,-z
x,-y,z
1/2+x,1/2+y,z
1/2-x,1/2+y,-z
1/2-x,1/2-y,-z
1/2+x,1/2-y,z
loop_
_atom_site_type_symbol
_atom_site_label
_atom_site_fract_x
_atom_site_fract_y
_atom_site_fract_z
Si Si1 0.432103 0.673287 0.714860
Si Si2 0.528788 0.325659 0.814772
Si Si3 0.446776 0.177710 0.518444
Si Si4 0.259772 0.821444 0.898260
Si Si5 0.096673 0.325230 0.955496
Si Si6 0.857762 0.826030 0.867217
Si Si7 0.602697 0.323615 0.657097
Si Si8 0.173133 0.675948 0.797912
O O1 0.439265 0.500000 0.680427
O O2 0.474436 0.716851 0.790593
O O3 0.432566 0.784663 0.625409
O O4 0.382639 0.693516 0.766401
O O5 0.535425 0.500000 0.844833
O O6 0.547104 0.223697 0.903706
O O7 0.558028 0.287866 0.721290
O O8 0.500000 0.235588 0.500000
O O9 0.409292 0.261958 0.448294
O O10 0.442628 0.000000 0.499913
O O11 0.311650 0.778494 0.864701
O O12 0.222181 0.763253 0.818029
O O13 0.256133 0.000000 0.908863
O O14 0.250000 0.750000 0.000000
O O15 0.093984 0.500000 0.984661
O O16 0.139473 0.293269 0.885711
O O17 0.105221 0.224718 0.049141
O O18 0.843371 0.000000 0.884485
O O19 0.614355 0.500000 0.651919
O O20 0.649234 0.239198 0.700069
O O21 0.184088 0.500000 0.785009
#
# Coordination Sequence:
#
# PCOD8090549 Si02
#       8
#     8   8   8   8   8   8   8   8
#     4  10  22  39  57  80 110 151 194 233 278 333
#     4   9  18  33  53  77 109 148 190 230 272 324
#     4  11  22  35  56  85 115 148 187 235 285 331
#     4  12  23  37  59  85 113 146 188 232 281 333
#     4  10  20  33  52  78 112 150 187 227 276 331
#     4  11  23  38  57  80 112 150 191 234 280 333
#     4  10  19  33  57  84 113 147 186 231 280 332
#     4  10  20  35  56  84 116 145 183 231 281 333
#
# _framework density 18.395938000000001
#
# number of rings (size 3 to 8) (size 9 to 14) (size 15 to 20)
#    0.000    1.625    2.500    3.000    0.000    4.000 
#    0.000    2.500    0.000    0.750    0.000    0.000 
#    0.000    0.000    0.000    0.000    0.000    0.000 
#
# Total GULP energy -396983.576280 kJ/mol
# GULP energy per Si atom -12405.736759 kJ/mol
# Density = 1.835407 g / cm^3
# Si number density = 18.395938 Si / 1000 Ang^3
#
#
#
# Elastic Constant Matrix: (Units=GPa)
#
#
# Indices 1 2 3 4 5 6 
#
# 1 89.8597 39.1488 39.9513 0.0000 12.2202 0.0000
# 2 39.1488 104.0261 43.6301 0.0000 7.8685 0.0000
# 3 39.9513 43.6301 85.0270 0.0000 12.0491 0.0000
# 4 0.0000 0.0000 0.0000 32.7803 0.0000 6.1877
# 5 12.2202 7.8685 12.0491 0.0000 25.6294 0.0000
# 6 0.0000 0.0000 0.0000 6.1877 0.0000 28.7697
#
#
#
# Elastic Compliance Matrix: (Units=1/GPa)
#
#
# Indices 1 2 3 4 5 6 
#
# 1 0.015330 -0.003420 -0.004887 0.000000 -0.003962 0.000000
# 2 -0.003420 0.013030 -0.005082 0.000000 0.000019 0.000000
# 3 -0.004887 -0.005082 0.017264 0.000000 -0.004226 0.000000
# 4 0.000000 0.000000 0.000000 0.031797 0.000000 -0.006839
# 5 -0.003962 0.000019 -0.004226 0.000000 0.042888 0.000000
# 6 0.000000 0.000000 0.000000 -0.006839 0.000000 0.036230
#
#
# Mechanical properties :
#
#
# Convention : Reuss Voigt Hill
#
# Bulk Modulus (GPa) = 53.06064 58.26369 55.66217
# Shear Modulus (GPa) = 26.37174 27.84804 27.10989
#
# Velocity S-wave (km/s) = 3.79035 3.89500 3.84303
# Velocity P-wave (km/s) = 6.93267 7.20894 7.07216
#
# Compressibility (1/GPa) = 0.01884636
#
# Stress axis : x y z
#
# Youngs Moduli (GPa) = 65.23244 76.74592 57.92535
#
# Poissons Ratio (x) = 0.26247 0.28306
# Poissons Ratio (y) = 0.22309 0.29437
# Poissons Ratio (z) = 0.31877 0.39002
#
# Static dielectric constant tensor:
#      x y z
#    x 3.333830 0.000000 0.180650 
#    y 0.000000 3.432140 0.000000 
#    z 0.180650 0.000000 3.226410 
# 
# 
# High freq. dielectric constant tensor:
#      x y z
#    x 1.700370 0.000000 0.018140 
#    y 0.000000 1.724520 0.000000 
#    z 0.018140 0.000000 1.700580 
# 
# From -- ./inp_files/248466.got.cif
#   From: 2010.06.25/outbox.cif.g09.slc.cpg/sg12_125_cif.got.tgz:248466.got - 2010.06.28 00:19:55.
