data_PCOD8090262
_publ_section_title
;
Structure prediction by ZEFSAII (Michael W. Deem and Ramdas Pophale) SiO2 
 PCOD8090262
Probable space group: C 2/M
;
_chemical_formula_sum "Si O2"
_cell_formula_units_Z 48
_cell_length_a 14.876804
_cell_length_b 22.330124
_cell_length_c 11.904141
_cell_angle_alpha 90.000000
_cell_angle_beta 40.957296
_cell_angle_gamma 90.000000
_cell_volume 2592.203610
_symmetry_space_group_name_H-M "C 2/M"
_symmetry_group_IT_number 12
_symmetry_cell_setting 'monoclinic'
loop_
_space_group_symop_operation_xyz
x,y,z
-x,y,-z
-x,-y,-z
x,-y,z
1/2+x,1/2+y,z
1/2-x,1/2+y,-z
1/2-x,1/2-y,-z
1/2+x,1/2-y,z
loop_
_atom_site_type_symbol
_atom_site_label
_atom_site_fract_x
_atom_site_fract_y
_atom_site_fract_z
Si Si1 0.647936 0.816545 0.770869
Si Si2 0.118895 0.127411 0.079369
Si Si3 0.002201 0.500000 0.131525
Si Si4 0.583994 0.627204 0.531973
Si Si5 0.979020 0.000000 0.887381
Si Si6 0.113394 0.373482 0.042554
Si Si7 0.000000 0.206935 0.000000
Si Si8 0.810860 0.000000 0.504417
O O1 0.792192 0.825076 0.573830
O O2 0.527678 0.838088 0.799575
O O3 0.616342 0.747919 0.831768
O O4 0.654044 0.859545 0.875146
O O5 0.007846 0.143970 0.276558
O O6 0.111853 0.057011 0.060293
O O7 0.268342 0.146661 0.983276
O O8 0.086110 0.165507 0.001076
O O9 0.089381 0.443217 0.087508
O O10 0.854137 0.500000 0.333531
O O11 0.000000 0.500000 0.000000
O O12 0.500000 0.639822 0.500000
O O13 0.635503 0.558683 0.481739
O O14 0.126637 0.000000 0.682066
O O15 0.000000 0.000000 0.000000
#
# Coordination Sequence:
#
# PCOD8090262 Si02
#       8
#     8   8   4   8   4   8   4   4
#     4  10  21  37  56  85 123 150 195 242 297 354
#     4  11  22  38  65  85 115 156 204 246 293 357
#     4  12  17  30  59  87 131 155 177 234 320 375
#     4  11  20  36  57  91 123 149 190 250 305 352
#     4  10  21  40  62  85 117 156 209 245 292 350
#     4  10  19  33  55  88 116 155 183 238 297 359
#     4  10  24  41  60  81 110 168 214 234 282 348
#     4  10  21  32  59  91 122 162 184 242 308 373
#
# _framework density 18.517064000000001
#
# number of rings (size 3 to 8) (size 9 to 14) (size 15 to 20)
#    0.000    1.667    5.833    0.750    0.000    3.333 
#    0.000    0.000    0.000    4.000    0.000    0.000 
#    0.000    0.000    0.000    0.000    0.000    0.000 
#
# Total GULP energy -297524.542948 kJ/mol
# GULP energy per Si atom -12396.855956 kJ/mol
# Density = 1.847492 g / cm^3
# Si number density = 18.517064 Si / 1000 Ang^3
#
#
#
# Elastic Constant Matrix: (Units=GPa)
#
#
# Indices 1 2 3 4 5 6 
#
# 1 147.1216 52.4161 61.5604 0.0071 -20.8137 -0.0252
# 2 52.4161 112.6700 35.5512 0.0041 -9.9402 -0.0142
# 3 61.5604 35.5512 75.0051 0.0023 -15.5998 -0.0082
# 4 0.0071 0.0041 0.0023 300.3890 -0.0073 -966.8128
# 5 -20.8137 -9.9402 -15.5998 -0.0073 26.2615 0.0257
# 6 -0.0252 -0.0142 -0.0082 -966.8128 0.0257 3339.2790
#
#
#
# Elastic Compliance Matrix: (Units=1/GPa)
#
#
# Indices 1 2 3 4 5 6 
#
# 1 0.011289 -0.002641 -0.007257 0.000000 0.003637 0.000000
# 2 -0.002641 0.011085 -0.003022 0.000000 0.000307 0.000000
# 3 -0.007257 -0.003022 0.022006 0.000000 0.006176 0.000000
# 4 0.000000 0.000000 0.000000 0.048852 0.000000 0.014144
# 5 0.003637 0.000307 0.006176 0.000000 0.044746 0.000000
# 6 0.000000 0.000000 0.000000 0.014144 0.000000 0.004394
#
#
# Mechanical properties :
#
#
# Convention : Reuss Voigt Hill
#
# Bulk Modulus (GPa) = 53.94280 70.42800 62.18540
# Shear Modulus (GPa) = 28.67074 745.53717 387.10395
#
# Velocity S-wave (km/s) = 3.93917 20.08720 14.47434
# Velocity P-wave (km/s) = 7.06286 24.00231 17.69174
#
# Compressibility (1/GPa) = 0.01853816
#
# Stress axis : x y z
#
# Youngs Moduli (GPa) = 88.57917 90.21204 45.44191
#
# Poissons Ratio (x) = 0.23827 0.32979
# Poissons Ratio (y) = 0.23395 0.13735
# Poissons Ratio (z) = 0.64286 0.27266
#
# Static dielectric constant tensor:
#      x y z
#    x 3.366730 0.000000 -0.125180 
#    y 0.000000 3.455590 0.000000 
#    z -0.125180 0.000000 3.511870 
# 
# 
# High freq. dielectric constant tensor:
#      x y z
#    x 1.708350 0.000000 -0.017190 
#    y 0.000000 1.721060 0.000000 
#    z -0.017190 0.000000 1.706990 
# 
# From -- ./inp_files/147992.got.cif
#   From: 2010.06.25/outbox.cif.g09.slc.cpg/sg12_74_cif.got.tgz:147992.got - 2010.06.28 00:19:55.
