data_PCOD8090994
_publ_section_title
;
Structure prediction by ZEFSAII (Michael W. Deem and Ramdas Pophale) SiO2 
 PCOD8090994
Probable space group: C 2/M
;
_chemical_formula_sum "Si O2"
_cell_formula_units_Z 40
_cell_length_a 31.836508
_cell_length_b 8.563451
_cell_length_c 27.212969
_cell_angle_alpha 90.000000
_cell_angle_beta 163.141007
_cell_angle_gamma 90.000000
_cell_volume 2151.662278
_symmetry_space_group_name_H-M "C 2/M"
_symmetry_group_IT_number 12
_symmetry_cell_setting 'monoclinic'
loop_
_space_group_symop_operation_xyz
x,y,z
-x,y,-z
-x,-y,-z
x,-y,z
1/2+x,1/2+y,z
1/2-x,1/2+y,-z
1/2-x,1/2-y,-z
1/2+x,1/2-y,z
loop_
_atom_site_type_symbol
_atom_site_label
_atom_site_fract_x
_atom_site_fract_y
_atom_site_fract_z
Si Si1 0.474856 0.183519 0.622733
Si Si2 0.228986 0.183948 0.095070
Si Si3 0.888170 0.683678 0.938153
Si Si4 0.111998 0.683623 0.872702
Si Si5 0.810714 0.185720 0.748956
O O1 0.617480 0.246447 0.754094
O O2 0.479461 0.221663 0.686674
O O3 0.328918 0.254303 0.436106
O O4 0.475234 0.000000 0.615350
O O5 0.225460 0.000000 0.100103
O O6 0.205286 0.272089 0.119361
O O7 0.100749 0.230539 0.912856
O O8 0.904153 0.500000 0.950764
O O9 0.047419 0.757678 0.121002
O O10 0.805339 0.749509 0.798033
O O11 0.127319 0.500000 0.898792
O O12 0.250000 0.750000 0.000000
O O13 0.811117 0.000000 0.751175
#
# Coordination Sequence:
#
# PCOD8090994 Si02
#       5
#     8   8   8   8   8
#     4   8  17  32  54  79 103 129 167 210 250 295
#     4  10  19  34  54  78 103 134 171 210 250 297
#     4  11  22  36  51  74 104 135 168 210 255 302
#     4   9  16  30  50  76 106 136 165 203 250 300
#     4  10  19  36  57  75  97 134 172 207 251 304
#
# _framework density 18.590278000000001
#
# number of rings (size 3 to 8) (size 9 to 14) (size 15 to 20)
#    0.000    2.400    0.000    6.000    0.000    0.800 
#    0.000   17.000    0.000    0.000    0.000    0.000 
#    0.000    0.000    0.000    0.000    0.000    0.000 
#
# Total GULP energy -247887.213998 kJ/mol
# GULP energy per Si atom -12394.360700 kJ/mol
# Density = 1.854797 g / cm^3
# Si number density = 18.590278 Si / 1000 Ang^3
#
#
#
# Elastic Constant Matrix: (Units=GPa)
#
#
# Indices 1 2 3 4 5 6 
#
# 1 33.8633 13.7201 30.0212 -0.0015 -6.6916 -0.0011
# 2 13.7201 78.6627 29.0006 -0.0001 -5.1530 0.0001
# 3 30.0212 29.0006 140.9666 -0.0016 -18.1214 -0.0013
# 4 -0.0015 -0.0001 -0.0016 18.9920 -0.0011 -6.0209
# 5 -6.6916 -5.1530 -18.1214 -0.0011 18.9035 -0.0007
# 6 -0.0011 0.0001 -0.0013 -6.0209 -0.0007 32.0598
#
#
#
# Elastic Compliance Matrix: (Units=1/GPa)
#
#
# Indices 1 2 3 4 5 6 
#
# 1 0.038093 -0.003832 -0.006530 0.000003 0.006180 0.000002
# 2 -0.003832 0.014165 -0.002026 0.000000 0.000563 0.000000
# 3 -0.006530 -0.002026 0.009732 0.000001 0.006466 0.000000
# 4 0.000003 0.000000 0.000001 0.055987 0.000005 0.010514
# 5 0.006180 0.000563 0.006466 0.000005 0.061440 0.000003
# 6 0.000002 0.000000 0.000000 0.010514 0.000003 0.033166
#
#
# Mechanical properties :
#
#
# Convention : Reuss Voigt Hill
#
# Bulk Modulus (GPa) = 26.87043 44.33071 35.60057
# Shear Modulus (GPa) = 20.01896 26.04112 23.03004
#
# Velocity S-wave (km/s) = 3.28510 3.74678 3.52351
# Velocity P-wave (km/s) = 5.37351 6.52807 5.97873
#
# Compressibility (1/GPa) = 0.03721563
#
# Stress axis : x y z
#
# Youngs Moduli (GPa) = 26.25144 70.59901 102.74910
#
# Poissons Ratio (x) = 0.27053 0.67092
# Poissons Ratio (y) = 0.10059 0.20813
# Poissons Ratio (z) = 0.17142 0.14300
#
# Static dielectric constant tensor:
#      x y z
#    x 3.455680 0.000000 -0.355490 
#    y 0.000000 3.406290 0.000000 
#    z -0.355490 0.000000 3.930640 
# 
# 
# High freq. dielectric constant tensor:
#      x y z
#    x 1.712430 0.000000 -0.025120 
#    y 0.000000 1.719590 0.000000 
#    z -0.025120 0.000000 1.716850 
# 
# From -- ./inp_files/92934.got.cif
#   From: 2010.06.25/outbox.cif.g09.slc.cpg/sg12_47_cif.got.tgz:92934.got - 2010.06.28 00:19:55.
