data_PCOD8090236
_publ_section_title
;
Structure prediction by ZEFSAII (Michael W. Deem and Ramdas Pophale) SiO2 
 PCOD8090236
Probable space group: C 2/M
;
_chemical_formula_sum "Si O2"
_cell_formula_units_Z 44
_cell_length_a 12.540887
_cell_length_b 16.964513
_cell_length_c 12.692497
_cell_angle_alpha 90.000000
_cell_angle_beta 120.718794
_cell_angle_gamma 90.000000
_cell_volume 2321.431900
_symmetry_space_group_name_H-M "C 2/M"
_symmetry_group_IT_number 12
_symmetry_cell_setting 'monoclinic'
loop_
_space_group_symop_operation_xyz
x,y,z
-x,y,-z
-x,-y,-z
x,-y,z
1/2+x,1/2+y,z
1/2-x,1/2+y,-z
1/2-x,1/2-y,-z
1/2+x,1/2-y,z
loop_
_atom_site_type_symbol
_atom_site_label
_atom_site_fract_x
_atom_site_fract_y
_atom_site_fract_z
Si Si1 0.590913 0.906679 0.449797
Si Si2 0.000000 0.743000 0.000000
Si Si3 0.834138 0.851249 0.668218
Si Si4 0.243297 0.165964 0.136806
Si Si5 0.810980 0.000000 0.945300
Si Si6 0.493505 0.202910 0.768573
Si Si7 0.963583 0.000000 0.806878
O O1 0.500000 0.882771 0.500000
O O2 0.726794 0.867722 0.529443
O O3 0.536531 0.876080 0.311575
O O4 0.605221 0.000000 0.451186
O O5 0.035935 0.691575 0.121126
O O6 0.115243 0.798967 0.026251
O O7 0.763456 0.840614 0.741822
O O8 0.929768 0.923689 0.721326
O O9 0.914053 0.774339 0.678838
O O10 0.269776 0.079923 0.098011
O O11 0.359724 0.221299 0.167476
O O12 0.893065 0.000000 0.881725
O O13 0.890923 0.000000 0.093024
#
# Coordination Sequence:
#
# PCOD8090236 Si02
#       7
#     8   4   8   8   4   8   4
#     4  11  22  37  60  88 112 141 185 239 290 330
#     4  10  22  37  53  82 116 152 190 222 272 340
#     4  10  19  35  56  84 114 146 183 231 283 331
#     4  10  19  33  55  85 114 146 184 233 279 332
#     4   9  16  26  51  81 114 138 178 227 287 322
#     4  11  22  35  58  83 116 151 185 227 283 332
#     4   9  16  30  50  81 112 145 174 226 278 333
#
# _framework density 18.953818999999999
#
# number of rings (size 3 to 8) (size 9 to 14) (size 15 to 20)
#    0.000    1.818    2.727    4.364    1.273    0.000 
#    0.000    0.455    0.000    0.000    9.455    5.727 
#    0.000    0.000    0.000    0.000    0.000    0.000 
#
# Total GULP energy -272727.218581 kJ/mol
# GULP energy per Si atom -12396.691754 kJ/mol
# Density = 1.891068 g / cm^3
# Si number density = 18.953819 Si / 1000 Ang^3
#
#
#
# Elastic Constant Matrix: (Units=GPa)
#
#
# Indices 1 2 3 4 5 6 
#
# 1 85.6718 50.3260 34.5017 0.0000 24.6366 0.0000
# 2 50.3260 81.4342 41.2501 0.0000 4.9728 0.0000
# 3 34.5017 41.2501 101.9707 0.0000 12.0130 0.0000
# 4 0.0000 0.0000 0.0000 26.5993 0.0000 1.9266
# 5 24.6366 4.9728 12.0130 0.0000 31.7276 0.0000
# 6 0.0000 0.0000 0.0000 1.9266 0.0000 25.4521
#
#
#
# Elastic Compliance Matrix: (Units=1/GPa)
#
#
# Indices 1 2 3 4 5 6 
#
# 1 0.025193 -0.014121 -0.000804 0.000000 -0.017045 0.000000
# 2 -0.014121 0.023360 -0.005791 0.000000 0.009496 0.000000
# 3 -0.000804 -0.005791 0.012812 0.000000 -0.003320 0.000000
# 4 0.000000 0.000000 0.000000 0.037802 0.000000 -0.002861
# 5 -0.017045 0.009496 -0.003320 0.000000 0.044522 0.000000
# 6 0.000000 0.000000 0.000000 -0.002861 0.000000 0.039506
#
#
# Mechanical properties :
#
#
# Convention : Reuss Voigt Hill
#
# Bulk Modulus (GPa) = 50.16492 57.91470 54.03981
# Shear Modulus (GPa) = 21.61968 26.28905 23.95436
#
# Velocity S-wave (km/s) = 3.38102 3.72829 3.55889
# Velocity P-wave (km/s) = 6.46267 7.01110 6.74246
#
# Compressibility (1/GPa) = 0.01993425
#
# Stress axis : x y z
#
# Youngs Moduli (GPa) = 39.69399 42.80819 78.05082
#
# Poissons Ratio (x) = 0.60450 0.06272
# Poissons Ratio (y) = 0.56052 0.45197
# Poissons Ratio (z) = 0.03189 0.24789
#
# Static dielectric constant tensor:
#      x y z
#    x 3.250200 0.000000 0.291280 
#    y 0.000000 3.482160 0.000000 
#    z 0.291280 0.000000 3.492870 
# 
# 
# High freq. dielectric constant tensor:
#      x y z
#    x 1.707290 0.000000 0.034630 
#    y 0.000000 1.727590 0.000000 
#    z 0.034630 0.000000 1.738980 
# 
# From -- ./inp_files/131334.got.cif
#   From: 2010.06.25/outbox.cif.g09.slc.cpg/sg12_66_cif.got.tgz:131334.got - 2010.06.28 00:19:55.
