data_PCOD8090522
_publ_section_title
;
Structure prediction by ZEFSAII (Michael W. Deem and Ramdas Pophale) SiO2 
 PCOD8090522
Probable space group: C 2/M
;
_chemical_formula_sum "Si O2"
_cell_formula_units_Z 48
_cell_length_a 29.374354
_cell_length_b 9.021699
_cell_length_c 19.279705
_cell_angle_alpha 90.000000
_cell_angle_beta 148.449613
_cell_angle_gamma 90.000000
_cell_volume 2673.405131
_symmetry_space_group_name_H-M "C 2/M"
_symmetry_group_IT_number 12
_symmetry_cell_setting 'monoclinic'
loop_
_space_group_symop_operation_xyz
x,y,z
-x,y,-z
-x,-y,-z
x,-y,z
1/2+x,1/2+y,z
1/2-x,1/2+y,-z
1/2-x,1/2-y,-z
1/2+x,1/2-y,z
loop_
_atom_site_type_symbol
_atom_site_label
_atom_site_fract_x
_atom_site_fract_y
_atom_site_fract_z
Si Si1 0.291751 0.328624 0.618966
Si Si2 0.596184 0.173753 0.623086
Si Si3 0.734841 0.828584 0.694511
Si Si4 0.855261 0.669704 0.952910
Si Si5 0.754971 0.676045 0.080713
Si Si6 0.965836 0.669291 0.881557
O O1 0.297056 0.500000 0.608339
O O2 0.250000 0.250000 0.500000
O O3 0.231076 0.298928 0.607508
O O4 0.388514 0.272419 0.756664
O O5 0.500000 0.248928 0.500000
O O6 0.642188 0.212448 0.609365
O O7 0.657127 0.229841 0.765526
O O8 0.584873 0.000000 0.617291
O O9 0.810154 0.726828 0.824029
O O10 0.757762 0.000000 0.740719
O O11 0.827325 0.500000 0.929622
O O12 0.827739 0.769363 0.982481
O O13 0.958620 0.682606 0.077752
O O14 0.751249 0.500000 0.068482
O O15 0.750000 0.750000 0.000000
O O16 0.932944 0.500000 0.845355
O O17 0.000000 0.726204 0.000000
#
# Coordination Sequence:
#
# PCOD8090522 Si02
#       6
#     8   8   8   8   8   8
#     4  11  23  37  54  78 113 149 183 226 279 331
#     4   8  15  31  55  78  99 130 176 220 258 311
#     4   9  18  33  54  79 105 139 180 224 270 324
#     4  10  19  33  57  83 107 140 181 225 275 327
#     4  10  20  35  55  80 112 142 178 223 273 327
#     4  10  20  36  58  83 108 139 185 232 273 331
#
# _framework density 17.954630999999999
#
# number of rings (size 3 to 8) (size 9 to 14) (size 15 to 20)
#    0.000    2.333    1.667    2.500    0.000    2.333 
#    3.000    0.000    0.000   12.500    0.000    0.000 
#    0.000    0.000    0.000    0.000    0.000    0.000 
#
# Total GULP energy -297571.544149 kJ/mol
# GULP energy per Si atom -12398.814340 kJ/mol
# Density = 1.791377 g / cm^3
# Si number density = 17.954631 Si / 1000 Ang^3
#
#
#
# Elastic Constant Matrix: (Units=GPa)
#
#
# Indices 1 2 3 4 5 6 
#
# 1 133.6366 57.6948 80.5980 0.0000 -9.0610 0.0000
# 2 57.6948 86.6874 52.3021 0.0000 -7.1461 0.0000
# 3 80.5980 52.3021 116.1040 0.0000 -2.0649 0.0000
# 4 0.0000 0.0000 0.0000 28.8698 0.0000 -3.3142
# 5 -9.0610 -7.1461 -2.0649 0.0000 32.3501 0.0000
# 6 0.0000 0.0000 0.0000 -3.3142 0.0000 30.6771
#
#
#
# Elastic Compliance Matrix: (Units=1/GPa)
#
#
# Indices 1 2 3 4 5 6 
#
# 1 0.014393 -0.004629 -0.007861 0.000000 0.002507 0.000000
# 2 -0.004629 0.017636 -0.004690 0.000000 0.002300 0.000000
# 3 -0.007861 -0.004690 0.016144 0.000000 -0.002207 0.000000
# 4 0.000000 0.000000 0.000000 0.035073 0.000000 0.003789
# 5 0.002507 0.002300 -0.002207 0.000000 0.031981 0.000000
# 6 0.000000 0.000000 0.000000 0.003789 0.000000 0.033007
#
#
# Mechanical properties :
#
#
# Convention : Reuss Voigt Hill
#
# Bulk Modulus (GPa) = 72.40576 79.73534 76.07055
# Shear Modulus (GPa) = 26.70947 28.10158 27.40553
#
# Velocity S-wave (km/s) = 3.86114 3.96048 3.91113
# Velocity P-wave (km/s) = 7.76482 8.08824 7.92818
#
# Compressibility (1/GPa) = 0.01381106
#
# Stress axis : x y z
#
# Youngs Moduli (GPa) = 69.47861 56.70181 61.94367
#
# Poissons Ratio (x) = 0.26250 0.48696
# Poissons Ratio (y) = 0.32165 0.29052
# Poissons Ratio (z) = 0.54619 0.26593
#
# Static dielectric constant tensor:
#      x y z
#    x 2.230670 0.000000 2.792400 
#    y 0.000000 3.281140 0.000000 
#    z 2.792400 0.000000 -2.181980 
# 
# 
# High freq. dielectric constant tensor:
#      x y z
#    x 1.705330 0.000000 0.006470 
#    y 0.000000 1.688510 0.000000 
#    z 0.006470 0.000000 1.677870 
# 
# From -- ./inp_files/280782.got.cif
#   From: 2010.06.25/outbox.cif.g09.slc.cpg/sg12_141_cif.got.tgz:280782.got - 2010.06.28 00:19:55.
