data_PCOD8090661
_publ_section_title
;
Structure prediction by ZEFSAII (Michael W. Deem and Ramdas Pophale) SiO2 
 PCOD8090661
Probable space group: C 2/M
;
_chemical_formula_sum "Si O2"
_cell_formula_units_Z 56
_cell_length_a 15.190996
_cell_length_b 8.965377
_cell_length_c 22.519659
_cell_angle_alpha 90.000000
_cell_angle_beta 69.850586
_cell_angle_gamma 90.000000
_cell_volume 2879.310817
_symmetry_space_group_name_H-M "C 2/M"
_symmetry_group_IT_number 12
_symmetry_cell_setting 'monoclinic'
loop_
_space_group_symop_operation_xyz
x,y,z
-x,y,-z
-x,-y,-z
x,-y,z
1/2+x,1/2+y,z
1/2-x,1/2+y,-z
1/2-x,1/2-y,-z
1/2+x,1/2-y,z
loop_
_atom_site_type_symbol
_atom_site_label
_atom_site_fract_x
_atom_site_fract_y
_atom_site_fract_z
Si Si1 0.130172 0.823221 0.420665
Si Si2 0.424864 0.676242 0.437613
Si Si3 0.412136 0.828031 0.879546
Si Si4 0.886976 0.323346 0.213122
Si Si5 0.771902 0.172302 0.141502
Si Si6 0.100803 0.175309 0.996948
Si Si7 0.818922 0.822376 0.346179
O O1 0.125183 0.768666 0.490357
O O2 0.212987 0.736701 0.368542
O O3 0.033724 0.774355 0.410706
O O4 0.147048 0.000000 0.411995
O O5 0.422015 0.500000 0.438523
O O6 0.369621 0.739819 0.393772
O O7 0.513775 0.767958 0.836402
O O8 0.339035 0.803383 0.842579
O O9 0.418606 0.000000 0.895377
O O10 0.372575 0.744933 0.946261
O O11 0.883829 0.500000 0.222936
O O12 0.803598 0.273721 0.188904
O O13 0.876342 0.243066 0.278221
O O14 0.824238 0.224620 0.069592
O O15 0.795624 0.000000 0.150417
O O16 0.099211 0.000000 0.006127
O O17 0.000000 0.236678 0.000000
O O18 0.819139 0.000000 0.342989
#
# Coordination Sequence:
#
# PCOD8090661 Si02
#       7
#     8   8   8   8   8   8   8
#     4   9  17  35  60  85 113 145 183 225 266 322
#     4   8  17  34  58  85 114 147 181 220 272 326
#     4  10  22  38  58  82 110 143 183 230 277 323
#     4  11  24  40  55  77 107 146 190 230 272 323
#     4  10  21  39  59  82 112 144 179 226 279 330
#     4  10  19  33  58  87 114 143 177 220 276 335
#     4  11  22  36  55  81 112 147 184 225 276 326
#
# _framework density 19.449097999999999
#
# number of rings (size 3 to 8) (size 9 to 14) (size 15 to 20)
#    0.000    2.143    1.429    2.571    0.000    3.143 
#    0.000    6.429    0.000    0.000    0.000    0.000 
#    0.000    0.000    0.000    0.000    0.000    0.000 
#
# Total GULP energy -347255.285357 kJ/mol
# GULP energy per Si atom -12401.974477 kJ/mol
# Density = 1.940483 g / cm^3
# Si number density = 19.449098 Si / 1000 Ang^3
#
#
#
# Elastic Constant Matrix: (Units=GPa)
#
#
# Indices 1 2 3 4 5 6 
#
# 1 87.9267 22.1685 25.3438 0.0000 1.8507 0.0000
# 2 22.1685 49.6612 27.2669 0.0000 2.5251 0.0000
# 3 25.3438 27.2669 80.9326 0.0000 4.4183 0.0000
# 4 0.0000 0.0000 0.0000 30.8309 0.0000 0.0545
# 5 1.8507 2.5251 4.4183 0.0000 20.5821 0.0000
# 6 0.0000 0.0000 0.0000 0.0545 0.0000 26.0022
#
#
#
# Elastic Compliance Matrix: (Units=1/GPa)
#
#
# Indices 1 2 3 4 5 6 
#
# 1 0.013263 -0.004464 -0.002645 0.000000 -0.000077 0.000000
# 2 -0.004464 0.026242 -0.007376 0.000000 -0.001235 0.000000
# 3 -0.002645 -0.007376 0.015792 0.000000 -0.002247 0.000000
# 4 0.000000 0.000000 0.000000 0.032435 0.000000 -0.000068
# 5 -0.000077 -0.001235 -0.002247 0.000000 0.049227 0.000000
# 6 0.000000 0.000000 0.000000 -0.000068 0.000000 0.038458
#
#
# Mechanical properties :
#
#
# Convention : Reuss Voigt Hill
#
# Bulk Modulus (GPa) = 37.98454 40.89767 39.44110
# Shear Modulus (GPa) = 23.45635 25.06577 24.26106
#
# Velocity S-wave (km/s) = 3.47657 3.59386 3.53571
# Velocity P-wave (km/s) = 5.97395 6.18828 6.08206
#
# Compressibility (1/GPa) = 0.02632650
#
# Stress axis : x y z
#
# Youngs Moduli (GPa) = 75.39972 38.10721 63.32390
#
# Poissons Ratio (x) = 0.17012 0.16749
# Poissons Ratio (y) = 0.33660 0.46706
# Poissons Ratio (z) = 0.19943 0.28107
#
# Static dielectric constant tensor:
#      x y z
#    x 3.783300 0.000000 0.048310 
#    y 0.000000 3.281040 0.000000 
#    z 0.048310 0.000000 3.564450 
# 
# 
# High freq. dielectric constant tensor:
#      x y z
#    x 1.769160 0.000000 -0.002270 
#    y 0.000000 1.737500 0.000000 
#    z -0.002270 0.000000 1.753920 
# 
# From -- ./inp_files/338162.got.cif
#   From: 2010.06.25/outbox.cif.g09.slc.cpg/sg12_170_cif.got.tgz:338162.got - 2010.06.28 00:19:55.
