data_PCOD8090197
_publ_section_title
;
Structure prediction by ZEFSAII (Michael W. Deem and Ramdas Pophale) SiO2 
 PCOD8090197
Probable space group: C 2/M
;
_chemical_formula_sum "Si O2"
_cell_formula_units_Z 56
_cell_length_a 20.238961
_cell_length_b 8.528499
_cell_length_c 30.714632
_cell_angle_alpha 90.000000
_cell_angle_beta 32.759561
_cell_angle_gamma 90.000000
_cell_volume 2868.768821
_symmetry_space_group_name_H-M "C 2/M"
_symmetry_group_IT_number 12
_symmetry_cell_setting 'monoclinic'
loop_
_space_group_symop_operation_xyz
x,y,z
-x,y,-z
-x,-y,-z
x,-y,z
1/2+x,1/2+y,z
1/2-x,1/2+y,-z
1/2-x,1/2-y,-z
1/2+x,1/2-y,z
loop_
_atom_site_type_symbol
_atom_site_label
_atom_site_fract_x
_atom_site_fract_y
_atom_site_fract_z
Si Si1 0.464929 0.818253 0.332021
Si Si2 0.468628 0.319163 0.423997
Si Si3 0.627624 0.686026 0.835532
Si Si4 0.092655 0.826524 0.988477
Si Si5 0.729190 0.318356 0.319219
Si Si6 0.714769 0.682596 0.173508
Si Si7 0.255561 0.180398 0.595642
O O1 0.448553 0.718232 0.384727
O O2 0.584468 0.764529 0.239365
O O3 0.349291 0.790508 0.365484
O O4 0.474101 0.000000 0.339238
O O5 0.435790 0.500000 0.450766
O O6 0.607488 0.282033 0.359478
O O7 0.382587 0.212609 0.501215
O O8 0.642212 0.500000 0.824075
O O9 0.487548 0.732115 0.925783
O O10 0.655961 0.767318 0.773922
O O11 0.721451 0.746580 0.819581
O O12 0.146434 0.000000 0.967420
O O13 0.204712 0.711744 0.914761
O O14 0.000000 0.834351 0.000000
O O15 0.740078 0.500000 0.325858
O O16 0.727620 0.214930 0.363044
O O17 0.695358 0.500000 0.191637
O O18 0.218904 0.000000 0.609459
#
# Coordination Sequence:
#
# PCOD8090197 Si02
#       7
#     8   8   8   8   8   8   8
#     4  12  24  40  62  85 116 154 196 241 291 346
#     4  11  23  41  63  88 117 149 193 243 291 342
#     4  10  19  33  55  83 116 152 193 236 284 338
#     4   8  16  30  49  78 114 150 187 233 283 335
#     4  11  23  39  61  87 119 154 194 241 288 342
#     4  11  20  32  53  84 117 150 190 237 288 341
#     4  12  26  42  60  84 117 154 196 240 291 349
#
# _framework density 19.520569999999999
#
# number of rings (size 3 to 8) (size 9 to 14) (size 15 to 20)
#    0.000    1.286    1.429    6.857    0.000    6.571 
#    0.000    0.000    0.000    0.857    0.000    0.000 
#    0.000    0.000    0.000    0.000    0.000    0.000 
#
# Total GULP energy -347296.513728 kJ/mol
# GULP energy per Si atom -12403.446919 kJ/mol
# Density = 1.947614 g / cm^3
# Si number density = 19.520570 Si / 1000 Ang^3
#
#
#
# Elastic Constant Matrix: (Units=GPa)
#
#
# Indices 1 2 3 4 5 6 
#
# 1 31.7926 36.1972 18.0415 0.0053 -19.7970 -0.0691
# 2 36.1972 80.8099 31.6886 -0.0065 11.3968 -0.0089
# 3 18.0415 31.6886 140.7500 0.0010 0.1054 -0.0053
# 4 0.0053 -0.0065 0.0010 36.2968 0.0083 1.4938
# 5 -19.7970 11.3968 0.1054 0.0083 -24.2307 -0.0225
# 6 -0.0691 -0.0089 -0.0053 1.4938 -0.0225 18.5565
#
#
#
# Elastic Compliance Matrix: (Units=1/GPa)
#
#
# Indices 1 2 3 4 5 6 
#
# 1 0.025591 -0.007397 -0.001597 -0.000002 -0.024394 0.000062
# 2 -0.007397 0.014794 -0.002392 0.000001 0.012991 -0.000005
# 3 -0.001597 -0.002392 0.007848 0.000000 0.000214 -0.000005
# 4 -0.000002 0.000001 0.000000 0.027642 0.000014 -0.002225
# 5 -0.024394 0.012991 0.000214 0.000014 -0.015228 -0.000104
# 6 0.000062 -0.000005 -0.000005 -0.002225 -0.000104 0.054069
#
#
# Mechanical properties :
#
#
# Convention : Reuss Voigt Hill
#
# Bulk Modulus (GPa) = 39.27469 47.24523 43.25996
# Shear Modulus (GPa) = 34.25262 17.28621 25.76941
#
# Velocity S-wave (km/s) = 4.19345 2.97903 3.63728
# Velocity P-wave (km/s) = 6.60379 6.00734 6.31261
#
# Compressibility (1/GPa) = 0.02546169
#
# Stress axis : x y z
#
# Youngs Moduli (GPa) = 39.07594 67.59568 127.42220
#
# Poissons Ratio (x) = 0.49997 0.20346
# Poissons Ratio (y) = 0.28903 0.30484
# Poissons Ratio (z) = 0.06240 0.16171
#
# Static dielectric constant tensor:
#      x y z
#    x 3.163260 -0.000010 -0.004660 
#    y -0.000010 3.590840 0.000010 
#    z -0.004660 0.000010 3.948650 
# 
# 
# High freq. dielectric constant tensor:
#      x y z
#    x 1.719300 0.000000 0.001030 
#    y 0.000000 1.771240 0.000000 
#    z 0.001030 0.000000 1.781250 
# 
# From -- ./inp_files/363004.got.cif
#   From: 2010.06.25/outbox.cif.g09.slc.cpg/sg12_182_cif.got.tgz:363004.got - 2010.06.28 00:19:55.
