data_PCOD8090765
_publ_section_title
;
Structure prediction by ZEFSAII (Michael W. Deem and Ramdas Pophale) SiO2 
 PCOD8090765
Probable space group: C 2/M
;
_chemical_formula_sum "Si O2"
_cell_formula_units_Z 48
_cell_length_a 18.074530
_cell_length_b 13.538212
_cell_length_c 18.400265
_cell_angle_alpha 90.000000
_cell_angle_beta 149.833218
_cell_angle_gamma 90.000000
_cell_volume 2262.583961
_symmetry_space_group_name_H-M "C 2/M"
_symmetry_group_IT_number 12
_symmetry_cell_setting 'monoclinic'
loop_
_space_group_symop_operation_xyz
x,y,z
-x,y,-z
-x,-y,-z
x,-y,z
1/2+x,1/2+y,z
1/2-x,1/2+y,-z
1/2-x,1/2-y,-z
1/2+x,1/2-y,z
loop_
_atom_site_type_symbol
_atom_site_label
_atom_site_fract_x
_atom_site_fract_y
_atom_site_fract_z
Si Si1 0.155556 0.243121 0.605945
Si Si2 0.893079 0.199255 0.709294
Si Si3 0.554967 0.384513 0.394375
Si Si4 0.446183 0.887881 0.117678
Si Si5 0.806594 0.111825 0.980997
Si Si6 0.755050 0.296287 0.844807
O O1 0.248724 0.321280 0.636789
O O2 0.118825 0.147166 0.526277
O O3 0.255185 0.206217 0.757645
O O4 0.000000 0.291584 0.500000
O O5 0.856410 0.169980 0.595342
O O6 0.925792 0.317025 0.743395
O O7 0.028314 0.134539 0.853138
O O8 0.571797 0.500000 0.398695
O O9 0.385682 0.353454 0.243875
O O10 0.301142 0.872294 0.042818
O O11 0.504962 0.000000 0.168464
O O12 0.399037 0.854375 0.996188
O O13 0.756152 0.183126 0.873285
O O14 0.798804 0.000000 0.945084
#
# Coordination Sequence:
#
# PCOD8090765 Si02
#       6
#     8   8   8   8   8   8
#     4  10  25  40  58  82 123 166 200 245 297 349
#     4  11  20  39  61  90 119 155 206 247 300 353
#     4  11  21  38  65  90 116 160 208 247 292 356
#     4  10  19  33  61  94 122 151 192 250 307 360
#     4  10  19  35  64  94 120 154 195 247 304 361
#     4  10  19  38  59  90 125 157 191 246 306 358
#
# _framework density 21.214682
#
# number of rings (size 3 to 8) (size 9 to 14) (size 15 to 20)
#    0.000    1.667    3.333    2.500    0.000    7.000 
#    0.000    3.333    0.000   11.500    0.000    0.000 
#    0.000    0.000    0.000    0.000    0.000    0.000 
#
# Total GULP energy -297603.657706 kJ/mol
# GULP energy per Si atom -12400.152404 kJ/mol
# Density = 2.116640 g / cm^3
# Si number density = 21.214682 Si / 1000 Ang^3
#
#
#
# Elastic Constant Matrix: (Units=GPa)
#
#
# Indices 1 2 3 4 5 6 
#
# 1 115.8344 11.9826 32.6704 0.0000 -10.0015 0.0003
# 2 11.9826 82.8445 25.9917 -0.0005 -22.2444 0.0001
# 3 32.6704 25.9917 60.3314 -0.0010 -22.4056 0.0001
# 4 0.0000 -0.0005 -0.0010 23.4160 -0.0002 -5.3721
# 5 -10.0015 -22.2444 -22.4056 -0.0002 46.3484 0.0003
# 6 0.0003 0.0001 0.0001 -5.3721 0.0003 7.4452
#
#
#
# Elastic Compliance Matrix: (Units=1/GPa)
#
#
# Indices 1 2 3 4 5 6 
#
# 1 0.010205 0.000210 -0.005803 0.000000 -0.000503 -0.000001
# 2 0.000210 0.014824 -0.004681 0.000000 0.004897 0.000000
# 3 -0.005803 -0.004681 0.024906 0.000001 0.008541 0.000000
# 4 0.000000 0.000000 0.000001 0.051178 0.000001 0.036928
# 5 -0.000503 0.004897 0.008541 0.000001 0.027946 -0.000001
# 6 -0.000001 0.000000 0.000000 0.036928 -0.000001 0.160960
#
#
# Mechanical properties :
#
#
# Convention : Reuss Voigt Hill
#
# Bulk Modulus (GPa) = 34.03025 44.47776 39.25400
# Shear Modulus (GPa) = 15.60725 27.99961 21.80343
#
# Velocity S-wave (km/s) = 2.71529 3.63688 3.20933
# Velocity P-wave (km/s) = 5.08980 6.21666 5.68124
#
# Compressibility (1/GPa) = 0.02938562
#
# Stress axis : x y z
#
# Youngs Moduli (GPa) = 97.99487 67.45785 40.15050
#
# Poissons Ratio (x) = -0.01415 0.23299
# Poissons Ratio (y) = -0.02055 0.18796
# Poissons Ratio (z) = 0.56866 0.31580
#
# Static dielectric constant tensor:
#      x y z
#    x 3.942870 0.000000 0.003850 
#    y 0.000000 3.672210 0.000000 
#    z 0.003850 0.000000 3.858050 
# 
# 
# High freq. dielectric constant tensor:
#      x y z
#    x 1.829890 0.000000 -0.003610 
#    y 0.000000 1.809210 0.000000 
#    z -0.003610 0.000000 1.838280 
# 
# From -- ./inp_files/278222.got.cif
#   From: 2010.06.25/outbox.cif.g09.slc.cpg/sg12_140_cif.got.tgz:278222.got - 2010.06.28 00:19:55.
