data_PCOD8090597
_publ_section_title
;
Structure prediction by ZEFSAII (Michael W. Deem and Ramdas Pophale) SiO2 
 PCOD8090597
Probable space group: C 2/M
;
_chemical_formula_sum "Si O2"
_cell_formula_units_Z 64
_cell_length_a 20.570604
_cell_length_b 8.678476
_cell_length_c 18.608196
_cell_angle_alpha 90.000000
_cell_angle_beta 97.189373
_cell_angle_gamma 90.000000
_cell_volume 3295.845431
_symmetry_space_group_name_H-M "C 2/M"
_symmetry_group_IT_number 12
_symmetry_cell_setting 'monoclinic'
loop_
_space_group_symop_operation_xyz
x,y,z
-x,y,-z
-x,-y,-z
x,-y,z
1/2+x,1/2+y,z
1/2-x,1/2+y,-z
1/2-x,1/2-y,-z
1/2+x,1/2-y,z
loop_
_atom_site_type_symbol
_atom_site_label
_atom_site_fract_x
_atom_site_fract_y
_atom_site_fract_z
Si Si1 0.802081 0.176997 0.419708
Si Si2 0.191672 0.317990 0.037498
Si Si3 0.555633 0.816795 0.955406
Si Si4 0.282779 0.319580 0.806262
Si Si5 0.888732 0.320756 0.718838
Si Si6 0.334890 0.677015 0.580033
Si Si7 0.967862 0.681861 0.209111
Si Si8 0.347405 0.321539 0.270669
O O1 0.739698 0.287547 0.408119
O O2 0.845160 0.213409 0.496783
O O3 0.846090 0.208293 0.356003
O O4 0.777128 0.000000 0.418673
O O5 0.194808 0.500000 0.033781
O O6 0.193765 0.267881 0.119858
O O7 0.250000 0.250000 0.000000
O O8 0.125055 0.254894 0.992862
O O9 0.543592 0.757497 0.873144
O O10 0.552995 0.000000 0.956632
O O11 0.500000 0.748179 0.000000
O O12 0.284952 0.500000 0.821308
O O13 0.331562 0.275258 0.749115
O O14 0.208718 0.273940 0.777256
O O15 0.875637 0.500000 0.730614
O O16 0.884714 0.281174 0.633461
O O17 0.959053 0.270694 0.758298
O O18 0.349709 0.500000 0.599596
O O19 0.956687 0.500000 0.214232
O O20 0.918152 0.767488 0.254671
O O21 0.336337 0.500000 0.250829
#
# Coordination Sequence:
#
# PCOD8090597 Si02
#       8
#     8   8   8   8   8   8   8   8
#     4   9  19  35  56  84 117 152 192 238 293 348
#     4  11  22  37  59  86 116 149 188 241 300 353
#     4   9  18  36  60  82 105 143 192 236 283 341
#     4  12  24  38  59  86 116 152 197 244 292 350
#     4  11  22  38  59  86 118 154 194 242 294 344
#     4  10  19  33  57  87 116 150 192 242 292 345
#     4  10  22  39  60  85 117 154 194 240 293 355
#     4  11  22  38  60  86 118 154 193 241 296 352
#
# _framework density 19.418386000000002
#
# number of rings (size 3 to 8) (size 9 to 14) (size 15 to 20)
#    0.000    1.625    1.250    4.125    0.000    5.000 
#    0.000    1.250    0.000    6.375    0.000    0.000 
#    0.000    0.000    0.000    0.000    0.000    0.000 
#
# Total GULP energy -396922.825398 kJ/mol
# GULP energy per Si atom -12403.838294 kJ/mol
# Density = 1.937419 g / cm^3
# Si number density = 19.418386 Si / 1000 Ang^3
#
#
#
# Elastic Constant Matrix: (Units=GPa)
#
#
# Indices 1 2 3 4 5 6 
#
# 1 107.0533 30.1505 48.4700 0.0000 3.3144 0.0000
# 2 30.1505 50.7866 24.0948 0.0000 0.2005 0.0000
# 3 48.4700 24.0948 137.1805 0.0000 6.9826 0.0000
# 4 0.0000 0.0000 0.0000 32.0072 0.0000 -0.4982
# 5 3.3144 0.2005 6.9826 0.0000 33.8702 0.0000
# 6 0.0000 0.0000 0.0000 -0.4982 0.0000 28.9608
#
#
#
# Elastic Compliance Matrix: (Units=1/GPa)
#
#
# Indices 1 2 3 4 5 6 
#
# 1 0.012528 -0.005834 -0.003377 0.000000 -0.000495 0.000000
# 2 -0.005834 0.024211 -0.002237 0.000000 0.000889 0.000000
# 3 -0.003377 -0.002237 0.008952 0.000000 -0.001502 0.000000
# 4 0.000000 0.000000 0.000000 0.031251 0.000000 0.000538
# 5 -0.000495 0.000889 -0.001502 0.000000 0.029877 0.000000
# 6 0.000000 0.000000 0.000000 0.000538 0.000000 0.034539
#
#
# Mechanical properties :
#
#
# Convention : Reuss Voigt Hill
#
# Bulk Modulus (GPa) = 43.86448 55.60568 49.73508
# Shear Modulus (GPa) = 29.09481 31.78800 30.44140
#
# Velocity S-wave (km/s) = 3.87500 4.05038 3.96366
# Velocity P-wave (km/s) = 6.53139 7.11139 6.82755
#
# Compressibility (1/GPa) = 0.02279749
#
# Stress axis : x y z
#
# Youngs Moduli (GPa) = 79.81883 41.30339 111.70615
#
# Poissons Ratio (x) = 0.24095 0.37721
# Poissons Ratio (y) = 0.46564 0.24983
# Poissons Ratio (z) = 0.26953 0.09238
#
# Static dielectric constant tensor:
#      x y z
#    x 3.405290 0.000000 0.099150 
#    y 0.000000 3.469820 0.000000 
#    z 0.099150 0.000000 3.756230 
# 
# 
# High freq. dielectric constant tensor:
#      x y z
#    x 1.743650 0.000000 0.005160 
#    y 0.000000 1.749260 0.000000 
#    z 0.005160 0.000000 1.775740 
# 
# From -- ./inp_files/281390.got.cif
#   From: 2010.06.25/outbox.cif.g09.slc.cpg/sg12_141_cif.got.tgz:281390.got - 2010.06.28 00:19:55.
