data_PCOD8090237
_publ_section_title
;
Structure prediction by ZEFSAII (Michael W. Deem and Ramdas Pophale) SiO2 
 PCOD8090237
Probable space group: C 2/M
;
_chemical_formula_sum "Si O2"
_cell_formula_units_Z 56
_cell_length_a 22.316438
_cell_length_b 9.090861
_cell_length_c 16.435021
_cell_angle_alpha 90.000000
_cell_angle_beta 60.152459
_cell_angle_gamma 90.000000
_cell_volume 2891.984349
_symmetry_space_group_name_H-M "C 2/M"
_symmetry_group_IT_number 12
_symmetry_cell_setting 'monoclinic'
loop_
_space_group_symop_operation_xyz
x,y,z
-x,y,-z
-x,-y,-z
x,-y,z
1/2+x,1/2+y,z
1/2-x,1/2+y,-z
1/2-x,1/2-y,-z
1/2+x,1/2-y,z
loop_
_atom_site_type_symbol
_atom_site_label
_atom_site_fract_x
_atom_site_fract_y
_atom_site_fract_z
Si Si1 0.840160 0.329359 0.752194
Si Si2 0.911854 0.827279 0.374619
Si Si3 0.815499 0.829300 0.156762
Si Si4 0.347344 0.330883 0.586756
Si Si5 0.446370 0.669500 0.965769
Si Si6 0.040550 0.326991 0.210895
Si Si7 0.809960 0.673120 0.323677
O O1 0.845153 0.500000 0.731040
O O2 0.760813 0.281868 0.822246
O O3 0.871448 0.254420 0.650674
O O4 0.885167 0.286392 0.800532
O O5 0.899819 0.797078 0.478257
O O6 0.849063 0.755232 0.368844
O O7 0.983557 0.753586 0.303088
O O8 0.913759 0.000000 0.353812
O O9 0.838161 0.731782 0.218322
O O10 0.817969 0.000000 0.181376
O O11 0.868632 0.798476 0.048098
O O12 0.347743 0.500000 0.610978
O O13 0.270200 0.284336 0.612434
O O14 0.455622 0.500000 0.933320
O O15 0.462279 0.772259 0.879130
O O16 0.500000 0.710767 0.000000
O O17 0.025718 0.500000 0.222070
O O18 0.824044 0.500000 0.320059
#
# Coordination Sequence:
#
# PCOD8090237 Si02
#       7
#     8   8   8   8   8   8   8
#     4   9  20  38  57  79 109 145 184 225 270 321
#     4  11  22  36  54  78 110 148 186 224 273 326
#     4   9  18  35  58  81 110 148 183 218 267 326
#     4   9  20  36  56  82 110 143 183 225 268 322
#     4  10  21  37  58  84 111 140 177 220 271 331
#     4  11  24  39  55  79 110 143 184 231 274 318
#     4  10  19  33  55  85 115 141 177 224 273 323
#
# _framework density 19.363866999999999
#
# number of rings (size 3 to 8) (size 9 to 14) (size 15 to 20)
#    0.000    2.143    0.000    2.571    0.000    6.000 
#    0.000    2.857    0.000    0.000    0.000    0.000 
#    0.000    0.000    0.000    0.000    0.000    0.000 
#
# Total GULP energy -347284.700822 kJ/mol
# GULP energy per Si atom -12403.025029 kJ/mol
# Density = 1.931979 g / cm^3
# Si number density = 19.363867 Si / 1000 Ang^3
#
#
#
# Elastic Constant Matrix: (Units=GPa)
#
#
# Indices 1 2 3 4 5 6 
#
# 1 88.3220 43.8432 50.8730 0.0000 7.5234 -0.0001
# 2 43.8432 78.5474 45.9430 -0.0001 1.5734 -0.0003
# 3 50.8730 45.9430 105.3195 0.0000 -9.5087 0.0000
# 4 0.0000 -0.0001 0.0000 33.3378 0.0000 1.6899
# 5 7.5234 1.5734 -9.5087 0.0000 24.7051 0.0000
# 6 -0.0001 -0.0003 0.0000 1.6899 0.0000 28.1054
#
#
#
# Elastic Compliance Matrix: (Units=1/GPa)
#
#
# Indices 1 2 3 4 5 6 
#
# 1 0.019439 -0.006378 -0.007361 0.000000 -0.008347 0.000000
# 2 -0.006378 0.019595 -0.005599 0.000000 -0.001461 0.000000
# 3 -0.007361 -0.005599 0.016294 0.000000 0.008870 0.000000
# 4 0.000000 0.000000 0.000000 0.030088 0.000000 -0.001809
# 5 -0.008347 -0.001461 0.008870 0.000000 0.046526 0.000000
# 6 0.000000 0.000000 0.000000 -0.001809 0.000000 0.035689
#
#
# Mechanical properties :
#
#
# Convention : Reuss Voigt Hill
#
# Bulk Modulus (GPa) = 60.05230 61.50082 60.77656
# Shear Modulus (GPa) = 23.60066 25.99831 24.79949
#
# Velocity S-wave (km/s) = 3.49492 3.66815 3.58258
# Velocity P-wave (km/s) = 6.88228 7.05479 6.96907
#
# Compressibility (1/GPa) = 0.01665215
#
# Stress axis : x y z
#
# Youngs Moduli (GPa) = 51.44264 51.03274 61.37209
#
# Poissons Ratio (x) = 0.32546 0.45178
# Poissons Ratio (y) = 0.32808 0.34364
# Poissons Ratio (z) = 0.37869 0.28575
#
# Static dielectric constant tensor:
#      x y z
#    x 3.738650 0.000000 -0.167780 
#    y 0.000000 3.559710 0.000000 
#    z -0.167780 0.000000 3.551490 
# 
# 
# High freq. dielectric constant tensor:
#      x y z
#    x 1.756150 0.000000 -0.004750 
#    y 0.000000 1.755430 0.000000 
#    z -0.004750 0.000000 1.753810 
# 
# From -- ./inp_files/238364.got.cif
#   From: 2010.06.25/outbox.cif.g09.slc.cpg/sg12_120_cif.got.tgz:238364.got - 2010.06.28 00:19:55.
