data_PCOD8090530
_publ_section_title
;
Structure prediction by ZEFSAII (Michael W. Deem and Ramdas Pophale) SiO2 
 PCOD8090530
Probable space group: C 2/M
;
_chemical_formula_sum "Si O2"
_cell_formula_units_Z 60
_cell_length_a 8.517419
_cell_length_b 20.592461
_cell_length_c 24.177961
_cell_angle_alpha 90.000000
_cell_angle_beta 48.768678
_cell_angle_gamma 90.000000
_cell_volume 3189.226559
_symmetry_space_group_name_H-M "C 2/M"
_symmetry_group_IT_number 12
_symmetry_cell_setting 'monoclinic'
loop_
_space_group_symop_operation_xyz
x,y,z
-x,y,-z
-x,-y,-z
x,-y,z
1/2+x,1/2+y,z
1/2-x,1/2+y,-z
1/2-x,1/2-y,-z
1/2+x,1/2-y,z
loop_
_atom_site_type_symbol
_atom_site_label
_atom_site_fract_x
_atom_site_fract_y
_atom_site_fract_z
Si Si1 0.933429 0.773864 0.622020
Si Si2 0.601812 0.204629 0.068377
Si Si3 0.685006 0.156741 0.423228
Si Si4 0.999379 0.325669 0.698052
Si Si5 0.731534 0.424030 0.700821
Si Si6 0.000000 0.604585 0.000000
Si Si7 0.196857 0.182974 0.863922
Si Si8 0.452111 0.428940 0.868413
O O1 0.937485 0.717647 0.575288
O O2 0.913052 0.738110 0.686215
O O3 0.745685 0.822757 0.651258
O O4 0.140624 0.817819 0.574239
O O5 0.399949 0.247537 0.130891
O O6 0.750000 0.250000 0.000000
O O7 0.536398 0.144910 0.046692
O O8 0.268065 0.179016 0.910246
O O9 0.500000 0.119556 0.500000
O O10 0.798782 0.110327 0.351831
O O11 0.937477 0.391843 0.680528
O O12 0.901479 0.327625 0.780988
O O13 0.771543 0.500000 0.682393
O O14 0.528835 0.410938 0.787651
O O15 0.203053 0.563604 0.934787
O O16 0.031292 0.125270 0.892547
O O17 0.548643 0.500000 0.859805
#
# Coordination Sequence:
#
# PCOD8090530 Si02
#       8
#     8   8   8   8   8   4   8   8
#     4   9  18  32  51  83 116 133 175 219 269 319
#     4  12  21  34  52  78 109 135 171 221 277 325
#     4  10  19  33  57  83 113 147 176 215 267 326
#     4   9  18  32  54  79 105 140 176 221 268 322
#     4   9  20  38  56  75 107 145 183 224 268 312
#     4  12  23  36  58  78 109 140 182 222 276 328
#     4  11  20  34  56  77 105 140 178 220 274 326
#     4  10  22  40  57  76 104 143 185 228 269 317
#
# _framework density 18.813338999999999
#
# number of rings (size 3 to 8) (size 9 to 14) (size 15 to 20)
#    0.000    1.867    2.667    1.400    0.000    5.600 
#    0.000    2.667    0.000    4.000    0.000    0.000 
#    0.000    0.000    0.000    0.000    0.000    0.000 
#
# Total GULP energy -371814.431381 kJ/mol
# GULP energy per Si atom -12393.814379 kJ/mol
# Density = 1.877052 g / cm^3
# Si number density = 18.813339 Si / 1000 Ang^3
#
#
#
# Elastic Constant Matrix: (Units=GPa)
#
#
# Indices 1 2 3 4 5 6 
#
# 1 98.3291 28.9418 36.4058 0.0009 -6.1925 -0.0013
# 2 28.9418 82.0131 26.7637 0.0002 -7.1682 -0.0004
# 3 36.4058 26.7637 89.4802 0.0015 -8.8938 -0.0010
# 4 0.0009 0.0002 0.0015 20.1574 -0.0012 -0.5150
# 5 -6.1925 -7.1682 -8.8938 -0.0012 23.5036 0.0008
# 6 -0.0013 -0.0004 -0.0010 -0.5150 0.0008 11.0904
#
#
#
# Elastic Compliance Matrix: (Units=1/GPa)
#
#
# Indices 1 2 3 4 5 6 
#
# 1 0.012656 -0.003036 -0.004158 0.000000 0.000835 0.000001
# 2 -0.003036 0.014407 -0.002823 0.000000 0.002526 0.000000
# 3 -0.004158 -0.002823 0.014045 -0.000001 0.003358 0.000000
# 4 0.000000 0.000000 -0.000001 0.049669 0.000002 0.002306
# 5 0.000835 0.002526 0.003358 0.000002 0.044808 -0.000003
# 6 0.000001 0.000000 0.000000 0.002306 -0.000003 0.090275
#
#
# Mechanical properties :
#
#
# Convention : Reuss Voigt Hill
#
# Bulk Modulus (GPa) = 47.45195 50.44947 48.95071
# Shear Modulus (GPa) = 19.76932 22.79768 21.28350
#
# Velocity S-wave (km/s) = 3.24514 3.48484 3.36713
# Velocity P-wave (km/s) = 6.27045 6.56248 6.41813
#
# Compressibility (1/GPa) = 0.02107395
#
# Stress axis : x y z
#
# Youngs Moduli (GPa) = 79.01624 69.41303 71.19765
#
# Poissons Ratio (x) = 0.21075 0.29603
# Poissons Ratio (y) = 0.23991 0.20097
# Poissons Ratio (z) = 0.32854 0.19593
#
# Static dielectric constant tensor:
#      x y z
#    x 3.423390 0.000000 -0.019630 
#    y 0.000000 2.745630 -0.000010 
#    z -0.019630 -0.000010 3.522980 
# 
# 
# High freq. dielectric constant tensor:
#      x y z
#    x 1.724590 0.000000 0.001860 
#    y 0.000000 1.711970 0.000000 
#    z 0.001860 0.000000 1.737490 
# 
# From -- ./inp_files/356918.got.cif
#   From: 2010.06.25/outbox.cif.g09.slc.cpg/sg12_179_cif.got.tgz:356918.got - 2010.06.28 00:19:55.
