data_PCOD8090847
_publ_section_title
;
Structure prediction by ZEFSAII (Michael W. Deem and Ramdas Pophale) SiO2 
 PCOD8090847
Probable space group: C 2/M
;
_chemical_formula_sum "Si O2"
_cell_formula_units_Z 56
_cell_length_a 20.528891
_cell_length_b 9.178590
_cell_length_c 22.939541
_cell_angle_alpha 90.000000
_cell_angle_beta 133.690036
_cell_angle_gamma 90.000000
_cell_volume 3125.481314
_symmetry_space_group_name_H-M "C 2/M"
_symmetry_group_IT_number 12
_symmetry_cell_setting 'monoclinic'
loop_
_space_group_symop_operation_xyz
x,y,z
-x,y,-z
-x,-y,-z
x,-y,z
1/2+x,1/2+y,z
1/2-x,1/2+y,-z
1/2-x,1/2-y,-z
1/2+x,1/2-y,z
loop_
_atom_site_type_symbol
_atom_site_label
_atom_site_fract_x
_atom_site_fract_y
_atom_site_fract_z
Si Si1 0.753771 0.831763 0.337076
Si Si2 0.683801 0.171638 0.736088
Si Si3 0.861611 0.172280 0.905443
Si Si4 0.518933 0.672239 0.918477
Si Si5 0.324966 0.330121 0.508737
Si Si6 0.489358 0.828876 0.662653
Si Si7 0.950029 0.328793 0.769965
O O1 0.806715 0.742485 0.321169
O O2 0.805730 0.805741 0.429148
O O3 0.651471 0.775152 0.280254
O O4 0.754145 0.000000 0.319338
O O5 0.761997 0.229941 0.828201
O O6 0.589419 0.215802 0.705790
O O7 0.692414 0.000000 0.732901
O O8 0.930829 0.227526 0.898989
O O9 0.865610 0.000000 0.907411
O O10 0.893448 0.222820 0.989698
O O11 0.518003 0.500000 0.907645
O O12 0.519826 0.750929 0.856690
O O13 0.323513 0.500000 0.524331
O O14 0.250000 0.250000 0.500000
O O15 0.422137 0.261916 0.580867
O O16 0.476344 0.781889 0.721275
O O17 0.470022 0.000000 0.642157
O O18 0.959756 0.500000 0.784187
#
# Coordination Sequence:
#
# PCOD8090847 Si02
#       7
#     8   8   8   8   8   8   8
#     4  10  21  36  55  78 108 140 172 221 273 319
#     4  10  20  36  58  80 106 144 184 220 263 321
#     4   8  15  29  50  78 107 135 172 223 270 305
#     4   9  16  29  52  79 105 133 179 228 260 308
#     4  11  22  38  59  82 109 142 180 223 269 317
#     4  10  22  39  56  78 111 145 179 220 269 323
#     4  10  19  34  52  76 109 141 174 215 269 323
#
# _framework density 17.917242000000002
#
# number of rings (size 3 to 8) (size 9 to 14) (size 15 to 20)
#    0.000    2.286    2.857    1.286    0.000    2.857 
#    0.000    5.714    0.000    0.000    0.000    0.000 
#    0.000    0.000    0.000    0.000    0.000    0.000 
#
# Total GULP energy -347187.958293 kJ/mol
# GULP energy per Si atom -12399.569939 kJ/mol
# Density = 1.787646 g / cm^3
# Si number density = 17.917242 Si / 1000 Ang^3
#
#
#
# Elastic Constant Matrix: (Units=GPa)
#
#
# Indices 1 2 3 4 5 6 
#
# 1 107.3730 36.8246 64.9928 0.0000 2.5800 0.0000
# 2 36.8246 43.9511 50.2361 0.0000 0.2370 0.0000
# 3 64.9928 50.2361 150.0551 0.0000 4.5977 0.0000
# 4 0.0000 0.0000 0.0000 32.9846 0.0000 -4.2833
# 5 2.5800 0.2370 4.5977 0.0000 28.8821 0.0000
# 6 0.0000 0.0000 0.0000 -4.2833 0.0000 23.9568
#
#
#
# Elastic Compliance Matrix: (Units=1/GPa)
#
#
# Indices 1 2 3 4 5 6 
#
# 1 0.014125 -0.007874 -0.003462 0.000000 -0.000646 0.000000
# 2 -0.007874 0.041325 -0.010487 0.000000 0.002034 0.000000
# 3 -0.003462 -0.010487 0.011720 0.000000 -0.001470 0.000000
# 4 0.000000 0.000000 0.000000 0.031038 0.000000 0.005549
# 5 -0.000646 0.002034 -0.001470 0.000000 0.034899 0.000000
# 6 0.000000 0.000000 0.000000 0.005549 0.000000 0.042734
#
#
# Mechanical properties :
#
#
# Convention : Reuss Voigt Hill
#
# Bulk Modulus (GPa) = 42.50983 67.27625 54.89304
# Shear Modulus (GPa) = 21.99471 27.11977 24.55724
#
# Velocity S-wave (km/s) = 3.50747 3.89474 3.70617
# Velocity P-wave (km/s) = 6.33880 7.60626 7.00127
#
# Compressibility (1/GPa) = 0.02352397
#
# Stress axis : x y z
#
# Youngs Moduli (GPa) = 70.79726 24.19817 85.32727
#
# Poissons Ratio (x) = 0.19054 0.29540
# Poissons Ratio (y) = 0.55746 0.89482
# Poissons Ratio (z) = 0.24510 0.25376
#
# Static dielectric constant tensor:
#      x y z
#    x 3.209750 0.000000 0.111080 
#    y 0.000000 3.132660 0.000000 
#    z 0.111080 0.000000 3.661960 
# 
# 
# High freq. dielectric constant tensor:
#      x y z
#    x 1.676900 0.000000 -0.001430 
#    y 0.000000 1.675180 0.000000 
#    z -0.001430 0.000000 1.711160 
# 
# From -- ./inp_files/319662.got.cif
#   From: 2010.06.25/outbox.cif.g09.slc.cpg/sg12_160_cif.got.tgz:319662.got - 2010.06.28 00:19:55.
