data_PCOD8090630
_publ_section_title
;
Structure prediction by ZEFSAII (Michael W. Deem and Ramdas Pophale) SiO2 
 PCOD8090630
Probable space group: C 2/M
;
_chemical_formula_sum "Si O2"
_cell_formula_units_Z 64
_cell_length_a 15.179267
_cell_length_b 14.119003
_cell_length_c 17.257168
_cell_angle_alpha 90.000000
_cell_angle_beta 58.729282
_cell_angle_gamma 90.000000
_cell_volume 3161.188346
_symmetry_space_group_name_H-M "C 2/M"
_symmetry_group_IT_number 12
_symmetry_cell_setting 'monoclinic'
loop_
_space_group_symop_operation_xyz
x,y,z
-x,y,-z
-x,-y,-z
x,-y,z
1/2+x,1/2+y,z
1/2-x,1/2+y,-z
1/2-x,1/2-y,-z
1/2+x,1/2-y,z
loop_
_atom_site_type_symbol
_atom_site_label
_atom_site_fract_x
_atom_site_fract_y
_atom_site_fract_z
Si Si1 0.345721 0.604800 0.190811
Si Si2 0.792920 0.390329 0.474127
Si Si3 0.018556 0.761576 0.082067
Si Si4 0.152927 0.610489 0.376981
Si Si5 0.057333 0.108058 0.555644
Si Si6 0.504378 0.794259 0.652277
Si Si7 0.575966 0.109354 0.161388
Si Si8 0.190050 0.103029 0.973463
O O1 0.370332 0.500000 0.213548
O O2 0.436430 0.677315 0.168430
O O3 0.239523 0.641739 0.275706
O O4 0.340016 0.600032 0.101923
O O5 0.817365 0.500000 0.450918
O O6 0.804070 0.360427 0.558811
O O7 0.679185 0.366074 0.493076
O O8 0.879166 0.331968 0.388013
O O9 0.009780 0.657341 0.123439
O O10 0.128199 0.814214 0.045752
O O11 0.000000 0.750604 0.000000
O O12 0.128081 0.500000 0.382803
O O13 0.046718 0.663367 0.402997
O O14 0.000000 0.119969 0.500000
O O15 0.006801 0.179928 0.641206
O O16 0.045205 0.000000 0.591815
O O17 0.435821 0.828499 0.755668
O O18 0.689447 0.119822 0.075563
O O19 0.544174 0.000000 0.190567
O O20 0.161309 0.000000 0.022818
#
# Coordination Sequence:
#
# PCOD8090630 Si02
#       8
#     8   8   8   8   8   8   8   8
#     4   9  17  32  56  87 118 145 183 242 299 344
#     4  10  21  36  60  90 118 155 200 242 288 343
#     4  10  21  36  57  84 112 154 198 237 290 367
#     4  10  19  33  57  90 124 151 190 250 301 339
#     4  10  23  43  60  82 119 164 205 242 283 341
#     4  12  22  37  61  87 118 156 200 245 298 357
#     4  11  23  38  58  85 119 153 191 246 302 353
#     4   9  17  35  59  84 112 146 188 241 299 350
#
# _framework density 20.245552
#
# number of rings (size 3 to 8) (size 9 to 14) (size 15 to 20)
#    0.000    1.875    1.250    3.375    1.750    2.750 
#    0.000    0.625    0.000    0.750    0.000    0.000 
#    0.000    0.000    0.000    0.000    0.000    0.000 
#
# Total GULP energy -396642.836954 kJ/mol
# GULP energy per Si atom -12395.088655 kJ/mol
# Density = 2.019947 g / cm^3
# Si number density = 20.245552 Si / 1000 Ang^3
#
#
#
# Elastic Constant Matrix: (Units=GPa)
#
#
# Indices 1 2 3 4 5 6 
#
# 1 101.9517 30.2968 15.3993 0.0000 -5.8296 0.0000
# 2 30.2968 100.1819 23.3013 0.0000 -0.0727 0.0000
# 3 15.3993 23.3013 35.7220 0.0000 -2.5470 0.0000
# 4 0.0000 0.0000 0.0000 30.3614 0.0000 -0.4935
# 5 -5.8296 -0.0727 -2.5470 0.0000 21.0879 0.0000
# 6 0.0000 0.0000 0.0000 -0.4935 0.0000 14.6082
#
#
#
# Elastic Compliance Matrix: (Units=1/GPa)
#
#
# Indices 1 2 3 4 5 6 
#
# 1 0.011206 -0.002722 -0.002860 0.000000 0.002743 0.000000
# 2 -0.002722 0.012445 -0.007056 0.000000 -0.001562 0.000000
# 3 -0.002860 -0.007056 0.034064 0.000000 0.003299 0.000000
# 4 0.000000 0.000000 0.000000 0.032955 0.000000 0.001113
# 5 0.002743 -0.001562 0.003299 0.000000 0.048572 0.000000
# 6 0.000000 0.000000 0.000000 0.001113 0.000000 0.068492
#
#
# Mechanical properties :
#
#
# Convention : Reuss Voigt Hill
#
# Bulk Modulus (GPa) = 30.82544 41.76115 36.29330
# Shear Modulus (GPa) = 20.50671 24.46874 22.48772
#
# Velocity S-wave (km/s) = 3.18606 3.48026 3.33641
# Velocity P-wave (km/s) = 5.36596 6.06809 5.72779
#
# Compressibility (1/GPa) = 0.03244074
#
# Stress axis : x y z
#
# Youngs Moduli (GPa) = 89.23617 80.35399 29.35611
#
# Poissons Ratio (x) = 0.21871 0.08395
# Poissons Ratio (y) = 0.24288 0.20713
# Poissons Ratio (z) = 0.25520 0.56696
#
# Static dielectric constant tensor:
#      x y z
#    x 3.776180 0.000000 -0.259490 
#    y 0.000000 3.911750 0.000000 
#    z -0.259490 0.000000 3.539440 
# 
# 
# High freq. dielectric constant tensor:
#      x y z
#    x 1.785550 0.000000 -0.014980 
#    y 0.000000 1.794820 0.000000 
#    z -0.014980 0.000000 1.772990 
# 
# From -- ./inp_files/270254.got.cif
#   From: 2010.06.25/outbox.cif.g09.slc.cpg/sg12_136_cif.got.tgz:270254.got - 2010.06.28 00:19:55.
