data_PCOD8090752
_publ_section_title
;
Structure prediction by ZEFSAII (Michael W. Deem and Ramdas Pophale) SiO2 
 PCOD8090752
Probable space group: C 2/M
;
_chemical_formula_sum "Si O2"
_cell_formula_units_Z 56
_cell_length_a 23.443422
_cell_length_b 20.373545
_cell_length_c 12.231095
_cell_angle_alpha 90.000000
_cell_angle_beta 28.013991
_cell_angle_gamma 90.000000
_cell_volume 2743.857992
_symmetry_space_group_name_H-M "C 2/M"
_symmetry_group_IT_number 12
_symmetry_cell_setting 'monoclinic'
loop_
_space_group_symop_operation_xyz
x,y,z
-x,y,-z
-x,-y,-z
x,-y,z
1/2+x,1/2+y,z
1/2-x,1/2+y,-z
1/2-x,1/2-y,-z
1/2+x,1/2-y,z
loop_
_atom_site_type_symbol
_atom_site_label
_atom_site_fract_x
_atom_site_fract_y
_atom_site_fract_z
Si Si1 0.503580 0.803133 0.368871
Si Si2 0.351682 0.074182 0.944419
Si Si3 0.608045 0.072556 0.884885
Si Si4 0.753262 0.306217 0.666391
Si Si5 0.470148 0.320983 0.815284
Si Si6 0.778149 0.826918 0.522707
Si Si7 0.082567 0.072707 0.464731
O O1 0.500000 0.778528 0.500000
O O2 0.583518 0.870013 0.237580
O O3 0.371183 0.815177 0.542033
O O4 0.563387 0.744527 0.196804
O O5 0.354197 0.000000 0.886835
O O6 0.428025 0.071491 0.927418
O O7 0.214436 0.097543 0.201451
O O8 0.738781 0.107477 0.652045
O O9 0.625305 0.000000 0.807380
O O10 0.500000 0.108538 0.000000
O O11 0.715305 0.231566 0.699121
O O12 0.770130 0.338809 0.518706
O O13 0.646822 0.340641 0.916248
O O14 0.579015 0.310439 0.717659
O O15 0.515309 0.379042 0.661402
O O16 0.000000 0.067608 0.500000
O O17 0.097090 0.000000 0.493712
#
# Coordination Sequence:
#
# PCOD8090752 Si02
#       7
#     8   8   8   8   8   8   8
#     4  11  25  39  59  90 121 156 198 249 303 353
#     4  10  21  40  63  86 119 159 201 243 294 360
#     4  10  19  33  60  89 114 150 195 246 292 343
#     4  10  23  38  58  87 116 161 195 239 304 352
#     4  11  22  38  62  88 120 154 200 251 299 349
#     4  10  20  38  58  84 118 154 197 242 289 365
#     4  10  22  40  63  89 116 160 208 245 292 356
#
# _framework density 20.409219
#
# number of rings (size 3 to 8) (size 9 to 14) (size 15 to 20)
#    0.000    1.714    1.429    2.571    4.000    3.143 
#    0.000    1.429    0.000    1.714    0.000    0.000 
#    0.000    0.000    0.000    0.000    0.000    0.000 
#
# Total GULP energy -346982.644226 kJ/mol
# GULP energy per Si atom -12392.237294 kJ/mol
# Density = 2.036277 g / cm^3
# Si number density = 20.409219 Si / 1000 Ang^3
#
#
#
# Elastic Constant Matrix: (Units=GPa)
#
#
# Indices 1 2 3 4 5 6 
#
# 1 95.3443 5.1355 21.9953 -0.0002 2.1933 0.0003
# 2 5.1355 86.8686 39.2145 0.0000 5.1580 0.0003
# 3 21.9953 39.2145 96.1996 0.0000 -1.8881 0.0002
# 4 -0.0002 0.0000 0.0000 19.5409 0.0000 0.5026
# 5 2.1933 5.1580 -1.8881 0.0000 20.7396 -0.0004
# 6 0.0003 0.0003 0.0002 0.5026 -0.0004 23.1425
#
#
#
# Elastic Compliance Matrix: (Units=1/GPa)
#
#
# Indices 1 2 3 4 5 6 
#
# 1 0.011151 0.000739 -0.002883 0.000000 -0.001625 0.000000
# 2 0.000739 0.014503 -0.006164 0.000000 -0.004246 0.000000
# 3 -0.002883 -0.006164 0.013627 0.000000 0.003078 0.000000
# 4 0.000000 0.000000 0.000000 0.051203 0.000000 -0.001112
# 5 -0.001625 -0.004246 0.003078 0.000000 0.049725 0.000001
# 6 0.000000 0.000000 0.000000 -0.001112 0.000001 0.043235
#
#
# Mechanical properties :
#
#
# Convention : Reuss Voigt Hill
#
# Bulk Modulus (GPa) = 44.12136 45.67814 44.89975
# Shear Modulus (GPa) = 24.08307 26.82243 25.45275
#
# Velocity S-wave (km/s) = 3.43885 3.62917 3.53529
# Velocity P-wave (km/s) = 6.11824 6.32383 6.22189
#
# Compressibility (1/GPa) = 0.02266476
#
# Stress axis : x y z
#
# Youngs Moduli (GPa) = 89.67893 68.95275 73.38257
#
# Poissons Ratio (x) = -0.05092 0.21153
# Poissons Ratio (y) = -0.06623 0.45233
# Poissons Ratio (z) = 0.25850 0.42503
#
# Static dielectric constant tensor:
#      x y z
#    x 3.852950 0.000000 -0.156170 
#    y 0.000000 3.781560 0.000000 
#    z -0.156170 0.000000 3.438610 
# 
# 
# High freq. dielectric constant tensor:
#      x y z
#    x 1.812160 0.000000 -0.010780 
#    y 0.000000 1.790560 0.000000 
#    z -0.010780 0.000000 1.778370 
# 
# From -- ./inp_files/177875.got.cif
#   From: 2010.06.25/outbox.cif.g09.slc.cpg/sg12_89_cif.got.tgz:177875.got - 2010.06.28 00:19:55.
