data_PCOD8090125
_publ_section_title
;
Structure prediction by ZEFSAII (Michael W. Deem and Ramdas Pophale) SiO2 
 PCOD8090125
Probable space group: C 2/M
;
_chemical_formula_sum "Si O2"
_cell_formula_units_Z 64
_cell_length_a 14.598896
_cell_length_b 9.135227
_cell_length_c 31.320977
_cell_angle_alpha 90.000000
_cell_angle_beta 130.495870
_cell_angle_gamma 90.000000
_cell_volume 3176.485734
_symmetry_space_group_name_H-M "C 2/M"
_symmetry_group_IT_number 12
_symmetry_cell_setting 'monoclinic'
loop_
_space_group_symop_operation_xyz
x,y,z
-x,y,-z
-x,-y,-z
x,-y,z
1/2+x,1/2+y,z
1/2-x,1/2+y,-z
1/2-x,1/2-y,-z
1/2+x,1/2-y,z
loop_
_atom_site_type_symbol
_atom_site_label
_atom_site_fract_x
_atom_site_fract_y
_atom_site_fract_z
Si Si1 0.192388 0.666437 0.300525
Si Si2 0.075963 0.328798 0.769314
Si Si3 0.652058 0.173108 0.500143
Si Si4 0.530370 0.336412 0.109178
Si Si5 0.826709 0.832590 0.118784
Si Si6 0.120453 0.672491 0.586474
Si Si7 0.270365 0.168932 0.785030
Si Si8 0.828041 0.828927 0.988082
O O1 0.230962 0.500000 0.320621
O O2 0.295384 0.765988 0.351223
O O3 0.175640 0.696820 0.245254
O O4 0.063996 0.702644 0.282757
O O5 0.098849 0.500000 0.783160
O O6 0.122118 0.241983 0.823957
O O7 0.148874 0.265216 0.751079
O O8 0.750000 0.250000 0.500000
O O9 0.667911 0.223663 0.554252
O O10 0.516988 0.221961 0.445848
O O11 0.668855 0.000000 0.500496
O O12 0.586010 0.500000 0.127891
O O13 0.427151 0.320139 0.113068
O O14 0.635599 0.220573 0.150135
O O15 0.469191 0.309620 0.044003
O O16 0.705180 0.746885 0.067120
O O17 0.792876 0.000000 0.118429
O O18 0.126052 0.500000 0.589813
O O19 0.240376 0.000000 0.784121
O O20 0.793910 0.000000 0.976095
O O21 0.750000 0.750000 0.000000
#
# Coordination Sequence:
#
# PCOD8090125 Si02
#       8
#     8   8   8   8   8   8   8   8
#     4  10  23  41  60  85 118 154 196 242 288 339
#     4  11  23  40  59  82 113 151 192 240 294 349
#     4   9  19  37  60  90 124 159 197 236 283 333
#     4   9  18  33  54  80 109 144 185 230 286 351
#     4  10  19  33  55  82 110 144 187 234 291 354
#     4   9  20  38  60  86 120 159 197 236 282 338
#     4  11  23  39  58  83 113 148 192 242 291 345
#     4   9  17  29  49  79 110 142 184 232 287 352
#
# _framework density 20.148053000000001
#
# number of rings (size 3 to 8) (size 9 to 14) (size 15 to 20)
#    0.000    2.250    1.250    3.000    0.000    6.500 
#    0.000    6.875    0.000    3.750    0.000    0.000 
#    0.000    0.000    0.000    0.000    0.000    0.000 
#
# Total GULP energy -396720.450592 kJ/mol
# GULP energy per Si atom -12397.514081 kJ/mol
# Density = 2.010220 g / cm^3
# Si number density = 20.148053 Si / 1000 Ang^3
#
#
#
# Elastic Constant Matrix: (Units=GPa)
#
#
# Indices 1 2 3 4 5 6 
#
# 1 84.8674 42.2621 26.5306 0.0000 19.1669 0.0000
# 2 42.2621 105.2779 46.8228 0.0000 13.5965 0.0000
# 3 26.5306 46.8228 100.0476 0.0000 18.0213 0.0000
# 4 0.0000 0.0000 0.0000 37.6661 0.0000 1.2693
# 5 19.1669 13.5965 18.0213 0.0000 20.1296 0.0000
# 6 0.0000 0.0000 0.0000 1.2693 0.0000 31.6998
#
#
#
# Elastic Compliance Matrix: (Units=1/GPa)
#
#
# Indices 1 2 3 4 5 6 
#
# 1 0.017345 -0.005397 0.000291 0.000000 -0.013131 0.000000
# 2 -0.005397 0.013906 -0.005140 0.000000 0.000347 0.000000
# 3 0.000291 -0.005140 0.014007 0.000000 -0.009346 0.000000
# 4 0.000000 0.000000 0.000000 0.026585 0.000000 -0.001065
# 5 -0.013131 0.000347 -0.009346 0.000000 0.070314 0.000000
# 6 0.000000 0.000000 0.000000 -0.001065 0.000000 0.031589
#
#
# Mechanical properties :
#
#
# Convention : Reuss Voigt Hill
#
# Bulk Modulus (GPa) = 40.37416 57.93599 49.15507
# Shear Modulus (GPa) = 24.69249 29.53760 27.11504
#
# Velocity S-wave (km/s) = 3.50459 3.83303 3.67248
# Velocity P-wave (km/s) = 6.03808 6.95752 6.51404
#
# Compressibility (1/GPa) = 0.02476832
#
# Stress axis : x y z
#
# Youngs Moduli (GPa) = 57.65350 71.91100 71.39432
#
# Poissons Ratio (x) = 0.38807 -0.02080
# Poissons Ratio (y) = 0.31113 0.36693
# Poissons Ratio (z) = -0.01680 0.36959
#
# Static dielectric constant tensor:
#      x y z
#    x 2.927360 0.000000 1.064490 
#    y 0.000000 3.840590 0.000000 
#    z 1.064490 0.000000 2.452020 
# 
# 
# High freq. dielectric constant tensor:
#      x y z
#    x 1.783370 0.000000 0.004510 
#    y 0.000000 1.788140 0.000000 
#    z 0.004510 0.000000 1.782210 
# 
# From -- ./inp_files/375677.got.cif
#   From: 2010.06.25/outbox.cif.g09.slc.cpg/sg12_188_cif.got.tgz:375677.got - 2010.06.28 00:19:55.
