data_PCOD8090792
_publ_section_title
;
Structure prediction by ZEFSAII (Michael W. Deem and Ramdas Pophale) SiO2 
 PCOD8090792
Probable space group: C 2/M
;
_chemical_formula_sum "Si O2"
_cell_formula_units_Z 64
_cell_length_a 13.804343
_cell_length_b 27.573903
_cell_length_c 9.077504
_cell_angle_alpha 90.000000
_cell_angle_beta 84.725327
_cell_angle_gamma 90.000000
_cell_volume 3440.626104
_symmetry_space_group_name_H-M "C 2/M"
_symmetry_group_IT_number 12
_symmetry_cell_setting 'monoclinic'
loop_
_space_group_symop_operation_xyz
x,y,z
-x,y,-z
-x,-y,-z
x,-y,z
1/2+x,1/2+y,z
1/2-x,1/2+y,-z
1/2-x,1/2-y,-z
1/2+x,1/2-y,z
loop_
_atom_site_type_symbol
_atom_site_label
_atom_site_fract_x
_atom_site_fract_y
_atom_site_fract_z
Si Si1 0.060855 0.444267 0.638982
Si Si2 0.542271 0.130265 0.155329
Si Si3 0.558874 0.693151 0.848394
Si Si4 0.162382 0.255079 0.398637
Si Si5 0.072539 0.152263 0.360005
Si Si6 0.419534 0.793903 0.328057
Si Si7 0.763558 0.339546 0.762415
Si Si8 0.271054 0.871508 0.420327
O O1 0.077512 0.500000 0.677228
O O2 0.165626 0.419936 0.601936
O O3 0.000000 0.437117 0.500000
O O4 0.001187 0.420245 0.780895
O O5 0.511758 0.175038 0.264303
O O6 0.660562 0.128796 0.149231
O O7 0.500000 0.140199 0.000000
O O8 0.490216 0.652829 0.779579
O O9 0.584020 0.741944 0.753849
O O10 0.659708 0.663624 0.860132
O O11 0.500000 0.709474 0.000000
O O12 0.250000 0.250000 0.500000
O O13 0.117500 0.205224 0.359414
O O14 0.076625 0.283975 0.496890
O O15 0.195908 0.284403 0.249999
O O16 0.166507 0.116970 0.357517
O O17 0.000000 0.138975 0.500000
O O18 0.322280 0.827508 0.320918
O O19 0.754032 0.359075 0.595641
#
# Coordination Sequence:
#
# PCOD8090792 Si02
#       8
#     8   8   8   8   8   8   8   8
#     4  10  21  39  65  92 110 131 171 225 284 341
#     4  11  24  37  56  82 116 150 176 219 280 348
#     4  12  24  34  48  76 117 155 192 236 264 300
#     4  11  17  31  54  75 103 145 202 240 266 307
#     4  12  19  32  53  78 102 148 200 225 260 318
#     4  10  19  34  50  77 107 147 192 230 271 306
#     4  11  20  36  52  78 109 150 191 231 272 315
#     4  10  19  34  61  83 106 138 186 233 274 324
#
# _framework density 18.601265000000001
#
# number of rings (size 3 to 8) (size 9 to 14) (size 15 to 20)
#    0.000    1.125    7.500    1.125    0.000    2.250 
#    0.000    2.500    0.000    0.375    0.000    0.000 
#    0.000    2.500    0.000    0.000    0.000    0.000 
#
# Total GULP energy -396426.685440 kJ/mol
# GULP energy per Si atom -12388.333920 kJ/mol
# Density = 1.855893 g / cm^3
# Si number density = 18.601265 Si / 1000 Ang^3
#
#
#
# Elastic Constant Matrix: (Units=GPa)
#
#
# Indices 1 2 3 4 5 6 
#
# 1 157.0811 40.3123 27.3364 0.0000 -6.0425 0.0000
# 2 40.3123 74.1818 10.5428 0.0000 -5.3667 0.0000
# 3 27.3364 10.5428 57.7080 0.0000 -6.9250 0.0000
# 4 0.0000 0.0000 0.0000 11.4143 0.0000 2.1822
# 5 -6.0425 -5.3667 -6.9250 0.0000 26.7507 0.0000
# 6 0.0000 0.0000 0.0000 2.1822 0.0000 9.4644
#
#
#
# Elastic Compliance Matrix: (Units=1/GPa)
#
#
# Indices 1 2 3 4 5 6 
#
# 1 0.007884 -0.003840 -0.003005 0.000000 0.000232 0.000000
# 2 -0.003840 0.015836 -0.000822 0.000000 0.002097 0.000000
# 3 -0.003005 -0.000822 0.019404 0.000000 0.004179 0.000000
# 4 0.000000 0.000000 0.000000 0.091649 0.000000 -0.021132
# 5 0.000232 0.002097 0.004179 0.000000 0.038937 0.000000
# 6 0.000000 0.000000 0.000000 -0.021132 0.000000 0.110532
#
#
# Mechanical properties :
#
#
# Convention : Reuss Voigt Hill
#
# Bulk Modulus (GPa) = 35.98665 49.48377 42.73521
# Shear Modulus (GPa) = 16.18964 23.57784 19.88374
#
# Velocity S-wave (km/s) = 2.95337 3.56411 3.27302
# Velocity P-wave (km/s) = 5.56940 6.60283 6.10801
#
# Compressibility (1/GPa) = 0.02778808
#
# Stress axis : x y z
#
# Youngs Moduli (GPa) = 126.84613 63.14787 51.53614
#
# Poissons Ratio (x) = 0.24250 0.15487
# Poissons Ratio (y) = 0.48712 0.04238
# Poissons Ratio (z) = 0.38117 0.05193
#
# Static dielectric constant tensor:
#      x y z
#    x 3.446200 0.000000 -0.285200 
#    y 0.000000 3.104000 0.000000 
#    z -0.285200 0.000000 3.338740 
# 
# 
# High freq. dielectric constant tensor:
#      x y z
#    x 1.752700 0.000000 -0.007720 
#    y 0.000000 1.664680 0.000000 
#    z -0.007720 0.000000 1.699730 
# 
# From -- ./inp_files/67834.got.cif
#   From: 2010.06.25/outbox.cif.g09.slc.cpg/sg12_34_cif.got.tgz:67834.got - 2010.06.28 00:19:55.
