data_PCOD8090229
_publ_section_title
;
Structure prediction by ZEFSAII (Michael W. Deem and Ramdas Pophale) SiO2 
 PCOD8090229
Probable space group: C 2/M
;
_chemical_formula_sum "Si O2"
_cell_formula_units_Z 48
_cell_length_a 25.108061
_cell_length_b 7.560686
_cell_length_c 21.597785
_cell_angle_alpha 90.000000
_cell_angle_beta 38.528937
_cell_angle_gamma 90.000000
_cell_volume 2553.928657
_symmetry_space_group_name_H-M "C 2/M"
_symmetry_group_IT_number 12
_symmetry_cell_setting 'monoclinic'
loop_
_space_group_symop_operation_xyz
x,y,z
-x,y,-z
-x,-y,-z
x,-y,z
1/2+x,1/2+y,z
1/2-x,1/2+y,-z
1/2-x,1/2-y,-z
1/2+x,1/2-y,z
loop_
_atom_site_type_symbol
_atom_site_label
_atom_site_fract_x
_atom_site_fract_y
_atom_site_fract_z
Si Si1 0.452344 0.289037 0.104706
Si Si2 0.233505 0.701574 0.757118
Si Si3 0.923229 0.790491 0.760376
Si Si4 0.515323 0.000000 0.384345
Si Si5 0.731548 0.205775 0.899520
Si Si6 0.436786 0.698767 0.885175
Si Si7 0.859792 0.500000 0.614324
O O1 0.451008 0.500000 0.105936
O O2 0.356942 0.213865 0.195204
O O3 0.503231 0.208810 0.117732
O O4 0.500000 0.218325 0.000000
O O5 0.267627 0.500000 0.724745
O O6 0.222465 0.771482 0.837198
O O7 0.302347 0.824401 0.660538
O O8 0.978642 0.678617 0.661572
O O9 0.824127 0.744373 0.840739
O O10 0.947129 0.719337 0.807284
O O11 0.940215 0.000000 0.734957
O O12 0.422582 0.000000 0.499129
O O13 0.589636 0.000000 0.367439
O O14 0.712146 0.000000 0.921673
O O15 0.661985 0.303500 0.004530
O O16 0.468695 0.500000 0.850105
#
# Coordination Sequence:
#
# PCOD8090229 Si02
#       7
#     8   8   8   4   8   8   4
#     4  10  19  33  55  84 120 160 196 235 278 334
#     4  11  22  37  59  86 122 153 188 240 290 343
#     4  10  22  39  55  85 120 153 195 239 283 348
#     4  11  24  40  68  86 109 152 188 247 304 338
#     4  10  20  32  51  82 121 158 190 227 276 347
#     4  10  21  33  54  84 120 164 195 229 279 336
#     4  11  24  42  63  92 110 142 199 243 300 354
#
# _framework density 18.794574000000001
#
# number of rings (size 3 to 8) (size 9 to 14) (size 15 to 20)
#    0.000    1.667    4.167    0.500    3.500    1.667 
#    0.000    1.667    0.000    1.000    0.000    0.000 
#    0.000    0.000    0.000    0.000    0.000    0.000 
#
# Total GULP energy -297611.284678 kJ/mol
# GULP energy per Si atom -12400.470195 kJ/mol
# Density = 1.875180 g / cm^3
# Si number density = 18.794574 Si / 1000 Ang^3
#
#
#
# Elastic Constant Matrix: (Units=GPa)
#
#
# Indices 1 2 3 4 5 6 
#
# 1 137.4177 31.4357 67.9022 -0.0005 11.8663 0.0154
# 2 31.4357 73.3920 49.7763 -0.0001 2.2378 0.0233
# 3 67.9022 49.7763 132.8974 -0.0033 2.7865 -0.0031
# 4 -0.0005 -0.0001 -0.0033 21.0135 0.0002 3.0808
# 5 11.8663 2.2378 2.7865 0.0002 25.9160 -0.0042
# 6 0.0154 0.0233 -0.0031 3.0808 -0.0042 10.7750
#
#
#
# Elastic Compliance Matrix: (Units=1/GPa)
#
#
# Indices 1 2 3 4 5 6 
#
# 1 0.010209 -0.001031 -0.004745 0.000002 -0.004075 -0.000016
# 2 -0.001031 0.018388 -0.006351 0.000005 -0.000433 -0.000042
# 3 -0.004745 -0.006351 0.012299 -0.000002 0.001399 0.000025
# 4 0.000002 0.000005 -0.000002 0.049671 -0.000004 -0.014202
# 5 -0.004075 -0.000433 0.001399 -0.000004 0.040339 0.000024
# 6 -0.000016 -0.000042 0.000025 -0.014202 0.000024 0.096868
#
#
# Mechanical properties :
#
#
# Convention : Reuss Voigt Hill
#
# Bulk Modulus (GPa) = 60.08937 71.32615 65.70776
# Shear Modulus (GPa) = 19.41185 24.51377 21.96281
#
# Velocity S-wave (km/s) = 3.21727 3.61543 3.42215
# Velocity P-wave (km/s) = 6.77069 7.44723 7.11700
#
# Compressibility (1/GPa) = 0.01664188
#
# Stress axis : x y z
#
# Youngs Moduli (GPa) = 97.94940 54.38379 81.31041
#
# Poissons Ratio (x) = 0.05605 0.38581
# Poissons Ratio (y) = 0.10094 0.51644
# Poissons Ratio (z) = 0.46476 0.34542
#
# Static dielectric constant tensor:
#      x y z
#    x 3.721580 -0.000060 0.078080 
#    y -0.000060 3.354350 0.000030 
#    z 0.078080 0.000030 3.168230 
# 
# 
# High freq. dielectric constant tensor:
#      x y z
#    x 1.736280 -0.000010 0.001390 
#    y -0.000010 1.732420 0.000000 
#    z 0.001390 0.000000 1.696000 
# 
# From -- ./inp_files/323529.got.cif
#   From: 2010.06.25/outbox.cif.g09.slc.cpg/sg12_162_cif.got.tgz:323529.got - 2010.06.28 00:19:55.
