data_PCOD8090660
_publ_section_title
;
Structure prediction by ZEFSAII (Michael W. Deem and Ramdas Pophale) SiO2 
 PCOD8090660
Probable space group: C 2/M
;
_chemical_formula_sum "Si O2"
_cell_formula_units_Z 56
_cell_length_a 15.036438
_cell_length_b 9.022591
_cell_length_c 21.167860
_cell_angle_alpha 90.000000
_cell_angle_beta 91.725924
_cell_angle_gamma 90.000000
_cell_volume 2870.490570
_symmetry_space_group_name_H-M "C 2/M"
_symmetry_group_IT_number 12
_symmetry_cell_setting 'monoclinic'
loop_
_space_group_symop_operation_xyz
x,y,z
-x,y,-z
-x,-y,-z
x,-y,z
1/2+x,1/2+y,z
1/2-x,1/2+y,-z
1/2-x,1/2-y,-z
1/2+x,1/2-y,z
loop_
_atom_site_type_symbol
_atom_site_label
_atom_site_fract_x
_atom_site_fract_y
_atom_site_fract_z
Si Si1 0.856823 0.829478 0.558104
Si Si2 0.485780 0.824262 0.787025
Si Si3 0.346274 0.171987 0.429002
Si Si4 0.484698 0.325757 0.345301
Si Si5 0.600969 0.325869 0.003875
Si Si6 0.642391 0.170300 0.880827
Si Si7 0.337618 0.670692 0.857897
O O1 0.758648 0.799997 0.583591
O O2 0.876371 0.726878 0.498534
O O3 0.927465 0.786688 0.612901
O O4 0.867133 0.000000 0.536720
O O5 0.506898 0.752874 0.720980
O O6 0.560545 0.767702 0.837933
O O7 0.389794 0.770651 0.808923
O O8 0.486829 0.000000 0.779909
O O9 0.396834 0.264777 0.377122
O O10 0.371031 0.000000 0.423075
O O11 0.474289 0.500000 0.335061
O O12 0.607989 0.500000 0.995346
O O13 0.653710 0.254158 0.947111
O O14 0.500000 0.269348 0.000000
O O15 0.642983 0.273990 0.070698
O O16 0.732791 0.190757 0.842439
O O17 0.626505 0.000000 0.897360
O O18 0.367565 0.500000 0.850098
#
# Coordination Sequence:
#
# PCOD8090660 Si02
#       7
#     8   8   8   8   8   8   8
#     4   9  20  38  59  85 117 151 185 223 275 334
#     4  11  24  40  56  80 111 146 190 236 276 324
#     4  10  20  36  60  89 118 146 182 231 277 322
#     4  11  23  39  59  81 112 154 191 226 276 333
#     4  10  19  33  58  87 113 141 179 230 279 330
#     4  10  22  38  58  82 111 147 184 227 281 337
#     4  10  21  39  59  81 111 147 184 225 281 339
#
# _framework density 19.508861
#
# number of rings (size 3 to 8) (size 9 to 14) (size 15 to 20)
#    0.000    1.857    1.429    2.143    0.000    6.571 
#    0.000    5.714    0.000    0.000    0.000    0.000 
#    0.000    0.000    0.000    0.000    0.000    0.000 
#
# Total GULP energy -347332.756206 kJ/mol
# GULP energy per Si atom -12404.741293 kJ/mol
# Density = 1.946446 g / cm^3
# Si number density = 19.508861 Si / 1000 Ang^3
#
#
#
# Elastic Constant Matrix: (Units=GPa)
#
#
# Indices 1 2 3 4 5 6 
#
# 1 82.2294 32.7232 37.2389 0.0000 -17.8116 0.0000
# 2 32.7232 70.7036 45.6881 0.0000 -12.6863 0.0000
# 3 37.2389 45.6881 105.7012 0.0000 -22.2704 0.0000
# 4 0.0000 0.0000 0.0000 38.4344 0.0000 -6.7994
# 5 -17.8116 -12.6863 -22.2704 0.0000 23.8022 0.0000
# 6 0.0000 0.0000 0.0000 -6.7994 0.0000 32.1760
#
#
#
# Elastic Compliance Matrix: (Units=1/GPa)
#
#
# Indices 1 2 3 4 5 6 
#
# 1 0.016825 -0.005011 -0.002082 0.000000 0.007971 0.000000
# 2 -0.005011 0.021308 -0.007276 0.000000 0.000799 0.000000
# 3 -0.002082 -0.007276 0.015188 0.000000 0.008774 0.000000
# 4 0.000000 0.000000 0.000000 0.027029 0.000000 0.005712
# 5 0.007971 0.000799 0.008774 0.000000 0.056614 0.000000
# 6 0.000000 0.000000 0.000000 0.005712 0.000000 0.032286
#
#
# Mechanical properties :
#
#
# Convention : Reuss Voigt Hill
#
# Bulk Modulus (GPa) = 40.68051 54.43716 47.55884
# Shear Modulus (GPa) = 24.25038 28.41478 26.33258
#
# Velocity S-wave (km/s) = 3.52951 3.82056 3.67791
# Velocity P-wave (km/s) = 6.12434 6.88670 6.51668
#
# Compressibility (1/GPa) = 0.02458180
#
# Stress axis : x y z
#
# Youngs Moduli (GPa) = 59.43597 46.93038 65.84194
#
# Poissons Ratio (x) = 0.23518 0.13707
# Poissons Ratio (y) = 0.29785 0.47909
# Poissons Ratio (z) = 0.12374 0.34148
#
# Static dielectric constant tensor:
#      x y z
#    x 3.744870 0.000000 0.017120 
#    y 0.000000 3.520020 0.000000 
#    z 0.017120 0.000000 3.465220 
# 
# 
# High freq. dielectric constant tensor:
#      x y z
#    x 1.772470 0.000000 -0.003310 
#    y 0.000000 1.758980 0.000000 
#    z -0.003310 0.000000 1.753410 
# 
# From -- ./inp_files/308910.got.cif
#   From: 2010.06.25/outbox.cif.g09.slc.cpg/sg12_155_cif.got.tgz:308910.got - 2010.06.28 00:19:55.
