data_PCOD8090800
_publ_section_title
;
Structure prediction by ZEFSAII (Michael W. Deem and Ramdas Pophale) SiO2 
 PCOD8090800
Probable space group: C 2/M
;
_chemical_formula_sum "Si O2"
_cell_formula_units_Z 56
_cell_length_a 20.563540
_cell_length_b 17.838362
_cell_length_c 17.814538
_cell_angle_alpha 90.000000
_cell_angle_beta 151.327508
_cell_angle_gamma 90.000000
_cell_volume 3135.376944
_symmetry_space_group_name_H-M "C 2/M"
_symmetry_group_IT_number 12
_symmetry_cell_setting 'monoclinic'
loop_
_space_group_symop_operation_xyz
x,y,z
-x,y,-z
-x,-y,-z
x,-y,z
1/2+x,1/2+y,z
1/2-x,1/2+y,-z
1/2-x,1/2-y,-z
1/2+x,1/2-y,z
loop_
_atom_site_type_symbol
_atom_site_label
_atom_site_fract_x
_atom_site_fract_y
_atom_site_fract_z
Si Si1 0.159307 0.084193 0.355231
Si Si2 0.945421 0.289420 0.865011
Si Si3 0.621416 0.842156 0.831083
Si Si4 0.077226 0.198471 0.870658
Si Si5 0.350687 0.640870 0.815235
Si Si6 0.617789 0.084110 0.678442
Si Si7 0.590078 0.086114 0.286020
O O1 0.178985 0.086887 0.285294
O O2 0.299279 0.105039 0.538318
O O3 0.044647 0.141248 0.266445
O O4 0.115740 0.000000 0.333059
O O5 0.831133 0.226874 0.767482
O O6 0.882238 0.360028 0.757219
O O7 0.059875 0.245421 0.930984
O O8 0.000000 0.319698 0.000000
O O9 0.576549 0.756695 0.800760
O O10 0.561812 0.868477 0.691483
O O11 0.559254 0.896388 0.832158
O O12 0.784272 0.848865 0.991638
O O13 0.249965 0.623758 0.780189
O O14 0.500000 0.628291 0.000000
O O15 0.500000 0.082500 0.500000
O O16 0.655674 0.000000 0.742650
O O17 0.596765 0.000000 0.266196
#
# Coordination Sequence:
#
# PCOD8090800 Si02
#       7
#     8   8   8   8   8   8   8
#     4  10  20  34  50  73 104 132 165 206 244 290
#     4   9  18  34  54  74  98 125 164 212 250 289
#     4  10  19  34  51  70 102 132 164 202 240 292
#     4   9  20  34  52  75  97 129 167 202 244 295
#     4  10  20  33  51  74  98 131 168 198 237 292
#     4  11  22  32  46  73 105 132 158 193 240 292
#     4  10  21  34  51  75 100 130 167 207 250 292
#
# _framework density 17.860692
#
# number of rings (size 3 to 8) (size 9 to 14) (size 15 to 20)
#    0.000    2.143    0.000    4.286    0.000   12.286 
#    0.000    0.000    0.000    0.000    0.000    0.000 
#    0.000   34.286    0.000    0.000    0.000    0.000 
#
# Total GULP energy -347116.941936 kJ/mol
# GULP energy per Si atom -12397.033641 kJ/mol
# Density = 1.782004 g / cm^3
# Si number density = 17.860692 Si / 1000 Ang^3
#
#
#
# Elastic Constant Matrix: (Units=GPa)
#
#
# Indices 1 2 3 4 5 6 
#
# 1 86.8321 47.4729 35.1354 -0.0024 -9.3639 -0.0014
# 2 47.4729 106.0809 50.6134 -0.0018 -10.6719 -0.0015
# 3 35.1354 50.6134 74.0905 -0.0023 -8.5877 -0.0019
# 4 -0.0024 -0.0018 -0.0023 27.4050 -0.0017 -1.1285
# 5 -9.3639 -10.6719 -8.5877 -0.0017 29.7618 -0.0012
# 6 -0.0014 -0.0015 -0.0019 -1.1285 -0.0012 23.8187
#
#
#
# Elastic Compliance Matrix: (Units=1/GPa)
#
#
# Indices 1 2 3 4 5 6 
#
# 1 0.016134 -0.005154 -0.003886 0.000001 0.002107 0.000001
# 2 -0.005154 0.015790 -0.008147 0.000000 0.001690 0.000000
# 3 -0.003886 -0.008147 0.021132 0.000001 0.001954 0.000001
# 4 0.000001 0.000000 0.000001 0.036561 0.000003 0.001732
# 5 0.002107 0.001690 0.001954 0.000003 0.035433 0.000002
# 6 0.000001 0.000000 0.000001 0.001732 0.000002 0.042066
#
#
# Mechanical properties :
#
#
# Convention : Reuss Voigt Hill
#
# Bulk Modulus (GPa) = 53.52727 59.27187 56.39957
# Shear Modulus (GPa) = 24.07129 25.11589 24.59359
#
# Velocity S-wave (km/s) = 3.67512 3.75402 3.71478
# Velocity P-wave (km/s) = 6.93131 7.21442 7.07428
#
# Compressibility (1/GPa) = 0.01868207
#
# Stress axis : x y z
#
# Youngs Moduli (GPa) = 61.98101 63.32998 47.32271
#
# Poissons Ratio (x) = 0.32642 0.18389
# Poissons Ratio (y) = 0.31946 0.38553
# Poissons Ratio (z) = 0.24085 0.51593
#
# Static dielectric constant tensor:
#      x y z
#    x 2.693130 0.000000 -0.479180 
#    y 0.000000 3.467620 0.000000 
#    z -0.479180 0.000000 2.910100 
# 
# 
# High freq. dielectric constant tensor:
#      x y z
#    x 1.690890 0.000000 -0.001790 
#    y 0.000000 1.693380 0.000000 
#    z -0.001790 0.000000 1.677980 
# 
# From -- ./inp_files/284960.got.cif
#   From: 2010.06.25/outbox.cif.g09.slc.cpg/sg12_143_cif.got.tgz:284960.got - 2010.06.28 00:19:55.
