data_PCOD8090893
_publ_section_title
;
Structure prediction by ZEFSAII (Michael W. Deem and Ramdas Pophale) SiO2 
 PCOD8090893
Probable space group: C 2/M
;
_chemical_formula_sum "Si O2"
_cell_formula_units_Z 56
_cell_length_a 14.880031
_cell_length_b 9.077656
_cell_length_c 21.859716
_cell_angle_alpha 90.000000
_cell_angle_beta 99.565425
_cell_angle_gamma 90.000000
_cell_volume 2911.665542
_symmetry_space_group_name_H-M "C 2/M"
_symmetry_group_IT_number 12
_symmetry_cell_setting 'monoclinic'
loop_
_space_group_symop_operation_xyz
x,y,z
-x,y,-z
-x,-y,-z
x,-y,z
1/2+x,1/2+y,z
1/2-x,1/2+y,-z
1/2-x,1/2-y,-z
1/2+x,1/2-y,z
loop_
_atom_site_type_symbol
_atom_site_label
_atom_site_fract_x
_atom_site_fract_y
_atom_site_fract_z
Si Si1 0.283266 0.836164 0.062203
Si Si2 0.347458 0.327203 0.499575
Si Si3 0.437731 0.174592 0.273157
Si Si4 0.741532 0.830822 0.809001
Si Si5 0.976788 0.826782 0.404260
Si Si6 0.941821 0.830883 0.811176
Si Si7 0.506362 0.834608 0.931883
O O1 0.251235 0.758301 0.122187
O O2 0.391106 0.839497 0.078778
O O3 0.242405 0.000000 0.051245
O O4 0.250000 0.750000 0.000000
O O5 0.328314 0.500000 0.499597
O O6 0.250000 0.250000 0.500000
O O7 0.393484 0.282513 0.439996
O O8 0.423345 0.282811 0.558590
O O9 0.338411 0.236489 0.242061
O O10 0.464226 0.241441 0.340510
O O11 0.508121 0.224732 0.229751
O O12 0.440864 0.000000 0.279455
O O13 0.835203 0.816370 0.782716
O O14 0.715100 0.000000 0.818878
O O15 0.974136 0.000000 0.391849
O O16 0.952791 0.776797 0.882045
O O17 0.974995 0.000000 0.808912
O O18 0.463826 0.000000 0.924233
O O19 0.500000 0.772265 0.000000
#
# Coordination Sequence:
#
# PCOD8090893 Si02
#       7
#     8   8   8   8   8   8   8
#     4  10  19  34  53  75 106 140 178 229 284 345
#     4   9  19  37  62  89 125 161 195 239 284 333
#     4  11  22  40  61  82 115 156 195 238 289 347
#     4   9  20  38  56  75 108 148 183 229 290 344
#     4   9  20  39  59  86 122 160 195 237 288 335
#     4  11  22  37  58  82 109 145 190 239 289 348
#     4  10  20  35  55  79 110 144 181 234 294 348
#
# _framework density 19.232977999999999
#
# number of rings (size 3 to 8) (size 9 to 14) (size 15 to 20)
#    0.000    2.143    1.429    2.571    0.000    3.143 
#    0.000    9.286    0.000    0.000    0.000    0.000 
#    0.000    0.000    0.000    0.000    0.000    0.000 
#
# Total GULP energy -347098.291120 kJ/mol
# GULP energy per Si atom -12396.367540 kJ/mol
# Density = 1.918920 g / cm^3
# Si number density = 19.232978 Si / 1000 Ang^3
#
#
#
# Elastic Constant Matrix: (Units=GPa)
#
#
# Indices 1 2 3 4 5 6 
#
# 1 121.8802 34.7243 50.2375 0.0000 3.7953 0.0000
# 2 34.7243 54.1302 43.3277 0.0000 8.9382 0.0000
# 3 50.2375 43.3277 136.6620 0.0000 13.0734 0.0000
# 4 0.0000 0.0000 0.0000 35.4951 0.0000 -3.5025
# 5 3.7953 8.9382 13.0734 0.0000 24.5235 0.0000
# 6 0.0000 0.0000 0.0000 -3.5025 0.0000 25.9089
#
#
#
# Elastic Compliance Matrix: (Units=1/GPa)
#
#
# Indices 1 2 3 4 5 6 
#
# 1 0.010615 -0.005120 -0.002424 0.000000 0.001515 0.000000
# 2 -0.005120 0.027846 -0.006376 0.000000 -0.005957 0.000000
# 3 -0.002424 -0.006376 0.010508 0.000000 -0.002902 0.000000
# 4 0.000000 0.000000 0.000000 0.028554 0.000000 0.003860
# 5 0.001515 -0.005957 -0.002902 0.000000 0.044261 0.000000
# 6 0.000000 0.000000 0.000000 0.003860 0.000000 0.039119
#
#
# Mechanical properties :
#
#
# Convention : Reuss Voigt Hill
#
# Bulk Modulus (GPa) = 47.32912 63.25014 55.28963
# Shear Modulus (GPa) = 25.53814 29.47770 27.50792
#
# Velocity S-wave (km/s) = 3.64789 3.91917 3.78596
# Velocity P-wave (km/s) = 6.51188 7.31010 6.92251
#
# Compressibility (1/GPa) = 0.02112864
#
# Stress axis : x y z
#
# Youngs Moduli (GPa) = 94.20305 35.91206 95.16854
#
# Poissons Ratio (x) = 0.18386 0.23070
# Poissons Ratio (y) = 0.48228 0.60683
# Poissons Ratio (z) = 0.22836 0.22899
#
# Static dielectric constant tensor:
#      x y z
#    x 3.625330 0.000000 0.025540 
#    y 0.000000 3.388310 0.000000 
#    z 0.025540 0.000000 3.458510 
# 
# 
# High freq. dielectric constant tensor:
#      x y z
#    x 1.756570 0.000000 -0.002470 
#    y 0.000000 1.730870 0.000000 
#    z -0.002470 0.000000 1.751040 
# 
# From -- ./inp_files/309033.got.cif
#   From: 2010.06.25/outbox.cif.g09.slc.cpg/sg12_155_cif.got.tgz:309033.got - 2010.06.28 00:19:55.
