data_PCOD8090326
_publ_section_title
;
Structure prediction by ZEFSAII (Michael W. Deem and Ramdas Pophale) SiO2 
 PCOD8090326
Probable space group: C 2/M
;
_chemical_formula_sum "Si O2"
_cell_formula_units_Z 56
_cell_length_a 28.079195
_cell_length_b 13.532423
_cell_length_c 12.720157
_cell_angle_alpha 90.000000
_cell_angle_beta 141.115839
_cell_angle_gamma 90.000000
_cell_volume 3034.156332
_symmetry_space_group_name_H-M "C 2/M"
_symmetry_group_IT_number 12
_symmetry_cell_setting 'monoclinic'
loop_
_space_group_symop_operation_xyz
x,y,z
-x,y,-z
-x,-y,-z
x,-y,z
1/2+x,1/2+y,z
1/2-x,1/2+y,-z
1/2-x,1/2-y,-z
1/2+x,1/2-y,z
loop_
_atom_site_type_symbol
_atom_site_label
_atom_site_fract_x
_atom_site_fract_y
_atom_site_fract_z
Si Si1 0.786954 0.717332 0.669290
Si Si2 0.926036 0.383713 0.813855
Si Si3 0.919547 0.765393 0.393718
Si Si4 0.788190 0.112493 0.814908
Si Si5 0.816908 0.259055 0.035963
Si Si6 0.107790 0.613305 0.480113
Si Si7 0.714598 0.383566 0.729758
O O1 0.750000 0.750000 0.500000
O O2 0.854948 0.642442 0.764398
O O3 0.820956 0.817076 0.780185
O O4 0.721150 0.663726 0.625032
O O5 0.932090 0.500000 0.817945
O O6 0.915217 0.344768 0.675181
O O7 0.000000 0.339133 0.000000
O O8 0.891259 0.720923 0.232923
O O9 0.933522 0.677920 0.501645
O O10 0.860652 0.845103 0.339801
O O11 0.000000 0.814921 0.500000
O O12 0.697421 0.122058 0.654387
O O13 0.815585 0.000000 0.846626
O O14 0.821172 0.154772 0.980818
O O15 0.750000 0.250000 0.000000
O O16 0.794393 0.350382 0.921301
O O17 0.081372 0.500000 0.446936
O O18 0.709615 0.500000 0.715594
#
# Coordination Sequence:
#
# PCOD8090326 Si02
#       7
#     8   8   8   8   8   8   8
#     4  11  19  35  58  83 112 145 189 231 276 326
#     4  10  21  36  58  87 119 151 180 223 288 343
#     4  11  22  38  56  81 116 150 188 231 286 337
#     4  10  19  33  56  81 109 143 189 233 271 327
#     4   9  18  35  53  78 100 142 188 231 274 317
#     4  10  19  35  55  82 114 145 187 231 275 332
#     4  10  21  36  55  83 112 144 189 233 273 328
#
# _framework density 18.456530999999998
#
# number of rings (size 3 to 8) (size 9 to 14) (size 15 to 20)
#    0.000    1.857    5.714    0.429    0.000    6.286 
#    0.000    1.429    0.000    0.429    0.000    0.000 
#    0.000    0.000    0.000    0.000    0.000    0.000 
#
# Total GULP energy -346954.357000 kJ/mol
# GULP energy per Si atom -12391.227036 kJ/mol
# Density = 1.841452 g / cm^3
# Si number density = 18.456531 Si / 1000 Ang^3
#
#
#
# Elastic Constant Matrix: (Units=GPa)
#
#
# Indices 1 2 3 4 5 6 
#
# 1 88.4486 38.3578 62.9438 0.0000 -10.3554 0.0000
# 2 38.3578 105.8416 28.5456 0.0000 -15.8035 0.0000
# 3 62.9438 28.5456 99.7050 0.0000 -15.5409 0.0000
# 4 0.0000 0.0000 0.0000 17.0117 0.0000 -2.3950
# 5 -10.3554 -15.8035 -15.5409 0.0000 35.2137 0.0000
# 6 0.0000 0.0000 0.0000 -2.3950 0.0000 27.4377
#
#
#
# Elastic Compliance Matrix: (Units=1/GPa)
#
#
# Indices 1 2 3 4 5 6 
#
# 1 0.022537 -0.004844 -0.013044 0.000000 -0.001303 0.000000
# 2 -0.004844 0.011709 0.000325 0.000000 0.003974 0.000000
# 3 -0.013044 0.000325 0.018896 0.000000 0.004649 0.000000
# 4 0.000000 0.000000 0.000000 0.059514 0.000000 0.005195
# 5 -0.001303 0.003974 0.004649 0.000000 0.031850 0.000000
# 6 0.000000 0.000000 0.000000 0.005195 0.000000 0.036900
#
#
# Mechanical properties :
#
#
# Convention : Reuss Voigt Hill
#
# Bulk Modulus (GPa) = 55.50523 61.52109 58.51316
# Shear Modulus (GPa) = 22.46826 26.87584 24.67205
#
# Velocity S-wave (km/s) = 3.49286 3.82012 3.66015
# Velocity P-wave (km/s) = 6.81216 7.27070 7.04516
#
# Compressibility (1/GPa) = 0.01801632
#
# Stress axis : x y z
#
# Youngs Moduli (GPa) = 44.37233 85.40221 52.92242
#
# Poissons Ratio (x) = 0.41370 0.69030
# Poissons Ratio (y) = 0.21495 -0.01721
# Poissons Ratio (z) = 0.57877 -0.02777
#
# Static dielectric constant tensor:
#      x y z
#    x 2.533390 0.000000 0.415550 
#    y 0.000000 3.412490 0.000000 
#    z 0.415550 0.000000 2.310330 
# 
# 
# High freq. dielectric constant tensor:
#      x y z
#    x 1.709040 0.000000 -0.025850 
#    y 0.000000 1.702150 0.000000 
#    z -0.025850 0.000000 1.714640 
# 
# From -- ./inp_files/183555.got.cif
#   From: 2010.06.25/outbox.cif.g09.slc.cpg/sg12_92_cif.got.tgz:183555.got - 2010.06.28 00:19:55.
