data_PCOD8090619
_publ_section_title
;
Structure prediction by ZEFSAII (Michael W. Deem and Ramdas Pophale) SiO2 
 PCOD8090619
Probable space group: C 2/M
;
_chemical_formula_sum "Si O2"
_cell_formula_units_Z 64
_cell_length_a 25.389945
_cell_length_b 18.004448
_cell_length_c 14.413291
_cell_angle_alpha 90.000000
_cell_angle_beta 31.464014
_cell_angle_gamma 90.000000
_cell_volume 3439.096760
_symmetry_space_group_name_H-M "C 2/M"
_symmetry_group_IT_number 12
_symmetry_cell_setting 'monoclinic'
loop_
_space_group_symop_operation_xyz
x,y,z
-x,y,-z
-x,-y,-z
x,-y,z
1/2+x,1/2+y,z
1/2-x,1/2+y,-z
1/2-x,1/2-y,-z
1/2+x,1/2-y,z
loop_
_atom_site_type_symbol
_atom_site_label
_atom_site_fract_x
_atom_site_fract_y
_atom_site_fract_z
Si Si1 0.100452 0.418088 0.586206
Si Si2 0.946619 0.912240 0.676345
Si Si3 0.782196 0.414797 0.996990
Si Si4 0.598948 0.081608 0.997636
Si Si5 0.033005 0.663194 0.349679
Si Si6 0.991505 0.207706 0.280158
Si Si7 0.583527 0.760021 0.949975
Si Si8 0.217760 0.723805 0.447570
O O1 0.148701 0.500000 0.501706
O O2 0.183912 0.362050 0.500219
O O3 0.011327 0.420032 0.793722
O O4 0.052951 0.392384 0.559855
O O5 0.995263 0.873793 0.694639
O O6 0.000000 0.888385 0.500000
O O7 0.957327 0.000000 0.675866
O O8 0.831089 0.885157 0.842898
O O9 0.787651 0.500000 0.960461
O O10 0.817343 0.402960 0.049943
O O11 0.856277 0.373287 0.814449
O O12 0.619635 0.000000 0.919410
O O13 0.600109 0.150561 0.925788
O O14 0.043394 0.735668 0.272082
O O15 0.000000 0.688729 0.500000
O O16 0.872601 0.223192 0.450076
O O17 0.048447 0.220537 0.097317
O O18 0.690530 0.726004 0.761878
O O19 0.500000 0.740061 0.000000
O O20 0.250000 0.750000 0.500000
#
# Coordination Sequence:
#
# PCOD8090619 Si02
#       8
#     8   8   8   8   8   8   8   8
#     4   9  18  36  59  86 121 151 190 246 295 351
#     4  10  23  40  58  81 117 162 201 240 282 341
#     4   9  18  34  54  81 118 153 189 232 286 345
#     4   9  17  35  60  89 119 150 193 249 302 349
#     4  10  19  33  57  89 117 148 186 239 296 352
#     4  11  23  40  56  87 118 148 200 245 296 358
#     4  12  22  39  63  86 117 157 193 248 310 356
#     4  11  22  40  63  86 116 154 198 247 304 358
#
# _framework density 18.609537
#
# number of rings (size 3 to 8) (size 9 to 14) (size 15 to 20)
#    0.000    1.875    5.000    1.500    1.750    3.750 
#    0.000    3.125    0.000    0.750    0.000    0.000 
#    0.000    0.000    0.000    0.000    0.000    0.000 
#
# Total GULP energy -396709.598528 kJ/mol
# GULP energy per Si atom -12397.174954 kJ/mol
# Density = 1.856718 g / cm^3
# Si number density = 18.609537 Si / 1000 Ang^3
#
#
#
# Elastic Constant Matrix: (Units=GPa)
#
#
# Indices 1 2 3 4 5 6 
#
# 1 93.0458 56.3602 64.9286 0.0000 4.0437 0.0000
# 2 56.3602 102.4678 37.7204 0.0000 -3.4638 0.0000
# 3 64.9286 37.7204 118.6516 0.0000 -6.8454 0.0000
# 4 0.0000 0.0000 0.0000 9.2834 0.0000 -4.6118
# 5 4.0437 -3.4638 -6.8454 0.0000 31.3599 0.0000
# 6 0.0000 0.0000 0.0000 -4.6118 0.0000 24.7523
#
#
#
# Elastic Compliance Matrix: (Units=1/GPa)
#
#
# Indices 1 2 3 4 5 6 
#
# 1 0.024278 -0.009677 -0.010585 0.000000 -0.006510 0.000000
# 2 -0.009677 0.014917 0.000730 0.000000 0.003055 0.000000
# 3 -0.010585 0.000730 0.014251 0.000000 0.004556 0.000000
# 4 0.000000 0.000000 0.000000 0.118706 0.000000 0.022117
# 5 -0.006510 0.003055 0.004556 0.000000 0.034059 0.000000
# 6 0.000000 0.000000 0.000000 0.022117 0.000000 0.044521
#
#
# Mechanical properties :
#
#
# Convention : Reuss Voigt Hill
#
# Bulk Modulus (GPa) = 69.53406 70.24263 69.88835
# Shear Modulus (GPa) = 16.97269 23.42284 20.19776
#
# Velocity S-wave (km/s) = 3.02328 3.55159 3.29803
# Velocity P-wave (km/s) = 7.04506 7.39228 7.22076
#
# Compressibility (1/GPa) = 0.01438144
#
# Stress axis : x y z
#
# Youngs Moduli (GPa) = 41.18914 67.03933 70.17038
#
# Poissons Ratio (x) = 0.64876 0.74273
# Poissons Ratio (y) = 0.39860 -0.05121
# Poissons Ratio (z) = 0.43597 -0.04892
#
# Static dielectric constant tensor:
#      x y z
#    x 3.399030 0.000000 -0.114590 
#    y 0.000000 3.876470 0.000000 
#    z -0.114590 0.000000 3.474020 
# 
# 
# High freq. dielectric constant tensor:
#      x y z
#    x 1.711590 0.000000 -0.006470 
#    y 0.000000 1.721320 0.000000 
#    z -0.006470 0.000000 1.718140 
# 
# From -- ./inp_files/241483.got.cif
#   From: 2010.06.25/outbox.cif.g09.slc.cpg/sg12_121_cif.got.tgz:241483.got - 2010.06.28 00:19:55.
