data_PCOD8090666
_publ_section_title
;
Structure prediction by ZEFSAII (Michael W. Deem and Ramdas Pophale) SiO2 
 PCOD8090666
Probable space group: C 2/M
;
_chemical_formula_sum "Si O2"
_cell_formula_units_Z 60
_cell_length_a 20.129668
_cell_length_b 24.133261
_cell_length_c 10.991532
_cell_angle_alpha 90.000000
_cell_angle_beta 146.169899
_cell_angle_gamma 90.000000
_cell_volume 2972.741306
_symmetry_space_group_name_H-M "C 2/M"
_symmetry_group_IT_number 12
_symmetry_cell_setting 'monoclinic'
loop_
_space_group_symop_operation_xyz
x,y,z
-x,y,-z
-x,-y,-z
x,-y,z
1/2+x,1/2+y,z
1/2-x,1/2+y,-z
1/2-x,1/2-y,-z
1/2+x,1/2-y,z
loop_
_atom_site_type_symbol
_atom_site_label
_atom_site_fract_x
_atom_site_fract_y
_atom_site_fract_z
Si Si1 0.740711 0.938786 0.751609
Si Si2 0.500000 0.648170 0.500000
Si Si3 0.015076 0.061929 0.735012
Si Si4 0.528563 0.807734 0.909637
Si Si5 0.409942 0.167572 0.472931
Si Si6 0.619532 0.591284 0.248870
Si Si7 0.863492 0.211150 0.652186
Si Si8 0.197269 0.784070 0.699813
O O1 0.645910 0.892023 0.642376
O O2 0.768683 0.936746 0.649168
O O3 0.689347 0.000000 0.705192
O O4 0.862660 0.926661 0.007778
O O5 0.505048 0.608455 0.621009
O O6 0.381897 0.687437 0.314936
O O7 0.897177 0.068697 0.640276
O O8 0.014346 0.000000 0.678014
O O9 0.465840 0.835147 0.695320
O O10 0.483587 0.745103 0.859691
O O11 0.500000 0.837321 0.000000
O O12 0.667507 0.804852 0.088934
O O13 0.500000 0.180177 0.500000
O O14 0.312256 0.217013 0.316195
O O15 0.640864 0.657351 0.270280
O O16 0.500000 0.573259 0.000000
O O17 0.750000 0.250000 0.500000
O O18 0.863520 0.191259 0.513426
#
# Coordination Sequence:
#
# PCOD8090666 Si02
#       8
#     8   4   8   8   8   8   8   8
#     4  10  23  41  64  88 118 162 214 266 308 362
#     4  12  23  40  62  92 133 170 196 254 312 392
#     4  10  22  39  62  91 123 162 210 256 314 370
#     4  11  24  39  64  93 131 168 206 263 316 377
#     4  11  26  42  62  93 126 170 213 255 312 384
#     4  10  19  33  58  87 117 149 200 261 307 350
#     4  11  20  35  57  92 125 162 203 247 314 380
#     4  11  24  39  59  95 132 161 204 250 319 382
#
# _framework density 20.183391
#
# number of rings (size 3 to 8) (size 9 to 14) (size 15 to 20)
#    0.000    1.333    3.333    2.600    5.600    2.400 
#    0.000    0.000    0.000    0.400    0.000    0.000 
#    0.000    0.000    0.000    0.000    0.000    0.000 
#
# Total GULP energy -371727.273691 kJ/mol
# GULP energy per Si atom -12390.909123 kJ/mol
# Density = 2.013745 g / cm^3
# Si number density = 20.183391 Si / 1000 Ang^3
#
#
#
# Elastic Constant Matrix: (Units=GPa)
#
#
# Indices 1 2 3 4 5 6 
#
# 1 79.6453 25.0925 24.0711 0.0000 5.6901 0.0000
# 2 25.0925 108.8140 28.0373 0.0000 6.0530 0.0000
# 3 24.0711 28.0373 53.5336 0.0000 11.2007 0.0000
# 4 0.0000 0.0000 0.0000 25.6982 0.0000 9.4042
# 5 5.6901 6.0530 11.2007 0.0000 37.7728 0.0000
# 6 0.0000 0.0000 0.0000 9.4042 0.0000 15.5985
#
#
#
# Elastic Compliance Matrix: (Units=1/GPa)
#
#
# Indices 1 2 3 4 5 6 
#
# 1 0.014891 -0.001975 -0.005606 0.000000 -0.000264 0.000000
# 2 -0.001975 0.010886 -0.004809 0.000000 -0.000021 0.000000
# 3 -0.005606 -0.004809 0.024928 0.000000 -0.005777 0.000000
# 4 0.000000 0.000000 0.000000 0.049929 0.000000 -0.030102
# 5 -0.000264 -0.000021 -0.005777 0.000000 0.028230 0.000000
# 6 0.000000 0.000000 0.000000 -0.030102 0.000000 0.082257
#
#
# Mechanical properties :
#
#
# Convention : Reuss Voigt Hill
#
# Bulk Modulus (GPa) = 38.57269 44.04385 41.30827
# Shear Modulus (GPa) = 20.44642 26.80001 23.62321
#
# Velocity S-wave (km/s) = 3.18627 3.64789 3.42486
# Velocity P-wave (km/s) = 5.71743 6.29380 6.01253
#
# Compressibility (1/GPa) = 0.02592508
#
# Stress axis : x y z
#
# Youngs Moduli (GPa) = 67.15453 91.86460 40.11583
#
# Poissons Ratio (x) = 0.18140 0.22490
# Poissons Ratio (y) = 0.13261 0.19291
# Poissons Ratio (z) = 0.37648 0.44176
#
# Static dielectric constant tensor:
#      x y z
#    x 4.220600 0.000000 -0.221730 
#    y 0.000000 3.481630 0.000000 
#    z -0.221730 0.000000 3.521280 
# 
# 
# High freq. dielectric constant tensor:
#      x y z
#    x 1.802370 0.000000 -0.002810 
#    y 0.000000 1.780050 0.000000 
#    z -0.002810 0.000000 1.763420 
# 
# From -- ./inp_files/170406.got.cif
#   From: 2010.06.25/outbox.cif.g09.slc.cpg/sg12_86_cif.got.tgz:170406.got - 2010.06.28 00:19:55.
