data_PCOD8090371
_publ_section_title
;
Structure prediction by ZEFSAII (Michael W. Deem and Ramdas Pophale) SiO2 
 PCOD8090371
Probable space group: C 2/M
;
_chemical_formula_sum "Si O2"
_cell_formula_units_Z 56
_cell_length_a 18.626732
_cell_length_b 9.094079
_cell_length_c 18.530069
_cell_angle_alpha 90.000000
_cell_angle_beta 111.522707
_cell_angle_gamma 90.000000
_cell_volume 2919.997566
_symmetry_space_group_name_H-M "C 2/M"
_symmetry_group_IT_number 12
_symmetry_cell_setting 'monoclinic'
loop_
_space_group_symop_operation_xyz
x,y,z
-x,y,-z
-x,-y,-z
x,-y,z
1/2+x,1/2+y,z
1/2-x,1/2+y,-z
1/2-x,1/2-y,-z
1/2+x,1/2-y,z
loop_
_atom_site_type_symbol
_atom_site_label
_atom_site_fract_x
_atom_site_fract_y
_atom_site_fract_z
Si Si1 0.635328 0.826636 0.152010
Si Si2 0.307513 0.327248 0.467927
Si Si3 0.922469 0.673682 0.277743
Si Si4 0.218519 0.827005 0.704621
Si Si5 0.956726 0.337288 0.558352
Si Si6 0.030206 0.325622 0.862042
Si Si7 0.823594 0.674652 0.991412
O O1 0.695638 0.784643 0.237211
O O2 0.551478 0.758319 0.140663
O O3 0.667006 0.767915 0.087112
O O4 0.625939 0.000000 0.141748
O O5 0.296125 0.500000 0.468474
O O6 0.250000 0.250000 0.500000
O O7 0.291957 0.270243 0.380994
O O8 0.391857 0.284590 0.525867
O O9 0.908877 0.500000 0.273636
O O10 0.841526 0.749159 0.264841
O O11 0.952235 0.731789 0.211816
O O12 0.985646 0.721908 0.359552
O O13 0.203783 0.000000 0.704287
O O14 0.923738 0.500000 0.567507
O O15 0.000000 0.353215 0.500000
O O16 0.024018 0.500000 0.859093
O O17 0.099030 0.273738 0.939212
O O18 0.812222 0.500000 0.991881
O O19 0.750000 0.750000 0.000000
#
# Coordination Sequence:
#
# PCOD8090371 Si02
#       7
#     8   8   8   8   8   8   8
#     4   9  18  33  54  79 108 140 177 220 262 310
#     4  11  24  38  56  80 109 144 183 228 276 326
#     4  10  20  34  56  80 107 142 179 224 269 318
#     4  10  21  36  55  78 106 142 179 221 270 321
#     4  10  20  36  57  80 107 143 183 224 274 324
#     4   9  18  32  54  82 107 137 180 221 260 311
#     4  10  19  33  56  83 108 139 175 216 262 314
#
# _framework density 19.178097000000001
#
# number of rings (size 3 to 8) (size 9 to 14) (size 15 to 20)
#    0.000    2.143    1.429    1.714    2.000    3.143 
#    0.000    0.000    0.000    3.429    0.000    0.000 
#    0.000    0.000    0.000    0.000    0.000    0.000 
#
# Total GULP energy -347211.819757 kJ/mol
# GULP energy per Si atom -12400.422134 kJ/mol
# Density = 1.913445 g / cm^3
# Si number density = 19.178097 Si / 1000 Ang^3
#
#
#
# Elastic Constant Matrix: (Units=GPa)
#
#
# Indices 1 2 3 4 5 6 
#
# 1 162.1784 35.1758 60.6264 0.0000 -0.9500 0.0000
# 2 35.1758 30.1451 21.1649 0.0000 1.5015 0.0000
# 3 60.6264 21.1649 108.5008 0.0000 2.2604 0.0000
# 4 0.0000 0.0000 0.0000 32.2024 0.0000 -0.7514
# 5 -0.9500 1.5015 2.2604 0.0000 36.8786 0.0000
# 6 0.0000 0.0000 0.0000 -0.7514 0.0000 34.0165
#
#
#
# Elastic Compliance Matrix: (Units=1/GPa)
#
#
# Indices 1 2 3 4 5 6 
#
# 1 0.009339 -0.008415 -0.003594 0.000000 0.000803 0.000000
# 2 -0.008415 0.046064 -0.004246 0.000000 -0.001832 0.000000
# 3 -0.003594 -0.004246 0.012067 0.000000 -0.000659 0.000000
# 4 0.000000 0.000000 0.000000 0.031070 0.000000 0.000686
# 5 0.000803 -0.001832 -0.000659 0.000000 0.027252 0.000000
# 6 0.000000 0.000000 0.000000 0.000686 0.000000 0.029413
#
#
# Mechanical properties :
#
#
# Convention : Reuss Voigt Hill
#
# Bulk Modulus (GPa) = 28.60273 59.41759 44.01016
# Shear Modulus (GPa) = 25.07955 32.87666 28.97810
#
# Velocity S-wave (km/s) = 3.62016 4.14488 3.89138
# Velocity P-wave (km/s) = 5.69392 7.34547 6.57178
#
# Compressibility (1/GPa) = 0.03496169
#
# Stress axis : x y z
#
# Youngs Moduli (GPa) = 107.07427 21.70895 82.87403
#
# Poissons Ratio (x) = 0.18267 0.29783
# Poissons Ratio (y) = 0.90100 0.35185
# Poissons Ratio (z) = 0.38480 0.09217
#
# Static dielectric constant tensor:
#      x y z
#    x 3.572230 0.000000 -0.057160 
#    y 0.000000 4.357810 0.000000 
#    z -0.057160 0.000000 3.761230 
# 
# 
# High freq. dielectric constant tensor:
#      x y z
#    x 1.756680 0.000000 0.000600 
#    y 0.000000 1.704970 0.000000 
#    z 0.000600 0.000000 1.764720 
# 
# From -- ./inp_files/275533.got.cif
#   From: 2010.06.25/outbox.cif.g09.slc.cpg/sg12_138_cif.got.tgz:275533.got - 2010.06.28 00:19:55.
