data_PCOD8090028
_publ_section_title
;
Structure prediction by ZEFSAII (Michael W. Deem and Ramdas Pophale) SiO2 
 PCOD8090028
Probable space group: C 2/M
;
_chemical_formula_sum "Si O2"
_cell_formula_units_Z 64
_cell_length_a 20.384152
_cell_length_b 9.173008
_cell_length_c 23.923027
_cell_angle_alpha 90.000000
_cell_angle_beta 53.116031
_cell_angle_gamma 90.000000
_cell_volume 3577.919162
_symmetry_space_group_name_H-M "C 2/M"
_symmetry_group_IT_number 12
_symmetry_cell_setting 'monoclinic'
loop_
_space_group_symop_operation_xyz
x,y,z
-x,y,-z
-x,-y,-z
x,-y,z
1/2+x,1/2+y,z
1/2-x,1/2+y,-z
1/2-x,1/2-y,-z
1/2+x,1/2-y,z
loop_
_atom_site_type_symbol
_atom_site_label
_atom_site_fract_x
_atom_site_fract_y
_atom_site_fract_z
Si Si1 0.395404 0.669447 0.781864
Si Si2 0.046880 0.327074 0.352223
Si Si3 0.153063 0.330072 0.773372
Si Si4 0.010730 0.830937 0.154393
Si Si5 0.073311 0.171598 0.003080
Si Si6 0.176243 0.170186 0.362991
Si Si7 0.207266 0.328460 0.868161
Si Si8 0.066455 0.839034 0.514835
O O1 0.405229 0.500000 0.760669
O O2 0.449798 0.765801 0.712155
O O3 0.426084 0.701743 0.828479
O O4 0.301349 0.719078 0.826201
O O5 0.049276 0.500000 0.350690
O O6 0.124223 0.265780 0.346502
O O7 0.960657 0.275554 0.424025
O O8 0.133753 0.500000 0.783820
O O9 0.228390 0.292933 0.693558
O O10 0.174812 0.275611 0.824537
O O11 0.074395 0.248818 0.789691
O O12 0.051646 0.774039 0.076322
O O13 0.989701 0.000000 0.159551
O O14 0.088325 0.000000 0.992691
O O15 0.156712 0.249771 0.942513
O O16 0.000000 0.220750 0.000000
O O17 0.151494 0.205891 0.440170
O O18 0.158599 0.000000 0.357965
O O19 0.197255 0.500000 0.880914
O O20 0.000000 0.842408 0.500000
O O21 0.074249 0.000000 0.538098
#
# Coordination Sequence:
#
# PCOD8090028 Si02
#       8
#     8   8   8   8   8   8   8   8
#     4  10  21  39  56  73 105 144 183 215 256 324
#     4  11  20  29  48  78 110 139 172 220 271 307
#     4  10  19  33  55  80 106 135 175 223 261 303
#     4  10  22  38  56  77 104 143 178 213 265 321
#     4  10  20  35  54  78 109 137 168 215 268 318
#     4   9  17  32  52  76 106 143 180 214 259 314
#     4  10  20  34  56  80 101 136 179 218 258 305
#     4   8  15  28  48  72 103 142 179 211 255 316
#
# _framework density 17.887492000000002
#
# number of rings (size 3 to 8) (size 9 to 14) (size 15 to 20)
#    0.000    2.250    2.500    1.875    0.000    5.000 
#    0.000    0.000    0.000    0.750    0.000    0.000 
#    0.000    0.000    0.000    0.000    0.000    0.000 
#
# Total GULP energy -396814.737597 kJ/mol
# GULP energy per Si atom -12400.460550 kJ/mol
# Density = 1.784678 g / cm^3
# Si number density = 17.887492 Si / 1000 Ang^3
#
#
#
# Elastic Constant Matrix: (Units=GPa)
#
#
# Indices 1 2 3 4 5 6 
#
# 1 63.8696 27.0104 35.0299 0.0000 -0.4100 -0.0002
# 2 27.0104 66.7722 52.8599 0.0000 1.9099 -0.0005
# 3 35.0299 52.8599 146.9276 0.0000 -5.4208 0.0001
# 4 0.0000 0.0000 0.0000 23.4772 0.0000 -2.6426
# 5 -0.4100 1.9099 -5.4208 0.0000 22.9572 -0.0001
# 6 -0.0002 -0.0005 0.0001 -2.6426 -0.0001 18.7353
#
#
#
# Elastic Compliance Matrix: (Units=1/GPa)
#
#
# Indices 1 2 3 4 5 6 
#
# 1 0.019544 -0.005916 -0.002522 0.000000 0.000246 0.000000
# 2 -0.005916 0.023022 -0.007008 0.000000 -0.003676 0.000001
# 3 -0.002522 -0.007008 0.010036 0.000000 0.002908 0.000000
# 4 0.000000 0.000000 0.000000 0.043282 0.000000 0.006105
# 5 0.000246 -0.003676 0.002908 0.000000 0.044556 0.000000
# 6 0.000000 0.000001 0.000000 0.006105 0.000000 0.054236
#
#
# Mechanical properties :
#
#
# Convention : Reuss Voigt Hill
#
# Bulk Modulus (GPa) = 46.06219 56.37444 51.21832
# Shear Modulus (GPa) = 21.47724 23.87854 22.67789
#
# Velocity S-wave (km/s) = 3.46885 3.65763 3.56449
# Velocity P-wave (km/s) = 6.46922 7.03010 6.75548
#
# Compressibility (1/GPa) = 0.02170978
#
# Stress axis : x y z
#
# Youngs Moduli (GPa) = 51.16756 43.43609 99.64308
#
# Poissons Ratio (x) = 0.25698 0.25130
# Poissons Ratio (y) = 0.30272 0.69828
# Poissons Ratio (z) = 0.12904 0.30439
#
# Static dielectric constant tensor:
#      x y z
#    x 3.000530 0.000000 -0.033910 
#    y 0.000000 3.160710 0.000000 
#    z -0.033910 0.000000 3.714510 
# 
# 
# High freq. dielectric constant tensor:
#      x y z
#    x 1.656420 0.000000 -0.004550 
#    y 0.000000 1.681520 0.000000 
#    z -0.004550 0.000000 1.711130 
# 
# From -- ./inp_files/365182.got.cif
#   From: 2010.06.25/outbox.cif.g09.slc.cpg/sg12_183_cif.got.tgz:365182.got - 2010.06.28 00:19:55.
