data_PCOD8090234
_publ_section_title
;
Structure prediction by ZEFSAII (Michael W. Deem and Ramdas Pophale) SiO2 
 PCOD8090234
Probable space group: C 2/M
;
_chemical_formula_sum "Si O2"
_cell_formula_units_Z 64
_cell_length_a 24.340950
_cell_length_b 8.856977
_cell_length_c 16.258048
_cell_angle_alpha 90.000000
_cell_angle_beta 87.502531
_cell_angle_gamma 90.000000
_cell_volume 3501.698344
_symmetry_space_group_name_H-M "C 2/M"
_symmetry_group_IT_number 12
_symmetry_cell_setting 'monoclinic'
loop_
_space_group_symop_operation_xyz
x,y,z
-x,y,-z
-x,-y,-z
x,-y,z
1/2+x,1/2+y,z
1/2-x,1/2+y,-z
1/2-x,1/2-y,-z
1/2+x,1/2-y,z
loop_
_atom_site_type_symbol
_atom_site_label
_atom_site_fract_x
_atom_site_fract_y
_atom_site_fract_z
Si Si1 0.206310 0.321141 0.260620
Si Si2 0.816906 0.322776 0.213797
Si Si3 0.306645 0.177071 0.024326
Si Si4 0.119863 0.821519 0.376259
Si Si5 0.362982 0.323235 0.878144
Si Si6 0.962277 0.174053 0.760451
Si Si7 0.060608 0.677836 0.525360
Si Si8 0.070911 0.322274 0.710998
O O1 0.201163 0.500000 0.256973
O O2 0.269501 0.270905 0.262301
O O3 0.175702 0.259198 0.343571
O O4 0.181079 0.249696 0.180157
O O5 0.807202 0.500000 0.229675
O O6 0.818875 0.283864 0.117554
O O7 0.873773 0.265142 0.249410
O O8 0.303737 0.000000 0.008398
O O9 0.250000 0.250000 0.000000
O O10 0.356311 0.248398 0.967908
O O11 0.070931 0.771928 0.318026
O O12 0.105430 0.765443 0.468125
O O13 0.129287 0.000000 0.373390
O O14 0.349375 0.500000 0.882670
O O15 0.425019 0.293944 0.843189
O O16 0.018758 0.263800 0.765681
O O17 0.977299 0.000000 0.751520
O O18 0.070793 0.500000 0.515706
O O19 0.068826 0.736460 0.617499
O O20 0.000000 0.723648 0.500000
O O21 0.067532 0.500000 0.712531
#
# Coordination Sequence:
#
# PCOD8090234 Si02
#       8
#     8   8   8   8   8   8   8   8
#     4  11  21  34  56  83 110 143 184 228 277 326
#     4  10  22  39  56  78 113 150 182 221 276 335
#     4  11  21  34  56  83 110 142 186 233 276 324
#     4  10  20  34  55  82 113 146 181 226 279 327
#     4  10  20  35  55  82 114 144 180 229 279 327
#     4   9  19  34  53  79 110 144 180 223 272 325
#     4  10  19  33  55  85 113 138 183 236 273 315
#     4  10  21  37  57  80 111 150 182 221 277 331
#
# _framework density 18.276845000000002
#
# number of rings (size 3 to 8) (size 9 to 14) (size 15 to 20)
#    0.000    1.875    2.500    3.000    0.000    4.250 
#    0.000    1.250    0.000    3.750    0.000    0.000 
#    0.000    0.000    0.000    0.000    0.000    0.000 
#
# Total GULP energy -396913.657270 kJ/mol
# GULP energy per Si atom -12403.551790 kJ/mol
# Density = 1.823525 g / cm^3
# Si number density = 18.276845 Si / 1000 Ang^3
#
#
#
# Elastic Constant Matrix: (Units=GPa)
#
#
# Indices 1 2 3 4 5 6 
#
# 1 141.9970 56.1730 72.4868 0.0000 -9.6296 0.0000
# 2 56.1730 78.8719 46.2979 0.0000 -7.6498 0.0000
# 3 72.4868 46.2979 111.2522 0.0000 -10.4909 0.0000
# 4 0.0000 0.0000 0.0000 27.6485 0.0000 -9.3420
# 5 -9.6296 -7.6498 -10.4909 0.0000 32.6334 0.0000
# 6 0.0000 0.0000 0.0000 -9.3420 0.0000 31.9655
#
#
#
# Elastic Compliance Matrix: (Units=1/GPa)
#
#
# Indices 1 2 3 4 5 6 
#
# 1 0.011996 -0.005206 -0.005601 0.000000 0.000519 0.000000
# 2 -0.005206 0.019133 -0.004426 0.000000 0.001526 0.000000
# 3 -0.005601 -0.004426 0.014671 0.000000 0.002026 0.000000
# 4 0.000000 0.000000 0.000000 0.040131 0.000000 0.011728
# 5 0.000519 0.001526 0.002026 0.000000 0.031806 0.000000
# 6 0.000000 0.000000 0.000000 0.011728 0.000000 0.034711
#
#
# Mechanical properties :
#
#
# Convention : Reuss Voigt Hill
#
# Bulk Modulus (GPa) = 65.21521 75.78182 70.49851
# Shear Modulus (GPa) = 26.59226 28.92704 27.75965
#
# Velocity S-wave (km/s) = 3.81854 3.98265 3.90146
# Velocity P-wave (km/s) = 7.42974 7.91846 7.67799
#
# Compressibility (1/GPa) = 0.01533385
#
# Stress axis : x y z
#
# Youngs Moduli (GPa) = 83.36120 52.26682 68.16210
#
# Poissons Ratio (x) = 0.27208 0.38176
# Poissons Ratio (y) = 0.43395 0.30172
# Poissons Ratio (z) = 0.46689 0.23136
#
# Static dielectric constant tensor:
#      x y z
#    x 3.318640 0.000000 -0.157740 
#    y 0.000000 3.318090 0.000000 
#    z -0.157740 0.000000 3.453990 
# 
# 
# High freq. dielectric constant tensor:
#      x y z
#    x 1.701280 0.000000 -0.023710 
#    y 0.000000 1.711250 0.000000 
#    z -0.023710 0.000000 1.701410 
# 
# From -- ./inp_files/238789.got.cif
#   From: 2010.06.25/outbox.cif.g09.slc.cpg/sg12_120_cif.got.tgz:238789.got - 2010.06.28 00:19:55.
