data_PCOD8090250
_publ_section_title
;
Structure prediction by ZEFSAII (Michael W. Deem and Ramdas Pophale) SiO2 
 PCOD8090250
Probable space group: C 2/M
;
_chemical_formula_sum "Si O2"
_cell_formula_units_Z 56
_cell_length_a 26.415945
_cell_length_b 8.735609
_cell_length_c 14.290428
_cell_angle_alpha 90.000000
_cell_angle_beta 122.203883
_cell_angle_gamma 90.000000
_cell_volume 2790.329897
_symmetry_space_group_name_H-M "C 2/M"
_symmetry_group_IT_number 12
_symmetry_cell_setting 'monoclinic'
loop_
_space_group_symop_operation_xyz
x,y,z
-x,y,-z
-x,-y,-z
x,-y,z
1/2+x,1/2+y,z
1/2-x,1/2+y,-z
1/2-x,1/2-y,-z
1/2+x,1/2-y,z
loop_
_atom_site_type_symbol
_atom_site_label
_atom_site_fract_x
_atom_site_fract_y
_atom_site_fract_z
Si Si1 0.642238 0.822360 0.668057
Si Si2 0.897872 0.175413 0.754588
Si Si3 0.752650 0.180312 0.900290
Si Si4 0.537182 0.323427 0.892082
Si Si5 0.139252 0.677610 0.102699
Si Si6 0.407805 0.679186 0.554337
Si Si7 0.532814 0.177397 0.693455
O O1 0.696525 0.759486 0.784426
O O2 0.641625 0.727957 0.570384
O O3 0.580067 0.791661 0.658773
O O4 0.651385 0.000000 0.653318
O O5 0.858397 0.279554 0.784982
O O6 0.882737 0.220633 0.632725
O O7 0.967638 0.204848 0.843010
O O8 0.881178 0.000000 0.757999
O O9 0.813111 0.226330 0.908499
O O10 0.749281 0.000000 0.908174
O O11 0.750000 0.250000 0.000000
O O12 0.554651 0.500000 0.924229
O O13 0.553211 0.276245 0.802364
O O14 0.573721 0.219829 0.000217
O O15 0.152935 0.500000 0.102878
O O16 0.422810 0.500000 0.564097
O O17 0.468226 0.772210 0.592256
O O18 0.531325 0.000000 0.721124
#
# Coordination Sequence:
#
# PCOD8090250 Si02
#       7
#     8   8   8   8   8   8   8
#     4  10  22  38  57  82 112 149 190 233 282 332
#     4   9  20  38  57  82 115 149 187 233 285 337
#     4  11  24  43  64  86 115 149 188 236 285 334
#     4  10  20  35  57  85 117 152 189 234 288 341
#     4  12  24  37  57  85 114 150 194 234 282 342
#     4  10  21  36  57  85 116 150 188 230 280 339
#     4  10  19  33  55  85 120 151 185 232 282 338
#
# _framework density 20.069310000000002
#
# number of rings (size 3 to 8) (size 9 to 14) (size 15 to 20)
#    0.000    1.714    0.000    5.571    0.000   10.286 
#    0.000    0.714    0.000    0.000    0.000    0.000 
#    0.000    0.000    0.000    0.000    0.000    0.000 
#
# Total GULP energy -347327.172775 kJ/mol
# GULP energy per Si atom -12404.541885 kJ/mol
# Density = 2.002363 g / cm^3
# Si number density = 20.069310 Si / 1000 Ang^3
#
#
#
# Elastic Constant Matrix: (Units=GPa)
#
#
# Indices 1 2 3 4 5 6 
#
# 1 83.3213 29.9871 51.0087 0.0000 -19.2989 0.0000
# 2 29.9871 57.6824 34.6260 0.0000 -4.8309 0.0000
# 3 51.0087 34.6260 138.2085 0.0000 -14.5089 0.0000
# 4 0.0000 0.0000 0.0000 37.5847 0.0000 -4.5844
# 5 -19.2989 -4.8309 -14.5089 0.0000 21.2525 0.0000
# 6 0.0000 0.0000 0.0000 -4.5844 0.0000 27.9313
#
#
#
# Elastic Compliance Matrix: (Units=1/GPa)
#
#
# Indices 1 2 3 4 5 6 
#
# 1 0.020338 -0.006800 -0.004337 0.000000 0.013962 0.000000
# 2 -0.006800 0.022709 -0.003540 0.000000 -0.003430 0.000000
# 3 -0.004337 -0.003540 0.009937 0.000000 0.002041 0.000000
# 4 0.000000 0.000000 0.000000 0.027150 0.000000 0.004456
# 5 0.013962 -0.003430 0.002041 0.000000 0.060346 0.000000
# 6 0.000000 0.000000 0.000000 0.004456 0.000000 0.036534
#
#
# Mechanical properties :
#
#
# Convention : Reuss Voigt Hill
#
# Bulk Modulus (GPa) = 42.31787 56.71731 49.51759
# Shear Modulus (GPa) = 23.33784 28.25970 25.79877
#
# Velocity S-wave (km/s) = 3.41378 3.75654 3.58925
# Velocity P-wave (km/s) = 6.05559 6.86568 6.47332
#
# Compressibility (1/GPa) = 0.02363068
#
# Stress axis : x y z
#
# Youngs Moduli (GPa) = 49.16905 44.03508 100.63302
#
# Poissons Ratio (x) = 0.29946 0.43642
# Poissons Ratio (y) = 0.33437 0.35620
# Poissons Ratio (z) = 0.21323 0.15587
#
# Static dielectric constant tensor:
#      x y z
#    x 3.522630 0.000000 -0.109470 
#    y 0.000000 3.635910 0.000000 
#    z -0.109470 0.000000 3.798300 
# 
# 
# High freq. dielectric constant tensor:
#      x y z
#    x 1.771230 0.000000 -0.016740 
#    y 0.000000 1.785300 0.000000 
#    z -0.016740 0.000000 1.789360 
# 
# From -- ./inp_files/238885.got.cif
#   From: 2010.06.25/outbox.cif.g09.slc.cpg/sg12_120_cif.got.tgz:238885.got - 2010.06.28 00:19:55.
