data_PCOD8090924
_publ_section_title
;
Structure prediction by ZEFSAII (Michael W. Deem and Ramdas Pophale) SiO2 
 PCOD8090924
Probable space group: C 2/M
;
_chemical_formula_sum "Si O2"
_cell_formula_units_Z 64
_cell_length_a 31.560536
_cell_length_b 8.815290
_cell_length_c 24.332935
_cell_angle_alpha 90.000000
_cell_angle_beta 28.146574
_cell_angle_gamma 90.000000
_cell_volume 3193.506785
_symmetry_space_group_name_H-M "C 2/M"
_symmetry_group_IT_number 12
_symmetry_cell_setting 'monoclinic'
loop_
_space_group_symop_operation_xyz
x,y,z
-x,y,-z
-x,-y,-z
x,-y,z
1/2+x,1/2+y,z
1/2-x,1/2+y,-z
1/2-x,1/2-y,-z
1/2+x,1/2-y,z
loop_
_atom_site_type_symbol
_atom_site_label
_atom_site_fract_x
_atom_site_fract_y
_atom_site_fract_z
Si Si1 0.756060 0.821487 0.723994
Si Si2 0.436378 0.181032 0.024243
Si Si3 0.841262 0.327178 0.916096
Si Si4 0.595461 0.677179 0.364275
Si Si5 0.635441 0.324179 0.502678
Si Si6 0.844555 0.322905 0.406456
Si Si7 0.960985 0.326981 0.673871
Si Si8 0.026242 0.681053 0.141956
O O1 0.660560 0.751366 0.849252
O O2 0.830337 0.754028 0.679781
O O3 0.779944 0.786577 0.633253
O O4 0.754360 0.000000 0.734616
O O5 0.437518 0.000000 0.022568
O O6 0.500000 0.243347 0.000000
O O7 0.463134 0.240316 0.932824
O O8 0.814700 0.500000 0.957457
O O9 0.915999 0.310562 0.784234
O O10 0.890011 0.259732 0.915612
O O11 0.750000 0.250000 0.000000
O O12 0.500000 0.711376 0.500000
O O13 0.609645 0.500000 0.335877
O O14 0.608033 0.770978 0.293700
O O15 0.636688 0.500000 0.519776
O O16 0.637014 0.210330 0.551373
O O17 0.544942 0.287679 0.572892
O O18 0.835533 0.500000 0.406397
O O19 0.750000 0.250000 0.500000
O O20 0.929113 0.258688 0.274537
O O21 0.990974 0.500000 0.629101
O O22 0.026622 0.500000 0.144844
#
# Coordination Sequence:
#
# PCOD8090924 Si02
#       8
#     8   8   8   8   8   8   8   8
#     4   9  19  33  52  83 117 147 191 241 287 344
#     4   9  18  32  54  82 111 147 189 236 291 343
#     4  10  22  39  57  82 116 156 197 240 294 352
#     4  10  19  34  53  80 116 152 190 236 283 339
#     4  11  21  37  60  87 118 152 191 242 297 349
#     4  11  23  40  61  89 120 153 193 242 297 357
#     4  11  22  37  55  81 119 156 193 239 293 355
#     4   9  19  37  57  83 121 152 185 242 299 345
#
# _framework density 20.040665000000001
#
# number of rings (size 3 to 8) (size 9 to 14) (size 15 to 20)
#    0.000    2.000    2.500    1.125    3.500    1.250 
#    0.000    0.000    0.000    0.000    0.000    0.875 
#    0.000    0.000    0.000    0.000    0.000    0.000 
#
# Total GULP energy -396677.283475 kJ/mol
# GULP energy per Si atom -12396.165109 kJ/mol
# Density = 1.999505 g / cm^3
# Si number density = 20.040665 Si / 1000 Ang^3
#
#
#
# Elastic Constant Matrix: (Units=GPa)
#
#
# Indices 1 2 3 4 5 6 
#
# 1 153.5268 22.0976 78.2858 0.0029 -1.1541 -0.0029
# 2 22.0976 36.6713 27.1551 -0.0590 0.0597 0.0249
# 3 78.2858 27.1551 143.2667 -0.0332 -10.4480 0.0121
# 4 0.0029 -0.0590 -0.0332 20.6843 0.0132 1.2319
# 5 -1.1541 0.0597 -10.4480 0.0132 38.6056 -0.0038
# 6 -0.0029 0.0249 0.0121 1.2319 -0.0038 29.0336
#
#
#
# Elastic Compliance Matrix: (Units=1/GPa)
#
#
# Indices 1 2 3 4 5 6 
#
# 1 0.009205 -0.002055 -0.004713 -0.000014 -0.000997 0.000005
# 2 -0.002055 0.032292 -0.005107 0.000087 -0.001493 -0.000030
# 3 -0.004713 -0.005107 0.010725 0.000002 0.002770 0.000000
# 4 -0.000014 0.000087 0.000002 0.048469 -0.000017 -0.002057
# 5 -0.000997 -0.001493 0.002770 -0.000017 0.026625 0.000004
# 6 0.000005 -0.000030 0.000000 -0.002057 0.000004 0.034530
#
#
# Mechanical properties :
#
#
# Convention : Reuss Voigt Hill
#
# Bulk Modulus (GPa) = 35.12171 65.39353 50.25762
# Shear Modulus (GPa) = 25.62966 31.39313 28.51139
#
# Velocity S-wave (km/s) = 3.58003 3.96216 3.77593
# Velocity P-wave (km/s) = 5.88660 7.32345 6.64398
#
# Compressibility (1/GPa) = 0.02847241
#
# Stress axis : x y z
#
# Youngs Moduli (GPa) = 108.63456 30.96772 93.23728
#
# Poissons Ratio (x) = 0.06364 0.43945
# Poissons Ratio (y) = 0.22326 0.47612
# Poissons Ratio (z) = 0.51202 0.15814
#
# Static dielectric constant tensor:
#      x y z
#    x 4.074130 -0.000020 -0.131810 
#    y -0.000020 3.201660 0.000060 
#    z -0.131810 0.000060 3.880340 
# 
# 
# High freq. dielectric constant tensor:
#      x y z
#    x 1.798880 0.000000 0.001100 
#    y 0.000000 1.733970 0.000010 
#    z 0.001100 0.000010 1.787320 
# 
# From -- ./inp_files/353308.got.cif
#   From: 2010.06.25/outbox.cif.g09.slc.cpg/sg12_177_cif.got.tgz:353308.got - 2010.06.28 00:19:55.
