data_PCOD8090721
_publ_section_title
;
Structure prediction by ZEFSAII (Michael W. Deem and Ramdas Pophale) SiO2 
 PCOD8090721
Probable space group: C 2/M
;
_chemical_formula_sum "Si O2"
_cell_formula_units_Z 64
_cell_length_a 14.175906
_cell_length_b 17.905955
_cell_length_c 17.836805
_cell_angle_alpha 90.000000
_cell_angle_beta 46.960104
_cell_angle_gamma 90.000000
_cell_volume 3309.105750
_symmetry_space_group_name_H-M "C 2/M"
_symmetry_group_IT_number 12
_symmetry_cell_setting 'monoclinic'
loop_
_space_group_symop_operation_xyz
x,y,z
-x,y,-z
-x,-y,-z
x,-y,z
1/2+x,1/2+y,z
1/2-x,1/2+y,-z
1/2-x,1/2-y,-z
1/2+x,1/2-y,z
loop_
_atom_site_type_symbol
_atom_site_label
_atom_site_fract_x
_atom_site_fract_y
_atom_site_fract_z
Si Si1 0.188094 0.583917 0.099740
Si Si2 0.005413 0.912412 0.410093
Si Si3 0.810509 0.232590 0.047031
Si Si4 0.006912 0.645177 0.076153
Si Si5 0.639867 0.181934 0.391118
Si Si6 0.232502 0.189621 0.242258
Si Si7 0.253941 0.087178 0.535026
Si Si8 0.026309 0.583304 0.329722
O O1 0.246423 0.500000 0.067093
O O2 0.303149 0.641976 0.058495
O O3 0.118591 0.602092 0.059481
O O4 0.070022 0.591998 0.221063
O O5 0.871523 0.889189 0.443518
O O6 0.000000 0.888352 0.500000
O O7 0.117273 0.870019 0.304379
O O8 0.032598 0.000000 0.388002
O O9 0.736782 0.270983 0.157920
O O10 0.750000 0.250000 0.000000
O O11 0.953222 0.267509 0.962320
O O12 0.865823 0.646731 0.189847
O O13 0.000000 0.603002 0.000000
O O14 0.500000 0.203456 0.500000
O O15 0.712805 0.254770 0.322569
O O16 0.732359 0.138387 0.398736
O O17 0.619772 0.131219 0.329966
O O18 0.375995 0.105457 0.415738
O O19 0.248561 0.000000 0.561311
O O20 0.043459 0.500000 0.351053
#
# Coordination Sequence:
#
# PCOD8090721 Si02
#       8
#     8   8   8   8   8   8   8   8
#     4  10  19  33  59  87 112 144 189 235 291 352
#     4  10  23  41  59  84 121 160 199 245 291 346
#     4   9  19  39  59  81 113 149 190 243 298 342
#     4   9  21  37  56  79 110 152 193 240 292 342
#     4  10  19  34  54  87 117 147 191 238 282 351
#     4  11  21  37  59  82 114 156 196 238 293 349
#     4   9  19  35  55  80 117 158 190 228 286 341
#     4   9  17  31  54  84 115 149 184 230 283 342
#
# _framework density 19.340572000000002
#
# number of rings (size 3 to 8) (size 9 to 14) (size 15 to 20)
#    0.000    2.375    1.250    0.750    1.750    4.250 
#    0.000    6.875    0.000    4.875    0.000    0.000 
#    0.000    0.000    0.000    0.000    0.000    0.000 
#
# Total GULP energy -396524.814222 kJ/mol
# GULP energy per Si atom -12391.400444 kJ/mol
# Density = 1.929655 g / cm^3
# Si number density = 19.340572 Si / 1000 Ang^3
#
#
#
# Elastic Constant Matrix: (Units=GPa)
#
#
# Indices 1 2 3 4 5 6 
#
# 1 87.6832 21.0588 28.6762 0.0000 1.0763 0.0000
# 2 21.0588 77.2281 33.0278 0.0000 -3.4821 0.0000
# 3 28.6762 33.0278 72.6688 -0.0001 0.9216 0.0001
# 4 0.0000 0.0000 -0.0001 25.9096 0.0000 -1.5714
# 5 1.0763 -3.4821 0.9216 0.0000 31.9713 0.0000
# 6 0.0000 0.0000 0.0001 -1.5714 0.0000 24.1016
#
#
#
# Elastic Compliance Matrix: (Units=1/GPa)
#
#
# Indices 1 2 3 4 5 6 
#
# 1 0.013283 -0.001745 -0.004442 0.000000 -0.000509 0.000000
# 2 -0.001745 0.016426 -0.006803 0.000000 0.002044 0.000000
# 3 -0.004442 -0.006803 0.018620 0.000000 -0.001128 0.000000
# 4 0.000000 0.000000 0.000000 0.038749 0.000000 0.002526
# 5 -0.000509 0.002044 -0.001128 0.000000 0.031550 0.000000
# 6 0.000000 0.000000 0.000000 0.002526 0.000000 0.041656
#
#
# Mechanical properties :
#
#
# Convention : Reuss Voigt Hill
#
# Bulk Modulus (GPa) = 44.74491 44.78952 44.76722
# Shear Modulus (GPa) = 25.81131 26.71766 26.26449
#
# Velocity S-wave (km/s) = 3.65714 3.72079 3.68910
# Velocity P-wave (km/s) = 6.40456 6.45505 6.42985
#
# Compressibility (1/GPa) = 0.02234891
#
# Stress axis : x y z
#
# Youngs Moduli (GPa) = 75.28529 60.87894 53.70550
#
# Poissons Ratio (x) = 0.10625 0.23856
# Poissons Ratio (y) = 0.13140 0.36535
# Poissons Ratio (z) = 0.33441 0.41415
#
# Static dielectric constant tensor:
#      x y z
#    x 3.649190 0.000000 0.095410 
#    y 0.000000 3.651610 0.000000 
#    z 0.095410 0.000000 3.620170 
# 
# 
# High freq. dielectric constant tensor:
#      x y z
#    x 1.750770 0.000000 0.012990 
#    y 0.000000 1.748210 0.000000 
#    z 0.012990 0.000000 1.749700 
# 
# From -- ./inp_files/271698.got.cif
#   From: 2010.06.25/outbox.cif.g09.slc.cpg/sg12_136_cif.got.tgz:271698.got - 2010.06.28 00:19:55.
