data_PCOD8090805
_publ_section_title
;
Structure prediction by ZEFSAII (Michael W. Deem and Ramdas Pophale) SiO2 
 PCOD8090805
Probable space group: C 2/M
;
_chemical_formula_sum "Si O2"
_cell_formula_units_Z 64
_cell_length_a 34.101401
_cell_length_b 8.965850
_cell_length_c 14.535343
_cell_angle_alpha 90.000000
_cell_angle_beta 126.962219
_cell_angle_gamma 90.000000
_cell_volume 3551.021016
_symmetry_space_group_name_H-M "C 2/M"
_symmetry_group_IT_number 12
_symmetry_cell_setting 'monoclinic'
loop_
_space_group_symop_operation_xyz
x,y,z
-x,y,-z
-x,-y,-z
x,-y,z
1/2+x,1/2+y,z
1/2-x,1/2+y,-z
1/2-x,1/2-y,-z
1/2+x,1/2-y,z
loop_
_atom_site_type_symbol
_atom_site_label
_atom_site_fract_x
_atom_site_fract_y
_atom_site_fract_z
Si Si1 0.854656 0.334414 0.270361
Si Si2 0.291056 0.172397 0.669627
Si Si3 0.894896 0.824806 0.493632
Si Si4 0.661896 0.174375 0.080573
Si Si5 0.005715 0.322602 0.400873
Si Si6 0.590988 0.172413 0.832444
Si Si7 0.755257 0.832805 0.912567
Si Si8 0.809536 0.674845 0.488251
O O1 0.876776 0.500000 0.324189
O O2 0.880345 0.210415 0.368374
O O3 0.865180 0.297472 0.178549
O O4 0.797353 0.334563 0.211166
O O5 0.334667 0.206360 0.805121
O O6 0.242431 0.267259 0.624153
O O7 0.312849 0.213240 0.601175
O O8 0.275114 0.000000 0.651443
O O9 0.948176 0.753048 0.584269
O O10 0.855530 0.754907 0.507164
O O11 0.897316 0.000000 0.513551
O O12 0.709401 0.248982 0.105690
O O13 0.665385 0.000000 0.063329
O O14 0.611803 0.235926 0.960207
O O15 0.010480 0.500000 0.400452
O O16 0.000000 0.275134 0.500000
O O17 0.959286 0.256968 0.277334
O O18 0.579487 0.000000 0.828510
O O19 0.774352 0.000000 0.957410
O O20 0.750000 0.750000 0.000000
O O21 0.813116 0.500000 0.472868
#
# Coordination Sequence:
#
# PCOD8090805 Si02
#       8
#     8   8   8   8   8   8   8   8
#     4  10  19  34  51  71 101 141 180 210 253 313
#     4   9  19  35  58  85 111 137 172 222 269 309
#     4  12  24  35  52  79 108 137 174 226 275 309
#     4  10  19  34  53  76 106 137 173 215 262 313
#     4  10  19  35  57  76 100 138 182 219 262 322
#     4   9  17  32  53  74  99 136 174 210 255 311
#     4  11  21  31  46  70 103 141 177 209 247 300
#     4  10  20  36  57  81 109 142 178 215 263 324
#
# _framework density 18.022984999999998
#
# number of rings (size 3 to 8) (size 9 to 14) (size 15 to 20)
#    0.000    1.875    2.500    2.625    0.000    4.250 
#    0.000    0.625    0.000    0.750    0.000    5.250 
#    0.000    0.000    0.000    0.000    0.000    0.000 
#
# Total GULP energy -396639.970689 kJ/mol
# GULP energy per Si atom -12394.999084 kJ/mol
# Density = 1.798196 g / cm^3
# Si number density = 18.022985 Si / 1000 Ang^3
#
#
#
# Elastic Constant Matrix: (Units=GPa)
#
#
# Indices 1 2 3 4 5 6 
#
# 1 82.0564 32.9948 48.3428 0.0000 9.9092 0.0000
# 2 32.9948 61.9045 33.7248 0.0000 2.6500 0.0000
# 3 48.3428 33.7248 146.5009 0.0000 9.3004 0.0000
# 4 0.0000 0.0000 0.0000 20.8301 0.0000 1.3744
# 5 9.9092 2.6500 9.3004 0.0000 24.4825 0.0000
# 6 0.0000 0.0000 0.0000 1.3744 0.0000 25.9844
#
#
#
# Elastic Compliance Matrix: (Units=1/GPa)
#
#
# Indices 1 2 3 4 5 6 
#
# 1 0.018041 -0.007239 -0.003969 0.000000 -0.005011 0.000000
# 2 -0.007239 0.021379 -0.002635 0.000000 0.001617 0.000000
# 3 -0.003969 -0.002635 0.008835 0.000000 -0.001465 0.000000
# 4 0.000000 0.000000 0.000000 0.048176 0.000000 -0.002548
# 5 -0.005011 0.001617 -0.001465 0.000000 0.043255 0.000000
# 6 0.000000 0.000000 0.000000 -0.002548 0.000000 0.038619
#
#
# Mechanical properties :
#
#
# Convention : Reuss Voigt Hill
#
# Bulk Modulus (GPa) = 48.61771 57.84297 53.23034
# Shear Modulus (GPa) = 23.49106 25.95268 24.72187
#
# Velocity S-wave (km/s) = 3.61417 3.79882 3.70765
# Velocity P-wave (km/s) = 6.66710 7.16973 6.92298
#
# Compressibility (1/GPa) = 0.02056864
#
# Stress axis : x y z
#
# Youngs Moduli (GPa) = 55.43009 46.77536 113.18489
#
# Poissons Ratio (x) = 0.33861 0.44918
# Poissons Ratio (y) = 0.40126 0.29828
# Poissons Ratio (z) = 0.21998 0.12327
#
# Static dielectric constant tensor:
#      x y z
#    x 3.179730 0.000000 0.116870 
#    y 0.000000 3.246000 0.000000 
#    z 0.116870 0.000000 3.649250 
# 
# 
# High freq. dielectric constant tensor:
#      x y z
#    x 1.675980 0.000000 0.004170 
#    y 0.000000 1.684160 0.000000 
#    z 0.004170 0.000000 1.704150 
# 
# From -- ./inp_files/249252.got.cif
#   From: 2010.06.25/outbox.cif.g09.slc.cpg/sg12_125_cif.got.tgz:249252.got - 2010.06.28 00:19:55.
