data_PCOD8090511
_publ_section_title
;
Structure prediction by ZEFSAII (Michael W. Deem and Ramdas Pophale) SiO2 
 PCOD8090511
Probable space group: C 2/M
;
_chemical_formula_sum "Si O2"
_cell_formula_units_Z 48
_cell_length_a 16.185726
_cell_length_b 19.594526
_cell_length_c 14.800209
_cell_angle_alpha 90.000000
_cell_angle_beta 34.122484
_cell_angle_gamma 90.000000
_cell_volume 2633.114274
_symmetry_space_group_name_H-M "C 2/M"
_symmetry_group_IT_number 12
_symmetry_cell_setting 'monoclinic'
loop_
_space_group_symop_operation_xyz
x,y,z
-x,y,-z
-x,-y,-z
x,-y,z
1/2+x,1/2+y,z
1/2-x,1/2+y,-z
1/2-x,1/2-y,-z
1/2+x,1/2-y,z
loop_
_atom_site_type_symbol
_atom_site_label
_atom_site_fract_x
_atom_site_fract_y
_atom_site_fract_z
Si Si1 0.946944 0.578270 0.826598
Si Si2 0.649674 0.680758 0.914540
Si Si3 0.359992 0.690864 0.687259
Si Si4 0.607159 0.920922 0.326800
Si Si5 0.356767 0.921567 0.189737
Si Si6 0.813678 0.823388 0.921433
O O1 0.897393 0.500000 0.884556
O O2 0.969192 0.595628 0.700628
O O3 0.096628 0.592033 0.747661
O O4 0.817476 0.624486 0.983177
O O5 0.748622 0.747050 0.805541
O O6 0.737338 0.615495 0.799416
O O7 0.500000 0.693102 0.000000
O O8 0.603915 0.660924 0.059366
O O9 0.500000 0.712117 0.500000
O O10 0.277848 0.627736 0.713668
O O11 0.416142 0.672702 0.738787
O O12 0.500000 0.891894 0.500000
O O13 0.638755 0.000000 0.311527
O O14 0.304924 0.000000 0.223319
O O15 0.500000 0.905958 0.000000
O O16 0.750000 0.750000 0.000000
#
# Coordination Sequence:
#
# PCOD8090511 Si02
#       6
#     8   8   8   8   8   8
#     4   9  17  32  56  81 104 139 181 214 255 316
#     4  10  21  37  57  77 103 142 185 221 254 312
#     4  11  22  36  53  78 112 141 171 218 272 316
#     4   9  18  35  58  81 110 141 172 221 274 312
#     4  10  19  33  57  82 105 139 181 217 254 318
#     4   9  19  34  54  75 105 139 176 213 259 314
#
# _framework density 18.229365000000001
#
# number of rings (size 3 to 8) (size 9 to 14) (size 15 to 20)
#    0.000    2.333    1.667    1.000    2.333    0.667 
#    3.000    0.833    0.000    0.000    0.000    0.000 
#    0.000    0.000    0.000    0.000    0.000    0.000 
#
# Total GULP energy -297358.820040 kJ/mol
# GULP energy per Si atom -12389.950835 kJ/mol
# Density = 1.818787 g / cm^3
# Si number density = 18.229365 Si / 1000 Ang^3
#
#
#
# Elastic Constant Matrix: (Units=GPa)
#
#
# Indices 1 2 3 4 5 6 
#
# 1 100.5413 40.6665 69.8786 -0.0090 8.4038 0.0034
# 2 40.6665 65.8474 30.8839 -0.0060 1.5314 0.0022
# 3 69.8786 30.8839 104.2775 -0.0184 20.6764 0.0090
# 4 -0.0090 -0.0060 -0.0184 23.5541 0.0066 -1.8648
# 5 8.4038 1.5314 20.6764 0.0066 29.7631 -0.0020
# 6 0.0034 0.0022 0.0090 -1.8648 -0.0020 26.0391
#
#
#
# Elastic Compliance Matrix: (Units=1/GPa)
#
#
# Indices 1 2 3 4 5 6 
#
# 1 0.021692 -0.007374 -0.013005 -0.000004 0.003289 0.000002
# 2 -0.007374 0.020403 -0.001515 0.000001 0.002084 0.000000
# 3 -0.013005 -0.001515 0.020887 0.000014 -0.010760 -0.000005
# 4 -0.000004 0.000001 0.000014 0.042698 -0.000017 0.003058
# 5 0.003289 0.002084 -0.010760 -0.000017 0.040038 0.000005
# 6 0.000002 0.000000 -0.000005 0.003058 0.000005 0.038623
#
#
# Mechanical properties :
#
#
# Convention : Reuss Voigt Hill
#
# Bulk Modulus (GPa) = 52.09624 61.50269 56.79946
# Shear Modulus (GPa) = 21.31974 24.48707 22.90340
#
# Velocity S-wave (km/s) = 3.42355 3.66905 3.54842
# Velocity P-wave (km/s) = 6.65340 7.19449 6.92923
#
# Compressibility (1/GPa) = 0.01919524
#
# Stress axis : x y z
#
# Youngs Moduli (GPa) = 46.09903 49.01357 47.87754
#
# Poissons Ratio (x) = 0.36142 0.62263
# Poissons Ratio (y) = 0.33993 0.07251
# Poissons Ratio (z) = 0.59951 0.07423
#
# Static dielectric constant tensor:
#      x y z
#    x 4.863210 0.000020 1.131310 
#    y 0.000020 3.473850 0.000040 
#    z 1.131310 0.000040 3.612420 
# 
# 
# High freq. dielectric constant tensor:
#      x y z
#    x 1.717700 0.000000 0.027270 
#    y 0.000000 1.718420 0.000000 
#    z 0.027270 0.000000 1.668720 
# 
# From -- ./inp_files/218433.got.cif
#   From: 2010.06.25/outbox.cif.g09.slc.cpg/sg12_110_cif.got.tgz:218433.got - 2010.06.28 00:19:55.
