data_PCOD8090845
_publ_section_title
;
Structure prediction by ZEFSAII (Michael W. Deem and Ramdas Pophale) SiO2 
 PCOD8090845
Probable space group: C 2/M
;
_chemical_formula_sum "Si O2"
_cell_formula_units_Z 48
_cell_length_a 9.414401
_cell_length_b 25.476046
_cell_length_c 12.694974
_cell_angle_alpha 90.000000
_cell_angle_beta 110.654227
_cell_angle_gamma 90.000000
_cell_volume 2849.084207
_symmetry_space_group_name_H-M "C 2/M"
_symmetry_group_IT_number 12
_symmetry_cell_setting 'monoclinic'
loop_
_space_group_symop_operation_xyz
x,y,z
-x,y,-z
-x,-y,-z
x,-y,z
1/2+x,1/2+y,z
1/2-x,1/2+y,-z
1/2-x,1/2-y,-z
1/2+x,1/2-y,z
loop_
_atom_site_type_symbol
_atom_site_label
_atom_site_fract_x
_atom_site_fract_y
_atom_site_fract_z
Si Si1 0.389604 0.124041 0.066293
Si Si2 0.402043 0.791091 0.215948
Si Si3 0.147314 0.939251 0.108329
Si Si4 0.599458 0.278010 0.424834
Si Si5 0.632553 0.348216 0.255986
Si Si6 0.883083 0.800899 0.063875
O O1 0.478897 0.156282 0.182572
O O2 0.303070 0.071839 0.084504
O O3 0.500000 0.108106 0.000000
O O4 0.260687 0.165234 0.003647
O O5 0.521455 0.761343 0.320532
O O6 0.256092 0.808145 0.242821
O O7 0.335345 0.754284 0.104446
O O8 0.159356 0.907862 0.222966
O O9 0.136693 0.000000 0.134576
O O10 0.000000 0.921767 0.000000
O O11 0.500000 0.289587 0.500000
O O12 0.750000 0.250000 0.500000
O O13 0.634880 0.335521 0.381958
O O14 0.465192 0.334042 0.175485
O O15 0.000000 0.791137 0.000000
#
# Coordination Sequence:
#
# PCOD8090845 Si02
#       6
#     8   8   8   8   8   8
#     4  11  21  30  47  79 109 137 171 206 258 305
#     4  10  21  29  49  72 106 142 172 207 249 312
#     4  10  19  37  57  75 103 140 177 214 255 309
#     4  11  22  35  50  74 105 140 173 214 262 304
#     4  10  19  34  52  76 101 135 182 208 257 314
#     4  11  18  30  46  72 108 141 170 199 245 315
#
# _framework density 16.847518999999998
#
# number of rings (size 3 to 8) (size 9 to 14) (size 15 to 20)
#    0.000    1.500    6.667    1.000    4.667    0.333 
#    0.000    0.000    0.000    0.500    0.000    9.333 
#    0.000    0.000    0.000    0.000    0.000    0.000 
#
# Total GULP energy -297315.417055 kJ/mol
# GULP energy per Si atom -12388.142377 kJ/mol
# Density = 1.680917 g / cm^3
# Si number density = 16.847519 Si / 1000 Ang^3
#
#
#
# Elastic Constant Matrix: (Units=GPa)
#
#
# Indices 1 2 3 4 5 6 
#
# 1 85.1589 35.3770 35.3420 0.0000 -20.9169 0.0000
# 2 35.3770 87.0362 42.0371 0.0000 -6.4699 0.0000
# 3 35.3420 42.0371 93.3173 0.0000 -15.7246 0.0000
# 4 0.0000 0.0000 0.0000 19.2186 0.0000 2.3701
# 5 -20.9169 -6.4699 -15.7246 0.0000 32.0713 0.0000
# 6 0.0000 0.0000 0.0000 2.3701 0.0000 10.5199
#
#
#
# Elastic Compliance Matrix: (Units=1/GPa)
#
#
# Indices 1 2 3 4 5 6 
#
# 1 0.017116 -0.004969 -0.002760 0.000000 0.008807 0.000000
# 2 -0.004969 0.016130 -0.005867 0.000000 -0.002863 0.000000
# 3 -0.002760 -0.005867 0.015153 0.000000 0.004446 0.000000
# 4 0.000000 0.000000 0.000000 0.053520 0.000000 -0.012058
# 5 0.008807 -0.002863 0.004446 0.000000 0.038527 0.000000
# 6 0.000000 0.000000 0.000000 -0.012058 0.000000 0.097774
#
#
# Mechanical properties :
#
#
# Convention : Reuss Voigt Hill
#
# Bulk Modulus (GPa) = 47.15236 54.55829 50.85532
# Shear Modulus (GPa) = 18.34994 22.54571 20.44783
#
# Velocity S-wave (km/s) = 3.30385 3.66214 3.48760
# Velocity P-wave (km/s) = 6.52705 7.09476 6.81682
#
# Compressibility (1/GPa) = 0.02120785
#
# Stress axis : x y z
#
# Youngs Moduli (GPa) = 58.42596 61.99647 65.99247
#
# Poissons Ratio (x) = 0.30808 0.18211
# Poissons Ratio (y) = 0.29034 0.38715
# Poissons Ratio (z) = 0.16123 0.36371
#
# Static dielectric constant tensor:
#      x y z
#    x 3.438120 0.000000 -0.163590 
#    y 0.000000 3.041020 0.000000 
#    z -0.163590 0.000000 3.465750 
# 
# 
# High freq. dielectric constant tensor:
#      x y z
#    x 1.655000 0.000000 -0.004150 
#    y 0.000000 1.624820 0.000000 
#    z -0.004150 0.000000 1.638710 
# 
# From -- ./inp_files/122063.got.cif
#   From: 2010.06.25/outbox.cif.g09.slc.cpg/sg12_62_cif.got.tgz:122063.got - 2010.06.28 00:19:55.
