data_PCOD8090996
_publ_section_title
;
Structure prediction by ZEFSAII (Michael W. Deem and Ramdas Pophale) SiO2 
 PCOD8090996
Probable space group: C 2/M
;
_chemical_formula_sum "Si O2"
_cell_formula_units_Z 64
_cell_length_a 18.989876
_cell_length_b 13.425468
_cell_length_c 19.799434
_cell_angle_alpha 90.000000
_cell_angle_beta 138.338552
_cell_angle_gamma 90.000000
_cell_volume 3355.430086
_symmetry_space_group_name_H-M "C 2/M"
_symmetry_group_IT_number 12
_symmetry_cell_setting 'monoclinic'
loop_
_space_group_symop_operation_xyz
x,y,z
-x,y,-z
-x,-y,-z
x,-y,z
1/2+x,1/2+y,z
1/2-x,1/2+y,-z
1/2-x,1/2-y,-z
1/2+x,1/2-y,z
loop_
_atom_site_type_symbol
_atom_site_label
_atom_site_fract_x
_atom_site_fract_y
_atom_site_fract_z
Si Si1 0.094666 0.712073 0.325271
Si Si2 0.782070 0.385886 0.906646
Si Si3 0.046110 0.887219 0.732681
Si Si4 0.097334 0.748743 0.111138
Si Si5 0.092254 0.384950 0.464135
Si Si6 0.979595 0.387895 0.130208
Si Si7 0.255492 0.707982 0.674506
Si Si8 0.061669 0.211576 0.605967
O O1 0.131405 0.654573 0.419094
O O2 0.196062 0.722373 0.349533
O O3 0.047840 0.821618 0.304433
O O4 0.001115 0.653111 0.220524
O O5 0.788286 0.500000 0.882303
O O6 0.662484 0.362537 0.846082
O O7 0.818205 0.303790 0.877802
O O8 0.854843 0.376491 0.025375
O O9 0.055995 0.868660 0.660297
O O10 0.012338 0.000000 0.723075
O O11 0.154303 0.826143 0.205524
O O12 0.046345 0.662691 0.119224
O O13 0.000000 0.801709 0.000000
O O14 0.057531 0.500000 0.434979
O O15 0.187372 0.377264 0.587742
O O16 0.991178 0.318831 0.412871
O O17 0.018361 0.500000 0.156975
O O18 0.181660 0.774792 0.669030
O O19 0.000000 0.162126 0.500000
#
# Coordination Sequence:
#
# PCOD8090996 Si02
#       8
#     8   8   8   8   8   8   8   8
#     4  10  21  35  51  76 111 141 171 210 259 317
#     4   9  16  28  49  75 103 136 175 212 257 310
#     4  10  20  34  50  72 106 145 177 208 256 315
#     4   9  16  28  50  78 107 134 165 212 266 314
#     4  10  21  37  57  78 103 138 178 220 259 304
#     4   9  17  29  49  78 107 135 172 218 259 300
#     4  10  19  34  54  78 105 133 173 217 261 308
#     4   9  19  35  55  77 102 131 175 225 261 306
#
# _framework density 19.073561000000002
#
# number of rings (size 3 to 8) (size 9 to 14) (size 15 to 20)
#    0.000    2.500    1.250    1.125    0.000    5.000 
#    0.000    0.625    0.000    3.375    0.000    2.625 
#    0.000    0.000    0.000    0.000    0.000    0.000 
#
# Total GULP energy -396472.924006 kJ/mol
# GULP energy per Si atom -12389.778875 kJ/mol
# Density = 1.903015 g / cm^3
# Si number density = 19.073561 Si / 1000 Ang^3
#
#
#
# Elastic Constant Matrix: (Units=GPa)
#
#
# Indices 1 2 3 4 5 6 
#
# 1 68.5282 13.3116 28.8750 0.0000 -0.4111 0.0000
# 2 13.3116 60.4342 32.6807 0.0000 4.1929 0.0000
# 3 28.8750 32.6807 115.7099 0.0000 -7.0325 0.0000
# 4 0.0000 0.0000 0.0000 26.3339 0.0000 0.4214
# 5 -0.4111 4.1929 -7.0325 0.0000 25.5274 0.0000
# 6 0.0000 0.0000 0.0000 0.4214 0.0000 8.7333
#
#
#
# Elastic Compliance Matrix: (Units=1/GPa)
#
#
# Indices 1 2 3 4 5 6 
#
# 1 0.016452 -0.001598 -0.003684 0.000000 -0.000487 0.000000
# 2 -0.001598 0.020283 -0.005628 0.000000 -0.004908 0.000000
# 3 -0.003684 -0.005628 0.011395 0.000000 0.004004 0.000000
# 4 0.000000 0.000000 0.000000 0.038003 0.000000 -0.001834
# 5 -0.000487 -0.004908 0.004004 0.000000 0.041075 0.000000
# 6 0.000000 0.000000 0.000000 -0.001834 0.000000 0.114593
#
#
# Mechanical properties :
#
#
# Convention : Reuss Voigt Hill
#
# Bulk Modulus (GPa) = 38.00875 43.82300 40.91588
# Shear Modulus (GPa) = 18.35599 23.43923 20.89761
#
# Velocity S-wave (km/s) = 3.10559 3.50935 3.31362
# Velocity P-wave (km/s) = 5.72977 6.28064 6.01152
#
# Compressibility (1/GPa) = 0.02630973
#
# Stress axis : x y z
#
# Youngs Moduli (GPa) = 60.78190 49.30262 87.76103
#
# Poissons Ratio (x) = 0.07878 0.32330
# Poissons Ratio (y) = 0.09712 0.49393
# Poissons Ratio (z) = 0.22392 0.27748
#
# Static dielectric constant tensor:
#      x y z
#    x 3.389510 0.000000 -0.022910 
#    y 0.000000 3.080020 0.000000 
#    z -0.022910 0.000000 4.076910 
# 
# 
# High freq. dielectric constant tensor:
#      x y z
#    x 1.735250 0.000000 -0.000580 
#    y 0.000000 1.698500 0.000000 
#    z -0.000580 0.000000 1.763750 
# 
# From -- ./inp_files/321283.got.cif
#   From: 2010.06.25/outbox.cif.g09.slc.cpg/sg12_161_cif.got.tgz:321283.got - 2010.06.28 00:19:55.
