data_PCOD8090682
_publ_section_title
;
Structure prediction by ZEFSAII (Michael W. Deem and Ramdas Pophale) SiO2 
 PCOD8090682
Probable space group: C 2/M
;
_chemical_formula_sum "Si O2"
_cell_formula_units_Z 52
_cell_length_a 29.876597
_cell_length_b 15.448574
_cell_length_c 8.709489
_cell_angle_alpha 90.000000
_cell_angle_beta 137.981542
_cell_angle_gamma 90.000000
_cell_volume 2690.781489
_symmetry_space_group_name_H-M "C 2/M"
_symmetry_group_IT_number 12
_symmetry_cell_setting 'monoclinic'
loop_
_space_group_symop_operation_xyz
x,y,z
-x,y,-z
-x,-y,-z
x,-y,z
1/2+x,1/2+y,z
1/2-x,1/2+y,-z
1/2-x,1/2-y,-z
1/2+x,1/2-y,z
loop_
_atom_site_type_symbol
_atom_site_label
_atom_site_fract_x
_atom_site_fract_y
_atom_site_fract_z
Si Si1 0.613959 0.257050 0.971613
Si Si2 0.578611 0.902620 0.718097
Si Si3 0.142135 0.400286 0.560029
Si Si4 0.219940 0.171489 0.019500
Si Si5 0.603755 0.595671 0.526889
Si Si6 0.421812 0.746555 0.780857
Si Si7 0.000000 0.852191 0.500000
O O1 0.609421 0.153608 0.934914
O O2 0.548903 0.292020 0.720649
O O3 0.681541 0.294750 0.072157
O O4 0.612548 0.280239 0.146864
O O5 0.500000 0.892609 0.500000
O O6 0.611501 0.870594 0.643885
O O7 0.599733 0.000000 0.810487
O O8 0.123677 0.500000 0.473918
O O9 0.221923 0.390495 0.769810
O O10 0.110914 0.336453 0.355099
O O11 0.250000 0.250000 0.000000
O O12 0.172160 0.116027 0.788810
O O13 0.609577 0.500000 0.466235
O O14 0.591120 0.667629 0.366692
O O15 0.542465 0.590171 0.490519
O O16 0.500000 0.763052 0.000000
#
# Coordination Sequence:
#
# PCOD8090682 Si02
#       7
#     8   8   8   8   8   8   4
#     4  11  21  36  65  88 124 166 207 246 314 372
#     4  10  19  33  58  89 116 157 210 256 298 358
#     4  11  23  42  65  90 127 163 208 261 306 362
#     4  11  21  42  68  89 116 169 216 254 299 362
#     4  11  23  41  66  95 125 162 209 258 307 370
#     4  12  24  40  62  96 131 164 195 252 328 378
#     4  10  19  40  63  90 120 162 207 260 294 364
#
# _framework density 19.325241999999999
#
# number of rings (size 3 to 8) (size 9 to 14) (size 15 to 20)
#    0.000    1.077    5.385    2.538    0.000    1.846 
#    0.000    1.538    0.000    0.000    0.000    0.000 
#    0.000    0.000    0.000    0.000    0.000    0.000 
#
# Total GULP energy -322451.600064 kJ/mol
# GULP energy per Si atom -12401.984618 kJ/mol
# Density = 1.928126 g / cm^3
# Si number density = 19.325242 Si / 1000 Ang^3
#
#
#
# Elastic Constant Matrix: (Units=GPa)
#
#
# Indices 1 2 3 4 5 6 
#
# 1 124.6588 44.2290 63.5756 0.0000 -0.1523 0.0000
# 2 44.2290 106.2700 43.2676 0.0000 -8.2199 0.0000
# 3 63.5756 43.2676 100.4169 0.0000 5.4255 0.0000
# 4 0.0000 0.0000 0.0000 10.7792 0.0000 4.0132
# 5 -0.1523 -8.2199 5.4255 0.0000 35.2633 0.0000
# 6 0.0000 0.0000 0.0000 4.0132 0.0000 16.7015
#
#
#
# Elastic Compliance Matrix: (Units=1/GPa)
#
#
# Indices 1 2 3 4 5 6 
#
# 1 0.012330 -0.002300 -0.006846 0.000000 0.000570 0.000000
# 2 -0.002300 0.012272 -0.004019 0.000000 0.003469 0.000000
# 3 -0.006846 -0.004019 0.016212 0.000000 -0.003461 0.000000
# 4 0.000000 0.000000 0.000000 0.101886 0.000000 -0.024482
# 5 0.000570 0.003469 -0.003461 0.000000 0.029702 0.000000
# 6 0.000000 0.000000 0.000000 -0.024482 0.000000 0.065757
#
#
# Mechanical properties :
#
#
# Convention : Reuss Voigt Hill
#
# Bulk Modulus (GPa) = 69.04558 70.38780 69.71669
# Shear Modulus (GPa) = 18.56545 24.56703 21.56624
#
# Velocity S-wave (km/s) = 3.10285 3.56931 3.34423
# Velocity P-wave (km/s) = 6.97443 7.31358 7.14602
#
# Compressibility (1/GPa) = 0.01448319
#
# Stress axis : x y z
#
# Youngs Moduli (GPa) = 81.10132 81.48684 61.68457
#
# Poissons Ratio (x) = 0.18744 0.42230
# Poissons Ratio (y) = 0.18655 0.24790
# Poissons Ratio (z) = 0.55523 0.32748
#
# Static dielectric constant tensor:
#      x y z
#    x 3.508200 0.000000 1.347130 
#    y 0.000000 3.539910 0.000000 
#    z 1.347130 0.000000 -1.234130 
# 
# 
# High freq. dielectric constant tensor:
#      x y z
#    x 1.759870 0.000000 0.013940 
#    y 0.000000 1.759440 0.000000 
#    z 0.013940 0.000000 1.741120 
# 
# From -- ./inp_files/112084.got.cif
#   From: 2010.06.25/outbox.cif.g09.slc.cpg/sg12_57_cif.got.tgz:112084.got - 2010.06.28 00:19:55.
