data_PCOD8090452
_publ_section_title
;
Structure prediction by ZEFSAII (Michael W. Deem and Ramdas Pophale) SiO2 
 PCOD8090452
Probable space group: C 2/M
;
_chemical_formula_sum "Si O2"
_cell_formula_units_Z 64
_cell_length_a 24.346915
_cell_length_b 8.829059
_cell_length_c 21.117923
_cell_angle_alpha 90.000000
_cell_angle_beta 131.583389
_cell_angle_gamma 90.000000
_cell_volume 3395.515108
_symmetry_space_group_name_H-M "C 2/M"
_symmetry_group_IT_number 12
_symmetry_cell_setting 'monoclinic'
loop_
_space_group_symop_operation_xyz
x,y,z
-x,y,-z
-x,-y,-z
x,-y,z
1/2+x,1/2+y,z
1/2-x,1/2+y,-z
1/2-x,1/2-y,-z
1/2+x,1/2-y,z
loop_
_atom_site_type_symbol
_atom_site_label
_atom_site_fract_x
_atom_site_fract_y
_atom_site_fract_z
Si Si1 0.892990 0.822346 0.235787
Si Si2 0.180672 0.822687 0.261983
Si Si3 0.968302 0.321275 0.702313
Si Si4 0.684864 0.677755 0.411126
Si Si5 0.027444 0.319567 0.148454
Si Si6 0.114957 0.335306 0.020040
Si Si7 0.249115 0.180841 0.797485
Si Si8 0.676238 0.166514 0.930155
O O1 0.829305 0.762612 0.234874
O O2 0.869301 0.781075 0.147226
O O3 0.971877 0.740020 0.303024
O O4 0.904825 0.000000 0.252720
O O5 0.198520 0.783779 0.348053
O O6 0.102420 0.754827 0.181474
O O7 0.243812 0.743269 0.268167
O O8 0.180479 0.000000 0.248658
O O9 0.963788 0.500000 0.692068
O O10 0.890856 0.250199 0.623047
O O11 0.987608 0.273477 0.789661
O O12 0.681639 0.500000 0.420883
O O13 0.750000 0.750000 0.500000
O O14 0.033728 0.500000 0.148179
O O15 0.965241 0.256413 0.050904
O O16 0.104536 0.500000 0.044785
O O17 0.135627 0.361906 0.963721
O O18 0.181036 0.250815 0.108432
O O19 0.250520 0.000000 0.801622
O O20 0.687076 0.000000 0.906042
O O21 0.750000 0.250000 0.000000
#
# Coordination Sequence:
#
# PCOD8090452 Si02
#       8
#     8   8   8   8   8   8   8   8
#     4  11  21  33  51  77 109 146 188 232 274 318
#     4  10  22  38  54  78 110 138 174 224 271 320
#     4  10  19  33  56  85 114 144 178 220 273 326
#     4  10  21  39  64  92 116 137 167 213 269 329
#     4   9  17  32  53  73 100 142 186 227 273 322
#     4   9  17  31  48  70 100 140 191 234 268 314
#     4  10  21  36  52  71 104 152 195 226 265 322
#     4  11  19  31  47  70 102 140 189 240 284 321
#
# _framework density 18.848393000000002
#
# number of rings (size 3 to 8) (size 9 to 14) (size 15 to 20)
#    0.000    2.000    2.500    1.875    0.000    3.500 
#    0.000    3.125    0.000    0.750    0.000    5.250 
#    0.000    0.000    0.000    0.000    0.000    0.000 
#
# Total GULP energy -396494.155072 kJ/mol
# GULP energy per Si atom -12390.442346 kJ/mol
# Density = 1.880549 g / cm^3
# Si number density = 18.848393 Si / 1000 Ang^3
#
#
#
# Elastic Constant Matrix: (Units=GPa)
#
#
# Indices 1 2 3 4 5 6 
#
# 1 131.7239 43.7767 56.9629 0.0000 16.3322 0.0000
# 2 43.7767 55.0340 32.4486 0.0000 9.4313 0.0000
# 3 56.9629 32.4486 93.0369 0.0000 26.8696 0.0000
# 4 0.0000 0.0000 0.0000 24.1194 0.0000 2.4789
# 5 16.3322 9.4313 26.8696 0.0000 24.3907 0.0000
# 6 0.0000 0.0000 0.0000 2.4789 0.0000 29.3080
#
#
#
# Elastic Compliance Matrix: (Units=1/GPa)
#
#
# Indices 1 2 3 4 5 6 
#
# 1 0.011937 -0.006529 -0.005063 0.000000 0.000109 0.000000
# 2 -0.006529 0.026446 -0.005185 0.000000 -0.000142 0.000000
# 3 -0.005063 -0.005185 0.020677 0.000000 -0.017384 0.000000
# 4 0.000000 0.000000 0.000000 0.041824 0.000000 -0.003537
# 5 0.000109 -0.000142 -0.017384 0.000000 0.060132 0.000000
# 6 0.000000 0.000000 0.000000 -0.003537 0.000000 0.034420
#
#
# Mechanical properties :
#
#
# Convention : Reuss Voigt Hill
#
# Bulk Modulus (GPa) = 39.20658 60.68570 49.94614
# Shear Modulus (GPa) = 21.05336 25.33738 23.19537
#
# Velocity S-wave (km/s) = 3.34576 3.67041 3.51184
# Velocity P-wave (km/s) = 5.98094 7.08726 6.55747
#
# Compressibility (1/GPa) = 0.02550592
#
# Stress axis : x y z
#
# Youngs Moduli (GPa) = 83.76964 37.81357 48.36235
#
# Poissons Ratio (x) = 0.24689 0.24487
# Poissons Ratio (y) = 0.54693 0.25076
# Poissons Ratio (z) = 0.42414 0.19606
#
# Static dielectric constant tensor:
#      x y z
#    x 3.546250 0.000000 0.137780 
#    y 0.000000 3.493000 0.000000 
#    z 0.137780 0.000000 3.259790 
# 
# 
# High freq. dielectric constant tensor:
#      x y z
#    x 1.738270 0.000000 0.017500 
#    y 0.000000 1.721560 0.000000 
#    z 0.017500 0.000000 1.700440 
# 
# From -- ./inp_files/324356.got.cif
#   From: 2010.06.25/outbox.cif.g09.slc.cpg/sg12_163_cif.got.tgz:324356.got - 2010.06.28 00:19:55.
