data_PCOD8090914
_publ_section_title
;
Structure prediction by ZEFSAII (Michael W. Deem and Ramdas Pophale) SiO2 
 PCOD8090914
Probable space group: C 2/M
;
_chemical_formula_sum "Si O2"
_cell_formula_units_Z 56
_cell_length_a 12.199530
_cell_length_b 21.874112
_cell_length_c 23.203442
_cell_angle_alpha 90.000000
_cell_angle_beta 30.871522
_cell_angle_gamma 90.000000
_cell_volume 3177.169618
_symmetry_space_group_name_H-M "C 2/M"
_symmetry_group_IT_number 12
_symmetry_cell_setting 'monoclinic'
loop_
_space_group_symop_operation_xyz
x,y,z
-x,y,-z
-x,-y,-z
x,-y,z
1/2+x,1/2+y,z
1/2-x,1/2+y,-z
1/2-x,1/2-y,-z
1/2+x,1/2-y,z
loop_
_atom_site_type_symbol
_atom_site_label
_atom_site_fract_x
_atom_site_fract_y
_atom_site_fract_z
Si Si1 0.603542 0.671519 0.284888
Si Si2 0.638639 0.069583 0.881907
Si Si3 0.761883 0.731185 0.620443
Si Si4 0.063829 0.568745 0.150510
Si Si5 0.665078 0.680522 0.973095
Si Si6 0.829617 0.867302 0.620309
Si Si7 0.554955 0.737742 0.827036
O O1 0.661923 0.615913 0.214902
O O2 0.392108 0.705436 0.359243
O O3 0.555203 0.646910 0.370832
O O4 0.803599 0.717968 0.196607
O O5 0.495209 0.076336 0.889741
O O6 0.724144 0.000000 0.849718
O O7 0.500000 0.088465 0.000000
O O8 0.748261 0.804818 0.627215
O O9 0.694665 0.706036 0.713921
O O10 0.000000 0.707829 0.500000
O O11 0.129244 0.500000 0.136298
O O12 0.867706 0.587419 0.280398
O O13 0.269348 0.610807 0.069284
O O14 0.874708 0.722399 0.876115
O O15 0.500000 0.703927 0.000000
O O16 0.552351 0.685204 0.086289
O O17 0.000000 0.898783 0.500000
#
# Coordination Sequence:
#
# PCOD8090914 Si02
#       7
#     8   8   8   8   8   8   8
#     4  10  19  34  53  79 105 138 169 220 259 312
#     4   9  18  32  54  79 103 135 176 220 261 306
#     4  10  20  33  52  80 111 134 172 213 265 315
#     4  10  20  37  52  76 108 136 182 222 257 312
#     4  11  21  35  51  78 109 143 173 214 266 316
#     4   9  19  35  52  78 105 137 179 214 265 308
#     4  10  21  34  52  80 105 141 175 209 265 318
#
# _framework density 17.62575
#
# number of rings (size 3 to 8) (size 9 to 14) (size 15 to 20)
#    0.000    2.143    4.286    0.857    2.000    6.286 
#    0.000    0.000    0.000    0.429    0.000    0.000 
#    0.000    0.000    0.000    0.000    0.000    0.000 
#
# Total GULP energy -347180.768750 kJ/mol
# GULP energy per Si atom -12399.313170 kJ/mol
# Density = 1.758563 g / cm^3
# Si number density = 17.625750 Si / 1000 Ang^3
#
#
#
# Elastic Constant Matrix: (Units=GPa)
#
#
# Indices 1 2 3 4 5 6 
#
# 1 72.2910 40.3259 52.8564 0.0070 -11.9291 0.0540
# 2 40.3259 76.0924 51.7974 0.3238 -1.1295 -0.0273
# 3 52.8564 51.7974 141.0472 0.3943 12.5721 0.0178
# 4 0.0070 0.3238 0.3943 18.0670 0.0050 4.5214
# 5 -11.9291 -1.1295 12.5721 0.0050 36.9101 -0.0459
# 6 0.0540 -0.0273 0.0178 4.5214 -0.0459 7.5670
#
#
#
# Elastic Compliance Matrix: (Units=1/GPa)
#
#
# Indices 1 2 3 4 5 6 
#
# 1 0.025763 -0.008372 -0.007529 0.000393 0.010634 -0.000367
# 2 -0.008372 0.020532 -0.004348 -0.000358 -0.000596 0.000355
# 3 -0.007529 -0.004348 0.012105 -0.000204 -0.006689 0.000091
# 4 0.000393 -0.000358 -0.000204 0.065095 0.000128 -0.038898
# 5 0.010634 -0.000596 -0.006689 0.000128 0.032790 0.000060
# 6 -0.000367 0.000355 0.000091 -0.038898 0.000060 0.155400
#
#
# Mechanical properties :
#
#
# Convention : Reuss Voigt Hill
#
# Bulk Modulus (GPa) = 55.86417 64.37667 60.12042
# Shear Modulus (GPa) = 13.96059 22.13887 18.04973
#
# Velocity S-wave (km/s) = 2.81740 3.54793 3.20356
# Velocity P-wave (km/s) = 6.50747 7.30666 6.91861
#
# Compressibility (1/GPa) = 0.01790056
#
# Stress axis : x y z
#
# Youngs Moduli (GPa) = 38.81505 48.70496 82.61119
#
# Poissons Ratio (x) = 0.40778 0.62197
# Poissons Ratio (y) = 0.32498 0.35923
# Poissons Ratio (z) = 0.29223 0.21179
#
# Static dielectric constant tensor:
#      x y z
#    x 3.113220 0.000140 0.173250 
#    y 0.000140 3.186620 0.000410 
#    z 0.173250 0.000410 3.468000 
# 
# 
# High freq. dielectric constant tensor:
#      x y z
#    x 1.667900 0.000000 0.015990 
#    y 0.000000 1.657730 0.000040 
#    z 0.015990 0.000040 1.688030 
# 
# From -- ./inp_files/337001.got.cif
#   From: 2010.06.25/outbox.cif.g09.slc.cpg/sg12_169_cif.got.tgz:337001.got - 2010.06.28 00:19:55.
