data_PCOD8090593
_publ_section_title
;
Structure prediction by ZEFSAII (Michael W. Deem and Ramdas Pophale) SiO2 
 PCOD8090593
Probable space group: C 2/M
;
_chemical_formula_sum "Si O2"
_cell_formula_units_Z 64
_cell_length_a 34.020818
_cell_length_b 8.880105
_cell_length_c 17.901971
_cell_angle_alpha 90.000000
_cell_angle_beta 141.950897
_cell_angle_gamma 90.000000
_cell_volume 3333.355606
_symmetry_space_group_name_H-M "C 2/M"
_symmetry_group_IT_number 12
_symmetry_cell_setting 'monoclinic'
loop_
_space_group_symop_operation_xyz
x,y,z
-x,y,-z
-x,-y,-z
x,-y,z
1/2+x,1/2+y,z
1/2-x,1/2+y,-z
1/2-x,1/2-y,-z
1/2+x,1/2-y,z
loop_
_atom_site_type_symbol
_atom_site_label
_atom_site_fract_x
_atom_site_fract_y
_atom_site_fract_z
Si Si1 0.766404 0.325447 0.634349
Si Si2 0.531903 0.175743 0.251329
Si Si3 0.723641 0.823387 0.179678
Si Si4 0.043811 0.675150 0.440178
Si Si5 0.586866 0.324827 0.741126
Si Si6 0.099485 0.175758 0.932844
Si Si7 0.842191 0.322327 0.283411
Si Si8 0.649237 0.324647 0.355335
O O1 0.784021 0.500000 0.649483
O O2 0.760088 0.280741 0.710967
O O3 0.699294 0.286142 0.495577
O O4 0.822362 0.226392 0.681553
O O5 0.554857 0.211571 0.369815
O O6 0.467777 0.265858 0.136733
O O7 0.585448 0.231212 0.274497
O O8 0.519022 0.000000 0.220311
O O9 0.773623 0.743426 0.200502
O O10 0.727368 0.000000 0.171263
O O11 0.653466 0.765855 0.056789
O O12 0.029755 0.500000 0.432902
O O13 0.106379 0.729583 0.577756
O O14 0.983877 0.765727 0.382974
O O15 0.589256 0.500000 0.726053
O O16 0.605147 0.289620 0.853565
O O17 0.638313 0.238966 0.768170
O O18 0.105866 0.000000 0.959632
O O19 0.836289 0.500000 0.270582
O O20 0.632458 0.500000 0.327556
#
# Coordination Sequence:
#
# PCOD8090593 Si02
#       8
#     8   8   8   8   8   8   8   8
#     4   9  20  37  56  82 115 146 175 214 265 318
#     4  10  19  34  57  82 110 144 181 220 265 318
#     4  11  23  39  58  79 106 141 182 225 269 317
#     4   9  19  34  53  80 112 144 177 217 268 322
#     4  10  21  36  55  79 107 141 180 224 272 319
#     4  10  22  40  58  77 105 141 183 228 271 317
#     4  11  22  35  54  80 110 143 179 221 269 323
#     4  10  19  33  57  87 116 144 175 213 260 317
#
# _framework density 19.199873
#
# number of rings (size 3 to 8) (size 9 to 14) (size 15 to 20)
#    0.000    2.000    0.000    3.375    0.000    6.500 
#    0.000    0.625    0.000    3.750    0.000    0.000 
#    0.000    0.000    0.000    0.000    0.000    0.000 
#
# Total GULP energy -396999.964087 kJ/mol
# GULP energy per Si atom -12406.248878 kJ/mol
# Density = 1.915617 g / cm^3
# Si number density = 19.199873 Si / 1000 Ang^3
#
#
#
# Elastic Constant Matrix: (Units=GPa)
#
#
# Indices 1 2 3 4 5 6 
#
# 1 101.3509 41.1569 24.3048 0.0000 22.3296 0.0000
# 2 41.1569 67.3214 25.7463 0.0000 1.7614 0.0000
# 3 24.3048 25.7463 64.4842 0.0000 12.6981 0.0000
# 4 0.0000 0.0000 0.0000 32.2900 0.0000 6.2962
# 5 22.3296 1.7614 12.6981 0.0000 18.0164 0.0000
# 6 0.0000 0.0000 0.0000 6.2962 0.0000 37.3168
#
#
#
# Elastic Compliance Matrix: (Units=1/GPa)
#
#
# Indices 1 2 3 4 5 6 
#
# 1 0.019854 -0.012403 0.002410 0.000000 -0.025093 0.000000
# 2 -0.012403 0.025499 -0.009338 0.000000 0.019461 0.000000
# 3 0.002410 -0.009338 0.021756 0.000000 -0.017408 0.000000
# 4 0.000000 0.000000 0.000000 0.032023 0.000000 -0.005403
# 5 -0.025093 0.019461 -0.017408 0.000000 0.096971 0.000000
# 6 0.000000 0.000000 0.000000 -0.005403 0.000000 0.027709
#
#
# Mechanical properties :
#
#
# Convention : Reuss Voigt Hill
#
# Bulk Modulus (GPa) = 35.15385 46.17471 40.66428
# Shear Modulus (GPa) = 18.38541 26.98789 22.68665
#
# Velocity S-wave (km/s) = 3.09784 3.75324 3.44118
# Velocity P-wave (km/s) = 5.58074 6.54860 6.08394
#
# Compressibility (1/GPa) = 0.02844639
#
# Stress axis : x y z
#
# Youngs Moduli (GPa) = 50.36842 39.21782 45.96531
#
# Poissons Ratio (x) = 0.48641 -0.11078
# Poissons Ratio (y) = 0.62471 0.42923
# Poissons Ratio (z) = -0.12140 0.36622
#
# Static dielectric constant tensor:
#      x y z
#    x 3.476100 0.000000 -0.003000 
#    y 0.000000 3.539250 0.000000 
#    z -0.003000 0.000000 3.439800 
# 
# 
# High freq. dielectric constant tensor:
#      x y z
#    x 1.749510 0.000000 0.007300 
#    y 0.000000 1.756950 0.000000 
#    z 0.007300 0.000000 1.736600 
# 
# From -- ./inp_files/295697.got.cif
#   From: 2010.06.25/outbox.cif.g09.slc.cpg/sg12_148_cif.got.tgz:295697.got - 2010.06.28 00:19:55.
