data_PCOD8090569
_publ_section_title
;
Structure prediction by ZEFSAII (Michael W. Deem and Ramdas Pophale) SiO2 
 PCOD8090569
Probable space group: C 2/M
;
_chemical_formula_sum "Si O2"
_cell_formula_units_Z 56
_cell_length_a 26.889608
_cell_length_b 9.545017
_cell_length_c 11.066693
_cell_angle_alpha 90.000000
_cell_angle_beta 82.825344
_cell_angle_gamma 90.000000
_cell_volume 2818.156779
_symmetry_space_group_name_H-M "C 2/M"
_symmetry_group_IT_number 12
_symmetry_cell_setting 'monoclinic'
loop_
_space_group_symop_operation_xyz
x,y,z
-x,y,-z
-x,-y,-z
x,-y,z
1/2+x,1/2+y,z
1/2-x,1/2+y,-z
1/2-x,1/2-y,-z
1/2+x,1/2-y,z
loop_
_atom_site_type_symbol
_atom_site_label
_atom_site_fract_x
_atom_site_fract_y
_atom_site_fract_z
Si Si1 0.565032 0.159024 0.703521
Si Si2 0.449303 0.345273 0.071632
Si Si3 0.870015 0.342500 0.531054
Si Si4 0.544546 0.842874 0.312710
Si Si5 0.775113 0.165827 0.880794
Si Si6 0.612143 0.653901 0.137131
Si Si7 0.276058 0.333008 0.604696
O O1 0.572149 0.253993 0.815716
O O2 0.615996 0.182614 0.612323
O O3 0.513515 0.198038 0.647857
O O4 0.562245 0.000000 0.748344
O O5 0.463922 0.500000 0.115178
O O6 0.500000 0.277718 0.000000
O O7 0.401807 0.355011 0.998413
O O8 0.847615 0.500000 0.557875
O O9 0.924367 0.327237 0.574573
O O10 0.832965 0.223294 0.590440
O O11 0.568364 0.745151 0.205643
O O12 0.548575 0.000000 0.261098
O O13 0.832638 0.218136 0.863368
O O14 0.754158 0.195737 0.748579
O O15 0.770692 0.000000 0.910362
O O16 0.750000 0.250000 0.000000
O O17 0.611673 0.500000 0.197777
O O18 0.274646 0.500000 0.578578
O O19 0.250000 0.250000 0.500000
#
# Coordination Sequence:
#
# PCOD8090569 Si02
#       7
#     8   8   8   8   8   8   8
#     4  10  21  35  54  84 122 158 198 244 288 344
#     4  10  20  34  54  79 113 155 195 239 292 347
#     4  10  21  38  59  86 120 156 197 245 296 352
#     4  10  19  33  57  85 114 153 195 235 284 341
#     4  10  23  42  65  91 120 153 198 253 308 367
#     4  10  20  37  58  82 113 148 189 240 291 344
#     4  11  24  43  67  94 124 159 202 254 312 372
#
# _framework density 19.871144000000001
#
# number of rings (size 3 to 8) (size 9 to 14) (size 15 to 20)
#    0.000    1.857    2.857    0.857    0.000    6.000 
#    0.000    2.857    0.000    2.571    0.000    0.000 
#    0.000    0.000    0.000    0.000    0.000    0.000 
#
# Total GULP energy -346886.960324 kJ/mol
# GULP energy per Si atom -12388.820012 kJ/mol
# Density = 1.982592 g / cm^3
# Si number density = 19.871144 Si / 1000 Ang^3
#
#
#
# Elastic Constant Matrix: (Units=GPa)
#
#
# Indices 1 2 3 4 5 6 
#
# 1 59.3565 25.7871 25.8032 0.0000 2.4678 0.0000
# 2 25.7871 88.2975 63.6472 0.0000 -4.9948 0.0000
# 3 25.8032 63.6472 117.3647 0.0000 4.7894 0.0000
# 4 0.0000 0.0000 0.0000 -243.9954 0.0000 178.8387
# 5 2.4678 -4.9948 4.7894 0.0000 22.4667 0.0000
# 6 0.0000 0.0000 0.0000 178.8387 0.0000 -84.2962
#
#
#
# Elastic Compliance Matrix: (Units=1/GPa)
#
#
# Indices 1 2 3 4 5 6 
#
# 1 0.019743 -0.004735 -0.001656 0.000000 -0.002868 0.000000
# 2 -0.004735 0.020669 -0.010468 0.000000 0.007347 0.000000
# 3 -0.001656 -0.010468 0.014777 0.000000 -0.005296 0.000000
# 4 0.000000 0.000000 0.000000 0.007384 0.000000 0.015666
# 5 -0.002868 0.007347 -0.005296 0.000000 0.047588 0.000000
# 6 0.000000 0.000000 0.000000 0.015666 0.000000 0.021374
#
#
# Mechanical properties :
#
#
# Convention : Reuss Voigt Hill
#
# Bulk Modulus (GPa) = 46.57002 55.05487 50.81244
# Shear Modulus (GPa) = 29.00051 -51.17957 -11.08953
#
# Velocity S-wave (km/s) = 3.82439 -5.08052 -2.36492
# Velocity P-wave (km/s) = 6.55654 2.57865 4.26255
#
# Compressibility (1/GPa) = 0.02147304
#
# Stress axis : x y z
#
# Youngs Moduli (GPa) = 50.64982 48.38133 67.67101
#
# Poissons Ratio (x) = 0.22906 0.11207
# Poissons Ratio (y) = 0.23980 0.70837
# Poissons Ratio (z) = 0.08388 0.50645
#
# Static dielectric constant tensor:
#      x y z
#    x 3.618320 0.000000 0.157490 
#    y 0.000000 3.687990 0.000000 
#    z 0.157490 0.000000 3.695450 
# 
# 
# High freq. dielectric constant tensor:
#      x y z
#    x 1.772390 0.000000 0.009300 
#    y 0.000000 1.770320 0.000000 
#    z 0.009300 0.000000 1.771730 
# 
# From -- ./inp_files/180808.got.cif
#   From: 2010.06.25/outbox.cif.g09.slc.cpg/sg12_91_cif.got.tgz:180808.got - 2010.06.28 00:19:55.
