data_PCOD8090240
_publ_section_title
;
Structure prediction by ZEFSAII (Michael W. Deem and Ramdas Pophale) SiO2 
 PCOD8090240
Probable space group: C 2/M
;
_chemical_formula_sum "Si O2"
_cell_formula_units_Z 64
_cell_length_a 23.910768
_cell_length_b 15.631952
_cell_length_c 17.481502
_cell_angle_alpha 90.000000
_cell_angle_beta 149.414434
_cell_angle_gamma 90.000000
_cell_volume 3324.708311
_symmetry_space_group_name_H-M "C 2/M"
_symmetry_group_IT_number 12
_symmetry_cell_setting 'monoclinic'
loop_
_space_group_symop_operation_xyz
x,y,z
-x,y,-z
-x,-y,-z
x,-y,z
1/2+x,1/2+y,z
1/2-x,1/2+y,-z
1/2-x,1/2-y,-z
1/2+x,1/2-y,z
loop_
_atom_site_type_symbol
_atom_site_label
_atom_site_fract_x
_atom_site_fract_y
_atom_site_fract_z
Si Si1 0.858432 0.246973 0.177800
Si Si2 0.755763 0.405805 0.315243
Si Si3 0.641819 0.640322 0.333742
Si Si4 0.423720 0.596416 0.156862
Si Si5 0.798643 0.794330 0.890304
Si Si6 0.647709 0.095967 0.341192
Si Si7 0.487182 0.784744 0.898145
Si Si8 0.981459 0.403957 0.656815
O O1 0.924844 0.160718 0.232393
O O2 0.814417 0.249121 0.214027
O O3 0.926995 0.332773 0.246419
O O4 0.750000 0.250000 0.000000
O O5 0.744614 0.500000 0.264609
O O6 0.685153 0.409622 0.310075
O O7 0.713746 0.333556 0.208394
O O8 0.882753 0.385687 0.481763
O O9 0.543635 0.590358 0.259844
O O10 0.742196 0.651333 0.512179
O O11 0.596713 0.730430 0.252256
O O12 0.390991 0.500000 0.144155
O O13 0.335565 0.630092 0.991163
O O14 0.892493 0.720954 0.998280
O O15 0.574994 0.124195 0.181397
O O16 0.562592 0.103214 0.309828
O O17 0.688853 0.000000 0.375750
O O18 0.500000 0.753904 0.000000
O O19 0.029259 0.500000 0.698970
#
# Coordination Sequence:
#
# PCOD8090240 Si02
#       8
#     8   8   8   8   8   8   8   8
#     4  10  21  36  52  75 110 146 190 233 272 331
#     4  10  19  33  55  85 117 144 176 221 291 354
#     4  10  19  35  57  86 115 146 183 237 290 347
#     4  10  20  34  55  82 111 146 192 233 278 332
#     4  10  21  36  51  79 114 149 182 229 279 341
#     4  10  20  35  57  82 112 146 190 240 283 335
#     4  11  21  36  55  82 113 152 190 230 290 346
#     4   9  19  35  56  83 110 143 185 231 282 340
#
# _framework density 19.249808999999999
#
# number of rings (size 3 to 8) (size 9 to 14) (size 15 to 20)
#    0.000    2.000    1.250    4.875    0.000    4.250 
#    0.000    3.750    0.000    0.000    0.000    1.750 
#    0.000    0.000    0.000    0.000    0.000    0.000 
#
# Total GULP energy -396507.031108 kJ/mol
# GULP energy per Si atom -12390.844722 kJ/mol
# Density = 1.920600 g / cm^3
# Si number density = 19.249809 Si / 1000 Ang^3
#
#
#
# Elastic Constant Matrix: (Units=GPa)
#
#
# Indices 1 2 3 4 5 6 
#
# 1 79.7376 50.5223 35.5136 0.0000 17.5008 0.0000
# 2 50.5223 90.4700 51.0843 0.0000 9.9267 0.0000
# 3 35.5136 51.0843 89.2002 0.0000 9.9014 0.0000
# 4 0.0000 0.0000 0.0000 23.4908 0.0000 -1.2057
# 5 17.5008 9.9267 9.9014 0.0000 25.6710 0.0000
# 6 0.0000 0.0000 0.0000 -1.2057 0.0000 14.3694
#
#
#
# Elastic Compliance Matrix: (Units=1/GPa)
#
#
# Indices 1 2 3 4 5 6 
#
# 1 0.022073 -0.010159 -0.001813 0.000000 -0.010420 0.000000
# 2 -0.010159 0.021211 -0.008317 0.000000 0.001932 0.000000
# 3 -0.001813 -0.008317 0.016926 0.000000 -0.002076 0.000000
# 4 0.000000 0.000000 0.000000 0.042754 0.000000 0.003587
# 5 -0.010420 0.001932 -0.002076 0.000000 0.046112 0.000000
# 6 0.000000 0.000000 0.000000 0.003587 0.000000 0.069893
#
#
# Mechanical properties :
#
#
# Convention : Reuss Voigt Hill
#
# Bulk Modulus (GPa) = 50.93983 59.29422 55.11703
# Shear Modulus (GPa) = 18.79055 20.85876 19.82465
#
# Velocity S-wave (km/s) = 3.12772 3.29535 3.21263
# Velocity P-wave (km/s) = 6.28995 6.73413 6.51582
#
# Compressibility (1/GPa) = 0.01963100
#
# Stress axis : x y z
#
# Youngs Moduli (GPa) = 45.30521 47.14531 59.07988
#
# Poissons Ratio (x) = 0.47896 0.10712
# Poissons Ratio (y) = 0.46026 0.49137
# Poissons Ratio (z) = 0.08214 0.39211
#
# Static dielectric constant tensor:
#      x y z
#    x 3.740330 0.000000 0.184360 
#    y 0.000000 3.612570 0.000000 
#    z 0.184360 0.000000 3.537880 
# 
# 
# High freq. dielectric constant tensor:
#      x y z
#    x 1.735060 0.000000 0.015820 
#    y 0.000000 1.740120 0.000000 
#    z 0.015820 0.000000 1.744010 
# 
# From -- ./inp_files/290146.got.cif
#   From: 2010.06.25/outbox.cif.g09.slc.cpg/sg12_146_cif.got.tgz:290146.got - 2010.06.28 00:19:55.
