data_PCOD8090169
_publ_section_title
;
Structure prediction by ZEFSAII (Michael W. Deem and Ramdas Pophale) SiO2 
 PCOD8090169
Probable space group: C 2/M
;
_chemical_formula_sum "Si O2"
_cell_formula_units_Z 40
_cell_length_a 22.208728
_cell_length_b 13.370684
_cell_length_c 8.946025
_cell_angle_alpha 90.000000
_cell_angle_beta 132.145713
_cell_angle_gamma 90.000000
_cell_volume 1969.626350
_symmetry_space_group_name_H-M "C 2/M"
_symmetry_group_IT_number 12
_symmetry_cell_setting 'monoclinic'
loop_
_space_group_symop_operation_xyz
x,y,z
-x,y,-z
-x,-y,-z
x,-y,z
1/2+x,1/2+y,z
1/2-x,1/2+y,-z
1/2-x,1/2-y,-z
1/2+x,1/2-y,z
loop_
_atom_site_type_symbol
_atom_site_label
_atom_site_fract_x
_atom_site_fract_y
_atom_site_fract_z
Si Si1 0.576869 0.215467 0.051576
Si Si2 0.110581 0.111767 0.335570
Si Si3 0.465961 0.665430 0.285560
Si Si4 0.243035 0.689091 0.225495
Si Si5 0.286238 0.390262 0.982580
O O1 0.589437 0.322331 0.155837
O O2 0.662343 0.156435 0.186382
O O3 0.500000 0.157274 0.000000
O O4 0.551857 0.234732 0.838702
O O5 0.180808 0.167042 0.544519
O O6 0.032517 0.098620 0.311673
O O7 0.137177 0.000000 0.329282
O O8 0.500000 0.702058 0.500000
O O9 0.382885 0.605055 0.169489
O O10 0.244234 0.630114 0.072157
O O11 0.239932 0.808359 0.184463
O O12 0.257580 0.500000 0.879740
#
# Coordination Sequence:
#
# PCOD8090169 Si02
#       5
#     8   8   8   8   8
#     4   9  21  36  51  76 110 147 180 218 263 314
#     4  11  21  34  55  83 114 142 173 216 270 327
#     4  10  19  33  55  83 111 138 170 215 277 335
#     4  10  20  34  54  80 108 145 180 217 265 321
#     4  10  20  34  54  84 114 138 172 222 272 319
#
# _framework density 20.308420999999999
#
# number of rings (size 3 to 8) (size 9 to 14) (size 15 to 20)
#    0.000    2.000    2.000    1.800    0.000    7.600 
#    0.000    0.000    0.000    2.400    0.000   54.600 
#    0.000    0.000    0.000    0.000    0.000    0.000 
#
# Total GULP energy -247851.070977 kJ/mol
# GULP energy per Si atom -12392.553549 kJ/mol
# Density = 2.026220 g / cm^3
# Si number density = 20.308421 Si / 1000 Ang^3
#
#
#
# Elastic Constant Matrix: (Units=GPa)
#
#
# Indices 1 2 3 4 5 6 
#
# 1 149.5511 24.3963 19.5196 0.0000 23.6672 0.0000
# 2 24.3963 59.8878 22.7321 0.0000 17.5306 0.0000
# 3 19.5196 22.7321 89.1756 0.0000 3.8477 0.0000
# 4 0.0000 0.0000 0.0000 13.7877 0.0000 -4.0625
# 5 23.6672 17.5306 3.8477 0.0000 36.9607 0.0000
# 6 0.0000 0.0000 0.0000 -4.0625 0.0000 5.7234
#
#
#
# Elastic Compliance Matrix: (Units=1/GPa)
#
#
# Indices 1 2 3 4 5 6 
#
# 1 0.007733 -0.001517 -0.001128 0.000000 -0.004114 0.000000
# 2 -0.001517 0.021734 -0.004827 0.000000 -0.008835 0.000000
# 3 -0.001128 -0.004827 0.012618 0.000000 0.001698 0.000000
# 4 0.000000 0.000000 0.000000 0.091708 0.000000 0.065094
# 5 -0.004114 -0.008835 0.001698 0.000000 0.033704 0.000000
# 6 0.000000 0.000000 0.000000 0.065094 0.000000 0.220924
#
#
# Mechanical properties :
#
#
# Convention : Reuss Voigt Hill
#
# Bulk Modulus (GPa) = 36.84660 47.99004 42.41832
# Shear Modulus (GPa) = 12.12377 26.75880 19.44128
#
# Velocity S-wave (km/s) = 2.44597 3.63384 3.09739
# Velocity P-wave (km/s) = 5.11468 6.42560 5.80725
#
# Compressibility (1/GPa) = 0.02713954
#
# Stress axis : x y z
#
# Youngs Moduli (GPa) = 129.32304 46.01012 79.25186
#
# Poissons Ratio (x) = 0.06981 0.08942
# Poissons Ratio (y) = 0.19623 0.38255
# Poissons Ratio (z) = 0.14591 0.22209
#
# Static dielectric constant tensor:
#      x y z
#    x 4.236250 0.000000 0.126630 
#    y 0.000000 3.226540 0.000000 
#    z 0.126630 0.000000 3.647250 
# 
# 
# High freq. dielectric constant tensor:
#      x y z
#    x 1.818140 0.000000 0.002100 
#    y 0.000000 1.738610 0.000000 
#    z 0.002100 0.000000 1.791210 
# 
# From -- ./inp_files/85523.got.cif
#   From: 2010.06.25/outbox.cif.g09.slc.cpg/sg12_43_cif.got.tgz:85523.got - 2010.06.28 00:19:55.
