data_PCOD8090007
_publ_section_title
;
Structure prediction by ZEFSAII (Michael W. Deem and Ramdas Pophale) SiO2 
 PCOD8090007
Probable space group: C 2/M
;
_chemical_formula_sum "Si O2"
_cell_formula_units_Z 56
_cell_length_a 15.131354
_cell_length_b 9.421384
_cell_length_c 22.623053
_cell_angle_alpha 90.000000
_cell_angle_beta 68.961595
_cell_angle_gamma 90.000000
_cell_volume 3010.118487
_symmetry_space_group_name_H-M "C 2/M"
_symmetry_group_IT_number 12
_symmetry_cell_setting 'monoclinic'
loop_
_space_group_symop_operation_xyz
x,y,z
-x,y,-z
-x,-y,-z
x,-y,z
1/2+x,1/2+y,z
1/2-x,1/2+y,-z
1/2-x,1/2-y,-z
1/2+x,1/2-y,z
loop_
_atom_site_type_symbol
_atom_site_label
_atom_site_fract_x
_atom_site_fract_y
_atom_site_fract_z
Si Si1 0.396891 0.665118 0.501516
Si Si2 0.641137 0.332365 0.937718
Si Si3 0.623284 0.166574 0.292714
Si Si4 0.766666 0.837035 0.640397
Si Si5 0.083022 0.663691 0.617935
Si Si6 0.345418 0.167654 0.850198
Si Si7 0.046420 0.168184 0.080080
O O1 0.500000 0.705356 0.500000
O O2 0.387097 0.500000 0.488914
O O3 0.322510 0.713974 0.568753
O O4 0.376153 0.750173 0.446978
O O5 0.642935 0.500000 0.935072
O O6 0.742630 0.271450 0.893882
O O7 0.559685 0.282341 0.911762
O O8 0.616773 0.284386 0.010203
O O9 0.704332 0.243600 0.310673
O O10 0.519723 0.220247 0.337720
O O11 0.637918 0.207806 0.221471
O O12 0.634659 0.000000 0.300015
O O13 0.654844 0.816685 0.655656
O O14 0.792324 0.000000 0.648182
O O15 0.078054 0.500000 0.600084
O O16 0.425558 0.247574 0.868080
O O17 0.354171 0.000000 0.859262
O O18 0.052014 0.000000 0.090185
#
# Coordination Sequence:
#
# PCOD8090007 Si02
#       7
#     8   8   8   8   8   8   8
#     4  10  19  33  55  80 103 126 161 211 257 297
#     4   8  16  32  53  75 103 134 164 204 253 300
#     4  10  22  37  51  72 103 138 172 204 244 299
#     4  10  21  37  55  75 101 132 167 209 254 297
#     4  10  21  36  54  76 102 133 167 205 252 302
#     4  10  20  34  51  73 104 137 167 205 252 295
#     4   9  17  32  54  78 100 129 170 209 247 297
#
# _framework density 18.603919000000001
#
# number of rings (size 3 to 8) (size 9 to 14) (size 15 to 20)
#    0.000    2.429    1.429    1.714    0.000    3.143 
#    0.000    2.143    0.000    0.000    0.000    0.000 
#    0.000    0.000    0.000    0.000    0.000    0.000 
#
# Total GULP energy -347240.444492 kJ/mol
# GULP energy per Si atom -12401.444446 kJ/mol
# Density = 1.856158 g / cm^3
# Si number density = 18.603919 Si / 1000 Ang^3
#
#
#
# Elastic Constant Matrix: (Units=GPa)
#
#
# Indices 1 2 3 4 5 6 
#
# 1 91.7751 34.3281 34.4132 0.0000 21.9805 0.0000
# 2 34.3281 41.7561 33.8782 0.0000 18.2697 0.0000
# 3 34.4132 33.8782 79.3505 0.0000 24.3279 0.0000
# 4 0.0000 0.0000 0.0000 23.0911 0.0000 8.6281
# 5 21.9805 18.2697 24.3279 0.0000 29.3739 0.0000
# 6 0.0000 0.0000 0.0000 8.6281 0.0000 31.3118
#
#
#
# Elastic Compliance Matrix: (Units=1/GPa)
#
#
# Indices 1 2 3 4 5 6 
#
# 1 0.016384 -0.010400 -0.001192 0.000000 -0.004804 0.000000
# 2 -0.010400 0.047491 -0.012191 0.000000 -0.011658 0.000000
# 3 -0.001192 -0.012191 0.021078 0.000000 -0.008983 0.000000
# 4 0.000000 0.000000 0.000000 0.048278 0.000000 -0.013303
# 5 -0.004804 -0.011658 -0.008983 0.000000 0.052329 0.000000
# 6 0.000000 0.000000 0.000000 -0.013303 0.000000 0.035603
#
#
# Mechanical properties :
#
#
# Convention : Reuss Voigt Hill
#
# Bulk Modulus (GPa) = 26.74816 46.45785 36.60300
# Shear Modulus (GPa) = 17.78147 24.10618 20.94383
#
# Velocity S-wave (km/s) = 3.09494 3.60357 3.35890
# Velocity P-wave (km/s) = 5.21349 6.50696 5.89581
#
# Compressibility (1/GPa) = 0.03738575
#
# Stress axis : x y z
#
# Youngs Moduli (GPa) = 61.03500 21.05677 47.44217
#
# Poissons Ratio (x) = 0.21899 0.05657
# Poissons Ratio (y) = 0.63477 0.57837
# Poissons Ratio (z) = 0.07278 0.25671
#
# Static dielectric constant tensor:
#      x y z
#    x 3.591760 0.000000 -0.213970 
#    y 0.000000 3.134020 0.000000 
#    z -0.213970 0.000000 3.449710 
# 
# 
# High freq. dielectric constant tensor:
#      x y z
#    x 1.734330 0.000000 -0.002520 
#    y 0.000000 1.698290 0.000000 
#    z -0.002520 0.000000 1.716680 
# 
# From -- ./inp_files/309515.got.cif
#   From: 2010.06.25/outbox.cif.g09.slc.cpg/sg12_155_cif.got.tgz:309515.got - 2010.06.28 00:19:55.
