data_PCOD8090001
_publ_section_title
;
Structure prediction by ZEFSAII (Michael W. Deem and Ramdas Pophale) SiO2 
 PCOD8090001
Probable space group: C 2/M
;
_chemical_formula_sum "Si O2"
_cell_formula_units_Z 56
_cell_length_a 19.127151
_cell_length_b 8.760495
_cell_length_c 26.859339
_cell_angle_alpha 90.000000
_cell_angle_beta 138.819420
_cell_angle_gamma 90.000000
_cell_volume 2963.376029
_symmetry_space_group_name_H-M "C 2/M"
_symmetry_group_IT_number 12
_symmetry_cell_setting 'monoclinic'
loop_
_space_group_symop_operation_xyz
x,y,z
-x,y,-z
-x,-y,-z
x,-y,z
1/2+x,1/2+y,z
1/2-x,1/2+y,-z
1/2-x,1/2-y,-z
1/2+x,1/2-y,z
loop_
_atom_site_type_symbol
_atom_site_label
_atom_site_fract_x
_atom_site_fract_y
_atom_site_fract_z
Si Si1 0.272273 0.166696 0.788508
Si Si2 0.815468 0.821358 0.718319
Si Si3 0.573879 0.819202 0.582599
Si Si4 0.279749 0.179579 0.069045
Si Si5 0.113398 0.669190 0.048404
Si Si6 0.519487 0.678367 0.766115
Si Si7 0.061193 0.676106 0.685809
O O1 0.348535 0.228187 0.785434
O O2 0.336291 0.143192 0.871842
O O3 0.186726 0.298135 0.752820
O O4 0.222963 0.000000 0.747531
O O5 0.696039 0.765688 0.639500
O O6 0.902694 0.780041 0.723744
O O7 0.816806 0.000000 0.730699
O O8 0.500000 0.745763 0.500000
O O9 0.525078 0.771392 0.610653
O O10 0.571341 0.000000 0.577622
O O11 0.180627 0.215992 0.051158
O O12 0.388387 0.242380 0.151950
O O13 0.292975 0.000000 0.070245
O O14 0.250000 0.250000 0.000000
O O15 0.103218 0.500000 0.017441
O O16 0.000000 0.744014 0.000000
O O17 0.544761 0.500000 0.782315
O O18 0.511986 0.726655 0.704305
O O19 0.034950 0.500000 0.681868
#
# Coordination Sequence:
#
# PCOD8090001 Si02
#       7
#     8   8   8   8   8   8   8
#     4  10  19  33  55  79 107 142 180 230 280 326
#     4   9  20  35  55  82 112 146 188 230 275 333
#     4   8  15  32  58  85 112 144 186 232 276 329
#     4  12  26  42  60  82 112 150 191 236 286 336
#     4  10  22  39  57  81 111 142 183 231 282 334
#     4  11  22  38  57  81 115 151 189 234 281 332
#     4  10  19  33  56  83 109 145 188 227 274 333
#
# _framework density 18.897366999999999
#
# number of rings (size 3 to 8) (size 9 to 14) (size 15 to 20)
#    0.000    2.000    1.429    3.429    2.000    2.000 
#    0.000    0.714    0.000   10.714    0.000    0.000 
#    0.000    0.000    0.000    0.000    0.000    0.000 
#
# Total GULP energy -346932.133032 kJ/mol
# GULP energy per Si atom -12390.433323 kJ/mol
# Density = 1.885436 g / cm^3
# Si number density = 18.897367 Si / 1000 Ang^3
#
#
#
# Elastic Constant Matrix: (Units=GPa)
#
#
# Indices 1 2 3 4 5 6 
#
# 1 154.9953 52.5163 63.0738 0.0000 -10.1687 0.0000
# 2 52.5163 78.5856 35.2046 0.0000 -6.2386 0.0003
# 3 63.0738 35.2046 87.3041 0.0000 -17.5052 0.0000
# 4 0.0000 0.0000 0.0000 16.8105 0.0000 -3.2781
# 5 -10.1687 -6.2386 -17.5052 0.0000 27.2768 0.0000
# 6 0.0000 0.0003 0.0000 -3.2781 0.0000 46.9724
#
#
#
# Elastic Compliance Matrix: (Units=1/GPa)
#
#
# Indices 1 2 3 4 5 6 
#
# 1 0.010220 -0.004287 -0.005839 0.000000 -0.000918 0.000000
# 2 -0.004287 0.017335 -0.003924 0.000000 -0.000151 0.000000
# 3 -0.005839 -0.003924 0.019096 0.000000 0.009181 0.000000
# 4 0.000000 0.000000 0.000000 0.060307 0.000000 0.004209
# 5 -0.000918 -0.000151 0.009181 0.000000 0.042176 0.000000
# 6 0.000000 0.000000 0.000000 0.004209 0.000000 0.021583
#
#
# Mechanical properties :
#
#
# Convention : Reuss Voigt Hill
#
# Bulk Modulus (GPa) = 53.90182 69.16381 61.53282
# Shear Modulus (GPa) = 24.39009 29.55130 26.97069
#
# Velocity S-wave (km/s) = 3.59647 3.95875 3.78195
# Velocity P-wave (km/s) = 6.76990 7.58781 7.19049
#
# Compressibility (1/GPa) = 0.01855225
#
# Stress axis : x y z
#
# Youngs Moduli (GPa) = 97.84460 57.68520 52.36787
#
# Poissons Ratio (x) = 0.24729 0.30578
# Poissons Ratio (y) = 0.41946 0.20547
# Poissons Ratio (z) = 0.57132 0.22633
#
# Static dielectric constant tensor:
#      x y z
#    x 3.702350 0.000000 -0.204410 
#    y 0.000000 3.146520 0.000000 
#    z -0.204410 0.000000 3.627480 
# 
# 
# High freq. dielectric constant tensor:
#      x y z
#    x 1.741710 0.000000 -0.011670 
#    y 0.000000 1.729330 0.000000 
#    z -0.011670 0.000000 1.718310 
# 
# From -- ./inp_files/280190.got.cif
#   From: 2010.06.25/outbox.cif.g09.slc.cpg/sg12_141_cif.got.tgz:280190.got - 2010.06.28 00:19:55.
