data_PCOD8090741
_publ_section_title
;
Structure prediction by ZEFSAII (Michael W. Deem and Ramdas Pophale) SiO2 
 PCOD8090741
Probable space group: C 2/M
;
_chemical_formula_sum "Si O2"
_cell_formula_units_Z 56
_cell_length_a 20.153050
_cell_length_b 8.656120
_cell_length_c 30.543070
_cell_angle_alpha 90.000000
_cell_angle_beta 32.711539
_cell_angle_gamma 90.000000
_cell_volume 2879.386352
_symmetry_space_group_name_H-M "C 2/M"
_symmetry_group_IT_number 12
_symmetry_cell_setting 'monoclinic'
loop_
_space_group_symop_operation_xyz
x,y,z
-x,y,-z
-x,-y,-z
x,-y,z
1/2+x,1/2+y,z
1/2-x,1/2+y,-z
1/2-x,1/2-y,-z
1/2+x,1/2-y,z
loop_
_atom_site_type_symbol
_atom_site_label
_atom_site_fract_x
_atom_site_fract_y
_atom_site_fract_z
Si Si1 0.326934 0.822160 0.743198
Si Si2 0.074559 0.819702 0.001384
Si Si3 0.922701 0.820733 0.250454
Si Si4 0.089357 0.679202 0.837325
Si Si5 0.818047 0.180795 0.586945
Si Si6 0.029330 0.678718 0.421278
Si Si7 0.354623 0.178554 0.826407
O O1 0.211395 0.715092 0.796994
O O2 0.437263 0.792289 0.647843
O O3 0.377968 0.780544 0.762654
O O4 0.281580 0.000000 0.767255
O O5 0.029023 0.723310 0.068327
O O6 0.052385 0.000000 0.022749
O O7 0.216249 0.779615 0.915975
O O8 0.000000 0.766708 0.000000
O O9 0.910535 0.777431 0.206720
O O10 0.823783 0.729867 0.334963
O O11 0.057891 0.782363 0.192521
O O12 0.894968 0.000000 0.270804
O O13 0.084500 0.500000 0.827584
O O14 0.890628 0.264898 0.507133
O O15 0.876465 0.225511 0.601172
O O16 0.829404 0.000000 0.573216
O O17 0.042583 0.500000 0.426711
O O18 0.383251 0.000000 0.820093
#
# Coordination Sequence:
#
# PCOD8090741 Si02
#       7
#     8   8   8   8   8   8   8
#     4  10  20  38  63  90 121 158 199 243 296 358
#     4  10  20  39  65  90 120 159 199 243 299 357
#     4  12  25  42  61  85 121 161 203 248 304 363
#     4  12  24  37  61  91 122 156 201 251 296 352
#     4  11  21  35  57  87 122 157 197 250 300 349
#     4  10  19  33  59  91 121 157 198 242 294 357
#     4  10  22  41  64  89 120 158 199 244 301 361
#
# _framework density 19.448588000000001
#
# number of rings (size 3 to 8) (size 9 to 14) (size 15 to 20)
#    0.000    1.286    2.857    5.143    0.000    2.571 
#    0.000    0.714    0.000    0.000    0.000    0.000 
#    0.000    0.000    0.000    0.000    0.000    0.000 
#
# Total GULP energy -347351.703264 kJ/mol
# GULP energy per Si atom -12405.417974 kJ/mol
# Density = 1.940432 g / cm^3
# Si number density = 19.448588 Si / 1000 Ang^3
#
#
#
# Elastic Constant Matrix: (Units=GPa)
#
#
# Indices 1 2 3 4 5 6 
#
# 1 53.8545 15.2816 22.3921 0.0295 -9.9448 0.0993
# 2 15.2816 75.3277 24.8126 0.0926 -1.1252 0.0635
# 3 22.3921 24.8126 118.0662 -0.0043 -0.1561 0.0031
# 4 0.0295 0.0926 -0.0043 24.3780 -0.0034 -9.9697
# 5 -9.9448 -1.1252 -0.1561 -0.0034 28.9372 0.0057
# 6 0.0993 0.0635 0.0031 -9.9697 0.0057 22.7817
#
#
#
# Elastic Compliance Matrix: (Units=1/GPa)
#
#
# Indices 1 2 3 4 5 6 
#
# 1 0.022359 -0.003255 -0.003547 -0.000062 0.007538 -0.000117
# 2 -0.003255 0.014745 -0.002482 -0.000077 -0.000559 -0.000060
# 3 -0.003547 -0.002482 0.009662 0.000029 -0.001263 0.000034
# 4 -0.000062 -0.000077 0.000029 0.049963 -0.000023 0.021865
# 5 0.007538 -0.000559 -0.001263 -0.000023 0.037120 -0.000050
# 6 -0.000117 -0.000060 0.000034 0.021865 -0.000050 0.053464
#
#
# Mechanical properties :
#
#
# Convention : Reuss Voigt Hill
#
# Bulk Modulus (GPa) = 35.46203 41.35789 38.40996
# Shear Modulus (GPa) = 23.22549 27.53686 25.38118
#
# Velocity S-wave (km/s) = 3.45947 3.76690 3.61645
# Velocity P-wave (km/s) = 5.85069 6.34277 6.10169
#
# Compressibility (1/GPa) = 0.02819918
#
# Stress axis : x y z
#
# Youngs Moduli (GPa) = 44.72456 67.81914 103.49360
#
# Poissons Ratio (x) = 0.22075 0.36704
# Poissons Ratio (y) = 0.14558 0.25689
# Poissons Ratio (z) = 0.15862 0.16834
#
# Static dielectric constant tensor:
#      x y z
#    x 3.296560 0.000010 0.059800 
#    y 0.000010 3.507710 0.000030 
#    z 0.059800 0.000030 3.824200 
# 
# 
# High freq. dielectric constant tensor:
#      x y z
#    x 1.732120 0.000000 0.004200 
#    y 0.000000 1.758320 0.000000 
#    z 0.004200 0.000000 1.776060 
# 
# From -- ./inp_files/362963.got.cif
#   From: 2010.06.25/outbox.cif.g09.slc.cpg/sg12_182_cif.got.tgz:362963.got - 2010.06.28 00:19:55.
