data_PCOD8090340
_publ_section_title
;
Structure prediction by ZEFSAII (Michael W. Deem and Ramdas Pophale) SiO2 
 PCOD8090340
Probable space group: C 2/M
;
_chemical_formula_sum "Si O2"
_cell_formula_units_Z 48
_cell_length_a 30.356488
_cell_length_b 8.412764
_cell_length_c 17.690805
_cell_angle_alpha 90.000000
_cell_angle_beta 32.259183
_cell_angle_gamma 90.000000
_cell_volume 2411.436119
_symmetry_space_group_name_H-M "C 2/M"
_symmetry_group_IT_number 12
_symmetry_cell_setting 'monoclinic'
loop_
_space_group_symop_operation_xyz
x,y,z
-x,y,-z
-x,-y,-z
x,-y,z
1/2+x,1/2+y,z
1/2-x,1/2+y,-z
1/2-x,1/2-y,-z
1/2+x,1/2-y,z
loop_
_atom_site_type_symbol
_atom_site_label
_atom_site_fract_x
_atom_site_fract_y
_atom_site_fract_z
Si Si1 0.582867 0.188996 0.842615
Si Si2 0.247895 0.185718 0.332684
Si Si3 0.999507 0.815527 0.332594
Si Si4 0.861895 0.314932 0.633833
Si Si5 0.109670 0.314003 0.634789
Si Si6 0.165040 0.312176 0.155842
O O1 0.660763 0.246522 0.779032
O O2 0.590245 0.251850 0.746359
O O3 0.579302 0.000000 0.846590
O O4 0.500000 0.260415 0.000000
O O5 0.217552 0.280033 0.302906
O O6 0.188460 0.218513 0.489834
O O7 0.246847 0.000000 0.315347
O O8 0.942222 0.778506 0.488119
O O9 0.969075 0.716542 0.304235
O O10 0.093030 0.768670 0.212536
O O11 0.993263 0.000000 0.322120
O O12 0.883484 0.500000 0.599408
O O13 0.841863 0.258170 0.747203
O O14 0.130831 0.500000 0.604548
O O15 0.158863 0.500000 0.156409
O O16 0.250000 0.250000 0.000000
#
# Coordination Sequence:
#
# PCOD8090340 Si02
#       6
#     8   8   8   8   8   8
#     4   9  19  34  52  78 109 142 181 223 270 325
#     4  10  19  33  56  82 108 140 181 227 271 322
#     4  11  22  37  59  85 112 143 185 231 274 326
#     4  10  21  38  59  83 111 143 183 229 276 326
#     4  10  19  34  57  80 107 143 181 225 274 322
#     4  11  24  40  58  82 114 149 184 225 274 329
#
# _framework density 19.905151
#
# number of rings (size 3 to 8) (size 9 to 14) (size 15 to 20)
#    0.000    1.833    0.000    6.500    0.000    6.000 
#    0.000    4.167    0.000    7.000    0.000    0.000 
#    0.000    0.000    0.000    0.000    0.000    0.000 
#
# Total GULP energy -297691.951732 kJ/mol
# GULP energy per Si atom -12403.831322 kJ/mol
# Density = 1.985985 g / cm^3
# Si number density = 19.905151 Si / 1000 Ang^3
#
#
#
# Elastic Constant Matrix: (Units=GPa)
#
#
# Indices 1 2 3 4 5 6 
#
# 1 79.3892 0.6887 52.3018 -0.0047 -23.7977 0.0021
# 2 0.6887 45.5293 4.1852 0.0092 -2.2537 0.0010
# 3 52.3018 4.1852 105.2698 -0.0013 -29.5874 0.0008
# 4 -0.0047 0.0092 -0.0013 26.7247 -0.0023 -3.3953
# 5 -23.7977 -2.2537 -29.5874 -0.0023 31.9712 -0.0001
# 6 0.0021 0.0010 0.0008 -3.3953 -0.0001 26.3774
#
#
#
# Elastic Compliance Matrix: (Units=1/GPa)
#
#
# Indices 1 2 3 4 5 6 
#
# 1 0.020067 0.000799 -0.007822 0.000003 0.007754 -0.000001
# 2 0.000799 0.022100 -0.000906 -0.000008 0.001314 -0.000002
# 3 -0.007822 -0.000906 0.015904 0.000001 0.008832 0.000000
# 4 0.000003 -0.000008 0.000001 0.038041 0.000005 0.004897
# 5 0.007754 0.001314 0.008832 0.000005 0.045316 0.000000
# 6 -0.000001 -0.000002 0.000000 0.004897 0.000000 0.038541
#
#
# Mechanical properties :
#
#
# Convention : Reuss Voigt Hill
#
# Bulk Modulus (GPa) = 23.68979 38.28219 30.98599
# Shear Modulus (GPa) = 23.82096 28.54884 26.18490
#
# Velocity S-wave (km/s) = 3.46312 3.79125 3.63089
# Velocity P-wave (km/s) = 5.28376 6.19991 5.76008
#
# Compressibility (1/GPa) = 0.04221228
#
# Stress axis : x y z
#
# Youngs Moduli (GPa) = 49.83304 45.24856 62.87648
#
# Poissons Ratio (x) = -0.03617 0.49185
# Poissons Ratio (y) = -0.03983 0.05700
# Poissons Ratio (z) = 0.38981 0.04102
#
# Static dielectric constant tensor:
#      x y z
#    x 3.798080 0.000000 -0.021150 
#    y 0.000000 3.530630 0.000010 
#    z -0.021150 0.000010 3.656360 
# 
# 
# High freq. dielectric constant tensor:
#      x y z
#    x 1.789050 0.000000 -0.005030 
#    y 0.000000 1.770550 0.000000 
#    z -0.005030 0.000000 1.771230 
# 
# From -- ./inp_files/295344.got.cif
#   From: 2010.06.25/outbox.cif.g09.slc.cpg/sg12_148_cif.got.tgz:295344.got - 2010.06.28 00:19:55.
