data_PCOD8090194
_publ_section_title
;
Structure prediction by ZEFSAII (Michael W. Deem and Ramdas Pophale) SiO2 
 PCOD8090194
Probable space group: C 2/M
;
_chemical_formula_sum "Si O2"
_cell_formula_units_Z 64
_cell_length_a 18.219497
_cell_length_b 14.330517
_cell_length_c 16.901021
_cell_angle_alpha 90.000000
_cell_angle_beta 137.684939
_cell_angle_gamma 90.000000
_cell_volume 2970.706522
_symmetry_space_group_name_H-M "C 2/M"
_symmetry_group_IT_number 12
_symmetry_cell_setting 'monoclinic'
loop_
_space_group_symop_operation_xyz
x,y,z
-x,y,-z
-x,-y,-z
x,-y,z
1/2+x,1/2+y,z
1/2-x,1/2+y,-z
1/2-x,1/2-y,-z
1/2+x,1/2-y,z
loop_
_atom_site_type_symbol
_atom_site_label
_atom_site_fract_x
_atom_site_fract_y
_atom_site_fract_z
Si Si1 0.634212 0.100474 0.490255
Si Si2 0.488008 0.603916 0.575195
Si Si3 0.717271 0.733789 0.289834
Si Si4 0.022564 0.779387 0.852083
Si Si5 0.647395 0.396252 0.834486
Si Si6 0.272201 0.656957 0.469373
Si Si7 0.932221 0.388285 0.225418
Si Si8 0.271339 0.727149 0.885934
O O1 0.687903 0.168515 0.597403
O O2 0.709755 0.080836 0.471992
O O3 0.515415 0.134647 0.364300
O O4 0.621417 0.000000 0.521980
O O5 0.500000 0.656977 0.500000
O O6 0.443952 0.500000 0.522393
O O7 0.604321 0.603053 0.710238
O O8 0.401926 0.647974 0.567197
O O9 0.596418 0.695218 0.209695
O O10 0.726181 0.833595 0.342616
O O11 0.737748 0.746049 0.214104
O O12 0.049896 0.861354 0.812321
O O13 0.030063 0.675406 0.819275
O O14 0.105284 0.793990 0.991505
O O15 0.687501 0.500000 0.891424
O O16 0.744530 0.321445 0.914582
O O17 0.250000 0.750000 0.500000
O O18 0.932349 0.500000 0.205215
O O19 0.810908 0.356298 0.155345
#
# Coordination Sequence:
#
# PCOD8090194 Si02
#       8
#     8   8   8   8   8   8   8   8
#     4  10  21  38  64  94 123 159 205 257 313 377
#     4  10  20  33  53  84 119 148 181 238 303 363
#     4  11  23  39  60  90 126 162 200 252 318 371
#     4  11  23  42  64  88 121 166 218 255 302 364
#     4  10  21  39  62  88 117 156 209 257 304 361
#     4  10  19  33  55  83 115 153 192 235 294 366
#     4  10  22  42  66  94 123 160 212 259 307 372
#     4  11  25  40  62  90 124 168 207 258 310 367
#
# _framework density 21.543697000000002
#
# number of rings (size 3 to 8) (size 9 to 14) (size 15 to 20)
#    0.000    1.625    1.250    4.500    5.250    4.500 
#    0.000    2.500    0.000    3.750    0.000    0.000 
#    0.000    0.000    0.000    0.000    0.000    0.000 
#
# Total GULP energy -396459.101608 kJ/mol
# GULP energy per Si atom -12389.346925 kJ/mol
# Density = 2.149466 g / cm^3
# Si number density = 21.543697 Si / 1000 Ang^3
#
#
#
# Elastic Constant Matrix: (Units=GPa)
#
#
# Indices 1 2 3 4 5 6 
#
# 1 58.8380 16.6996 3.1943 0.0000 -1.5250 0.0000
# 2 16.6996 103.3497 26.0441 0.0000 -1.1998 0.0000
# 3 3.1943 26.0441 110.0568 0.0000 9.6174 0.0000
# 4 0.0000 0.0000 0.0000 20.9964 0.0000 0.3491
# 5 -1.5250 -1.1998 9.6174 0.0000 34.9798 0.0000
# 6 0.0000 0.0000 0.0000 0.3491 0.0000 15.2929
#
#
#
# Elastic Compliance Matrix: (Units=1/GPa)
#
#
# Indices 1 2 3 4 5 6 
#
# 1 0.017830 -0.002902 0.000113 0.000000 0.000647 0.000000
# 2 -0.002902 0.010799 -0.002554 0.000000 0.000946 0.000000
# 3 0.000113 -0.002554 0.009933 0.000000 -0.002814 0.000000
# 4 0.000000 0.000000 0.000000 0.047645 0.000000 -0.001088
# 5 0.000647 0.000946 -0.002814 0.000000 0.029422 0.000000
# 6 0.000000 0.000000 0.000000 -0.001088 0.000000 0.065415
#
#
# Mechanical properties :
#
#
# Convention : Reuss Voigt Hill
#
# Bulk Modulus (GPa) = 35.87298 40.45783 38.16540
# Shear Modulus (GPa) = 24.87270 29.34091 27.10680
#
# Velocity S-wave (km/s) = 3.40151 3.69443 3.55099
# Velocity P-wave (km/s) = 5.66696 6.08429 5.87933
#
# Compressibility (1/GPa) = 0.02787614
#
# Stress axis : x y z
#
# Youngs Moduli (GPa) = 56.08495 92.59778 100.67226
#
# Poissons Ratio (x) = 0.26871 -0.01134
# Poissons Ratio (y) = 0.16275 0.25712
# Poissons Ratio (z) = -0.00632 0.23650
#
# Static dielectric constant tensor:
#      x y z
#    x 4.177680 0.000000 0.041890 
#    y 0.000000 3.993430 0.000000 
#    z 0.041890 0.000000 3.938390 
# 
# 
# High freq. dielectric constant tensor:
#      x y z
#    x 1.835110 0.000000 0.002770 
#    y 0.000000 1.834070 0.000000 
#    z 0.002770 0.000000 1.853110 
# 
# From -- ./inp_files/278204.got.cif
#   From: 2010.06.25/outbox.cif.g09.slc.cpg/sg12_140_cif.got.tgz:278204.got - 2010.06.28 00:19:55.
