data_PCOD8090912
_publ_section_title
;
Structure prediction by ZEFSAII (Michael W. Deem and Ramdas Pophale) SiO2 
 PCOD8090912
Probable space group: C 2/M
;
_chemical_formula_sum "Si O2"
_cell_formula_units_Z 56
_cell_length_a 19.306415
_cell_length_b 17.322769
_cell_length_c 24.745735
_cell_angle_alpha 90.000000
_cell_angle_beta 158.761134
_cell_angle_gamma 90.000000
_cell_volume 2998.030166
_symmetry_space_group_name_H-M "C 2/M"
_symmetry_group_IT_number 12
_symmetry_cell_setting 'monoclinic'
loop_
_space_group_symop_operation_xyz
x,y,z
-x,y,-z
-x,-y,-z
x,-y,z
1/2+x,1/2+y,z
1/2-x,1/2+y,-z
1/2-x,1/2-y,-z
1/2+x,1/2-y,z
loop_
_atom_site_type_symbol
_atom_site_label
_atom_site_fract_x
_atom_site_fract_y
_atom_site_fract_z
Si Si1 0.151433 0.412881 0.918994
Si Si2 0.905756 0.086108 0.744975
Si Si3 0.723617 0.237311 0.649137
Si Si4 0.052062 0.641246 0.124735
Si Si5 0.886323 0.859959 0.616830
Si Si6 0.093074 0.299993 0.322934
Si Si7 0.751948 0.913587 0.172670
O O1 0.133271 0.500000 0.883233
O O2 0.016745 0.406744 0.873460
O O3 0.084702 0.351258 0.825851
O O4 0.369692 0.392565 0.091511
O O5 0.785630 0.147438 0.692574
O O6 0.838063 0.087510 0.633444
O O7 0.868948 0.000000 0.741441
O O8 0.500000 0.244119 0.500000
O O9 0.859150 0.276508 0.792988
O O10 0.758510 0.279745 0.617285
O O11 0.219099 0.597404 0.212946
O O12 0.871866 0.647652 0.952653
O O13 0.983476 0.780188 0.708166
O O14 0.692867 0.846750 0.443435
O O15 0.026269 0.903047 0.677715
O O16 0.689088 0.000000 0.109906
#
# Coordination Sequence:
#
# PCOD8090912 Si02
#       7
#     8   8   8   8   8   8   8
#     4  10  19  34  53  79 111 139 173 217 263 315
#     4  10  21  35  57  81 103 137 182 226 266 308
#     4  10  21  37  55  75 106 139 182 222 263 315
#     4  10  20  32  52  77 108 139 171 211 258 313
#     4  10  19  34  53  78 110 142 177 219 255 316
#     4   9  21  34  53  79 110 140 179 213 268 314
#     4  11  20  31  52  81 110 139 176 213 256 315
#
# _framework density 18.678932
#
# number of rings (size 3 to 8) (size 9 to 14) (size 15 to 20)
#    0.000    2.000    1.429    3.000    2.000    3.143 
#    0.000    0.000    0.000    6.857    0.000    2.000 
#    0.000    0.000    0.000    0.000    0.000    0.000 
#
# Total GULP energy -347073.005731 kJ/mol
# GULP energy per Si atom -12395.464490 kJ/mol
# Density = 1.863642 g / cm^3
# Si number density = 18.678932 Si / 1000 Ang^3
#
#
#
# Elastic Constant Matrix: (Units=GPa)
#
#
# Indices 1 2 3 4 5 6 
#
# 1 56.6281 26.3426 26.8056 0.0046 -2.9808 0.0385
# 2 26.3426 94.2572 47.5312 0.0117 -6.5497 0.0530
# 3 26.8056 47.5312 66.8553 0.0291 -7.6531 0.0266
# 4 0.0046 0.0117 0.0291 25.6297 0.0030 -0.7186
# 5 -2.9808 -6.5497 -7.6531 0.0030 31.1565 0.0241
# 6 0.0385 0.0530 0.0266 -0.7186 0.0241 24.0854
#
#
#
# Elastic Compliance Matrix: (Units=1/GPa)
#
#
# Indices 1 2 3 4 5 6 
#
# 1 0.022222 -0.002680 -0.007023 0.000005 -0.000162 -0.000022
# 2 -0.002680 0.016873 -0.010850 0.000004 0.000626 -0.000021
# 3 -0.007023 -0.010850 0.025877 -0.000023 0.003403 0.000002
# 4 0.000005 0.000004 -0.000023 0.039050 -0.000009 0.001165
# 5 -0.000162 0.000626 0.003403 -0.000009 0.033048 -0.000038
# 6 -0.000022 -0.000021 0.000002 0.001165 -0.000038 0.041554
#
#
# Mechanical properties :
#
#
# Convention : Reuss Voigt Hill
#
# Bulk Modulus (GPa) = 41.90081 46.56658 44.23370
# Shear Modulus (GPa) = 21.96025 23.97840 22.96933
#
# Velocity S-wave (km/s) = 3.43252 3.58678 3.51050
# Velocity P-wave (km/s) = 6.17984 6.49134 6.33750
#
# Compressibility (1/GPa) = 0.02386589
#
# Stress axis : x y z
#
# Youngs Moduli (GPa) = 45.00106 59.26621 38.64477
#
# Poissons Ratio (x) = 0.15885 0.27139
# Poissons Ratio (y) = 0.12062 0.41928
# Poissons Ratio (z) = 0.31603 0.64302
#
# Static dielectric constant tensor:
#      x y z
#    x 3.448140 -0.000040 -0.057870 
#    y -0.000040 3.452540 -0.000180 
#    z -0.057870 -0.000180 3.256390 
# 
# 
# High freq. dielectric constant tensor:
#      x y z
#    x 1.714290 0.000000 -0.003580 
#    y 0.000000 1.722760 -0.000020 
#    z -0.003580 -0.000020 1.713500 
# 
# From -- ./inp_files/87820.got.cif
#   From: 2010.06.25/outbox.cif.g09.slc.cpg/sg12_44_cif.got.tgz:87820.got - 2010.06.28 00:19:55.
