data_PCOD8090933
_publ_section_title
;
Structure prediction by ZEFSAII (Michael W. Deem and Ramdas Pophale) SiO2 
 PCOD8090933
Probable space group: C 2/M
;
_chemical_formula_sum "Si O2"
_cell_formula_units_Z 48
_cell_length_a 25.949579
_cell_length_b 13.637303
_cell_length_c 7.195124
_cell_angle_alpha 90.000000
_cell_angle_beta 97.485356
_cell_angle_gamma 90.000000
_cell_volume 2524.528363
_symmetry_space_group_name_H-M "C 2/M"
_symmetry_group_IT_number 12
_symmetry_cell_setting 'monoclinic'
loop_
_space_group_symop_operation_xyz
x,y,z
-x,y,-z
-x,-y,-z
x,-y,z
1/2+x,1/2+y,z
1/2-x,1/2+y,-z
1/2-x,1/2-y,-z
1/2+x,1/2-y,z
loop_
_atom_site_type_symbol
_atom_site_label
_atom_site_fract_x
_atom_site_fract_y
_atom_site_fract_z
Si Si1 0.182905 0.292483 0.633754
Si Si2 0.109489 0.276394 0.921357
Si Si3 0.986789 0.610933 0.209830
Si Si4 0.091569 0.698987 0.319818
Si Si5 0.389386 0.390058 0.829466
Si Si6 0.214747 0.108699 0.425542
O O1 0.163142 0.290852 0.836451
O O2 0.136054 0.332064 0.483302
O O3 0.201395 0.184013 0.583750
O O4 0.230390 0.367250 0.644089
O O5 0.062004 0.317628 0.773015
O O6 0.111340 0.333481 0.121159
O O7 0.101866 0.159582 0.962677
O O8 0.973040 0.500000 0.261840
O O9 0.037406 0.646532 0.349606
O O10 0.000000 0.619352 0.000000
O O11 0.083044 0.818426 0.310981
O O12 0.412760 0.500000 0.834870
O O13 0.327956 0.388533 0.757518
O O14 0.217111 0.000000 0.514980
#
# Coordination Sequence:
#
# PCOD8090933 Si02
#       6
#     8   8   8   8   8   8
#     4  10  19  34  54  73 102 130 165 209 244 293
#     4   9  19  32  52  75  98 133 167 201 245 295
#     4   9  17  33  53  75 106 135 162 199 247 297
#     4   8  18  34  50  74 103 133 161 201 248 293
#     4   8  16  33  51  70  98 130 165 205 246 289
#     4   9  19  35  52  72 101 133 164 206 253 291
#
# _framework density 19.013452000000001
#
# number of rings (size 3 to 8) (size 9 to 14) (size 15 to 20)
#    1.000    2.167    0.000    0.000    0.000    3.333 
#    0.000    2.500    0.000    0.000    0.000    5.833 
#    0.000    0.000    0.000    0.000    0.000    0.000 
#
# Total GULP energy -297319.041046 kJ/mol
# GULP energy per Si atom -12388.293377 kJ/mol
# Density = 1.897018 g / cm^3
# Si number density = 19.013452 Si / 1000 Ang^3
#
#
#
# Elastic Constant Matrix: (Units=GPa)
#
#
# Indices 1 2 3 4 5 6 
#
# 1 74.0832 57.4116 6.7848 0.0000 -2.6664 0.0000
# 2 57.4116 116.2229 12.6039 0.0000 14.0729 0.0000
# 3 6.7848 12.6039 27.1813 0.0000 -1.2228 0.0000
# 4 0.0000 0.0000 0.0000 13.4516 0.0000 6.5100
# 5 -2.6664 14.0729 -1.2228 0.0000 26.7596 0.0000
# 6 0.0000 0.0000 0.0000 6.5100 0.0000 26.5225
#
#
#
# Elastic Compliance Matrix: (Units=1/GPa)
#
#
# Indices 1 2 3 4 5 6 
#
# 1 0.023797 -0.012918 0.000463 0.000000 0.009186 0.000000
# 2 -0.012918 0.016782 -0.005023 0.000000 -0.010343 0.000000
# 3 0.000463 -0.005023 0.039205 0.000000 0.004479 0.000000
# 4 0.000000 0.000000 0.000000 0.084362 0.000000 -0.020707
# 5 0.009186 -0.010343 0.004479 0.000000 0.043929 0.000000
# 6 0.000000 0.000000 0.000000 -0.020707 0.000000 0.042786
#
#
# Mechanical properties :
#
#
# Convention : Reuss Voigt Hill
#
# Bulk Modulus (GPa) = 22.30667 41.23199 31.76933
# Shear Modulus (GPa) = 16.62456 22.72590 19.67523
#
# Velocity S-wave (km/s) = 2.96016 3.46099 3.22033
# Velocity P-wave (km/s) = 4.84158 6.14037 5.52924
#
# Compressibility (1/GPa) = 0.04482964
#
# Stress axis : x y z
#
# Youngs Moduli (GPa) = 42.02132 59.58641 25.50698
#
# Poissons Ratio (x) = 0.76973 -0.01181
# Poissons Ratio (y) = 0.54283 0.12811
# Poissons Ratio (z) = -0.01946 0.29929
#
# Static dielectric constant tensor:
#      x y z
#    x 3.462990 0.000000 0.120770 
#    y 0.000000 3.509720 0.000000 
#    z 0.120770 0.000000 3.137560 
# 
# 
# High freq. dielectric constant tensor:
#      x y z
#    x 1.733470 0.000000 0.007370 
#    y 0.000000 1.727230 0.000000 
#    z 0.007370 0.000000 1.713510 
# 
# From -- ./inp_files/95351.got.cif
#   From: 2010.06.25/outbox.cif.g09.slc.cpg/sg12_48_cif.got.tgz:95351.got - 2010.06.28 00:19:55.
