data_PCOD8090459
_publ_section_title
;
Structure prediction by ZEFSAII (Michael W. Deem and Ramdas Pophale) SiO2 
 PCOD8090459
Probable space group: C 2/M
;
_chemical_formula_sum "Si O2"
_cell_formula_units_Z 56
_cell_length_a 30.405241
_cell_length_b 8.731942
_cell_length_c 11.734029
_cell_angle_alpha 90.000000
_cell_angle_beta 116.269379
_cell_angle_gamma 90.000000
_cell_volume 2793.603752
_symmetry_space_group_name_H-M "C 2/M"
_symmetry_group_IT_number 12
_symmetry_cell_setting 'monoclinic'
loop_
_space_group_symop_operation_xyz
x,y,z
-x,y,-z
-x,-y,-z
x,-y,z
1/2+x,1/2+y,z
1/2-x,1/2+y,-z
1/2-x,1/2-y,-z
1/2+x,1/2-y,z
loop_
_atom_site_type_symbol
_atom_site_label
_atom_site_fract_x
_atom_site_fract_y
_atom_site_fract_z
Si Si1 0.762849 0.180269 0.135303
Si Si2 0.302562 0.821829 0.552215
Si Si3 0.831867 0.321870 0.833561
Si Si4 0.151659 0.681515 0.628232
Si Si5 0.457297 0.181780 0.531150
Si Si6 0.930943 0.819734 0.972716
Si Si7 0.521412 0.817879 0.189801
O O1 0.720406 0.229263 0.175214
O O2 0.815163 0.243487 0.236373
O O3 0.766828 0.000000 0.128541
O O4 0.750000 0.250000 0.000000
O O5 0.250000 0.750000 0.500000
O O6 0.333019 0.784671 0.700667
O O7 0.331682 0.757518 0.476808
O O8 0.294250 0.000000 0.529170
O O9 0.841581 0.500000 0.869556
O O10 0.875109 0.223316 0.940512
O O11 0.156790 0.500000 0.643510
O O12 0.095273 0.733942 0.579420
O O13 0.500000 0.251503 0.500000
O O14 0.463877 0.240151 0.667853
O O15 0.460803 0.000000 0.536240
O O16 0.942600 0.763175 0.858456
O O17 0.939579 0.000000 0.992446
O O18 0.965621 0.732656 0.102172
O O19 0.526765 0.000000 0.182563
#
# Coordination Sequence:
#
# PCOD8090459 Si02
#       7
#     8   8   8   8   8   8   8
#     4  11  24  41  60  82 114 154 195 236 282 346
#     4  10  19  33  56  85 116 147 186 236 289 347
#     4  10  21  38  58  83 115 153 194 232 282 352
#     4  10  20  36  60  88 118 149 187 241 294 341
#     4   9  19  36  60  87 113 148 195 240 282 337
#     4  11  22  35  56  86 119 150 189 243 295 340
#     4  10  19  36  60  84 116 155 194 235 287 351
#
# _framework density 20.04579
#
# number of rings (size 3 to 8) (size 9 to 14) (size 15 to 20)
#    0.000    1.857    1.429    3.857    0.000    5.143 
#    0.000    5.714    0.000    3.000    0.000    0.000 
#    0.000    0.000    0.000    0.000    0.000    0.000 
#
# Total GULP energy -347238.394000 kJ/mol
# GULP energy per Si atom -12401.371214 kJ/mol
# Density = 2.000017 g / cm^3
# Si number density = 20.045790 Si / 1000 Ang^3
#
#
#
# Elastic Constant Matrix: (Units=GPa)
#
#
# Indices 1 2 3 4 5 6 
#
# 1 122.7154 25.6723 62.7770 0.0000 20.9677 0.0000
# 2 25.6723 43.7600 27.9689 0.0000 2.5506 0.0000
# 3 62.7770 27.9689 138.3110 0.0000 8.0240 0.0000
# 4 0.0000 0.0000 0.0000 23.5594 0.0000 5.8868
# 5 20.9677 2.5506 8.0240 0.0000 36.2670 0.0000
# 6 0.0000 0.0000 0.0000 5.8868 0.0000 27.3173
#
#
#
# Elastic Compliance Matrix: (Units=1/GPa)
#
#
# Indices 1 2 3 4 5 6 
#
# 1 0.012238 -0.004026 -0.004403 0.000000 -0.005818 0.000000
# 2 -0.004026 0.027585 -0.003822 0.000000 0.001233 0.000000
# 3 -0.004403 -0.003822 0.009966 0.000000 0.000609 0.000000
# 4 0.000000 0.000000 0.000000 0.044862 0.000000 -0.009668
# 5 -0.005818 0.001233 0.000609 0.000000 0.030715 0.000000
# 6 0.000000 0.000000 0.000000 -0.009668 0.000000 0.038690
#
#
# Mechanical properties :
#
#
# Convention : Reuss Voigt Hill
#
# Bulk Modulus (GPa) = 39.54739 59.73585 49.64162
# Shear Modulus (GPa) = 25.38238 29.98661 27.68449
#
# Velocity S-wave (km/s) = 3.56226 3.87189 3.72030
# Velocity P-wave (km/s) = 6.05730 7.06067 6.57815
#
# Compressibility (1/GPa) = 0.02528612
#
# Stress axis : x y z
#
# Youngs Moduli (GPa) = 81.71550 36.25147 100.34118
#
# Poissons Ratio (x) = 0.14596 0.44178
# Poissons Ratio (y) = 0.32901 0.38353
# Poissons Ratio (z) = 0.35977 0.13856
#
# Static dielectric constant tensor:
#      x y z
#    x 3.820820 0.000000 -0.043380 
#    y 0.000000 3.427490 0.000000 
#    z -0.043380 0.000000 3.425330 
# 
# 
# High freq. dielectric constant tensor:
#      x y z
#    x 1.786770 0.000000 0.011260 
#    y 0.000000 1.761000 0.000000 
#    z 0.011260 0.000000 1.788400 
# 
# From -- ./inp_files/187689.got.cif
#   From: 2010.06.25/outbox.cif.g09.slc.cpg/sg12_94_cif.got.tgz:187689.got - 2010.06.28 00:19:55.
