data_PCOD8090570
_publ_section_title
;
Structure prediction by ZEFSAII (Michael W. Deem and Ramdas Pophale) SiO2 
 PCOD8090570
Probable space group: C 2/M
;
_chemical_formula_sum "Si O2"
_cell_formula_units_Z 40
_cell_length_a 22.219423
_cell_length_b 17.825549
_cell_length_c 13.685537
_cell_angle_alpha 90.000000
_cell_angle_beta 157.368154
_cell_angle_gamma 90.000000
_cell_volume 2085.845216
_symmetry_space_group_name_H-M "C 2/M"
_symmetry_group_IT_number 12
_symmetry_cell_setting 'monoclinic'
loop_
_space_group_symop_operation_xyz
x,y,z
-x,y,-z
-x,-y,-z
x,-y,z
1/2+x,1/2+y,z
1/2-x,1/2+y,-z
1/2-x,1/2-y,-z
1/2+x,1/2-y,z
loop_
_atom_site_type_symbol
_atom_site_label
_atom_site_fract_x
_atom_site_fract_y
_atom_site_fract_z
Si Si1 0.454647 0.779190 0.635789
Si Si2 0.417028 0.082975 0.274842
Si Si3 0.386891 0.218249 0.920638
Si Si4 0.206721 0.914865 0.717322
Si Si5 0.892478 0.141869 0.221100
O O1 0.492271 0.865771 0.668197
O O2 0.270599 0.765942 0.338496
O O3 0.558222 0.728460 0.717309
O O4 0.513856 0.757911 0.834043
O O5 0.500000 0.075632 0.500000
O O6 0.398270 0.000000 0.198627
O O7 0.251597 0.117960 0.061759
O O8 0.338906 0.130573 0.856936
O O9 0.500000 0.230144 0.000000
O O10 0.174515 0.871463 0.770295
O O11 0.039097 0.911243 0.411565
O O12 0.262082 0.000000 0.813438
#
# Coordination Sequence:
#
# PCOD8090570 Si02
#       5
#     8   8   8   8   8
#     4  11  23  38  61  84 116 150 198 240 286 343
#     4  11  22  33  53  86 123 150 178 228 294 357
#     4  11  24  40  59  82 113 159 201 239 279 330
#     4  10  20  34  58  88 115 143 181 237 293 345
#     4  10  19  33  57  85 115 146 178 231 294 350
#
# _framework density 19.176877000000001
#
# number of rings (size 3 to 8) (size 9 to 14) (size 15 to 20)
#    0.000    1.400    2.000    4.800    5.600    0.400 
#    0.000    0.000    0.000    0.600    0.000    0.000 
#    0.000    0.000    0.000    0.000    0.000    0.000 
#
# Total GULP energy -247808.081823 kJ/mol
# GULP energy per Si atom -12390.404091 kJ/mol
# Density = 1.913323 g / cm^3
# Si number density = 19.176877 Si / 1000 Ang^3
#
#
#
# Elastic Constant Matrix: (Units=GPa)
#
#
# Indices 1 2 3 4 5 6 
#
# 1 64.2978 40.7704 32.8065 0.0000 7.0077 0.0000
# 2 40.7704 122.3714 33.2193 0.0000 13.3948 0.0000
# 3 32.8065 33.2193 122.4723 0.0000 0.7826 0.0000
# 4 0.0000 0.0000 0.0000 10.2095 0.0000 11.0446
# 5 7.0077 13.3948 0.7826 0.0000 27.6695 0.0000
# 6 0.0000 0.0000 0.0000 11.0446 0.0000 -49.4847
#
#
#
# Elastic Compliance Matrix: (Units=1/GPa)
#
#
# Indices 1 2 3 4 5 6 
#
# 1 0.021653 -0.005790 -0.004213 0.000000 -0.002562 0.000000
# 2 -0.005790 0.010887 -0.001378 0.000000 -0.003765 0.000000
# 3 -0.004213 -0.001378 0.009658 0.000000 0.001461 0.000000
# 4 0.000000 0.000000 0.000000 0.078898 0.000000 0.017609
# 5 -0.002562 -0.003765 0.001461 0.000000 0.038571 0.000000
# 6 0.000000 0.000000 0.000000 0.017609 0.000000 -0.016278
#
#
# Mechanical properties :
#
#
# Convention : Reuss Voigt Hill
#
# Bulk Modulus (GPa) = 51.45180 58.08157 54.76669
# Shear Modulus (GPa) = 28.96362 11.16855 20.06609
#
# Velocity S-wave (km/s) = 3.89053 2.41591 3.23827
# Velocity P-wave (km/s) = 6.86076 6.17537 6.52707
#
# Compressibility (1/GPa) = 0.01943566
#
# Stress axis : x y z
#
# Youngs Moduli (GPa) = 46.18321 91.85209 103.53941
#
# Poissons Ratio (x) = 0.53181 0.43624
# Poissons Ratio (y) = 0.26740 0.14268
# Poissons Ratio (z) = 0.19458 0.12657
#
# Static dielectric constant tensor:
#      x y z
#    x 3.181870 0.000000 -0.074720 
#    y 0.000000 3.827320 0.000000 
#    z -0.074720 0.000000 4.601430 
# 
# 
# High freq. dielectric constant tensor:
#      x y z
#    x 1.703540 0.000000 -0.012710 
#    y 0.000000 1.743670 0.000000 
#    z -0.012710 0.000000 1.778980 
# 
# From -- ./inp_files/130543.got.cif
#   From: 2010.06.25/outbox.cif.g09.slc.cpg/sg12_66_cif.got.tgz:130543.got - 2010.06.28 00:19:55.
