data_PCOD8090505
_publ_section_title
;
Structure prediction by ZEFSAII (Michael W. Deem and Ramdas Pophale) SiO2 
 PCOD8090505
Probable space group: C 2/M
;
_chemical_formula_sum "Si O2"
_cell_formula_units_Z 56
_cell_length_a 9.621033
_cell_length_b 17.571873
_cell_length_c 29.875723
_cell_angle_alpha 90.000000
_cell_angle_beta 145.284647
_cell_angle_gamma 90.000000
_cell_volume 2876.416451
_symmetry_space_group_name_H-M "C 2/M"
_symmetry_group_IT_number 12
_symmetry_cell_setting 'monoclinic'
loop_
_space_group_symop_operation_xyz
x,y,z
-x,y,-z
-x,-y,-z
x,-y,z
1/2+x,1/2+y,z
1/2-x,1/2+y,-z
1/2-x,1/2-y,-z
1/2+x,1/2-y,z
loop_
_atom_site_type_symbol
_atom_site_label
_atom_site_fract_x
_atom_site_fract_y
_atom_site_fract_z
Si Si1 0.877042 0.234927 0.852991
Si Si2 0.703380 0.165614 0.087294
Si Si3 0.564207 0.412635 0.642950
Si Si4 0.369324 0.084472 0.217290
Si Si5 0.423158 0.310470 0.688048
Si Si6 0.872375 0.915876 0.756437
Si Si7 0.485268 0.702229 0.548440
O O1 0.931386 0.290316 0.908450
O O2 0.788863 0.151499 0.847378
O O3 0.678809 0.270222 0.766521
O O4 0.127890 0.227704 0.892643
O O5 0.868079 0.097448 0.150018
O O6 0.500000 0.131768 0.000000
O O7 0.476575 0.500000 0.621402
O O8 0.444224 0.367156 0.652031
O O9 0.473823 0.377183 0.572230
O O10 0.853783 0.406248 0.724201
O O11 0.344207 0.092577 0.264658
O O12 0.273651 0.000000 0.177539
O O13 0.324947 0.355948 0.704996
O O14 0.227834 0.246095 0.626743
O O15 0.878849 0.000000 0.737165
O O16 0.500000 0.683742 0.500000
O O17 0.250000 0.750000 0.500000
#
# Coordination Sequence:
#
# PCOD8090505 Si02
#       7
#     8   8   8   8   8   8   8
#     4  10  19  33  57  81 111 150 197 238 284 342
#     4  10  20  32  52  82 116 150 187 236 290 345
#     4  11  23  40  62  88 119 152 192 246 298 346
#     4   9  18  33  56  84 111 144 194 246 288 335
#     4  11  22  38  63  86 115 152 202 243 289 351
#     4   9  20  36  57  85 114 152 194 240 291 343
#     4  12  26  42  62  89 120 156 195 245 301 357
#
# _framework density 19.468668999999998
#
# number of rings (size 3 to 8) (size 9 to 14) (size 15 to 20)
#    0.000    1.714    2.857    1.714    6.000    0.571 
#    0.000    2.143    0.000    0.429    0.000    0.000 
#    0.000    0.000    0.000    0.000    0.000    0.000 
#
# Total GULP energy -347193.384315 kJ/mol
# GULP energy per Si atom -12399.763726 kJ/mol
# Density = 1.942436 g / cm^3
# Si number density = 19.468669 Si / 1000 Ang^3
#
#
#
# Elastic Constant Matrix: (Units=GPa)
#
#
# Indices 1 2 3 4 5 6 
#
# 1 64.2390 6.4659 6.1970 -0.0008 -3.2203 -0.0012
# 2 6.4659 86.8389 10.9259 -0.0007 -10.9761 -0.0006
# 3 6.1970 10.9259 70.4098 -0.0010 -13.2248 -0.0018
# 4 -0.0008 -0.0007 -0.0010 18.0714 -0.0003 1.0861
# 5 -3.2203 -10.9761 -13.2248 -0.0003 24.6517 -0.0007
# 6 -0.0012 -0.0006 -0.0018 1.0861 -0.0007 22.4011
#
#
#
# Elastic Compliance Matrix: (Units=1/GPa)
#
#
# Indices 1 2 3 4 5 6 
#
# 1 0.015814 -0.000907 -0.001044 0.000001 0.001102 0.000001
# 2 -0.000907 0.012314 -0.000916 0.000000 0.004873 0.000000
# 3 -0.001044 -0.000916 0.015941 0.000001 0.008007 0.000001
# 4 0.000001 0.000000 0.000001 0.055498 0.000001 -0.002691
# 5 0.001102 0.004873 0.008007 0.000001 0.047175 0.000002
# 6 0.000001 0.000000 0.000001 -0.002691 0.000002 0.044771
#
#
# Mechanical properties :
#
#
# Convention : Reuss Voigt Hill
#
# Bulk Modulus (GPa) = 26.08553 29.85169 27.96861
# Shear Modulus (GPa) = 23.80673 26.21808 25.01241
#
# Velocity S-wave (km/s) = 3.50068 3.67370 3.58823
# Velocity P-wave (km/s) = 5.45596 5.77592 5.61822
#
# Compressibility (1/GPa) = 0.03833543
#
# Stress axis : x y z
#
# Youngs Moduli (GPa) = 63.23465 81.20657 62.73298
#
# Poissons Ratio (x) = 0.07364 0.06550
# Poissons Ratio (y) = 0.05734 0.05745
# Poissons Ratio (z) = 0.06603 0.07437
#
# Static dielectric constant tensor:
#      x y z
#    x 3.642840 0.000000 -0.033780 
#    y 0.000000 3.736490 0.000000 
#    z -0.033780 0.000000 3.375260 
# 
# 
# High freq. dielectric constant tensor:
#      x y z
#    x 1.769930 0.000000 0.001510 
#    y 0.000000 1.763400 0.000000 
#    z 0.001510 0.000000 1.731770 
# 
# From -- ./inp_files/256991.got.cif
#   From: 2010.06.25/outbox.cif.g09.slc.cpg/sg12_129_cif.got.tgz:256991.got - 2010.06.28 00:19:55.
