data_PCOD8090491
_publ_section_title
;
Structure prediction by ZEFSAII (Michael W. Deem and Ramdas Pophale) SiO2 
 PCOD8090491
Probable space group: C 2/M
;
_chemical_formula_sum "Si O2"
_cell_formula_units_Z 64
_cell_length_a 22.467619
_cell_length_b 15.751979
_cell_length_c 13.405412
_cell_angle_alpha 90.000000
_cell_angle_beta 137.804062
_cell_angle_gamma 90.000000
_cell_volume 3186.596265
_symmetry_space_group_name_H-M "C 2/M"
_symmetry_group_IT_number 12
_symmetry_cell_setting 'monoclinic'
loop_
_space_group_symop_operation_xyz
x,y,z
-x,y,-z
-x,-y,-z
x,-y,z
1/2+x,1/2+y,z
1/2-x,1/2+y,-z
1/2-x,1/2-y,-z
1/2+x,1/2-y,z
loop_
_atom_site_type_symbol
_atom_site_label
_atom_site_fract_x
_atom_site_fract_y
_atom_site_fract_z
Si Si1 0.400033 0.595351 0.380737
Si Si2 0.402704 0.905264 0.653498
Si Si3 0.273581 0.669163 0.595972
Si Si4 0.323013 0.256679 0.860345
Si Si5 0.819900 0.760007 0.172441
Si Si6 0.905881 0.904623 0.610848
Si Si7 0.101625 0.405749 0.126970
Si Si8 0.536016 0.752279 0.795687
O O1 0.500000 0.632517 0.500000
O O2 0.400797 0.500000 0.342613
O O3 0.337643 0.642927 0.224878
O O4 0.362553 0.604111 0.447003
O O5 0.318376 0.875099 0.483277
O O6 0.364874 0.908891 0.718286
O O7 0.482081 0.837816 0.749473
O O8 0.434699 0.000000 0.659628
O O9 0.250000 0.750000 0.500000
O O10 0.330677 0.693456 0.765284
O O11 0.332030 0.604833 0.603964
O O12 0.225941 0.281050 0.786052
O O13 0.333513 0.155732 0.853652
O O14 0.400910 0.277496 0.035118
O O15 0.911252 0.722850 0.241183
O O16 0.750000 0.750000 0.000000
O O17 0.977535 0.830803 0.708860
O O18 0.947339 0.000000 0.672484
O O19 0.106170 0.500000 0.083778
O O20 0.000000 0.372516 0.000000
#
# Coordination Sequence:
#
# PCOD8090491 Si02
#       8
#     8   8   8   8   8   8   8   8
#     4  10  20  37  64  93 118 153 205 262 316 366
#     4  11  23  39  62  90 124 161 203 252 308 367
#     4  12  22  38  60  90 128 165 197 252 318 377
#     4  11  23  38  59  89 125 170 211 247 317 378
#     4  10  23  39  58  91 126 165 204 254 316 370
#     4  11  23  39  63  97 126 156 205 261 318 374
#     4  10  19  33  56  89 122 151 195 256 313 368
#     4  11  22  41  64  88 123 168 210 262 308 369
#
# _framework density 20.084125
#
# number of rings (size 3 to 8) (size 9 to 14) (size 15 to 20)
#    0.000    1.250    5.000    1.125    0.000    0.500 
#    0.000    3.750    0.000    4.500    0.000    0.000 
#    0.000    0.000    0.000    0.000    0.000    0.000 
#
# Total GULP energy -396445.890508 kJ/mol
# GULP energy per Si atom -12388.934078 kJ/mol
# Density = 2.003841 g / cm^3
# Si number density = 20.084125 Si / 1000 Ang^3
#
#
#
# Elastic Constant Matrix: (Units=GPa)
#
#
# Indices 1 2 3 4 5 6 
#
# 1 109.5021 34.8594 30.4643 0.0000 0.0190 0.0000
# 2 34.8594 115.3707 50.9402 0.0000 -2.3083 0.0000
# 3 30.4643 50.9402 95.8099 0.0000 -1.8344 0.0000
# 4 0.0000 0.0000 0.0000 26.0261 0.0000 -5.1639
# 5 0.0190 -2.3083 -1.8344 0.0000 26.7308 0.0000
# 6 0.0000 0.0000 0.0000 -5.1639 0.0000 19.5873
#
#
#
# Elastic Compliance Matrix: (Units=1/GPa)
#
#
# Indices 1 2 3 4 5 6 
#
# 1 0.010434 -0.002211 -0.002149 0.000000 -0.000346 0.000000
# 2 -0.002211 0.011804 -0.005561 0.000000 0.000639 0.000000
# 3 -0.002149 -0.005561 0.014086 0.000000 0.000488 0.000000
# 4 0.000000 0.000000 0.000000 0.040544 0.000000 0.010689
# 5 -0.000346 0.000639 0.000488 0.000000 0.037499 0.000000
# 6 0.000000 0.000000 0.000000 0.010689 0.000000 0.053871
#
#
# Mechanical properties :
#
#
# Convention : Reuss Voigt Hill
#
# Bulk Modulus (GPa) = 60.66631 61.46783 61.06707
# Shear Modulus (GPa) = 25.83003 28.09675 26.96339
#
# Velocity S-wave (km/s) = 3.59010 3.74432 3.66802
# Velocity P-wave (km/s) = 6.88889 7.02601 6.95779
#
# Compressibility (1/GPa) = 0.01648361
#
# Stress axis : x y z
#
# Youngs Moduli (GPa) = 95.84137 84.71937 70.99046
#
# Poissons Ratio (x) = 0.18729 0.15255
# Poissons Ratio (y) = 0.21188 0.39475
# Poissons Ratio (z) = 0.20595 0.47109
#
# Static dielectric constant tensor:
#      x y z
#    x 4.046930 0.000000 -0.035810 
#    y 0.000000 3.681460 0.000000 
#    z -0.035810 0.000000 3.654030 
# 
# 
# High freq. dielectric constant tensor:
#      x y z
#    x 1.786320 0.000000 0.005610 
#    y 0.000000 1.767040 0.000000 
#    z 0.005610 0.000000 1.779960 
# 
# From -- ./inp_files/240712.got.cif
#   From: 2010.06.25/outbox.cif.g09.slc.cpg/sg12_121_cif.got.tgz:240712.got - 2010.06.28 00:19:55.
