data_PCOD8090817
_publ_section_title
;
Structure prediction by ZEFSAII (Michael W. Deem and Ramdas Pophale) SiO2 
 PCOD8090817
Probable space group: C 2/M
;
_chemical_formula_sum "Si O2"
_cell_formula_units_Z 56
_cell_length_a 12.626060
_cell_length_b 15.867880
_cell_length_c 17.886834
_cell_angle_alpha 90.000000
_cell_angle_beta 51.579948
_cell_angle_gamma 90.000000
_cell_volume 2807.669237
_symmetry_space_group_name_H-M "C 2/M"
_symmetry_group_IT_number 12
_symmetry_cell_setting 'monoclinic'
loop_
_space_group_symop_operation_xyz
x,y,z
-x,y,-z
-x,-y,-z
x,-y,z
1/2+x,1/2+y,z
1/2-x,1/2+y,-z
1/2-x,1/2-y,-z
1/2+x,1/2-y,z
loop_
_atom_site_type_symbol
_atom_site_label
_atom_site_fract_x
_atom_site_fract_y
_atom_site_fract_z
Si Si1 0.161440 0.596257 0.656652
Si Si2 0.576579 0.597203 0.537823
Si Si3 0.953440 0.784733 0.871187
Si Si4 0.777280 0.298932 0.225772
Si Si5 0.645859 0.591586 0.971436
Si Si6 0.129104 0.661127 0.217914
Si Si7 0.561037 0.599382 0.252162
O O1 0.172573 0.500000 0.681537
O O2 0.261477 0.609210 0.542088
O O3 0.211223 0.660803 0.697745
O O4 0.008726 0.614545 0.698367
O O5 0.500000 0.638598 0.500000
O O6 0.534346 0.500000 0.559089
O O7 0.524040 0.634997 0.639092
O O8 0.881865 0.713674 0.854024
O O9 0.006849 0.857159 0.790294
O O10 0.077210 0.739963 0.862111
O O11 0.846923 0.830762 0.973024
O O12 0.672073 0.220344 0.268576
O O13 0.718135 0.370041 0.194679
O O14 0.668846 0.500000 0.000846
O O15 0.753386 0.596433 0.856352
O O16 0.500000 0.594426 0.000000
O O17 0.555119 0.500000 0.244234
#
# Coordination Sequence:
#
# PCOD8090817 Si02
#       7
#     8   8   8   8   8   8   8
#     4  10  19  34  57  82 109 144 186 224 263 321
#     4   9  16  30  55  84 110 142 183 223 265 318
#     4  10  21  36  55  80 113 141 177 228 282 323
#     4  10  19  34  51  78 112 142 172 222 278 320
#     4  11  21  36  58  79 102 144 192 222 262 332
#     4  10  21  36  55  80 113 141 177 228 282 323
#     4  10  19  34  57  82 109 144 186 224 263 321
#
# _framework density 19.945368999999999
#
# number of rings (size 3 to 8) (size 9 to 14) (size 15 to 20)
#    0.000    2.000    2.857    1.714    0.000    0.000 
#    0.000    7.857    0.000    0.000    0.000   15.000 
#    0.000    0.000    0.000    0.000    0.000    0.000 
#
# Total GULP energy -346871.267267 kJ/mol
# GULP energy per Si atom -12388.259545 kJ/mol
# Density = 1.989997 g / cm^3
# Si number density = 19.945369 Si / 1000 Ang^3
#
#
#
# Elastic Constant Matrix: (Units=GPa)
#
#
# Indices 1 2 3 4 5 6 
#
# 1 76.1303 22.1052 29.5613 0.0000 -20.9320 0.0000
# 2 22.1052 81.2756 30.1661 0.0000 -11.5367 0.0000
# 3 29.5613 30.1661 86.1366 0.0000 -19.1297 0.0000
# 4 0.0000 0.0000 0.0000 21.0991 0.0000 0.5104
# 5 -20.9320 -11.5367 -19.1297 0.0000 27.4208 0.0000
# 6 0.0000 0.0000 0.0000 0.5104 0.0000 25.4264
#
#
#
# Elastic Compliance Matrix: (Units=1/GPa)
#
#
# Indices 1 2 3 4 5 6 
#
# 1 0.017864 -0.002243 -0.002989 0.000000 0.010607 0.000000
# 2 -0.002243 0.014629 -0.003984 0.000000 0.001663 0.000000
# 3 -0.002989 -0.003984 0.015563 0.000000 0.006899 0.000000
# 4 0.000000 0.000000 0.000000 0.047418 0.000000 -0.000952
# 5 0.010607 0.001663 0.006899 0.000000 0.050079 0.000000
# 6 0.000000 0.000000 0.000000 -0.000952 0.000000 0.039348
#
#
# Mechanical properties :
#
#
# Convention : Reuss Voigt Hill
#
# Bulk Modulus (GPa) = 33.75861 45.24530 39.50196
# Shear Modulus (GPa) = 23.45124 25.56990 24.51057
#
# Velocity S-wave (km/s) = 3.43268 3.58438 3.50935
# Velocity P-wave (km/s) = 5.71606 6.31381 6.02236
#
# Compressibility (1/GPa) = 0.02962207
#
# Stress axis : x y z
#
# Youngs Moduli (GPa) = 55.97840 68.35884 64.25581
#
# Poissons Ratio (x) = 0.15336 0.19208
# Poissons Ratio (y) = 0.12558 0.25599
# Poissons Ratio (z) = 0.16734 0.27234
#
# Static dielectric constant tensor:
#      x y z
#    x 3.646710 0.000000 -0.131420 
#    y 0.000000 3.813280 0.000000 
#    z -0.131420 0.000000 3.571410 
# 
# 
# High freq. dielectric constant tensor:
#      x y z
#    x 1.766750 0.000000 -0.014140 
#    y 0.000000 1.779050 0.000000 
#    z -0.014140 0.000000 1.757220 
# 
# From -- ./inp_files/263258.got.cif
#   From: 2010.06.25/outbox.cif.g09.slc.cpg/sg12_132_cif.got.tgz:263258.got - 2010.06.28 00:19:55.
