data_PCOD8090838
_publ_section_title
;
Structure prediction by ZEFSAII (Michael W. Deem and Ramdas Pophale) SiO2 
 PCOD8090838
Probable space group: C 2/M
;
_chemical_formula_sum "Si O2"
_cell_formula_units_Z 56
_cell_length_a 25.197447
_cell_length_b 9.057690
_cell_length_c 15.015247
_cell_angle_alpha 90.000000
_cell_angle_beta 73.909514
_cell_angle_gamma 90.000000
_cell_volume 3292.690071
_symmetry_space_group_name_H-M "C 2/M"
_symmetry_group_IT_number 12
_symmetry_cell_setting 'monoclinic'
loop_
_space_group_symop_operation_xyz
x,y,z
-x,y,-z
-x,-y,-z
x,-y,z
1/2+x,1/2+y,z
1/2-x,1/2+y,-z
1/2-x,1/2-y,-z
1/2+x,1/2-y,z
loop_
_atom_site_type_symbol
_atom_site_label
_atom_site_fract_x
_atom_site_fract_y
_atom_site_fract_z
Si Si1 0.815179 0.823956 0.111295
Si Si2 0.393418 0.172591 0.215379
Si Si3 0.797533 0.826132 0.793781
Si Si4 0.174526 0.669983 0.584934
Si Si5 0.293526 0.672763 0.595506
Si Si6 0.378374 0.673326 0.909027
Si Si7 0.501124 0.671905 0.104629
O O1 0.850875 0.762221 0.175364
O O2 0.753622 0.762567 0.142975
O O3 0.814105 0.000000 0.117611
O O4 0.841883 0.764203 0.007214
O O5 0.376858 0.199942 0.325953
O O6 0.454929 0.231319 0.174106
O O7 0.389516 0.000000 0.192840
O O8 0.810329 0.776308 0.686904
O O9 0.850998 0.784366 0.827620
O O10 0.783640 0.000000 0.805129
O O11 0.180072 0.500000 0.557829
O O12 0.230622 0.724633 0.607372
O O13 0.165590 0.754660 0.495911
O O14 0.300233 0.500000 0.582446
O O15 0.381971 0.500000 0.921158
O O16 0.440860 0.733751 0.884260
O O17 0.491088 0.500000 0.131567
O O18 0.500000 0.698296 0.000000
#
# Coordination Sequence:
#
# PCOD8090838 Si02
#       7
#     8   8   8   8   8   8   8
#     4  11  20  32  50  76 105 138 171 202 247 301
#     4  11  21  34  52  76 104 134 168 210 257 297
#     4  10  19  34  52  74 105 137 167 204 251 301
#     4   9  18  32  48  71 100 128 161 205 254 298
#     4   9  17  30  49  73  99 128 162 202 248 300
#     4   9  19  34  52  72 102 140 171 204 248 295
#     4  10  19  35  54  74 101 134 173 212 248 291
#
# _framework density 17.007370999999999
#
# number of rings (size 3 to 8) (size 9 to 14) (size 15 to 20)
#    0.000    2.143    2.857    1.286    0.000    2.000 
#    0.000    1.429    0.000    0.857    0.000    6.000 
#    0.000    0.000    0.000    0.000    0.000    0.000 
#
# Total GULP energy -347196.428085 kJ/mol
# GULP energy per Si atom -12399.872432 kJ/mol
# Density = 1.696866 g / cm^3
# Si number density = 17.007371 Si / 1000 Ang^3
#
#
#
# Elastic Constant Matrix: (Units=GPa)
#
#
# Indices 1 2 3 4 5 6 
#
# 1 113.2381 31.9458 51.5897 0.0000 1.5099 0.0000
# 2 31.9458 45.7352 36.2490 0.0000 -3.4114 0.0000
# 3 51.5897 36.2490 110.9883 0.0000 -1.3571 0.0000
# 4 0.0000 0.0000 0.0000 27.3404 0.0000 -6.3529
# 5 1.5099 -3.4114 -1.3571 0.0000 23.1412 0.0000
# 6 0.0000 0.0000 0.0000 -6.3529 0.0000 22.1516
#
#
#
# Elastic Compliance Matrix: (Units=1/GPa)
#
#
# Indices 1 2 3 4 5 6 
#
# 1 0.012194 -0.005592 -0.003864 0.000000 -0.001847 0.000000
# 2 -0.005592 0.032402 -0.007926 0.000000 0.004677 0.000000
# 3 -0.003864 -0.007926 0.013393 0.000000 -0.000131 0.000000
# 4 0.000000 0.000000 0.000000 0.039187 0.000000 0.011239
# 5 -0.001847 0.004677 -0.000131 0.000000 0.044015 0.000000
# 6 0.000000 0.000000 0.000000 0.011239 0.000000 0.048367
#
#
# Mechanical properties :
#
#
# Convention : Reuss Voigt Hill
#
# Bulk Modulus (GPa) = 43.05861 56.61449 49.83655
# Shear Modulus (GPa) = 21.54580 24.53844 23.04212
#
# Velocity S-wave (km/s) = 3.56315 3.80256 3.68480
# Velocity P-wave (km/s) = 6.50389 7.25532 6.88986
#
# Compressibility (1/GPa) = 0.02322416
#
# Stress axis : x y z
#
# Youngs Moduli (GPa) = 82.01020 30.86223 74.66575
#
# Poissons Ratio (x) = 0.17259 0.28850
# Poissons Ratio (y) = 0.45863 0.59180
# Poissons Ratio (z) = 0.31688 0.24461
#
# Static dielectric constant tensor:
#      x y z
#    x 3.234200 0.000000 -0.036200 
#    y 0.000000 3.076460 0.000000 
#    z -0.036200 0.000000 3.317420 
# 
# 
# High freq. dielectric constant tensor:
#      x y z
#    x 1.637470 0.000000 -0.000500 
#    y 0.000000 1.645460 0.000000 
#    z -0.000500 0.000000 1.659910 
# 
# From -- ./inp_files/237308.got.cif
#   From: 2010.06.25/outbox.cif.g09.slc.cpg/sg12_119_cif.got.tgz:237308.got - 2010.06.28 00:19:55.
