data_PCOD8090799
_publ_section_title
;
Structure prediction by ZEFSAII (Michael W. Deem and Ramdas Pophale) SiO2 
 PCOD8090799
Probable space group: C 2/M
;
_chemical_formula_sum "Si O2"
_cell_formula_units_Z 56
_cell_length_a 23.825814
_cell_length_b 9.233172
_cell_length_c 14.770373
_cell_angle_alpha 90.000000
_cell_angle_beta 71.205041
_cell_angle_gamma 90.000000
_cell_volume 3076.041862
_symmetry_space_group_name_H-M "C 2/M"
_symmetry_group_IT_number 12
_symmetry_cell_setting 'monoclinic'
loop_
_space_group_symop_operation_xyz
x,y,z
-x,y,-z
-x,-y,-z
x,-y,z
1/2+x,1/2+y,z
1/2-x,1/2+y,-z
1/2-x,1/2-y,-z
1/2+x,1/2-y,z
loop_
_atom_site_type_symbol
_atom_site_label
_atom_site_fract_x
_atom_site_fract_y
_atom_site_fract_z
Si Si1 0.573548 0.171849 0.873567
Si Si2 0.811589 0.829024 0.662214
Si Si3 0.400209 0.331875 0.769836
Si Si4 0.680527 0.830279 0.700387
Si Si5 0.058215 0.329060 0.084534
Si Si6 0.631407 0.830234 0.535556
Si Si7 0.014805 0.165730 0.596372
O O1 0.626937 0.241030 0.786452
O O2 0.509806 0.227083 0.869745
O O3 0.572975 0.000000 0.866639
O O4 0.582341 0.217563 0.973403
O O5 0.842066 0.790534 0.741833
O O6 0.744082 0.771021 0.700896
O O7 0.846255 0.751724 0.563951
O O8 0.815207 0.000000 0.640492
O O9 0.400215 0.500000 0.793895
O O10 0.399417 0.244211 0.863571
O O11 0.457699 0.287952 0.682772
O O12 0.674642 0.795561 0.597144
O O13 0.677731 0.000000 0.719428
O O14 0.061788 0.500000 0.095651
O O15 0.567006 0.773130 0.598140
O O16 0.627850 0.000000 0.516885
O O17 0.000000 0.188554 0.500000
O O18 0.033554 0.000000 0.605692
#
# Coordination Sequence:
#
# PCOD8090799 Si02
#       7
#     8   8   8   8   8   8   8
#     4   8  15  31  53  78 101 126 163 205 251 304
#     4  10  20  36  52  67  98 144 176 200 242 304
#     4  10  20  33  50  72 100 134 170 202 241 297
#     4   9  18  32  52  74  98 131 175 213 245 295
#     4   9  17  31  55  79 102 128 157 204 260 303
#     4  11  21  32  51  80 103 125 166 220 259 287
#     4  10  19  34  51  69  99 137 170 197 237 303
#
# _framework density 18.205213000000001
#
# number of rings (size 3 to 8) (size 9 to 14) (size 15 to 20)
#    0.000    2.429    1.429    2.571    0.000    2.571 
#    0.000    2.857    0.000    3.429    0.000    0.000 
#    0.000    0.000    0.000    0.000    0.000    0.000 
#
# Total GULP energy -347168.524134 kJ/mol
# GULP energy per Si atom -12398.875862 kJ/mol
# Density = 1.816378 g / cm^3
# Si number density = 18.205213 Si / 1000 Ang^3
#
#
#
# Elastic Constant Matrix: (Units=GPa)
#
#
# Indices 1 2 3 4 5 6 
#
# 1 115.3717 35.2489 29.1580 0.0000 13.6803 0.0000
# 2 35.2489 38.4693 26.3581 0.0000 8.8862 0.0000
# 3 29.1580 26.3581 59.7379 0.0000 14.7880 0.0000
# 4 0.0000 0.0000 0.0000 21.8319 0.0000 7.1557
# 5 13.6803 8.8862 14.7880 0.0000 28.3268 0.0000
# 6 0.0000 0.0000 0.0000 7.1557 0.0000 21.4025
#
#
#
# Elastic Compliance Matrix: (Units=1/GPa)
#
#
# Indices 1 2 3 4 5 6 
#
# 1 0.012248 -0.010017 -0.001002 0.000000 -0.002250 0.000000
# 2 -0.010017 0.045767 -0.014870 0.000000 -0.001757 0.000000
# 3 -0.001002 -0.014870 0.025857 0.000000 -0.008350 0.000000
# 4 0.000000 0.000000 0.000000 0.051442 0.000000 -0.017199
# 5 -0.002250 -0.001757 -0.008350 0.000000 0.041299 0.000000
# 6 0.000000 0.000000 0.000000 -0.017199 0.000000 0.052474
#
#
# Mechanical properties :
#
#
# Convention : Reuss Voigt Hill
#
# Bulk Modulus (GPa) = 31.15673 43.90100 37.52887
# Shear Modulus (GPa) = 17.14909 22.49984 19.82446
#
# Velocity S-wave (km/s) = 3.07251 3.51935 3.30350
# Velocity P-wave (km/s) = 5.45330 6.37819 5.93379
#
# Compressibility (1/GPa) = 0.03209580
#
# Stress axis : x y z
#
# Youngs Moduli (GPa) = 81.64682 21.84981 38.67477
#
# Poissons Ratio (x) = 0.21886 0.03874
# Poissons Ratio (y) = 0.81782 0.57508
# Poissons Ratio (z) = 0.08178 0.32490
#
# Static dielectric constant tensor:
#      x y z
#    x 3.672460 0.000000 -0.111020 
#    y 0.000000 3.025820 0.000000 
#    z -0.111020 0.000000 3.444360 
# 
# 
# High freq. dielectric constant tensor:
#      x y z
#    x 1.709440 0.000000 0.006530 
#    y 0.000000 1.671960 0.000000 
#    z 0.006530 0.000000 1.704390 
# 
# From -- ./inp_files/237438.got.cif
#   From: 2010.06.25/outbox.cif.g09.slc.cpg/sg12_119_cif.got.tgz:237438.got - 2010.06.28 00:19:55.
