data_PCOD8090674
_publ_section_title
;
Structure prediction by ZEFSAII (Michael W. Deem and Ramdas Pophale) SiO2 
 PCOD8090674
Probable space group: C 2/M
;
_chemical_formula_sum "Si O2"
_cell_formula_units_Z 56
_cell_length_a 25.241460
_cell_length_b 8.741176
_cell_length_c 14.607307
_cell_angle_alpha 90.000000
_cell_angle_beta 59.333359
_cell_angle_gamma 90.000000
_cell_volume 2772.224337
_symmetry_space_group_name_H-M "C 2/M"
_symmetry_group_IT_number 12
_symmetry_cell_setting 'monoclinic'
loop_
_space_group_symop_operation_xyz
x,y,z
-x,y,-z
-x,-y,-z
x,-y,z
1/2+x,1/2+y,z
1/2-x,1/2+y,-z
1/2-x,1/2-y,-z
1/2+x,1/2-y,z
loop_
_atom_site_type_symbol
_atom_site_label
_atom_site_fract_x
_atom_site_fract_y
_atom_site_fract_z
Si Si1 0.141922 0.178120 0.223927
Si Si2 0.072148 0.321000 0.696242
Si Si3 0.523082 0.181068 0.075258
Si Si4 0.849390 0.822990 0.991211
Si Si5 0.485364 0.178881 0.614348
Si Si6 0.249697 0.179189 0.769955
Si Si7 0.207869 0.682004 0.615782
O O1 0.167128 0.214425 0.099632
O O2 0.071124 0.228478 0.293141
O O3 0.181504 0.270868 0.263442
O O4 0.147513 0.000000 0.241713
O O5 0.076524 0.500000 0.711092
O O6 0.139542 0.251556 0.655173
O O7 0.022082 0.247219 0.808814
O O8 0.047875 0.286558 0.615541
O O9 0.592917 0.224527 0.029729
O O10 0.518940 0.000000 0.080592
O O11 0.500000 0.249126 0.000000
O O12 0.866314 0.000000 0.987658
O O13 0.793517 0.775417 0.106496
O O14 0.500000 0.236308 0.500000
O O15 0.468172 0.000000 0.632893
O O16 0.228740 0.266263 0.697638
O O17 0.248846 0.000000 0.749764
O O18 0.210346 0.500000 0.608338
O O19 0.250000 0.750000 0.500000
#
# Coordination Sequence:
#
# PCOD8090674 Si02
#       7
#     8   8   8   8   8   8   8
#     4  11  23  40  62  93 126 158 202 259 316 368
#     4   9  19  37  59  87 121 156 197 243 296 361
#     4  10  19  33  58  88 117 155 200 244 293 357
#     4  10  22  39  59  89 125 158 198 252 312 368
#     4  10  21  38  63  91 119 160 204 246 301 367
#     4  11  24  42  63  88 122 166 210 251 305 372
#     4  11  24  43  65  92 125 163 208 257 305 360
#
# _framework density 20.200384
#
# number of rings (size 3 to 8) (size 9 to 14) (size 15 to 20)
#    0.000    1.714    1.429    2.571    2.000    3.429 
#    0.000    2.857    0.000    0.000    0.000    0.000 
#    0.000    0.000    0.000    0.000    0.000    0.000 
#
# Total GULP energy -347250.469667 kJ/mol
# GULP energy per Si atom -12401.802488 kJ/mol
# Density = 2.015441 g / cm^3
# Si number density = 20.200384 Si / 1000 Ang^3
#
#
#
# Elastic Constant Matrix: (Units=GPa)
#
#
# Indices 1 2 3 4 5 6 
#
# 1 142.0954 30.4664 40.9885 0.0000 7.6262 0.0000
# 2 30.4664 49.0341 31.5824 -0.0001 3.5894 -0.0001
# 3 40.9885 31.5824 109.7859 0.0000 13.9439 0.0000
# 4 0.0000 -0.0001 0.0000 15.6437 0.0000 -6.9851
# 5 7.6262 3.5894 13.9439 0.0000 38.4602 0.0000
# 6 0.0000 -0.0001 0.0000 -6.9851 0.0000 27.7024
#
#
#
# Elastic Compliance Matrix: (Units=1/GPa)
#
#
# Indices 1 2 3 4 5 6 
#
# 1 0.008484 -0.003972 -0.001948 0.000000 -0.000605 0.000000
# 2 -0.003972 0.026895 -0.006327 0.000000 0.000571 0.000000
# 3 -0.001948 -0.006327 0.012088 0.000000 -0.003406 0.000000
# 4 0.000000 0.000000 0.000000 0.072034 0.000000 0.018163
# 5 -0.000605 0.000571 -0.003406 0.000000 0.027302 0.000000
# 6 0.000000 0.000000 0.000000 0.018163 0.000000 0.040678
#
#
# Mechanical properties :
#
#
# Convention : Reuss Voigt Hill
#
# Bulk Modulus (GPa) = 43.52742 56.33222 49.92982
# Shear Modulus (GPa) = 22.76538 29.55313 26.15925
#
# Velocity S-wave (km/s) = 3.36069 3.82907 3.60250
# Velocity P-wave (km/s) = 6.05422 6.89175 6.48652
#
# Compressibility (1/GPa) = 0.02297402
#
# Stress axis : x y z
#
# Youngs Moduli (GPa) = 117.87546 37.18148 82.72399
#
# Poissons Ratio (x) = 0.14769 0.16112
# Poissons Ratio (y) = 0.46823 0.52335
# Poissons Ratio (z) = 0.22959 0.23523
#
# Static dielectric constant tensor:
#      x y z
#    x 3.768690 0.000000 0.079480 
#    y 0.000000 3.439370 0.000000 
#    z 0.079480 0.000000 3.915840 
# 
# 
# High freq. dielectric constant tensor:
#      x y z
#    x 1.803350 0.000000 0.004920 
#    y 0.000000 1.769210 0.000000 
#    z 0.004920 0.000000 1.799450 
# 
# From -- ./inp_files/238350.got.cif
#   From: 2010.06.25/outbox.cif.g09.slc.cpg/sg12_120_cif.got.tgz:238350.got - 2010.06.28 00:19:55.
