data_PCOD8090715
_publ_section_title
;
Structure prediction by ZEFSAII (Michael W. Deem and Ramdas Pophale) SiO2 
 PCOD8090715
Probable space group: C 2/M
;
_chemical_formula_sum "Si O2"
_cell_formula_units_Z 56
_cell_length_a 20.373756
_cell_length_b 17.971617
_cell_length_c 9.484449
_cell_angle_alpha 90.000000
_cell_angle_beta 53.760344
_cell_angle_gamma 90.000000
_cell_volume 2800.930806
_symmetry_space_group_name_H-M "C 2/M"
_symmetry_group_IT_number 12
_symmetry_cell_setting 'monoclinic'
loop_
_space_group_symop_operation_xyz
x,y,z
-x,y,-z
-x,-y,-z
x,-y,z
1/2+x,1/2+y,z
1/2-x,1/2+y,-z
1/2-x,1/2-y,-z
1/2+x,1/2-y,z
loop_
_atom_site_type_symbol
_atom_site_label
_atom_site_fract_x
_atom_site_fract_y
_atom_site_fract_z
Si Si1 0.753805 0.646521 0.384294
Si Si2 0.568933 0.086627 0.794680
Si Si3 0.735944 0.314129 0.711077
Si Si4 0.159086 0.781687 0.077126
Si Si5 0.322762 0.919404 0.799254
Si Si6 0.186758 0.082310 0.201557
Si Si7 0.030584 0.660109 0.313075
O O1 0.848238 0.623974 0.256183
O O2 0.717803 0.641707 0.588982
O O3 0.737502 0.729875 0.351298
O O4 0.704407 0.591354 0.345427
O O5 0.543568 0.135800 0.691957
O O6 0.583435 0.000000 0.737087
O O7 0.500000 0.094238 0.000000
O O8 0.808751 0.356471 0.699335
O O9 0.659647 0.313591 0.915602
O O10 0.131107 0.849979 0.214840
O O11 0.089912 0.720139 0.166644
O O12 0.250000 0.750000 0.000000
O O13 0.416419 0.914194 0.727251
O O14 0.306301 0.000000 0.751769
O O15 0.269663 0.909243 0.007400
O O16 0.147647 0.000000 0.228982
O O17 0.000000 0.693328 0.500000
#
# Coordination Sequence:
#
# PCOD8090715 Si02
#       7
#     8   8   8   8   8   8   8
#     4  11  20  33  51  78 113 145 191 227 269 323
#     4  11  24  36  49  76 121 164 185 208 269 347
#     4  10  20  33  55  77 101 146 190 240 274 313
#     4  11  19  39  60  77 107 148 191 238 275 325
#     4  10  19  34  53  78 111 148 185 227 277 328
#     4  10  19  33  59  84 108 145 189 233 280 322
#     4  12  23  35  55  82 111 148 188 228 274 333
#
# _framework density 19.993352000000002
#
# number of rings (size 3 to 8) (size 9 to 14) (size 15 to 20)
#    0.000    1.286    4.286    3.429    0.000    5.714 
#    0.000    0.000    0.000    0.429    0.000    1.000 
#    0.000    6.857    0.000    0.000    0.000    0.000 
#
# Total GULP energy -346983.894840 kJ/mol
# GULP energy per Si atom -12392.281959 kJ/mol
# Density = 1.994785 g / cm^3
# Si number density = 19.993352 Si / 1000 Ang^3
#
#
#
# Elastic Constant Matrix: (Units=GPa)
#
#
# Indices 1 2 3 4 5 6 
#
# 1 42.6258 36.2667 24.3313 0.0000 14.3907 0.0000
# 2 36.2667 126.7691 29.0002 0.0000 9.0041 0.0000
# 3 24.3313 29.0002 99.3246 0.0000 24.4044 0.0000
# 4 0.0000 0.0000 0.0000 20.8282 0.0000 7.6975
# 5 14.3907 9.0041 24.4044 0.0000 31.8203 0.0000
# 6 0.0000 0.0000 0.0000 7.6975 0.0000 23.1676
#
#
#
# Elastic Compliance Matrix: (Units=1/GPa)
#
#
# Indices 1 2 3 4 5 6 
#
# 1 0.037000 -0.008940 -0.003652 0.000000 -0.011403 0.000000
# 2 -0.008940 0.010623 -0.001437 0.000000 0.002139 0.000000
# 3 -0.003652 -0.001437 0.013402 0.000000 -0.008220 0.000000
# 4 0.000000 0.000000 0.000000 0.054733 0.000000 -0.018185
# 5 -0.011403 0.002139 -0.008220 0.000000 0.042283 0.000000
# 6 0.000000 0.000000 0.000000 -0.018185 0.000000 0.049206
#
#
# Mechanical properties :
#
#
# Convention : Reuss Voigt Hill
#
# Bulk Modulus (GPa) = 30.33340 49.76844 40.05092
# Shear Modulus (GPa) = 20.30098 27.10462 23.70280
#
# Velocity S-wave (km/s) = 3.18997 3.68595 3.44689
# Velocity P-wave (km/s) = 5.36401 6.56213 5.99308
#
# Compressibility (1/GPa) = 0.03296697
#
# Stress axis : x y z
#
# Youngs Moduli (GPa) = 27.02666 94.13743 74.61572
#
# Poissons Ratio (x) = 0.84158 0.27249
# Poissons Ratio (y) = 0.24162 0.10724
# Poissons Ratio (z) = 0.09870 0.13530
#
# Static dielectric constant tensor:
#      x y z
#    x 3.368680 0.000000 0.340230 
#    y 0.000000 3.954670 0.000000 
#    z 0.340230 0.000000 3.963360 
# 
# 
# High freq. dielectric constant tensor:
#      x y z
#    x 1.735360 0.000000 0.031190 
#    y 0.000000 1.789300 0.000000 
#    z 0.031190 0.000000 1.784220 
# 
# From -- ./inp_files/87817.got.cif
#   From: 2010.06.25/outbox.cif.g09.slc.cpg/sg12_44_cif.got.tgz:87817.got - 2010.06.28 00:19:55.
