data_PCOD8090350
_publ_section_title
;
Structure prediction by ZEFSAII (Michael W. Deem and Ramdas Pophale) SiO2 
 PCOD8090350
Probable space group: C 2/M
;
_chemical_formula_sum "Si O2"
_cell_formula_units_Z 64
_cell_length_a 28.389050
_cell_length_b 8.745988
_cell_length_c 19.466094
_cell_angle_alpha 90.000000
_cell_angle_beta 133.484560
_cell_angle_gamma 90.000000
_cell_volume 3506.806399
_symmetry_space_group_name_H-M "C 2/M"
_symmetry_group_IT_number 12
_symmetry_cell_setting 'monoclinic'
loop_
_space_group_symop_operation_xyz
x,y,z
-x,y,-z
-x,-y,-z
x,-y,z
1/2+x,1/2+y,z
1/2-x,1/2+y,-z
1/2-x,1/2-y,-z
1/2+x,1/2-y,z
loop_
_atom_site_type_symbol
_atom_site_label
_atom_site_fract_x
_atom_site_fract_y
_atom_site_fract_z
Si Si1 0.482178 0.824276 0.309478
Si Si2 0.630583 0.820980 0.449005
Si Si3 0.510772 0.178141 0.836882
Si Si4 0.180663 0.176300 0.631286
Si Si5 0.062301 0.178987 0.017856
Si Si6 0.826452 0.675734 0.784292
Si Si7 0.062331 0.180134 0.603001
Si Si8 0.128265 0.179791 0.304394
O O1 0.556911 0.772955 0.392620
O O2 0.458893 0.791028 0.208097
O O3 0.437934 0.730766 0.317932
O O4 0.474006 0.000000 0.320519
O O5 0.676317 0.774830 0.557607
O O6 0.653518 0.731131 0.404283
O O7 0.635597 0.000000 0.438348
O O8 0.446610 0.278123 0.783023
O O9 0.492348 0.000000 0.825728
O O10 0.562218 0.229379 0.945885
O O11 0.252258 0.195279 0.735180
O O12 0.128510 0.239245 0.634030
O O13 0.166280 0.000000 0.598190
O O14 0.128035 0.220878 0.122750
O O15 0.061201 0.000000 0.001333
O O16 0.000000 0.229206 0.000000
O O17 0.849062 0.500000 0.811799
O O18 0.828900 0.732124 0.708477
O O19 0.000000 0.249274 0.500000
O O20 0.059652 0.000000 0.598228
O O21 0.137441 0.000000 0.304087
#
# Coordination Sequence:
#
# PCOD8090350 Si02
#       8
#     8   8   8   8   8   8   8   8
#     4   9  19  33  52  82 112 139 177 222 267 321
#     4  10  20  34  53  78 109 147 186 222 268 322
#     4  10  20  35  56  83 112 142 179 222 273 324
#     4  10  22  38  54  79 110 145 186 225 270 324
#     4  11  22  36  57  85 111 139 180 228 273 320
#     4  11  23  38  56  77 109 148 184 224 270 324
#     4  10  19  33  56  82 109 142 180 224 273 319
#     4  11  21  34  53  78 110 145 184 226 267 318
#
# _framework density 18.250223999999999
#
# number of rings (size 3 to 8) (size 9 to 14) (size 15 to 20)
#    0.000    1.750    2.500    3.375    0.000    5.250 
#    0.000    0.000    0.000    0.750    0.000    0.000 
#    0.000    0.000    0.000    0.000    0.000    0.000 
#
# Total GULP energy -396900.783297 kJ/mol
# GULP energy per Si atom -12403.149478 kJ/mol
# Density = 1.820869 g / cm^3
# Si number density = 18.250224 Si / 1000 Ang^3
#
#
#
# Elastic Constant Matrix: (Units=GPa)
#
#
# Indices 1 2 3 4 5 6 
#
# 1 96.0042 21.2157 45.3460 0.0000 -3.5807 0.0000
# 2 21.2157 49.7939 21.8936 0.0000 -1.1646 0.0000
# 3 45.3460 21.8936 94.0794 0.0000 -7.8035 0.0000
# 4 0.0000 0.0000 0.0000 30.3539 0.0000 -7.7379
# 5 -3.5807 -1.1646 -7.8035 0.0000 24.8858 0.0000
# 6 0.0000 0.0000 0.0000 -7.7379 0.0000 25.0343
#
#
#
# Elastic Compliance Matrix: (Units=1/GPa)
#
#
# Indices 1 2 3 4 5 6 
#
# 1 0.013966 -0.003331 -0.005957 0.000000 -0.000015 0.000000
# 2 -0.003331 0.023175 -0.003837 0.000000 -0.000598 0.000000
# 3 -0.005957 -0.003837 0.014690 0.000000 0.003570 0.000000
# 4 0.000000 0.000000 0.000000 0.035763 0.000000 0.011054
# 5 -0.000015 -0.000598 0.003570 0.000000 0.041273 0.000000
# 6 0.000000 0.000000 0.000000 0.011054 0.000000 0.043362
#
#
# Mechanical properties :
#
#
# Convention : Reuss Voigt Hill
#
# Bulk Modulus (GPa) = 39.09441 46.30978 42.70210
# Shear Modulus (GPa) = 24.15387 26.14963 25.15175
#
# Velocity S-wave (km/s) = 3.64192 3.78939 3.71639
# Velocity P-wave (km/s) = 6.25720 6.67653 6.47026
#
# Compressibility (1/GPa) = 0.02557910
#
# Stress axis : x y z
#
# Youngs Moduli (GPa) = 71.60379 43.14938 68.07445
#
# Poissons Ratio (x) = 0.14375 0.40555
# Poissons Ratio (y) = 0.23854 0.26121
# Poissons Ratio (z) = 0.42657 0.16557
#
# Static dielectric constant tensor:
#      x y z
#    x 3.378530 0.000000 -0.131010 
#    y 0.000000 3.316160 0.000000 
#    z -0.131010 0.000000 3.255100 
# 
# 
# High freq. dielectric constant tensor:
#      x y z
#    x 1.692530 0.000000 -0.015150 
#    y 0.000000 1.713020 0.000000 
#    z -0.015150 0.000000 1.694650 
# 
# From -- ./inp_files/295812.got.cif
#   From: 2010.06.25/outbox.cif.g09.slc.cpg/sg12_148_cif.got.tgz:295812.got - 2010.06.28 00:19:55.
