data_PCOD8090176
_publ_section_title
;
Structure prediction by ZEFSAII (Michael W. Deem and Ramdas Pophale) SiO2 
 PCOD8090176
Probable space group: C 2/M
;
_chemical_formula_sum "Si O2"
_cell_formula_units_Z 64
_cell_length_a 12.523075
_cell_length_b 23.562768
_cell_length_c 24.361360
_cell_angle_alpha 90.000000
_cell_angle_beta 152.984157
_cell_angle_gamma 90.000000
_cell_volume 3265.285715
_symmetry_space_group_name_H-M "C 2/M"
_symmetry_group_IT_number 12
_symmetry_cell_setting 'monoclinic'
loop_
_space_group_symop_operation_xyz
x,y,z
-x,y,-z
-x,-y,-z
x,-y,z
1/2+x,1/2+y,z
1/2-x,1/2+y,-z
1/2-x,1/2-y,-z
1/2+x,1/2-y,z
loop_
_atom_site_type_symbol
_atom_site_label
_atom_site_fract_x
_atom_site_fract_y
_atom_site_fract_z
Si Si1 0.720647 0.693368 0.454893
Si Si2 0.005501 0.221893 0.763246
Si Si3 0.618775 0.182464 0.888095
Si Si4 0.538745 0.062769 0.693617
Si Si5 0.031290 0.437127 0.213461
Si Si6 0.074962 0.246651 0.106488
Si Si7 0.783041 0.664941 0.283430
Si Si8 0.971643 0.111581 0.548515
O O1 0.750000 0.750000 0.500000
O O2 0.644203 0.706448 0.358300
O O3 0.529161 0.657499 0.402371
O O4 0.978373 0.665146 0.571607
O O5 0.956534 0.285088 0.767437
O O6 0.285800 0.221511 0.879190
O O7 0.942548 0.174541 0.780323
O O8 0.585824 0.114713 0.873445
O O9 0.554703 0.204323 0.919160
O O10 0.890582 0.199117 0.001297
O O11 0.579160 0.066459 0.776894
O O12 0.727116 0.104042 0.750796
O O13 0.269876 0.077513 0.557107
O O14 0.591300 0.000000 0.695388
O O15 0.974835 0.500000 0.162563
O O16 0.313123 0.431014 0.342994
O O17 0.278501 0.214515 0.235084
O O18 0.000000 0.138912 0.500000
#
# Coordination Sequence:
#
# PCOD8090176 Si02
#       8
#     8   8   8   8   8   8   8   8
#     4  11  21  32  50  82 116 142 180 228 287 339
#     4  11  21  34  54  77 112 143 183 223 280 339
#     4  10  22  35  57  80 113 146 185 231 283 339
#     4   9  18  34  53  77 112 151 190 229 275 335
#     4  10  19  33  55  83 111 145 188 238 285 332
#     4  10  20  38  54  80 110 149 184 227 284 338
#     4  10  21  35  53  79 109 146 185 230 275 339
#     4   9  19  31  53  78 113 151 185 225 283 346
#
# _framework density 19.600121999999999
#
# number of rings (size 3 to 8) (size 9 to 14) (size 15 to 20)
#    0.000    2.000    1.250    2.625    5.250    1.500 
#    0.000    0.625    0.000   12.000    0.000    0.000 
#    0.000   15.000    0.000    0.000    0.000    0.000 
#
# Total GULP energy -396503.823233 kJ/mol
# GULP energy per Si atom -12390.744476 kJ/mol
# Density = 1.955551 g / cm^3
# Si number density = 19.600122 Si / 1000 Ang^3
#
#
#
# Elastic Constant Matrix: (Units=GPa)
#
#
# Indices 1 2 3 4 5 6 
#
# 1 113.2976 61.2923 21.4247 0.0048 17.3320 -0.0004
# 2 61.2923 146.5222 32.2075 0.0031 5.3754 0.0008
# 3 21.4247 32.2075 59.4885 0.0466 8.4241 0.0113
# 4 0.0048 0.0031 0.0466 23.5453 0.0050 -0.4058
# 5 17.3320 5.3754 8.4241 0.0050 27.4846 -0.0002
# 6 -0.0004 0.0008 0.0113 -0.4058 -0.0002 30.2141
#
#
#
# Elastic Compliance Matrix: (Units=1/GPa)
#
#
# Indices 1 2 3 4 5 6 
#
# 1 0.012656 -0.004830 -0.000990 0.000001 -0.006733 0.000001
# 2 -0.004830 0.009591 -0.003783 0.000007 0.002329 0.000001
# 3 -0.000990 -0.003783 0.019885 -0.000038 -0.004731 -0.000008
# 4 0.000001 0.000007 -0.000038 0.042481 0.000002 0.000571
# 5 -0.006733 0.002329 -0.004731 0.000002 0.041624 0.000002
# 6 0.000001 0.000001 -0.000008 0.000571 0.000002 0.033105
#
#
# Mechanical properties :
#
#
# Convention : Reuss Voigt Hill
#
# Bulk Modulus (GPa) = 43.61731 61.01749 52.31740
# Shear Modulus (GPa) = 26.85420 29.87440 28.36430
#
# Velocity S-wave (km/s) = 3.70551 3.90833 3.80827
# Velocity P-wave (km/s) = 6.37257 7.18091 6.78878
#
# Compressibility (1/GPa) = 0.02292668
#
# Stress axis : x y z
#
# Youngs Moduli (GPa) = 79.01182 104.26000 50.29001
#
# Poissons Ratio (x) = 0.50355 0.04978
# Poissons Ratio (y) = 0.38161 0.19026
# Poissons Ratio (z) = 0.07821 0.39445
#
# Static dielectric constant tensor:
#      x y z
#    x 2.990970 -0.002040 4.255070 
#    y -0.002040 3.464100 0.013280 
#    z 4.255070 0.013280 -24.133350 
# 
# 
# High freq. dielectric constant tensor:
#      x y z
#    x 1.763220 0.000000 0.007430 
#    y 0.000000 1.735670 0.000000 
#    z 0.007430 0.000000 1.756960 
# 
# From -- ./inp_files/337121.got.cif
#   From: 2010.06.25/outbox.cif.g09.slc.cpg/sg12_169_cif.got.tgz:337121.got - 2010.06.28 00:19:55.
