data_PCOD8090892
_publ_section_title
;
Structure prediction by ZEFSAII (Michael W. Deem and Ramdas Pophale) SiO2 
 PCOD8090892
Probable space group: C 2/M
;
_chemical_formula_sum "Si O2"
_cell_formula_units_Z 56
_cell_length_a 18.917598
_cell_length_b 9.490656
_cell_length_c 25.451037
_cell_angle_alpha 90.000000
_cell_angle_beta 136.513528
_cell_angle_gamma 90.000000
_cell_volume 3144.646485
_symmetry_space_group_name_H-M "C 2/M"
_symmetry_group_IT_number 12
_symmetry_cell_setting 'monoclinic'
loop_
_space_group_symop_operation_xyz
x,y,z
-x,y,-z
-x,-y,-z
x,-y,z
1/2+x,1/2+y,z
1/2-x,1/2+y,-z
1/2-x,1/2-y,-z
1/2+x,1/2-y,z
loop_
_atom_site_type_symbol
_atom_site_label
_atom_site_fract_x
_atom_site_fract_y
_atom_site_fract_z
Si Si1 0.140235 0.839453 0.288089
Si Si2 0.038787 0.655115 0.786507
Si Si3 0.756727 0.337149 0.244843
Si Si4 0.061721 0.165263 0.698295
Si Si5 0.614776 0.667241 0.072419
Si Si6 0.248866 0.846640 0.048903
Si Si7 0.327458 0.660168 0.575356
O O1 0.222660 0.821369 0.286715
O O2 0.185276 0.800747 0.369864
O O3 0.049008 0.731032 0.226684
O O4 0.097841 0.000000 0.266713
O O5 0.001888 0.500000 0.745919
O O6 0.076324 0.758916 0.761429
O O7 0.133445 0.630773 0.874812
O O8 0.784511 0.500000 0.246728
O O9 0.858521 0.240846 0.297727
O O10 0.667396 0.284059 0.156085
O O11 0.943430 0.187613 0.617089
O O12 0.087937 0.000000 0.717143
O O13 0.609878 0.500000 0.070431
O O14 0.685763 0.722239 0.063037
O O15 0.500000 0.729066 0.000000
O O16 0.200288 0.000000 0.009164
O O17 0.250000 0.750000 0.000000
O O18 0.296043 0.500000 0.549287
O O19 0.250000 0.750000 0.500000
#
# Coordination Sequence:
#
# PCOD8090892 Si02
#       7
#     8   8   8   8   8   8   8
#     4   9  20  35  55  83 110 139 180 222 265 322
#     4  10  19  34  53  75 104 139 183 227 266 320
#     4  10  19  35  57  79 108 144 182 224 270 321
#     4  10  20  35  56  81 109 139 177 221 266 321
#     4   9  18  33  52  75 103 138 181 224 267 318
#     4  10  21  34  50  74 103 134 179 226 269 325
#     4   9  19  36  56  82 110 139 177 217 263 320
#
# _framework density 17.808043000000001
#
# number of rings (size 3 to 8) (size 9 to 14) (size 15 to 20)
#    0.000    2.429    1.429    1.714    2.000    4.571 
#    0.000    0.714    0.000    5.143    0.000    0.000 
#    0.000    0.000    0.000    0.000    0.000    0.000 
#
# Total GULP energy -347002.993244 kJ/mol
# GULP energy per Si atom -12392.964044 kJ/mol
# Density = 1.776751 g / cm^3
# Si number density = 17.808043 Si / 1000 Ang^3
#
#
#
# Elastic Constant Matrix: (Units=GPa)
#
#
# Indices 1 2 3 4 5 6 
#
# 1 118.4498 60.9961 58.3176 0.0000 -3.5765 0.0000
# 2 60.9961 97.6505 47.4976 0.0000 5.1845 0.0000
# 3 58.3176 47.4976 97.2738 0.0000 4.3707 0.0000
# 4 0.0000 0.0000 0.0000 26.4452 0.0000 1.8416
# 5 -3.5765 5.1845 4.3707 0.0000 21.7835 0.0000
# 6 0.0000 0.0000 0.0000 1.8416 0.0000 32.5189
#
#
#
# Elastic Compliance Matrix: (Units=1/GPa)
#
#
# Indices 1 2 3 4 5 6 
#
# 1 0.015005 -0.006769 -0.005927 0.000000 0.005264 0.000000
# 2 -0.006769 0.016563 -0.003836 0.000000 -0.004284 0.000000
# 3 -0.005927 -0.003836 0.015853 0.000000 -0.003241 0.000000
# 4 0.000000 0.000000 0.000000 0.037964 0.000000 -0.002150
# 5 0.005264 -0.004284 -0.003241 0.000000 0.048440 0.000000
# 6 0.000000 0.000000 0.000000 -0.002150 0.000000 0.030873
#
#
# Mechanical properties :
#
#
# Convention : Reuss Voigt Hill
#
# Bulk Modulus (GPa) = 69.66420 71.88854 70.77637
# Shear Modulus (GPa) = 24.68542 25.92035 25.30288
#
# Velocity S-wave (km/s) = 3.72720 3.81930 3.77353
# Velocity P-wave (km/s) = 7.59784 7.73987 7.66918
#
# Compressibility (1/GPa) = 0.01435457
#
# Stress axis : x y z
#
# Youngs Moduli (GPa) = 66.64239 60.37730 63.08123
#
# Poissons Ratio (x) = 0.40872 0.37389
# Poissons Ratio (y) = 0.45113 0.24200
# Poissons Ratio (z) = 0.39500 0.23163
#
# Static dielectric constant tensor:
#      x y z
#    x 3.329170 0.000000 -0.042470 
#    y 0.000000 3.162320 0.000000 
#    z -0.042470 0.000000 2.994210 
# 
# 
# High freq. dielectric constant tensor:
#      x y z
#    x 1.691110 0.000000 0.003770 
#    y 0.000000 1.682690 0.000000 
#    z 0.003770 0.000000 1.670810 
# 
# From -- ./inp_files/280453.got.cif
#   From: 2010.06.25/outbox.cif.g09.slc.cpg/sg12_141_cif.got.tgz:280453.got - 2010.06.28 00:19:55.
