data_PCOD8090878
_publ_section_title
;
Structure prediction by ZEFSAII (Michael W. Deem and Ramdas Pophale) SiO2 
 PCOD8090878
Probable space group: C 2/M
;
_chemical_formula_sum "Si O2"
_cell_formula_units_Z 56
_cell_length_a 23.334575
_cell_length_b 8.591778
_cell_length_c 19.250494
_cell_angle_alpha 90.000000
_cell_angle_beta 51.838529
_cell_angle_gamma 90.000000
_cell_volume 3034.575489
_symmetry_space_group_name_H-M "C 2/M"
_symmetry_group_IT_number 12
_symmetry_cell_setting 'monoclinic'
loop_
_space_group_symop_operation_xyz
x,y,z
-x,y,-z
-x,-y,-z
x,-y,z
1/2+x,1/2+y,z
1/2-x,1/2+y,-z
1/2-x,1/2-y,-z
1/2+x,1/2-y,z
loop_
_atom_site_type_symbol
_atom_site_label
_atom_site_fract_x
_atom_site_fract_y
_atom_site_fract_z
Si Si1 0.380730 0.818854 0.318151
Si Si2 0.249881 0.181501 0.661941
Si Si3 0.970229 0.171482 0.791968
Si Si4 0.813355 0.186770 0.745656
Si Si5 0.810856 0.815620 0.904579
Si Si6 0.029255 0.830687 0.372745
Si Si7 0.625859 0.685080 0.525691
O O1 0.330694 0.723487 0.302597
O O2 0.464477 0.785118 0.233977
O O3 0.360646 0.767396 0.410986
O O4 0.364405 0.000000 0.322335
O O5 0.255725 0.232398 0.737935
O O6 0.308474 0.277904 0.574139
O O7 0.264743 0.000000 0.641593
O O8 0.890734 0.241716 0.871705
O O9 0.970680 0.151626 0.709640
O O10 0.982129 0.000000 0.816672
O O11 0.794892 0.240565 0.837815
O O12 0.894714 0.252176 0.663059
O O13 0.810918 0.000000 0.741004
O O14 0.810350 0.000000 0.907037
O O15 0.750000 0.750000 0.000000
O O16 0.951203 0.751292 0.450635
O O17 0.030653 0.000000 0.407181
O O18 0.620364 0.500000 0.542409
#
# Coordination Sequence:
#
# PCOD8090878 Si02
#       7
#     8   8   8   8   8   8   8
#     4  11  21  34  52  74  99 133 175 218 255 295
#     4  12  24  35  47  69 101 138 175 216 258 298
#     4   8  15  31  52  76 103 134 166 201 246 298
#     4   9  18  35  53  73 101 136 171 203 247 306
#     4   9  18  33  58  86 111 134 161 198 247 304
#     4   7  13  28  51  71  93 128 168 204 245 294
#     4  10  19  34  53  73  98 133 175 217 255 298
#
# _framework density 18.453982
#
# number of rings (size 3 to 8) (size 9 to 14) (size 15 to 20)
#    0.000    2.571    0.000    6.000    0.000    1.714 
#    0.000    9.286    0.000    0.857    0.000    6.000 
#    0.000    0.000    0.000    0.000    0.000    0.000 
#
# Total GULP energy -346933.687237 kJ/mol
# GULP energy per Si atom -12390.488830 kJ/mol
# Density = 1.841198 g / cm^3
# Si number density = 18.453982 Si / 1000 Ang^3
#
#
#
# Elastic Constant Matrix: (Units=GPa)
#
#
# Indices 1 2 3 4 5 6 
#
# 1 87.3480 16.0721 53.7239 -0.0001 -3.2054 0.0000
# 2 16.0721 50.4319 16.8170 -0.0008 -0.2162 0.0007
# 3 53.7239 16.8170 94.5189 -0.0004 -17.8983 0.0001
# 4 -0.0001 -0.0008 -0.0004 24.3575 0.0001 -1.4870
# 5 -3.2054 -0.2162 -17.8983 0.0001 24.2498 0.0000
# 6 0.0000 0.0007 0.0001 -1.4870 0.0000 24.6297
#
#
#
# Elastic Compliance Matrix: (Units=1/GPa)
#
#
# Indices 1 2 3 4 5 6 
#
# 1 0.018575 -0.002182 -0.011286 0.000000 -0.005894 0.000000
# 2 -0.002182 0.021525 -0.003032 0.000001 -0.002334 -0.000001
# 3 -0.011286 -0.003032 0.020049 0.000000 0.013279 0.000000
# 4 0.000000 0.000001 0.000000 0.041207 0.000000 0.002488
# 5 -0.005894 -0.002334 0.013279 0.000000 0.050238 0.000000
# 6 0.000000 -0.000001 0.000000 0.002488 0.000000 0.040752
#
#
# Mechanical properties :
#
#
# Convention : Reuss Voigt Hill
#
# Bulk Modulus (GPa) = 36.83220 45.05829 40.94524
# Shear Modulus (GPa) = 21.33163 24.35979 22.84571
#
# Velocity S-wave (km/s) = 3.40359 3.63716 3.52231
# Velocity P-wave (km/s) = 5.95384 6.48908 6.22721
#
# Compressibility (1/GPa) = 0.02715016
#
# Stress axis : x y z
#
# Youngs Moduli (GPa) = 53.83582 46.45778 49.87885
#
# Poissons Ratio (x) = 0.10135 0.56293
# Poissons Ratio (y) = 0.11744 0.15122
# Poissons Ratio (z) = 0.60758 0.14085
#
# Static dielectric constant tensor:
#      x y z
#    x 3.156650 0.000000 1.599740 
#    y 0.000000 3.173340 -0.000010 
#    z 1.599740 -0.000010 -2.851100 
# 
# 
# High freq. dielectric constant tensor:
#      x y z
#    x 1.722170 0.000000 -0.018240 
#    y 0.000000 1.695260 0.000000 
#    z -0.018240 0.000000 1.685790 
# 
# From -- ./inp_files/288267.got.cif
#   From: 2010.06.25/outbox.cif.g09.slc.cpg/sg12_145_cif.got.tgz:288267.got - 2010.06.28 00:19:55.
