data_PCOD8090257
_publ_section_title
;
Structure prediction by ZEFSAII (Michael W. Deem and Ramdas Pophale) SiO2 
 PCOD8090257
Probable space group: C 2/M
;
_chemical_formula_sum "Si O2"
_cell_formula_units_Z 48
_cell_length_a 10.277401
_cell_length_b 27.067248
_cell_length_c 10.665808
_cell_angle_alpha 90.000000
_cell_angle_beta 144.489659
_cell_angle_gamma 90.000000
_cell_volume 1723.395961
_symmetry_space_group_name_H-M "C 2/M"
_symmetry_group_IT_number 12
_symmetry_cell_setting 'monoclinic'
loop_
_space_group_symop_operation_xyz
x,y,z
-x,y,-z
-x,-y,-z
x,-y,z
1/2+x,1/2+y,z
1/2-x,1/2+y,-z
1/2-x,1/2-y,-z
1/2+x,1/2-y,z
loop_
_atom_site_type_symbol
_atom_site_label
_atom_site_fract_x
_atom_site_fract_y
_atom_site_fract_z
Si Si1 0.464578 0.556518 0.268846
Si Si2 0.604796 0.780324 0.288211
Si Si3 0.794005 0.899929 0.757953
Si Si4 0.532821 0.054983 0.754441
Si Si5 0.285318 0.789623 0.253401
Si Si6 0.711334 0.881785 0.256462
O O1 0.492130 0.500000 0.340614
O O2 0.684444 0.573566 0.361250
O O3 0.427714 0.599653 0.345766
O O4 0.248214 0.559289 0.011584
O O5 0.750000 0.750000 0.500000
O O6 0.359101 0.790247 0.162699
O O7 0.586956 0.748193 0.144501
O O8 0.733216 0.830968 0.351260
O O9 0.564765 0.912935 0.652231
O O10 0.807487 0.841023 0.765426
O O11 0.000000 0.921726 0.000000
O O12 0.322393 0.073514 0.670994
O O13 0.484058 0.000000 0.672643
O O14 0.500000 0.772833 0.500000
O O15 0.500000 0.875007 0.000000
#
# Coordination Sequence:
#
# PCOD8090257 Si02
#       6
#     8   8   8   8   8   8
#     4   9  18  30  51  87 124 154 187 229 287 348
#     4  10  22  40  59  81 108 152 201 240 294 356
#     4  10  19  33  55  86 119 152 191 238 290 342
#     4   9  16  30  53  81 119 160 190 227 284 354
#     4  10  22  40  59  80 107 152 201 240 293 357
#     4  10  19  33  55  87 121 151 192 244 292 339
#
# _framework density 27.851987000000001
#
# number of rings (size 3 to 8) (size 9 to 14) (size 15 to 20)
#    0.000    2.333    1.667    1.000    2.333    4.667 
#    0.000    1.667    0.000    2.000    0.000    4.667 
#    0.000    0.000    0.000    0.000    0.000    0.667 
#
# Total GULP energy -297474.892251 kJ/mol
# GULP energy per Si atom -12394.787177 kJ/mol
# Density = 2.778859 g / cm^3
# Si number density = 27.851987 Si / 1000 Ang^3
#
#
#
# Elastic Constant Matrix: (Units=GPa)
#
#
# Indices 1 2 3 4 5 6 
#
# 1 258.4944 108.9378 32.5919 0.0000 8.4865 0.0000
# 2 108.9378 225.2770 -4.2447 0.0000 -29.1310 0.0000
# 3 32.5919 -4.2447 61.1498 0.0000 -12.9101 0.0000
# 4 0.0000 0.0000 0.0000 45.3215 0.0000 -15.9950
# 5 8.4865 -29.1310 -12.9101 0.0000 42.4129 0.0000
# 6 0.0000 0.0000 0.0000 -15.9950 0.0000 66.7830
#
#
#
# Elastic Compliance Matrix: (Units=1/GPa)
#
#
# Indices 1 2 3 4 5 6 
#
# 1 0.006227 -0.003782 -0.004695 0.000000 -0.005272 0.000000
# 2 -0.003782 0.007240 0.003984 0.000000 0.006942 0.000000
# 3 -0.004695 0.003984 0.021275 0.000000 0.010152 0.000000
# 4 0.000000 0.000000 0.000000 0.024102 0.000000 0.005773
# 5 -0.005272 0.006942 0.010152 0.000000 0.032491 0.000000
# 6 0.000000 0.000000 0.000000 0.005773 0.000000 0.016356
#
#
# Mechanical properties :
#
#
# Convention : Reuss Voigt Hill
#
# Bulk Modulus (GPa) = 38.82281 91.05456 64.93869
# Shear Modulus (GPa) = 39.91604 58.07924 48.99764
#
# Velocity S-wave (km/s) = 3.78980 4.57144 4.19885
# Velocity P-wave (km/s) = 5.75494 7.78636 6.84641
#
# Compressibility (1/GPa) = 0.02575806
#
# Stress axis : x y z
#
# Youngs Moduli (GPa) = 160.58503 138.11346 47.00311
#
# Poissons Ratio (x) = 0.52228 0.22066
# Poissons Ratio (y) = 0.60726 -0.18725
# Poissons Ratio (z) = 0.75389 -0.55021
#
# Static dielectric constant tensor:
#      x y z
#    x 6.459450 0.000000 -0.017240 
#    y 0.000000 4.785640 0.000000 
#    z -0.017240 0.000000 5.323220 
# 
# 
# High freq. dielectric constant tensor:
#      x y z
#    x 2.152590 0.000000 -0.000130 
#    y 0.000000 2.109550 0.000000 
#    z -0.000130 0.000000 2.173280 
# 
# From -- ./inp_files/123905.got.cif
#   From: 2010.06.25/outbox.cif.g09.slc.cpg/sg12_62_cif.got.tgz:123905.got - 2010.06.28 00:19:55.
