data_PCOD8090099
_publ_section_title
;
Structure prediction by ZEFSAII (Michael W. Deem and Ramdas Pophale) SiO2 
 PCOD8090099
Probable space group: C 2/M
;
_chemical_formula_sum "Si O2"
_cell_formula_units_Z 56
_cell_length_a 25.049609
_cell_length_b 8.707719
_cell_length_c 16.565683
_cell_angle_alpha 90.000000
_cell_angle_beta 120.553148
_cell_angle_gamma 90.000000
_cell_volume 3111.698717
_symmetry_space_group_name_H-M "C 2/M"
_symmetry_group_IT_number 12
_symmetry_cell_setting 'monoclinic'
loop_
_space_group_symop_operation_xyz
x,y,z
-x,y,-z
-x,-y,-z
x,-y,z
1/2+x,1/2+y,z
1/2-x,1/2+y,-z
1/2-x,1/2-y,-z
1/2+x,1/2-y,z
loop_
_atom_site_type_symbol
_atom_site_label
_atom_site_fract_x
_atom_site_fract_y
_atom_site_fract_z
Si Si1 0.125582 0.177754 0.615662
Si Si2 0.731499 0.323688 0.100716
Si Si3 0.445063 0.819577 0.287842
Si Si4 0.259659 0.677876 0.711204
Si Si5 0.193317 0.319729 0.407494
Si Si6 0.423184 0.677269 0.597048
Si Si7 0.653879 0.677015 0.891039
O O1 0.088300 0.250496 0.660086
O O2 0.189673 0.264175 0.651613
O O3 0.084155 0.198477 0.504306
O O4 0.138913 0.000000 0.644425
O O5 0.753189 0.500000 0.104537
O O6 0.712080 0.294171 0.178040
O O7 0.788662 0.214000 0.123551
O O8 0.672923 0.286621 0.998232
O O9 0.511403 0.744170 0.325863
O O10 0.404687 0.781355 0.177294
O O11 0.452206 0.000000 0.304405
O O12 0.259702 0.500000 0.687673
O O13 0.303438 0.768006 0.683061
O O14 0.199384 0.500000 0.417331
O O15 0.250000 0.250000 0.500000
O O16 0.128750 0.268533 0.394796
O O17 0.418878 0.500000 0.618497
O O18 0.635847 0.500000 0.865222
#
# Coordination Sequence:
#
# PCOD8090099 Si02
#       7
#     8   8   8   8   8   8   8
#     4  11  22  36  56  83 114 150 190 230 278 335
#     4   9  19  34  54  83 113 146 185 229 281 335
#     4  12  24  37  55  82 117 153 189 229 282 340
#     4  11  21  35  58  85 117 149 185 232 283 333
#     4  12  24  39  59  83 112 149 192 235 279 327
#     4  11  24  41  59  80 110 149 194 236 280 334
#     4  10  19  33  55  81 113 148 186 229 278 334
#
# _framework density 17.996600000000001
#
# number of rings (size 3 to 8) (size 9 to 14) (size 15 to 20)
#    0.000    1.143    2.857    4.714    0.000    4.571 
#    0.000    0.000    0.000    0.857    0.000    6.000 
#    0.000    0.000    0.000    0.000    0.000    0.000 
#
# Total GULP energy -347330.745758 kJ/mol
# GULP energy per Si atom -12404.669491 kJ/mol
# Density = 1.795564 g / cm^3
# Si number density = 17.996600 Si / 1000 Ang^3
#
#
#
# Elastic Constant Matrix: (Units=GPa)
#
#
# Indices 1 2 3 4 5 6 
#
# 1 104.1541 41.8517 49.4866 0.0000 2.5898 0.0000
# 2 41.8517 121.5231 49.7332 0.0000 -3.8965 0.0000
# 3 49.4866 49.7332 114.9822 0.0000 2.7208 0.0000
# 4 0.0000 0.0000 0.0000 25.2273 0.0000 0.3055
# 5 2.5898 -3.8965 2.7208 0.0000 24.3540 0.0000
# 6 0.0000 0.0000 0.0000 0.3055 0.0000 33.8232
#
#
#
# Elastic Compliance Matrix: (Units=1/GPa)
#
#
# Indices 1 2 3 4 5 6 
#
# 1 0.012751 -0.002673 -0.004301 0.000000 -0.001303 0.000000
# 2 -0.002673 0.010666 -0.003519 0.000000 0.002384 0.000000
# 3 -0.004301 -0.003519 0.012105 0.000000 -0.001458 0.000000
# 4 0.000000 0.000000 0.000000 0.039644 0.000000 -0.000358
# 5 -0.001303 0.002384 -0.001458 0.000000 0.041744 0.000000
# 6 0.000000 0.000000 0.000000 -0.000358 0.000000 0.029569
#
#
# Mechanical properties :
#
#
# Convention : Reuss Voigt Hill
#
# Bulk Modulus (GPa) = 68.79744 69.20027 68.99886
# Shear Modulus (GPa) = 29.01736 29.98676 29.50206
#
# Velocity S-wave (km/s) = 4.01980 4.08640 4.05324
# Velocity P-wave (km/s) = 7.73667 7.79745 7.76712
#
# Compressibility (1/GPa) = 0.01453542
#
# Stress axis : x y z
#
# Youngs Moduli (GPa) = 78.42444 93.75382 82.61190
#
# Poissons Ratio (x) = 0.25061 0.35530
# Poissons Ratio (y) = 0.20963 0.29075
# Poissons Ratio (z) = 0.33729 0.32996
#
# Static dielectric constant tensor:
#      x y z
#    x 3.237250 0.000000 -0.039900 
#    y 0.000000 3.525860 0.000000 
#    z -0.039900 0.000000 3.496120 
# 
# 
# High freq. dielectric constant tensor:
#      x y z
#    x 1.674150 0.000000 -0.000270 
#    y 0.000000 1.715910 0.000000 
#    z -0.000270 0.000000 1.703570 
# 
# From -- ./inp_files/237892.got.cif
#   From: 2010.06.25/outbox.cif.g09.slc.cpg/sg12_119_cif.got.tgz:237892.got - 2010.06.28 00:19:55.
