data_PCOD8090775
_publ_section_title
;
Structure prediction by ZEFSAII (Michael W. Deem and Ramdas Pophale) SiO2 
 PCOD8090775
Probable space group: C 2/M
;
_chemical_formula_sum "Si O2"
_cell_formula_units_Z 64
_cell_length_a 16.159408
_cell_length_b 25.521667
_cell_length_c 9.636008
_cell_angle_alpha 90.000000
_cell_angle_beta 95.595940
_cell_angle_gamma 90.000000
_cell_volume 3955.095520
_symmetry_space_group_name_H-M "C 2/M"
_symmetry_group_IT_number 12
_symmetry_cell_setting 'monoclinic'
loop_
_space_group_symop_operation_xyz
x,y,z
-x,y,-z
-x,-y,-z
x,-y,z
1/2+x,1/2+y,z
1/2-x,1/2+y,-z
1/2-x,1/2-y,-z
1/2+x,1/2-y,z
loop_
_atom_site_type_symbol
_atom_site_label
_atom_site_fract_x
_atom_site_fract_y
_atom_site_fract_z
Si Si1 0.948852 0.559420 0.853045
Si Si2 0.813076 0.206160 0.681758
Si Si3 0.092015 0.752401 0.560575
Si Si4 0.829450 0.647306 0.456564
Si Si5 0.435561 0.057582 0.367788
Si Si6 0.311645 0.283332 0.181314
Si Si7 0.408033 0.255659 0.925844
Si Si8 0.834841 0.652508 0.789144
O O1 0.919665 0.500000 0.810022
O O2 0.868506 0.596973 0.850964
O O3 0.013007 0.582669 0.750592
O O4 0.000000 0.559255 0.000000
O O5 0.842203 0.234303 0.547387
O O6 0.763115 0.154718 0.624531
O O7 0.750925 0.243331 0.755553
O O8 0.889843 0.199452 0.803915
O O9 0.105498 0.690596 0.591754
O O10 0.109150 0.786779 0.702180
O O11 0.000000 0.766215 0.500000
O O12 0.857484 0.591805 0.401473
O O13 0.829322 0.649574 0.622272
O O14 0.500000 0.052536 0.500000
O O15 0.401042 0.000000 0.320995
O O16 0.258435 0.337604 0.163702
O O17 0.340564 0.263136 0.036647
O O18 0.397370 0.198635 0.851905
O O19 0.500000 0.262833 0.000000
#
# Coordination Sequence:
#
# PCOD8090775 Si02
#       8
#     8   8   8   8   8   8   8   8
#     4  10  22  36  50  72 104 134 166 208 243 282
#     4  10  19  34  45  66  96 126 166 201 241 288
#     4  11  19  29  47  68  95 128 167 200 236 290
#     4  11  19  30  51  70  94 132 169 199 238 294
#     4  10  20  33  50  74 101 131 168 208 243 279
#     4  10  20  32  46  69  97 128 162 205 244 288
#     4  11  22  33  47  71 100 130 163 203 245 294
#     4  11  19  32  50  68  97 132 168 195 244 290
#
# _framework density 16.181657999999999
#
# number of rings (size 3 to 8) (size 9 to 14) (size 15 to 20)
#    0.000    1.500    5.000    3.750    0.000    4.000 
#    0.000    0.000    0.000    0.000    0.000    0.000 
#    0.000    6.000    0.000    0.000    0.000    0.000 
#
# Total GULP energy -396498.320467 kJ/mol
# GULP energy per Si atom -12390.572515 kJ/mol
# Density = 1.614483 g / cm^3
# Si number density = 16.181658 Si / 1000 Ang^3
#
#
#
# Elastic Constant Matrix: (Units=GPa)
#
#
# Indices 1 2 3 4 5 6 
#
# 1 70.4526 43.1628 20.5627 0.0000 15.5786 0.0000
# 2 43.1628 76.4528 26.8934 0.0000 3.0922 0.0000
# 3 20.5627 26.8934 89.2793 0.0000 3.4254 0.0000
# 4 0.0000 0.0000 0.0000 19.2498 0.0000 1.2520
# 5 15.5786 3.0922 3.4254 0.0000 37.2078 0.0000
# 6 0.0000 0.0000 0.0000 1.2520 0.0000 33.3942
#
#
#
# Elastic Compliance Matrix: (Units=1/GPa)
#
#
# Indices 1 2 3 4 5 6 
#
# 1 0.024589 -0.013025 -0.001391 0.000000 -0.009084 0.000000
# 2 -0.013025 0.021554 -0.003646 0.000000 0.003998 0.000000
# 3 -0.001391 -0.003646 0.012630 0.000000 -0.000277 0.000000
# 4 0.000000 0.000000 0.000000 0.052076 0.000000 -0.001952
# 5 -0.009084 0.003998 -0.000277 0.000000 0.030373 0.000000
# 6 0.000000 0.000000 0.000000 -0.001952 0.000000 0.030019
#
#
# Mechanical properties :
#
#
# Convention : Reuss Voigt Hill
#
# Bulk Modulus (GPa) = 44.15362 46.38027 45.26695
# Shear Modulus (GPa) = 23.26504 27.67475 25.46990
#
# Velocity S-wave (km/s) = 3.79587 4.14001 3.97167
# Velocity P-wave (km/s) = 6.82327 7.18174 7.00480
#
# Compressibility (1/GPa) = 0.02264820
#
# Stress axis : x y z
#
# Youngs Moduli (GPa) = 40.66927 46.39411 79.17527
#
# Poissons Ratio (x) = 0.60429 0.11014
# Poissons Ratio (y) = 0.52972 0.28869
# Poissons Ratio (z) = 0.05658 0.16917
#
# Static dielectric constant tensor:
#      x y z
#    x 3.249100 0.000000 0.286290 
#    y 0.000000 3.072150 0.000000 
#    z 0.286290 0.000000 3.461330 
# 
# 
# High freq. dielectric constant tensor:
#      x y z
#    x 1.610250 0.000000 0.006660 
#    y 0.000000 1.576150 0.000000 
#    z 0.006660 0.000000 1.649680 
# 
# From -- ./inp_files/78777.got.cif
#   From: 2010.06.25/outbox.cif.g09.slc.cpg/sg12_40_cif.got.tgz:78777.got - 2010.06.28 00:19:55.
