data_PCOD8090162
_publ_section_title
;
Structure prediction by ZEFSAII (Michael W. Deem and Ramdas Pophale) SiO2 
 PCOD8090162
Probable space group: C 2/M
;
_chemical_formula_sum "Si O2"
_cell_formula_units_Z 64
_cell_length_a 8.664197
_cell_length_b 25.956159
_cell_length_c 14.872124
_cell_angle_alpha 90.000000
_cell_angle_beta 65.299152
_cell_angle_gamma 90.000000
_cell_volume 3038.558670
_symmetry_space_group_name_H-M "C 2/M"
_symmetry_group_IT_number 12
_symmetry_cell_setting 'monoclinic'
loop_
_space_group_symop_operation_xyz
x,y,z
-x,y,-z
-x,-y,-z
x,-y,z
1/2+x,1/2+y,z
1/2-x,1/2+y,-z
1/2-x,1/2-y,-z
1/2+x,1/2-y,z
loop_
_atom_site_type_symbol
_atom_site_label
_atom_site_fract_x
_atom_site_fract_y
_atom_site_fract_z
Si Si1 0.292311 0.108222 0.120259
Si Si2 0.692722 0.059174 0.430620
Si Si3 0.976514 0.861593 0.407260
Si Si4 0.841932 0.770513 0.100859
Si Si5 0.631953 0.056934 0.244876
Si Si6 0.454363 0.690796 0.786103
Si Si7 0.642699 0.866693 0.087874
Si Si8 0.754682 0.444440 0.298882
O O1 0.108399 0.134142 0.173147
O O2 0.440840 0.145149 0.128621
O O3 0.293527 0.056970 0.181324
O O4 0.318379 0.097651 0.008655
O O5 0.500000 0.073355 0.500000
O O6 0.812014 0.101312 0.448768
O O7 0.725885 0.065341 0.316218
O O8 0.733631 0.000000 0.451101
O O9 0.000000 0.835776 0.500000
O O10 0.973520 0.815004 0.334129
O O11 0.138818 0.897471 0.354000
O O12 0.707541 0.727488 0.160563
O O13 0.747417 0.813633 0.063091
O O14 0.896673 0.792954 0.183529
O O15 0.000000 0.750596 0.000000
O O16 0.696600 0.100486 0.161295
O O17 0.429582 0.060975 0.311235
O O18 0.675149 0.000000 0.196113
O O19 0.669967 0.500000 0.340409
#
# Coordination Sequence:
#
# PCOD8090162 Si02
#       8
#     8   8   8   8   8   8   8   8
#     4   9  19  33  52  82 119 153 191 237 285 344
#     4  10  20  35  59  88 117 151 198 243 285 341
#     4  11  23  40  61  85 119 156 192 242 298 349
#     4  12  23  38  64  87 113 148 193 249 298 352
#     4   9  18  33  53  82 119 157 195 235 280 341
#     4  11  24  40  59  89 115 145 193 247 301 352
#     4  10  19  33  55  82 116 156 194 234 290 345
#     4   9  18  33  55  84 119 157 199 238 278 332
#
# _framework density 21.062618000000001
#
# number of rings (size 3 to 8) (size 9 to 14) (size 15 to 20)
#    0.000    1.875    1.250    3.000    1.750    2.500 
#    0.000    4.375    0.000    1.125    0.000    0.000 
#    0.000    0.000    0.000    0.000    0.000    0.000 
#
# Total GULP energy -396520.012956 kJ/mol
# GULP energy per Si atom -12391.250405 kJ/mol
# Density = 2.101468 g / cm^3
# Si number density = 21.062618 Si / 1000 Ang^3
#
#
#
# Elastic Constant Matrix: (Units=GPa)
#
#
# Indices 1 2 3 4 5 6 
#
# 1 71.0676 18.2582 27.4275 0.0000 9.8003 0.0000
# 2 18.2582 45.8332 20.6323 0.0000 1.7271 0.0000
# 3 27.4275 20.6323 104.7400 0.0000 17.1170 0.0000
# 4 0.0000 0.0000 0.0000 21.5232 0.0000 -3.2655
# 5 9.8003 1.7271 17.1170 0.0000 33.7226 0.0000
# 6 0.0000 0.0000 0.0000 -3.2655 0.0000 18.5926
#
#
#
# Elastic Compliance Matrix: (Units=1/GPa)
#
#
# Indices 1 2 3 4 5 6 
#
# 1 0.016998 -0.005358 -0.002872 0.000000 -0.003208 0.000000
# 2 -0.005358 0.025680 -0.004029 0.000000 0.002287 0.000000
# 3 -0.002872 -0.004029 0.011911 0.000000 -0.005005 0.000000
# 4 0.000000 0.000000 0.000000 0.047733 0.000000 0.008383
# 5 -0.003208 0.002287 -0.005005 0.000000 0.033009 0.000000
# 6 0.000000 0.000000 0.000000 0.008383 0.000000 0.055257
#
#
# Mechanical properties :
#
#
# Convention : Reuss Voigt Hill
#
# Bulk Modulus (GPa) = 33.25357 39.36410 36.30883
# Shear Modulus (GPa) = 22.20929 25.12254 23.66592
#
# Velocity S-wave (km/s) = 3.25074 3.45738 3.35565
# Velocity P-wave (km/s) = 5.46918 5.88792 5.68241
#
# Compressibility (1/GPa) = 0.03007196
#
# Stress axis : x y z
#
# Youngs Moduli (GPa) = 58.82959 38.94029 83.95562
#
# Poissons Ratio (x) = 0.20864 0.24108
# Poissons Ratio (y) = 0.31521 0.33829
# Poissons Ratio (z) = 0.16893 0.15691
#
# Static dielectric constant tensor:
#      x y z
#    x 3.887430 0.000000 0.142840 
#    y 0.000000 3.605850 0.000000 
#    z 0.142840 0.000000 4.013500 
# 
# 
# High freq. dielectric constant tensor:
#      x y z
#    x 1.831660 0.000000 0.013570 
#    y 0.000000 1.794000 0.000000 
#    z 0.013570 0.000000 1.826090 
# 
# From -- ./inp_files/199775.got.cif
#   From: 2010.06.25/outbox.cif.g09.slc.cpg/sg12_100_cif.got.tgz:199775.got - 2010.06.28 00:19:55.
