data_PCOD8090335
_publ_section_title
;
Structure prediction by ZEFSAII (Michael W. Deem and Ramdas Pophale) SiO2 
 PCOD8090335
Probable space group: C 2/M
;
_chemical_formula_sum "Si O2"
_cell_formula_units_Z 56
_cell_length_a 20.347661
_cell_length_b 8.850608
_cell_length_c 17.681485
_cell_angle_alpha 90.000000
_cell_angle_beta 64.135747
_cell_angle_gamma 90.000000
_cell_volume 2865.278661
_symmetry_space_group_name_H-M "C 2/M"
_symmetry_group_IT_number 12
_symmetry_cell_setting 'monoclinic'
loop_
_space_group_symop_operation_xyz
x,y,z
-x,y,-z
-x,-y,-z
x,-y,z
1/2+x,1/2+y,z
1/2-x,1/2+y,-z
1/2-x,1/2-y,-z
1/2+x,1/2-y,z
loop_
_atom_site_type_symbol
_atom_site_label
_atom_site_fract_x
_atom_site_fract_y
_atom_site_fract_z
Si Si1 0.809131 0.826952 0.670425
Si Si2 0.176656 0.177590 0.506615
Si Si3 0.567036 0.679759 0.686600
Si Si4 0.402625 0.324670 0.766382
Si Si5 0.159014 0.178492 0.781148
Si Si6 0.827500 0.321427 0.942106
Si Si7 0.084393 0.823014 0.970904
O O1 0.836810 0.776747 0.573699
O O2 0.875959 0.803142 0.693930
O O3 0.742088 0.725954 0.730444
O O4 0.782520 0.000000 0.682915
O O5 0.250000 0.250000 0.500000
O O6 0.108295 0.237168 0.590342
O O7 0.185052 0.000000 0.512745
O O8 0.564939 0.500000 0.689085
O O9 0.484560 0.741538 0.729046
O O10 0.609621 0.745263 0.738144
O O11 0.399583 0.500000 0.792632
O O12 0.350606 0.229145 0.846932
O O13 0.128918 0.237797 0.876203
O O14 0.153685 0.000000 0.781552
O O15 0.819586 0.500000 0.948838
O O16 0.750000 0.250000 0.000000
O O17 0.889163 0.267557 0.969448
O O18 0.097681 0.000000 0.978670
O O19 0.000000 0.787562 0.000000
#
# Coordination Sequence:
#
# PCOD8090335 Si02
#       7
#     8   8   8   8   8   8   8
#     4  10  21  34  54  84 113 143 183 234 283 330
#     4  10  19  34  56  84 114 147 187 229 278 334
#     4   9  18  34  58  83 111 149 189 228 276 336
#     4  10  21  39  59  82 114 149 189 238 291 343
#     4  10  19  33  56  82 107 145 189 227 273 337
#     4  12  25  41  61  85 116 155 199 243 293 350
#     4  10  21  38  61  87 116 151 194 240 292 351
#
# _framework density 19.544346999999998
#
# number of rings (size 3 to 8) (size 9 to 14) (size 15 to 20)
#    0.000    1.857    1.429    3.000    0.000    6.571 
#    0.000    5.714    0.000    0.000    0.000    3.000 
#    0.000    0.000    0.000    0.000    0.000    0.000 
#
# Total GULP energy -347281.514280 kJ/mol
# GULP energy per Si atom -12402.911224 kJ/mol
# Density = 1.949986 g / cm^3
# Si number density = 19.544347 Si / 1000 Ang^3
#
#
#
# Elastic Constant Matrix: (Units=GPa)
#
#
# Indices 1 2 3 4 5 6 
#
# 1 104.5650 25.9031 35.5260 0.0000 -0.4070 0.0001
# 2 25.9031 51.3931 29.0417 0.0000 2.2116 0.0001
# 3 35.5260 29.0417 126.1765 0.0000 3.4007 0.0000
# 4 0.0000 0.0000 0.0000 20.1293 0.0000 -4.9911
# 5 -0.4070 2.2116 3.4007 0.0000 40.4154 0.0000
# 6 0.0001 0.0001 0.0000 -4.9911 0.0000 24.0409
#
#
#
# Elastic Compliance Matrix: (Units=1/GPa)
#
#
# Indices 1 2 3 4 5 6 
#
# 1 0.011436 -0.004552 -0.002187 0.000000 0.000548 0.000000
# 2 -0.004552 0.024204 -0.004262 0.000000 -0.001012 0.000000
# 3 -0.002187 -0.004262 0.009538 0.000000 -0.000591 0.000000
# 4 0.000000 0.000000 0.000000 0.052375 0.000000 0.010874
# 5 0.000548 -0.001012 -0.000591 0.000000 0.024854 0.000000
# 6 0.000000 0.000000 0.000000 0.010874 0.000000 0.043853
#
#
# Mechanical properties :
#
#
# Convention : Reuss Voigt Hill
#
# Bulk Modulus (GPa) = 43.14720 51.45291 47.30005
# Shear Modulus (GPa) = 25.51181 29.69470 27.60325
#
# Velocity S-wave (km/s) = 3.61685 3.90211 3.76219
# Velocity P-wave (km/s) = 6.29020 6.83267 6.56704
#
# Compressibility (1/GPa) = 0.02317648
#
# Stress axis : x y z
#
# Youngs Moduli (GPa) = 87.44176 41.31537 104.84232
#
# Poissons Ratio (x) = 0.18806 0.22930
# Poissons Ratio (y) = 0.39801 0.44685
# Poissons Ratio (z) = 0.19124 0.17609
#
# Static dielectric constant tensor:
#      x y z
#    x 3.571360 0.000000 0.043000 
#    y 0.000000 3.329840 0.000000 
#    z 0.043000 0.000000 3.923900 
# 
# 
# High freq. dielectric constant tensor:
#      x y z
#    x 1.769060 0.000000 0.003820 
#    y 0.000000 1.731160 0.000000 
#    z 0.003820 0.000000 1.779480 
# 
# From -- ./inp_files/275257.got.cif
#   From: 2010.06.25/outbox.cif.g09.slc.cpg/sg12_138_cif.got.tgz:275257.got - 2010.06.28 00:19:55.
