data_PCOD8090951
_publ_section_title
;
Structure prediction by ZEFSAII (Michael W. Deem and Ramdas Pophale) SiO2 
 PCOD8090951
Probable space group: C 2/M
;
_chemical_formula_sum "Si O2"
_cell_formula_units_Z 56
_cell_length_a 19.082861
_cell_length_b 9.058124
_cell_length_c 18.075125
_cell_angle_alpha 90.000000
_cell_angle_beta 84.670352
_cell_angle_gamma 90.000000
_cell_volume 3110.866910
_symmetry_space_group_name_H-M "C 2/M"
_symmetry_group_IT_number 12
_symmetry_cell_setting 'monoclinic'
loop_
_space_group_symop_operation_xyz
x,y,z
-x,y,-z
-x,-y,-z
x,-y,z
1/2+x,1/2+y,z
1/2-x,1/2+y,-z
1/2-x,1/2-y,-z
1/2+x,1/2-y,z
loop_
_atom_site_type_symbol
_atom_site_label
_atom_site_fract_x
_atom_site_fract_y
_atom_site_fract_z
Si Si1 0.494161 0.168420 0.417034
Si Si2 0.164575 0.334978 0.561470
Si Si3 0.549504 0.171739 0.926839
Si Si4 0.825266 0.326500 0.994057
Si Si5 0.397013 0.674613 0.695584
Si Si6 0.291876 0.829967 0.605402
Si Si7 0.575113 0.825960 0.154517
O O1 0.500000 0.227714 0.500000
O O2 0.413562 0.176575 0.398919
O O3 0.536817 0.271438 0.358172
O O4 0.523202 0.000000 0.409896
O O5 0.195236 0.500000 0.569746
O O6 0.211531 0.219448 0.601631
O O7 0.163975 0.299645 0.473809
O O8 0.504676 0.229743 0.860409
O O9 0.560112 0.000000 0.914750
O O10 0.500000 0.205518 0.000000
O O11 0.627560 0.234926 0.940044
O O12 0.812635 0.500000 0.003801
O O13 0.868167 0.292953 0.915021
O O14 0.750000 0.250000 0.000000
O O15 0.395307 0.500000 0.696392
O O16 0.325052 0.734941 0.667683
O O17 0.401595 0.733094 0.777839
O O18 0.292974 0.000000 0.628661
O O19 0.573606 0.000000 0.173111
#
# Coordination Sequence:
#
# PCOD8090951 Si02
#       7
#     8   8   8   8   8   8   8
#     4  10  19  36  57  77 102 135 176 219 268 325
#     4   9  18  33  54  78 101 128 171 222 269 320
#     4   7  12  27  52  77  99 129 173 212 241 294
#     4   9  17  31  55  85 110 135 171 213 259 312
#     4  12  24  35  51  78 110 141 180 227 273 317
#     4  10  19  34  54  75 102 137 175 216 268 325
#     4   9  18  35  56  75 101 142 183 215 258 315
#
# _framework density 18.001414
#
# number of rings (size 3 to 8) (size 9 to 14) (size 15 to 20)
#    0.000    2.571    1.429    3.429    0.000    2.000 
#    0.000    2.143    0.000    7.714    0.000    0.000 
#    0.000    0.000    0.000    0.000    0.000    0.000 
#
# Total GULP energy -346962.929747 kJ/mol
# GULP energy per Si atom -12391.533205 kJ/mol
# Density = 1.796044 g / cm^3
# Si number density = 18.001414 Si / 1000 Ang^3
#
#
#
# Elastic Constant Matrix: (Units=GPa)
#
#
# Indices 1 2 3 4 5 6 
#
# 1 127.0625 54.5846 49.7201 0.0000 18.5739 0.0000
# 2 54.5846 94.4141 52.1594 0.0000 12.7816 0.0000
# 3 49.7201 52.1594 83.2387 0.0000 20.3166 0.0000
# 4 0.0000 0.0000 0.0000 22.3706 0.0000 0.1458
# 5 18.5739 12.7816 20.3166 0.0000 25.7499 0.0000
# 6 0.0000 0.0000 0.0000 0.1458 0.0000 31.6280
#
#
#
# Elastic Compliance Matrix: (Units=1/GPa)
#
#
# Indices 1 2 3 4 5 6 
#
# 1 0.011562 -0.004385 -0.003287 0.000000 -0.003570 0.000000
# 2 -0.004385 0.017863 -0.008895 0.000000 0.001314 0.000000
# 3 -0.003287 -0.008895 0.022162 0.000000 -0.010700 0.000000
# 4 0.000000 0.000000 0.000000 0.044703 0.000000 -0.000206
# 5 -0.003570 0.001314 -0.010700 0.000000 0.049200 0.000000
# 6 0.000000 0.000000 0.000000 -0.000206 0.000000 0.031618
#
#
# Mechanical properties :
#
#
# Convention : Reuss Voigt Hill
#
# Bulk Modulus (GPa) = 54.19123 68.62705 61.40914
# Shear Modulus (GPa) = 23.10605 25.83312 24.46959
#
# Velocity S-wave (km/s) = 3.58658 3.79233 3.69089
# Velocity P-wave (km/s) = 6.87900 7.57506 7.23541
#
# Compressibility (1/GPa) = 0.01845317
#
# Stress axis : x y z
#
# Youngs Moduli (GPa) = 86.48967 55.98181 45.12170
#
# Poissons Ratio (x) = 0.24550 0.14832
# Poissons Ratio (y) = 0.37928 0.40135
# Poissons Ratio (z) = 0.28429 0.49794
#
# Static dielectric constant tensor:
#      x y z
#    x 3.564800 0.000000 0.264490 
#    y 0.000000 3.128480 0.000000 
#    z 0.264490 0.000000 3.161760 
# 
# 
# High freq. dielectric constant tensor:
#      x y z
#    x 1.711280 0.000000 0.020250 
#    y 0.000000 1.676400 0.000000 
#    z 0.020250 0.000000 1.670700 
# 
# From -- ./inp_files/280148.got.cif
#   From: 2010.06.25/outbox.cif.g09.slc.cpg/sg12_141_cif.got.tgz:280148.got - 2010.06.28 00:19:55.
