data_PCOD8090554
_publ_section_title
;
Structure prediction by ZEFSAII (Michael W. Deem and Ramdas Pophale) SiO2 
 PCOD8090554
Probable space group: C 2/M
;
_chemical_formula_sum "Si O2"
_cell_formula_units_Z 64
_cell_length_a 20.344757
_cell_length_b 9.113354
_cell_length_c 24.272676
_cell_angle_alpha 90.000000
_cell_angle_beta 129.263300
_cell_angle_gamma 90.000000
_cell_volume 3484.393850
_symmetry_space_group_name_H-M "C 2/M"
_symmetry_group_IT_number 12
_symmetry_cell_setting 'monoclinic'
loop_
_space_group_symop_operation_xyz
x,y,z
-x,y,-z
-x,-y,-z
x,-y,z
1/2+x,1/2+y,z
1/2-x,1/2+y,-z
1/2-x,1/2-y,-z
1/2+x,1/2-y,z
loop_
_atom_site_type_symbol
_atom_site_label
_atom_site_fract_x
_atom_site_fract_y
_atom_site_fract_z
Si Si1 0.749775 0.669499 0.841597
Si Si2 0.534497 0.668334 0.292736
Si Si3 0.816836 0.169491 0.072791
Si Si4 0.338995 0.330029 0.544983
Si Si5 0.076932 0.827640 0.081589
Si Si6 0.004506 0.827924 0.156441
Si Si7 0.396732 0.829322 0.287320
Si Si8 0.478472 0.829377 0.550212
O O1 0.761287 0.500000 0.832584
O O2 0.701297 0.693849 0.872864
O O3 0.840995 0.743377 0.895889
O O4 0.693260 0.745759 0.763917
O O5 0.501893 0.500000 0.280333
O O6 0.619350 0.692334 0.372884
O O7 0.554805 0.707701 0.239819
O O8 0.460127 0.772809 0.274025
O O9 0.909493 0.237275 0.109369
O O10 0.812621 0.000000 0.054621
O O11 0.750000 0.250000 0.000000
O O12 0.325117 0.500000 0.523744
O O13 0.250000 0.250000 0.500000
O O14 0.398410 0.262449 0.529218
O O15 0.054416 0.764160 0.130401
O O16 0.097113 0.000000 0.093050
O O17 0.000000 0.791155 0.000000
O O18 0.995871 0.000000 0.142787
O O19 0.438152 0.798104 0.368890
O O20 0.380040 0.000000 0.268794
O O21 0.500000 0.778308 0.500000
O O22 0.452918 0.000000 0.539021
#
# Coordination Sequence:
#
# PCOD8090554 Si02
#       8
#     8   8   8   8   8   8   8   8
#     4  11  22  37  56  78 111 147 179 219 271 329
#     4   9  17  34  57  79 106 143 182 221 271 323
#     4  10  20  34  55  80 104 135 175 221 265 314
#     4  10  20  34  56  82 112 149 184 223 271 325
#     4  10  21  37  57  78 106 143 183 226 270 321
#     4   9  17  34  56  76 102 138 179 218 262 317
#     4  10  19  33  57  85 110 140 180 227 272 319
#     4   9  19  37  59  83 112 145 184 229 277 329
#
# _framework density 18.367614
#
# number of rings (size 3 to 8) (size 9 to 14) (size 15 to 20)
#    0.000    2.250    1.250    1.875    0.000    3.500 
#    2.250    1.250    0.000    0.000    0.000    0.000 
#    0.000    0.000    0.000    0.000    0.000    0.000 
#
# Total GULP energy -396820.644967 kJ/mol
# GULP energy per Si atom -12400.645155 kJ/mol
# Density = 1.832581 g / cm^3
# Si number density = 18.367614 Si / 1000 Ang^3
#
#
#
# Elastic Constant Matrix: (Units=GPa)
#
#
# Indices 1 2 3 4 5 6 
#
# 1 67.0200 46.1107 40.6146 0.0000 4.1967 0.0000
# 2 46.1107 86.2620 54.7473 0.0000 10.2584 0.0000
# 3 40.6146 54.7473 109.5083 0.0000 0.8929 0.0000
# 4 0.0000 0.0000 0.0000 28.2306 0.0000 5.9626
# 5 4.1967 10.2584 0.8929 0.0000 37.9675 0.0000
# 6 0.0000 0.0000 0.0000 5.9626 0.0000 29.9819
#
#
#
# Elastic Compliance Matrix: (Units=1/GPa)
#
#
# Indices 1 2 3 4 5 6 
#
# 1 0.024604 -0.010830 -0.003713 0.000000 0.000294 0.000000
# 2 -0.010830 0.022512 -0.007199 0.000000 -0.004716 0.000000
# 3 -0.003713 -0.007199 0.014092 0.000000 0.002024 0.000000
# 4 0.000000 0.000000 0.000000 0.036976 0.000000 -0.007353
# 5 0.000294 -0.004716 0.002024 0.000000 0.027532 0.000000
# 6 0.000000 0.000000 0.000000 -0.007353 0.000000 0.034816
#
#
# Mechanical properties :
#
#
# Convention : Reuss Voigt Hill
#
# Bulk Modulus (GPa) = 56.42699 60.63727 58.53213
# Shear Modulus (GPa) = 23.81813 27.32386 25.57099
#
# Velocity S-wave (km/s) = 3.60494 3.86114 3.73524
# Velocity P-wave (km/s) = 6.93650 7.27755 7.10907
#
# Compressibility (1/GPa) = 0.01772202
#
# Stress axis : x y z
#
# Youngs Moduli (GPa) = 40.64366 44.42116 70.96452
#
# Poissons Ratio (x) = 0.48109 0.26350
# Poissons Ratio (y) = 0.44018 0.51089
# Poissons Ratio (z) = 0.15092 0.31980
#
# Static dielectric constant tensor:
#      x y z
#    x 3.380100 0.000000 -0.073300 
#    y 0.000000 3.327450 0.000000 
#    z -0.073300 0.000000 3.483580 
# 
# 
# High freq. dielectric constant tensor:
#      x y z
#    x 1.702140 0.000000 0.000060 
#    y 0.000000 1.701730 0.000000 
#    z 0.000060 0.000000 1.723920 
# 
# From -- ./inp_files/346111.got.cif
#   From: 2010.06.25/outbox.cif.g09.slc.cpg/sg12_174_cif.got.tgz:346111.got - 2010.06.28 00:19:55.
