data_PCOD8090061
_publ_section_title
;
Structure prediction by ZEFSAII (Michael W. Deem and Ramdas Pophale) SiO2 
 PCOD8090061
Probable space group: C 2/M
;
_chemical_formula_sum "Si O2"
_cell_formula_units_Z 56
_cell_length_a 9.316433
_cell_length_b 25.261558
_cell_length_c 13.694919
_cell_angle_alpha 90.000000
_cell_angle_beta 99.715154
_cell_angle_gamma 90.000000
_cell_volume 3176.844080
_symmetry_space_group_name_H-M "C 2/M"
_symmetry_group_IT_number 12
_symmetry_cell_setting 'monoclinic'
loop_
_space_group_symop_operation_xyz
x,y,z
-x,y,-z
-x,-y,-z
x,-y,z
1/2+x,1/2+y,z
1/2-x,1/2+y,-z
1/2-x,1/2-y,-z
1/2+x,1/2-y,z
loop_
_atom_site_type_symbol
_atom_site_label
_atom_site_fract_x
_atom_site_fract_y
_atom_site_fract_z
Si Si1 0.856625 0.000000 0.103470
Si Si2 0.115675 0.895667 0.784413
Si Si3 0.648060 0.060036 0.558178
Si Si4 0.726994 0.396321 0.231773
Si Si5 0.374893 0.440551 0.418942
Si Si6 0.638737 0.805059 0.882439
Si Si7 0.200040 0.000000 0.117487
Si Si8 0.694467 0.803028 0.110964
O O1 0.815038 0.947218 0.156792
O O2 0.027870 0.000000 0.107542
O O3 0.763324 0.000000 0.993121
O O4 0.140927 0.901507 0.672800
O O5 0.209072 0.845877 0.824566
O O6 0.946268 0.886506 0.790870
O O7 0.500000 0.085146 0.500000
O O8 0.719140 0.096492 0.650327
O O9 0.733777 0.058201 0.467589
O O10 0.629951 0.000000 0.597120
O O11 0.811389 0.348457 0.190312
O O12 0.768546 0.448582 0.175842
O O13 0.500000 0.416275 0.500000
O O14 0.418042 0.500000 0.386856
O O15 0.464391 0.797755 0.857981
O O16 0.721033 0.751536 0.864376
O O17 0.684771 0.820996 0.997166
#
# Coordination Sequence:
#
# PCOD8090061 Si02
#       8
#     4   8   8   8   8   8   4   8
#     4   9  18  30  47  82 114 150 183 221 276 335
#     4  11  20  33  57  85 115 150 190 233 282 334
#     4  10  21  35  53  80 115 154 196 235 280 334
#     4  11  20  34  57  83 115 153 188 232 283 334
#     4  10  19  33  55  80 113 151 195 239 273 328
#     4  10  22  40  61  84 112 147 190 238 280 340
#     4   9  18  30  49  77 118 149 183 223 272 339
#     4  10  22  40  61  85 111 146 192 235 285 336
#
# _framework density 17.627555999999998
#
# number of rings (size 3 to 8) (size 9 to 14) (size 15 to 20)
#    0.000    1.857    2.857    1.714    2.000    2.857 
#    0.000    0.714    0.000    4.286    0.000    0.000 
#    0.000    0.000    0.000    0.000    0.000    0.000 
#
# Total GULP energy -347127.606497 kJ/mol
# GULP energy per Si atom -12397.414518 kJ/mol
# Density = 1.758744 g / cm^3
# Si number density = 17.627556 Si / 1000 Ang^3
#
#
#
# Elastic Constant Matrix: (Units=GPa)
#
#
# Indices 1 2 3 4 5 6 
#
# 1 107.7582 52.5376 48.6203 0.0000 6.6886 0.0000
# 2 52.5376 105.9295 64.7601 0.0000 2.0015 0.0000
# 3 48.6203 64.7601 112.6098 0.0000 0.5490 0.0000
# 4 0.0000 0.0000 0.0000 12.7541 0.0000 3.3980
# 5 6.6886 2.0015 0.5490 0.0000 24.3400 0.0000
# 6 0.0000 0.0000 0.0000 3.3980 0.0000 31.2157
#
#
#
# Elastic Compliance Matrix: (Units=1/GPa)
#
#
# Indices 1 2 3 4 5 6 
#
# 1 0.013061 -0.004596 -0.002981 0.000000 -0.003144 0.000000
# 2 -0.004596 0.016201 -0.007333 0.000000 0.000096 0.000000
# 3 -0.002981 -0.007333 0.014379 0.000000 0.001098 0.000000
# 4 0.000000 0.000000 0.000000 0.080748 0.000000 -0.008790
# 5 -0.003144 0.000096 0.001098 0.000000 0.041916 0.000000
# 6 0.000000 0.000000 0.000000 -0.008790 0.000000 0.032992
#
#
# Mechanical properties :
#
#
# Convention : Reuss Voigt Hill
#
# Bulk Modulus (GPa) = 72.35261 73.12592 72.73926
# Shear Modulus (GPa) = 21.39285 24.35394 22.87340
#
# Velocity S-wave (km/s) = 3.48746 3.72100 3.60612
# Velocity P-wave (km/s) = 7.57303 7.74823 7.66113
#
# Compressibility (1/GPa) = 0.01382120
#
# Stress axis : x y z
#
# Youngs Moduli (GPa) = 76.56443 61.72471 69.54652
#
# Poissons Ratio (x) = 0.28370 0.20729
# Poissons Ratio (y) = 0.35190 0.50998
# Poissons Ratio (z) = 0.22821 0.45262
#
# Static dielectric constant tensor:
#      x y z
#    x 3.195850 0.000000 0.084540 
#    y 0.000000 3.148170 0.000000 
#    z 0.084540 0.000000 3.244610 
# 
# 
# High freq. dielectric constant tensor:
#      x y z
#    x 1.681730 0.000000 0.001230 
#    y 0.000000 1.662960 0.000000 
#    z 0.001230 0.000000 1.686360 
# 
# From -- ./inp_files/197568.got.cif
#   From: 2010.06.25/outbox.cif.g09.slc.cpg/sg12_99_cif.got.tgz:197568.got - 2010.06.28 00:19:55.
