data_PCOD8090332
_publ_section_title
;
Structure prediction by ZEFSAII (Michael W. Deem and Ramdas Pophale) SiO2 
 PCOD8090332
Probable space group: C 2/M
;
_chemical_formula_sum "Si O2"
_cell_formula_units_Z 56
_cell_length_a 24.092582
_cell_length_b 9.093462
_cell_length_c 13.959035
_cell_angle_alpha 90.000000
_cell_angle_beta 84.113043
_cell_angle_gamma 90.000000
_cell_volume 3042.086448
_symmetry_space_group_name_H-M "C 2/M"
_symmetry_group_IT_number 12
_symmetry_cell_setting 'monoclinic'
loop_
_space_group_symop_operation_xyz
x,y,z
-x,y,-z
-x,-y,-z
x,-y,z
1/2+x,1/2+y,z
1/2-x,1/2+y,-z
1/2-x,1/2-y,-z
1/2+x,1/2-y,z
loop_
_atom_site_type_symbol
_atom_site_label
_atom_site_fract_x
_atom_site_fract_y
_atom_site_fract_z
Si Si1 0.716844 0.172228 0.721975
Si Si2 0.625389 0.672757 0.852263
Si Si3 0.860238 0.671145 0.441020
Si Si4 0.171723 0.329194 0.341540
Si Si5 0.451127 0.327883 0.312252
Si Si6 0.938787 0.328168 0.976378
Si Si7 0.060887 0.330174 0.243645
O O1 0.683294 0.251596 0.812723
O O2 0.688702 0.209025 0.624965
O O3 0.779141 0.233108 0.711454
O O4 0.717516 0.000000 0.743114
O O5 0.635327 0.500000 0.858594
O O6 0.577973 0.712848 0.783135
O O7 0.606902 0.736213 0.957457
O O8 0.875603 0.500000 0.437613
O O9 0.839654 0.723178 0.548290
O O10 0.916325 0.758434 0.405439
O O11 0.188825 0.500000 0.335874
O O12 0.117821 0.297010 0.287783
O O13 0.454061 0.500000 0.328927
O O14 0.513046 0.263863 0.302683
O O15 0.928085 0.500000 0.996397
O O16 0.931496 0.283232 0.867585
O O17 0.000000 0.281312 0.000000
O O18 0.043275 0.500000 0.253788
#
# Coordination Sequence:
#
# PCOD8090332 Si02
#       7
#     8   8   8   8   8   8   8
#     4  10  20  35  57  81 106 138 178 221 264 310
#     4  10  20  34  55  82 109 137 174 222 267 309
#     4   9  19  35  56  79 105 140 179 218 262 314
#     4  10  21  37  55  77 107 143 180 217 261 314
#     4  10  20  33  52  80 110 139 175 221 265 309
#     4  10  19  33  56  82 107 137 175 218 263 314
#     4  10  21  36  54  77 109 145 176 212 264 322
#
# _framework density 18.408418000000001
#
# number of rings (size 3 to 8) (size 9 to 14) (size 15 to 20)
#    0.000    2.143    1.429    1.714    0.000    4.286 
#    0.000    3.571    0.000    0.000    0.000    0.000 
#    0.000    0.000    0.000    0.000    0.000    0.000 
#
# Total GULP energy -347358.260552 kJ/mol
# GULP energy per Si atom -12405.652163 kJ/mol
# Density = 1.836652 g / cm^3
# Si number density = 18.408418 Si / 1000 Ang^3
#
#
#
# Elastic Constant Matrix: (Units=GPa)
#
#
# Indices 1 2 3 4 5 6 
#
# 1 115.4756 58.6666 48.8808 0.0000 -24.6995 0.0000
# 2 58.6666 74.8335 29.1386 0.0000 -17.7939 0.0000
# 3 48.8808 29.1386 42.4570 0.0000 -19.1721 0.0000
# 4 0.0000 0.0000 0.0000 24.6470 0.0000 -10.2474
# 5 -24.6995 -17.7939 -19.1721 0.0000 28.5459 0.0000
# 6 0.0000 0.0000 0.0000 -10.2474 0.0000 33.6149
#
#
#
# Elastic Compliance Matrix: (Units=1/GPa)
#
#
# Indices 1 2 3 4 5 6 
#
# 1 0.020973 -0.009562 -0.017340 0.000000 0.000541 0.000000
# 2 -0.009562 0.022962 -0.002904 0.000000 0.004090 0.000000
# 3 -0.017340 -0.002904 0.054423 0.000000 0.019738 0.000000
# 4 0.000000 0.000000 0.000000 0.046462 0.000000 0.014164
# 5 0.000541 0.004090 0.019738 0.000000 0.051305 0.000000
# 6 0.000000 0.000000 0.000000 0.014164 0.000000 0.034066
#
#
# Mechanical properties :
#
#
# Convention : Reuss Voigt Hill
#
# Bulk Modulus (GPa) = 25.80852 56.23756 41.02304
# Shear Modulus (GPa) = 16.51697 23.76690 20.14193
#
# Velocity S-wave (km/s) = 2.99866 3.59707 3.31141
# Velocity P-wave (km/s) = 5.10291 6.91868 6.07897
#
# Compressibility (1/GPa) = 0.03874689
#
# Stress axis : x y z
#
# Youngs Moduli (GPa) = 47.67939 43.54966 18.37468
#
# Poissons Ratio (x) = 0.41642 0.31862
# Poissons Ratio (y) = 0.45590 0.05336
# Poissons Ratio (z) = 0.82676 0.12646
#
# Static dielectric constant tensor:
#      x y z
#    x 3.265300 0.000000 -0.073160 
#    y 0.000000 3.315220 0.000000 
#    z -0.073160 0.000000 3.384110 
# 
# 
# High freq. dielectric constant tensor:
#      x y z
#    x 1.709530 0.000000 -0.014250 
#    y 0.000000 1.714660 0.000000 
#    z -0.014250 0.000000 1.710250 
# 
# From -- ./inp_files/230915.got.cif
#   From: 2010.06.25/outbox.cif.g09.slc.cpg/sg12_116_cif.got.tgz:230915.got - 2010.06.28 00:19:55.
