data_PCOD8090149
_publ_section_title
;
Structure prediction by ZEFSAII (Michael W. Deem and Ramdas Pophale) SiO2 
 PCOD8090149
Probable space group: C 2/M
;
_chemical_formula_sum "Si O2"
_cell_formula_units_Z 56
_cell_length_a 18.924938
_cell_length_b 36.246074
_cell_length_c 7.930727
_cell_angle_alpha 90.000000
_cell_angle_beta 33.057352
_cell_angle_gamma 90.000000
_cell_volume 2967.466887
_symmetry_space_group_name_H-M "C 2/M"
_symmetry_group_IT_number 12
_symmetry_cell_setting 'monoclinic'
loop_
_space_group_symop_operation_xyz
x,y,z
-x,y,-z
-x,-y,-z
x,-y,z
1/2+x,1/2+y,z
1/2-x,1/2+y,-z
1/2-x,1/2-y,-z
1/2+x,1/2-y,z
loop_
_atom_site_type_symbol
_atom_site_label
_atom_site_fract_x
_atom_site_fract_y
_atom_site_fract_z
Si Si1 0.345909 0.041319 0.808182
Si Si2 0.762037 0.335031 0.167591
Si Si3 0.150754 0.589568 0.510605
Si Si4 0.500002 0.702228 0.800733
Si Si5 0.762033 0.664969 0.784267
Si Si6 0.150754 0.410433 0.886381
Si Si7 0.999998 0.287009 0.198596
O O1 0.500000 0.039821 0.500000
O O2 0.295656 0.061584 0.738838
O O3 0.288259 0.000000 0.923481
O O4 0.295657 0.061584 0.078537
O O5 0.624417 0.317061 0.475058
O O6 0.776215 0.371437 0.252514
O O7 0.774613 0.348120 0.950773
O O8 0.871477 0.305189 0.986245
O O9 0.223785 0.628563 0.357377
O O10 0.172934 0.572752 0.654133
O O11 0.000000 0.597572 0.778892
O O12 0.499998 0.744654 0.744747
O O13 0.500000 0.698145 0.000000
O O14 0.375592 0.682936 0.972706
O O15 0.871466 0.694813 0.527862
O O16 0.000000 0.291549 0.000000
#
# Coordination Sequence:
#
# PCOD8090149 Si02
#       7
#     8   8   8   8   8   8   8
#     4   9  18  32  52  83 118 148 183 230 285 339
#     4  12  23  37  58  83 113 151 198 243 289 345
#     4  10  19  33  55  82 113 152 193 231 280 341
#     4  11  25  41  55  79 115 150 195 249 297 343
#     4  12  23  37  58  83 113 151 198 243 289 345
#     4  10  19  33  55  82 113 152 193 231 280 341
#     4  11  23  39  59  81 109 152 197 243 297 349
#
# _framework density 18.871314000000002
#
# number of rings (size 3 to 8) (size 9 to 14) (size 15 to 20)
#    0.000    1.286    2.857    4.286    0.000    6.286 
#    0.000    2.857    0.000    0.000    0.000    2.000 
#    0.000    3.429    0.000    0.000    0.000    0.000 
#
# Total GULP energy -347283.094299 kJ/mol
# GULP energy per Si atom -12402.967654 kJ/mol
# Density = 1.882836 g / cm^3
# Si number density = 18.871314 Si / 1000 Ang^3
#
#
#
# Elastic Constant Matrix: (Units=GPa)
#
#
# Indices 1 2 3 4 5 6 
#
# 1 108.1064 54.1530 41.6490 0.0000 16.2214 0.0000
# 2 54.1530 129.1059 44.5703 0.0000 8.6293 0.0000
# 3 41.6490 44.5703 92.7050 0.0000 -2.3470 0.0000
# 4 0.0000 0.0000 0.0000 11.2068 0.0000 9.6779
# 5 16.2214 8.6293 -2.3470 0.0000 40.9462 0.0000
# 6 0.0000 0.0000 0.0000 9.6779 0.0000 21.9531
#
#
#
# Elastic Compliance Matrix: (Units=1/GPa)
#
#
# Indices 1 2 3 4 5 6 
#
# 1 0.013596 -0.003873 -0.004369 0.000000 -0.004821 0.000000
# 2 -0.003873 0.010595 -0.003377 0.000000 -0.000892 0.000000
# 3 -0.004369 -0.003377 0.014456 0.000000 0.003271 0.000000
# 4 0.000000 0.000000 0.000000 0.144084 0.000000 -0.063519
# 5 -0.004821 -0.000892 0.003271 0.000000 0.026708 0.000000
# 6 0.000000 0.000000 0.000000 -0.063519 0.000000 0.073554
#
#
# Mechanical properties :
#
#
# Convention : Reuss Voigt Hill
#
# Bulk Modulus (GPa) = 64.88580 67.85133 66.36856
# Shear Modulus (GPa) = 16.05827 27.45756 21.75792
#
# Velocity S-wave (km/s) = 2.92024 3.81857 3.39921
# Velocity P-wave (km/s) = 6.76967 7.44814 7.11699
#
# Compressibility (1/GPa) = 0.01541169
#
# Stress axis : x y z
#
# Youngs Moduli (GPa) = 73.54889 94.38146 69.17642
#
# Poissons Ratio (x) = 0.36550 0.30220
# Poissons Ratio (y) = 0.28483 0.23359
# Poissons Ratio (z) = 0.32130 0.31870
#
# Static dielectric constant tensor:
#      x y z
#    x 3.527950 0.000000 0.351640 
#    y 0.000000 3.514450 0.000000 
#    z 0.351640 0.000000 3.137620 
# 
# 
# High freq. dielectric constant tensor:
#      x y z
#    x 1.741730 0.000000 0.024790 
#    y 0.000000 1.729730 0.000000 
#    z 0.024790 0.000000 1.714200 
# 
# From -- ./inp_files/91542.got.cif
#   From: 2010.06.25/outbox.cif.g09.slc.cpg/sg12_46_cif.got.tgz:91542.got - 2010.06.28 00:19:55.
