data_PCOD8090476
_publ_section_title
;
Structure prediction by ZEFSAII (Michael W. Deem and Ramdas Pophale) SiO2 
 PCOD8090476
Probable space group: C 2/M
;
_chemical_formula_sum "Si O2"
_cell_formula_units_Z 56
_cell_length_a 20.272468
_cell_length_b 8.798852
_cell_length_c 17.366233
_cell_angle_alpha 90.000000
_cell_angle_beta 71.653073
_cell_angle_gamma 90.000000
_cell_volume 2940.230263
_symmetry_space_group_name_H-M "C 2/M"
_symmetry_group_IT_number 12
_symmetry_cell_setting 'monoclinic'
loop_
_space_group_symop_operation_xyz
x,y,z
-x,y,-z
-x,-y,-z
x,-y,z
1/2+x,1/2+y,z
1/2-x,1/2+y,-z
1/2-x,1/2-y,-z
1/2+x,1/2-y,z
loop_
_atom_site_type_symbol
_atom_site_label
_atom_site_fract_x
_atom_site_fract_y
_atom_site_fract_z
Si Si1 0.295057 0.325932 0.582939
Si Si2 0.920543 0.676733 0.244749
Si Si3 0.321064 0.678830 0.157617
Si Si4 0.579667 0.823592 0.177931
Si Si5 0.678216 0.324801 0.255822
Si Si6 0.153816 0.824625 0.597811
Si Si7 0.322399 0.821543 0.998083
O O1 0.268395 0.500000 0.585847
O O2 0.334694 0.298560 0.648550
O O3 0.229263 0.215537 0.604237
O O4 0.347613 0.289532 0.493270
O O5 0.904700 0.500000 0.238579
O O6 0.869921 0.771919 0.209208
O O7 0.904847 0.723884 0.338817
O O8 0.999369 0.717953 0.195465
O O9 0.323879 0.500000 0.146266
O O10 0.241984 0.726147 0.201626
O O11 0.348581 0.755556 0.069403
O O12 0.608574 0.726420 0.238448
O O13 0.589249 0.000000 0.194668
O O14 0.619180 0.778846 0.085474
O O15 0.694628 0.500000 0.231808
O O16 0.138537 0.000000 0.620830
O O17 0.311986 0.000000 0.009405
O O18 0.250000 0.750000 0.000000
#
# Coordination Sequence:
#
# PCOD8090476 Si02
#       7
#     8   8   8   8   8   8   8
#     4   9  19  34  55  86 119 152 194 240 291 346
#     4  11  23  41  60  84 119 159 197 241 297 352
#     4  12  24  38  60  89 119 153 196 245 292 349
#     4  10  24  42  61  84 118 157 196 241 295 355
#     4  11  21  36  61  89 117 153 196 242 290 348
#     4  10  19  33  56  86 118 153 193 243 293 345
#     4  11  22  39  62  89 118 153 195 246 297 345
#
# _framework density 19.046126999999998
#
# number of rings (size 3 to 8) (size 9 to 14) (size 15 to 20)
#    0.000    1.429    2.857    3.000    0.000    3.429 
#    0.000    3.571    0.000    4.286    0.000    0.000 
#    0.000    0.000    0.000    0.000    0.000    0.000 
#
# Total GULP energy -347321.778359 kJ/mol
# GULP energy per Si atom -12404.349227 kJ/mol
# Density = 1.900278 g / cm^3
# Si number density = 19.046127 Si / 1000 Ang^3
#
#
#
# Elastic Constant Matrix: (Units=GPa)
#
#
# Indices 1 2 3 4 5 6 
#
# 1 61.9470 26.8126 33.9722 0.0000 -6.0341 0.0000
# 2 26.8126 81.4687 40.3700 0.0000 -0.4699 0.0000
# 3 33.9722 40.3700 125.9251 0.0000 0.5662 0.0000
# 4 0.0000 0.0000 0.0000 32.8838 0.0000 2.4924
# 5 -6.0341 -0.4699 0.5662 0.0000 32.5651 0.0000
# 6 0.0000 0.0000 0.0000 2.4924 0.0000 29.1997
#
#
#
# Elastic Compliance Matrix: (Units=1/GPa)
#
#
# Indices 1 2 3 4 5 6 
#
# 1 0.020849 -0.004807 -0.004101 0.000000 0.003865 0.000000
# 2 -0.004807 0.015704 -0.003735 0.000000 -0.000599 0.000000
# 3 -0.004101 -0.003735 0.010249 0.000000 -0.000992 0.000000
# 4 0.000000 0.000000 0.000000 0.030608 0.000000 -0.002613
# 5 0.003865 -0.000599 -0.000992 0.000000 0.031433 0.000000
# 6 0.000000 0.000000 0.000000 -0.002613 0.000000 0.034470
#
#
# Mechanical properties :
#
#
# Convention : Reuss Voigt Hill
#
# Bulk Modulus (GPa) = 46.47645 52.40559 49.44102
# Shear Modulus (GPa) = 28.44603 30.14213 29.29408
#
# Velocity S-wave (km/s) = 3.86882 3.98249 3.92607
# Velocity P-wave (km/s) = 6.66424 6.98010 6.82399
#
# Compressibility (1/GPa) = 0.02151627
#
# Stress axis : x y z
#
# Youngs Moduli (GPa) = 47.96385 63.67758 97.56678
#
# Poissons Ratio (x) = 0.30612 0.40011
# Poissons Ratio (y) = 0.23058 0.36440
# Poissons Ratio (z) = 0.19669 0.23783
#
# Static dielectric constant tensor:
#      x y z
#    x 3.444770 0.000000 0.065750 
#    y 0.000000 3.574340 0.000000 
#    z 0.065750 0.000000 3.917840 
# 
# 
# High freq. dielectric constant tensor:
#      x y z
#    x 1.713980 0.000000 0.007860 
#    y 0.000000 1.750960 0.000000 
#    z 0.007860 0.000000 1.757840 
# 
# From -- ./inp_files/275272.got.cif
#   From: 2010.06.25/outbox.cif.g09.slc.cpg/sg12_138_cif.got.tgz:275272.got - 2010.06.28 00:19:55.
