data_PCOD8090773
_publ_section_title
;
Structure prediction by ZEFSAII (Michael W. Deem and Ramdas Pophale) SiO2 
 PCOD8090773
Probable space group: C 2/M
;
_chemical_formula_sum "Si O2"
_cell_formula_units_Z 48
_cell_length_a 33.229939
_cell_length_b 15.679263
_cell_length_c 10.629093
_cell_angle_alpha 90.000000
_cell_angle_beta 151.715267
_cell_angle_gamma 90.000000
_cell_volume 2624.191731
_symmetry_space_group_name_H-M "C 2/M"
_symmetry_group_IT_number 12
_symmetry_cell_setting 'monoclinic'
loop_
_space_group_symop_operation_xyz
x,y,z
-x,y,-z
-x,-y,-z
x,-y,z
1/2+x,1/2+y,z
1/2-x,1/2+y,-z
1/2-x,1/2-y,-z
1/2+x,1/2-y,z
loop_
_atom_site_type_symbol
_atom_site_label
_atom_site_fract_x
_atom_site_fract_y
_atom_site_fract_z
Si Si1 0.990778 0.262841 0.326989
Si Si2 0.299543 0.743078 0.764842
Si Si3 0.094706 0.902501 0.572902
Si Si4 0.244775 0.821110 0.873351
Si Si5 0.379445 0.901393 0.392326
Si Si6 0.269661 0.593625 0.835101
O O1 0.018260 0.165115 0.374102
O O2 0.043650 0.333893 0.395547
O O3 0.000000 0.281603 0.500000
O O4 0.895289 0.276254 0.015966
O O5 0.250000 0.750000 0.500000
O O6 0.253092 0.784872 0.756785
O O7 0.295764 0.643319 0.782792
O O8 0.155632 0.871902 0.627210
O O9 0.061264 0.000000 0.459643
O O10 0.152089 0.897198 0.854420
O O11 0.250000 0.750000 0.000000
O O12 0.322151 0.887173 0.109730
O O13 0.319488 0.878848 0.346366
O O14 0.411345 0.000000 0.482708
O O15 0.258552 0.500000 0.753611
#
# Coordination Sequence:
#
# PCOD8090773 Si02
#       6
#     8   8   8   8   8   8
#     4  12  20  36  56  86 121 145 189 243 280 339
#     4  12  24  37  56  85 121 156 179 231 305 340
#     4  10  19  33  63  90 106 142 198 245 279 322
#     4  11  16  37  61  83 114 148 196 233 268 338
#     4  10  19  34  62  87 107 146 200 243 272 321
#     4   9  17  35  59  84 110 146 192 233 278 342
#
# _framework density 18.291346000000001
#
# number of rings (size 3 to 8) (size 9 to 14) (size 15 to 20)
#    0.000    1.333    8.333    1.500    0.000    1.333 
#    0.000    5.833    0.000    3.000    0.000    0.000 
#    0.000    0.000    0.000    0.000    0.000    0.000 
#
# Total GULP energy -297349.887666 kJ/mol
# GULP energy per Si atom -12389.578653 kJ/mol
# Density = 1.824971 g / cm^3
# Si number density = 18.291346 Si / 1000 Ang^3
#
#
#
# Elastic Constant Matrix: (Units=GPa)
#
#
# Indices 1 2 3 4 5 6 
#
# 1 61.7591 27.0647 36.7128 0.0000 -2.7878 0.0000
# 2 27.0647 101.6562 17.2988 0.0000 5.5811 0.0000
# 3 36.7128 17.2988 85.0646 0.0000 2.3030 0.0000
# 4 0.0000 0.0000 0.0000 11.4953 0.0000 4.9192
# 5 -2.7878 5.5811 2.3030 0.0000 22.5008 0.0000
# 6 0.0000 0.0000 0.0000 4.9192 0.0000 31.3701
#
#
#
# Elastic Compliance Matrix: (Units=1/GPa)
#
#
# Indices 1 2 3 4 5 6 
#
# 1 0.024414 -0.005151 -0.009632 0.000000 0.005288 0.000000
# 2 -0.005151 0.011399 -0.000001 0.000000 -0.003466 0.000000
# 3 -0.009632 -0.000001 0.015990 0.000000 -0.002830 0.000000
# 4 0.000000 0.000000 0.000000 0.093249 0.000000 -0.014623
# 5 0.005288 -0.003466 -0.002830 0.000000 0.046247 0.000000
# 6 0.000000 0.000000 0.000000 -0.014623 0.000000 0.034171
#
#
# Mechanical properties :
#
#
# Convention : Reuss Voigt Hill
#
# Bulk Modulus (GPa) = 44.97719 45.62584 45.30152
# Shear Modulus (GPa) = 19.05121 24.23348 21.64234
#
# Velocity S-wave (km/s) = 3.23079 3.64381 3.44350
# Velocity P-wave (km/s) = 6.20968 6.53462 6.37422
#
# Compressibility (1/GPa) = 0.02223349
#
# Stress axis : x y z
#
# Youngs Moduli (GPa) = 40.96003 87.72736 62.53969
#
# Poissons Ratio (x) = 0.45190 0.60241
# Poissons Ratio (y) = 0.21099 0.00007
# Poissons Ratio (z) = 0.39454 0.00010
#
# Static dielectric constant tensor:
#      x y z
#    x 3.584920 0.000000 0.242380 
#    y 0.000000 3.795550 0.000000 
#    z 0.242380 0.000000 3.017300 
# 
# 
# High freq. dielectric constant tensor:
#      x y z
#    x 1.702140 0.000000 0.031520 
#    y 0.000000 1.724310 0.000000 
#    z 0.031520 0.000000 1.660890 
# 
# From -- ./inp_files/112938.got.cif
#   From: 2010.06.25/outbox.cif.g09.slc.cpg/sg12_57_cif.got.tgz:112938.got - 2010.06.28 00:19:55.
