data_PCOD8090415
_publ_section_title
;
Structure prediction by ZEFSAII (Michael W. Deem and Ramdas Pophale) SiO2 
 PCOD8090415
Probable space group: C 2/M
;
_chemical_formula_sum "Si O2"
_cell_formula_units_Z 44
_cell_length_a 23.335952
_cell_length_b 15.349876
_cell_length_c 7.562705
_cell_angle_alpha 90.000000
_cell_angle_beta 54.316565
_cell_angle_gamma 90.000000
_cell_volume 2200.383868
_symmetry_space_group_name_H-M "C 2/M"
_symmetry_group_IT_number 12
_symmetry_cell_setting 'monoclinic'
loop_
_space_group_symop_operation_xyz
x,y,z
-x,y,-z
-x,-y,-z
x,-y,z
1/2+x,1/2+y,z
1/2-x,1/2+y,-z
1/2-x,1/2-y,-z
1/2+x,1/2-y,z
loop_
_atom_site_type_symbol
_atom_site_label
_atom_site_fract_x
_atom_site_fract_y
_atom_site_fract_z
Si Si1 0.583179 0.000000 0.328489
Si Si2 0.968617 0.897550 0.240451
Si Si3 0.674597 0.698074 0.486064
Si Si4 0.000000 0.205660 0.500000
Si Si5 0.670414 0.164928 0.787993
Si Si6 0.081975 0.500000 0.917377
Si Si7 0.134661 0.316704 0.261312
O O1 0.500000 0.000000 0.500000
O O2 0.622361 0.083153 0.343520
O O3 0.592999 0.000000 0.104147
O O4 0.888065 0.870677 0.426298
O O5 0.018295 0.855228 0.300099
O O6 0.974731 0.000000 0.241920
O O7 0.000000 0.862790 0.000000
O O8 0.656063 0.749590 0.698300
O O9 0.746361 0.641919 0.375458
O O10 0.688149 0.766353 0.297361
O O11 0.937008 0.268338 0.566374
O O12 0.622711 0.088077 0.785874
O O13 0.653470 0.187984 0.021586
O O14 0.000000 0.500000 0.000000
#
# Coordination Sequence:
#
# PCOD8090415 Si02
#       7
#     4   8   8   4   8   4   8
#     4  10  20  34  54  86 120 149 188 235 294 339
#     4  10  21  36  56  81 109 142 190 239 285 328
#     4  10  22  37  60  79 112 158 188 235 287 344
#     4  10  19  33  56  84 108 146 182 237 281 336
#     4  10  22  39  55  85 115 149 194 229 285 348
#     4  10  24  36  60  88 119 152 187 248 289 346
#     4  10  20  35  57  82 117 148 190 235 281 342
#
# _framework density 19.996510000000001
#
# number of rings (size 3 to 8) (size 9 to 14) (size 15 to 20)
#    0.000    2.000    0.909    1.909    3.818    2.182 
#    0.000    0.000    0.000    0.000    0.000    0.000 
#    0.000    0.000    0.000    0.000    0.000    0.000 
#
# Total GULP energy -272639.406272 kJ/mol
# GULP energy per Si atom -12392.700285 kJ/mol
# Density = 1.995100 g / cm^3
# Si number density = 19.996510 Si / 1000 Ang^3
#
#
#
# Elastic Constant Matrix: (Units=GPa)
#
#
# Indices 1 2 3 4 5 6 
#
# 1 77.9726 40.5697 16.2284 0.0000 -2.6875 0.0000
# 2 40.5697 96.7105 39.8003 0.0000 1.1919 0.0000
# 3 16.2284 39.8003 75.6143 0.0000 13.3067 0.0000
# 4 0.0000 0.0000 0.0000 13.9034 0.0000 -11.0772
# 5 -2.6875 1.1919 13.3067 0.0000 39.6555 0.0000
# 6 0.0000 0.0000 0.0000 -11.0772 0.0000 20.6704
#
#
#
# Elastic Compliance Matrix: (Units=1/GPa)
#
#
# Indices 1 2 3 4 5 6 
#
# 1 0.016477 -0.006860 -0.000168 0.000000 0.001379 0.000000
# 2 -0.006860 0.016215 -0.007328 0.000000 0.001507 0.000000
# 3 -0.000168 -0.007328 0.018153 0.000000 -0.005883 0.000000
# 4 0.000000 0.000000 0.000000 0.125516 0.000000 0.067264
# 5 0.001379 0.001507 -0.005883 0.000000 0.027239 0.000000
# 6 0.000000 0.000000 0.000000 0.067264 0.000000 0.084425
#
#
# Mechanical properties :
#
#
# Convention : Reuss Voigt Hill
#
# Bulk Modulus (GPa) = 45.18038 49.27712 47.22875
# Shear Modulus (GPa) = 15.42665 25.09247 20.25956
#
# Velocity S-wave (km/s) = 2.78054 3.54622 3.18646
# Velocity P-wave (km/s) = 5.74036 6.43925 6.09982
#
# Compressibility (1/GPa) = 0.02213350
#
# Stress axis : x y z
#
# Youngs Moduli (GPa) = 60.69174 61.67196 55.08610
#
# Poissons Ratio (x) = 0.42305 0.00927
# Poissons Ratio (y) = 0.41632 0.40366
# Poissons Ratio (z) = 0.01022 0.45192
#
# Static dielectric constant tensor:
#      x y z
#    x 4.192840 0.000000 0.212040 
#    y 0.000000 3.861250 0.000000 
#    z 0.212040 0.000000 3.654200 
# 
# 
# High freq. dielectric constant tensor:
#      x y z
#    x 1.779170 0.000000 0.009100 
#    y 0.000000 1.779980 0.000000 
#    z 0.009100 0.000000 1.784010 
# 
# From -- ./inp_files/96164.got.cif
#   From: 2010.06.25/outbox.cif.g09.slc.cpg/sg12_49_cif.got.tgz:96164.got - 2010.06.28 00:19:55.
