data_PCOD8090302
_publ_section_title
;
Structure prediction by ZEFSAII (Michael W. Deem and Ramdas Pophale) SiO2 
 PCOD8090302
Probable space group: C 2/M
;
_chemical_formula_sum "Si O2"
_cell_formula_units_Z 48
_cell_length_a 11.250282
_cell_length_b 22.378452
_cell_length_c 14.750264
_cell_angle_alpha 90.000000
_cell_angle_beta 137.862441
_cell_angle_gamma 90.000000
_cell_volume 2491.491217
_symmetry_space_group_name_H-M "C 2/M"
_symmetry_group_IT_number 12
_symmetry_cell_setting 'monoclinic'
loop_
_space_group_symop_operation_xyz
x,y,z
-x,y,-z
-x,-y,-z
x,-y,z
1/2+x,1/2+y,z
1/2-x,1/2+y,-z
1/2-x,1/2-y,-z
1/2+x,1/2-y,z
loop_
_atom_site_type_symbol
_atom_site_label
_atom_site_fract_x
_atom_site_fract_y
_atom_site_fract_z
Si Si1 0.650337 0.568341 0.517060
Si Si2 0.769190 0.840794 0.587954
Si Si3 0.428553 0.256702 0.205133
Si Si4 0.626214 0.156652 0.698218
Si Si5 0.607557 0.831325 0.969482
Si Si6 0.545504 0.931590 0.801690
O O1 0.500000 0.593048 0.500000
O O2 0.612163 0.500000 0.468431
O O3 0.646091 0.604884 0.420791
O O4 0.834291 0.574827 0.674169
O O5 0.574147 0.827160 0.442436
O O6 0.755619 0.856230 0.687373
O O7 0.893952 0.782784 0.648561
O O8 0.316520 0.215327 0.212082
O O9 0.485134 0.214762 0.152725
O O10 0.308453 0.311384 0.103066
O O11 0.636017 0.096879 0.763909
O O12 0.610759 0.897507 0.928468
O O13 0.500000 0.833283 0.000000
O O14 0.606303 0.000000 0.843257
#
# Coordination Sequence:
#
# PCOD8090302 Si02
#       6
#     8   8   8   8   8   8
#     4   9  19  35  54  79 108 136 170 217 269 314
#     4  10  19  33  56  81 104 138 173 213 263 318
#     4  10  20  35  51  75 109 140 171 222 257 307
#     4   9  19  35  54  81 108 133 176 213 266 319
#     4  10  21  34  52  74 102 142 183 210 257 312
#     4   9  19  36  55  75 104 139 176 221 263 307
#
# _framework density 19.26557
#
# number of rings (size 3 to 8) (size 9 to 14) (size 15 to 20)
#    0.000    2.500    0.000    1.500    2.333    1.000 
#    6.000    4.167    0.000    1.000    0.000    0.000 
#    0.000    0.000    0.000    0.000    0.000    0.000 
#
# Total GULP energy -297568.173779 kJ/mol
# GULP energy per Si atom -12398.673907 kJ/mol
# Density = 1.922172 g / cm^3
# Si number density = 19.265570 Si / 1000 Ang^3
#
#
#
# Elastic Constant Matrix: (Units=GPa)
#
#
# Indices 1 2 3 4 5 6 
#
# 1 135.7977 66.1116 28.0683 0.0000 -31.5357 0.0000
# 2 66.1116 140.9383 51.7837 0.0000 -15.2779 0.0000
# 3 28.0683 51.7837 57.2733 0.0000 -17.7228 0.0000
# 4 0.0000 0.0000 0.0000 36.0980 0.0000 -3.2049
# 5 -31.5357 -15.2779 -17.7228 0.0000 29.4707 0.0000
# 6 0.0000 0.0000 0.0000 -3.2049 0.0000 23.4120
#
#
#
# Elastic Compliance Matrix: (Units=1/GPa)
#
#
# Indices 1 2 3 4 5 6 
#
# 1 0.012192 -0.005370 0.002526 0.000000 0.011782 0.000000
# 2 -0.005370 0.012993 -0.010824 0.000000 -0.005520 0.000000
# 3 0.002526 -0.010824 0.030849 0.000000 0.015644 0.000000
# 4 0.000000 0.000000 0.000000 0.028043 0.000000 0.003839
# 5 0.011782 -0.005520 0.015644 0.000000 0.053085 0.000000
# 6 0.000000 0.000000 0.000000 0.003839 0.000000 0.043239
#
#
# Mechanical properties :
#
#
# Convention : Reuss Voigt Hill
#
# Bulk Modulus (GPa) = 34.84498 69.54850 52.19674
# Shear Modulus (GPa) = 23.00933 30.33254 26.67094
#
# Velocity S-wave (km/s) = 3.45965 3.97223 3.72477
# Velocity P-wave (km/s) = 5.83822 7.56415 6.75652
#
# Compressibility (1/GPa) = 0.02869854
#
# Stress axis : x y z
#
# Youngs Moduli (GPa) = 82.02015 76.96558 32.41561
#
# Poissons Ratio (x) = 0.41331 -0.08188
# Poissons Ratio (y) = 0.44045 0.35086
# Poissons Ratio (z) = -0.20718 0.83306
#
# Static dielectric constant tensor:
#      x y z
#    x 3.516910 0.000000 -0.187040 
#    y 0.000000 3.495830 0.000000 
#    z -0.187040 0.000000 3.475260 
# 
# 
# High freq. dielectric constant tensor:
#      x y z
#    x 1.748630 0.000000 -0.014540 
#    y 0.000000 1.745230 0.000000 
#    z -0.014540 0.000000 1.738200 
# 
# From -- ./inp_files/50698.got.cif
#   From: 2010.06.25/outbox.cif.g09.slc.cpg/sg12_26_cif.got.tgz:50698.got - 2010.06.28 00:19:55.
