data_PCOD8090977
_publ_section_title
;
Structure prediction by ZEFSAII (Michael W. Deem and Ramdas Pophale) SiO2 
 PCOD8090977
Probable space group: C 2/M
;
_chemical_formula_sum "Si O2"
_cell_formula_units_Z 36
_cell_length_a 5.131178
_cell_length_b 30.455103
_cell_length_c 12.847318
_cell_angle_alpha 90.000000
_cell_angle_beta 103.978926
_cell_angle_gamma 90.000000
_cell_volume 1948.200012
_symmetry_space_group_name_H-M "C 2/M"
_symmetry_group_IT_number 12
_symmetry_cell_setting 'monoclinic'
loop_
_space_group_symop_operation_xyz
x,y,z
-x,y,-z
-x,-y,-z
x,-y,z
1/2+x,1/2+y,z
1/2-x,1/2+y,-z
1/2-x,1/2-y,-z
1/2+x,1/2-y,z
loop_
_atom_site_type_symbol
_atom_site_label
_atom_site_fract_x
_atom_site_fract_y
_atom_site_fract_z
Si Si1 0.847659 0.730533 0.619299
Si Si2 0.286096 0.449308 0.069116
Si Si3 0.202790 0.000000 0.425742
Si Si4 0.993342 0.085920 0.701429
Si Si5 0.461831 0.128561 0.615558
O O1 0.750000 0.750000 0.500000
O O2 0.621825 0.745040 0.680540
O O3 0.878845 0.678817 0.617304
O O4 0.272023 0.500000 0.102535
O O5 0.359111 0.420075 0.175053
O O6 0.500000 0.441681 0.000000
O O7 0.000000 0.432967 0.000000
O O8 0.500000 0.000000 0.500000
O O9 0.000000 0.000000 0.500000
O O10 0.155948 0.958061 0.348820
O O11 0.218478 0.100390 0.639964
O O12 0.753082 0.121096 0.696508
O O13 0.500000 0.113951 0.500000
#
# Coordination Sequence:
#
# PCOD8090977 Si02
#       5
#     8   8   4   8   8
#     4  10  19  34  54  76 111 155 190 231 274 324
#     4  10  21  40  64  81 104 146 199 261 303 322
#     4  12  24  40  50  74 120 170 192 218 259 330
#     4  12  24  38  56  85 117 151 209 233 277 352
#     4  12  23  35  56  85 122 162 187 231 278 335
#
# _framework density 18.478594999999999
#
# number of rings (size 3 to 8) (size 9 to 14) (size 15 to 20)
#    0.000    0.889    3.333    6.667    3.111    0.000 
#    0.000    0.000    0.000    0.000    0.000    0.000 
#    0.000   62.222    0.000    0.000    0.000    0.000 
#
# Total GULP energy -223179.417287 kJ/mol
# GULP energy per Si atom -12398.856516 kJ/mol
# Density = 1.843654 g / cm^3
# Si number density = 18.478595 Si / 1000 Ang^3
#
#
#
# Elastic Constant Matrix: (Units=GPa)
#
#
# Indices 1 2 3 4 5 6 
#
# 1 181.9438 53.2214 46.9208 0.0000 20.0116 0.0000
# 2 53.2214 98.2906 52.1330 0.0000 7.4397 0.0000
# 3 46.9208 52.1330 88.8883 0.0000 20.2910 0.0000
# 4 0.0000 0.0000 0.0000 11.2060 0.0000 8.3929
# 5 20.0116 7.4397 20.2910 0.0000 26.1577 0.0000
# 6 0.0000 0.0000 0.0000 8.3929 0.0000 41.3259
#
#
#
# Elastic Compliance Matrix: (Units=1/GPa)
#
#
# Indices 1 2 3 4 5 6 
#
# 1 0.007056 -0.002919 -0.001179 0.000000 -0.003654 0.000000
# 2 -0.002919 0.016180 -0.009002 0.000000 0.004614 0.000000
# 3 -0.001179 -0.009002 0.019882 0.000000 -0.011961 0.000000
# 4 0.000000 0.000000 0.000000 0.105247 0.000000 -0.021375
# 5 -0.003654 0.004614 -0.011961 0.000000 0.048991 0.000000
# 6 0.000000 0.000000 0.000000 -0.021375 0.000000 0.028539
#
#
# Mechanical properties :
#
#
# Convention : Reuss Voigt Hill
#
# Bulk Modulus (GPa) = 59.10515 74.85257 66.97886
# Shear Modulus (GPa) = 19.39995 30.19442 24.79718
#
# Velocity S-wave (km/s) = 3.24367 4.04669 3.66723
# Velocity P-wave (km/s) = 6.78850 7.90126 7.36592
#
# Compressibility (1/GPa) = 0.01691900
#
# Stress axis : x y z
#
# Youngs Moduli (GPa) = 141.72761 61.80562 50.29605
#
# Poissons Ratio (x) = 0.18040 0.05928
# Poissons Ratio (y) = 0.41368 0.45276
# Poissons Ratio (z) = 0.16704 0.55637
#
# Static dielectric constant tensor:
#      x y z
#    x 4.263440 0.000000 0.053820 
#    y 0.000000 3.774910 0.000000 
#    z 0.053820 0.000000 3.103770 
# 
# 
# High freq. dielectric constant tensor:
#      x y z
#    x 1.756390 0.000000 0.009180 
#    y 0.000000 1.711210 0.000000 
#    z 0.009180 0.000000 1.672230 
# 
# From -- ./inp_files/115374.got.cif
#   From: 2010.06.25/outbox.cif.g09.slc.cpg/sg12_58_cif.got.tgz:115374.got - 2010.06.28 00:19:55.
