data_PCOD8090006
_publ_section_title
;
Structure prediction by ZEFSAII (Michael W. Deem and Ramdas Pophale) SiO2 
 PCOD8090006
Probable space group: C 2/M
;
_chemical_formula_sum "Si O2"
_cell_formula_units_Z 56
_cell_length_a 20.413877
_cell_length_b 9.422531
_cell_length_c 16.077911
_cell_angle_alpha 90.000000
_cell_angle_beta 81.590376
_cell_angle_gamma 90.000000
_cell_volume 3059.340203
_symmetry_space_group_name_H-M "C 2/M"
_symmetry_group_IT_number 12
_symmetry_cell_setting 'monoclinic'
loop_
_space_group_symop_operation_xyz
x,y,z
-x,y,-z
-x,-y,-z
x,-y,z
1/2+x,1/2+y,z
1/2-x,1/2+y,-z
1/2-x,1/2-y,-z
1/2+x,1/2-y,z
loop_
_atom_site_type_symbol
_atom_site_label
_atom_site_fract_x
_atom_site_fract_y
_atom_site_fract_z
Si Si1 0.096831 0.665878 0.689475
Si Si2 0.547331 0.165919 0.213474
Si Si3 0.072382 0.668891 0.508805
Si Si4 0.296077 0.663476 0.052517
Si Si5 0.647012 0.168337 0.335339
Si Si6 0.938625 0.835409 0.956144
Si Si7 0.287289 0.667468 0.244202
O O1 0.114274 0.500000 0.689910
O O2 0.095171 0.722274 0.594957
O O3 0.151289 0.752868 0.728080
O O4 0.027088 0.697915 0.745239
O O5 0.596373 0.225595 0.275247
O O6 0.564909 0.246527 0.126679
O O7 0.559024 0.000000 0.195833
O O8 0.068219 0.500000 0.510044
O O9 0.124643 0.724498 0.430239
O O10 0.000000 0.730539 0.500000
O O11 0.278487 0.500000 0.041825
O O12 0.280526 0.710209 0.149266
O O13 0.250000 0.750000 0.000000
O O14 0.372863 0.694076 0.021079
O O15 0.721130 0.220936 0.303030
O O16 0.643831 0.000000 0.334330
O O17 0.946815 0.000000 0.931085
O O18 0.000000 0.782292 0.000000
O O19 0.298728 0.500000 0.252004
#
# Coordination Sequence:
#
# PCOD8090006 Si02
#       7
#     8   8   8   8   8   8   8
#     4  10  20  33  54  82 108 136 173 218 262 305
#     4  10  19  33  55  80 101 128 175 226 261 295
#     4   9  15  29  53  80 107 134 170 216 261 304
#     4  10  21  37  56  77 104 141 179 216 261 312
#     4   9  17  31  53  78 103 135 175 213 253 307
#     4  10  21  36  53  74 103 139 175 210 259 320
#     4  10  21  36  53  76 108 143 173 207 261 320
#
# _framework density 18.304601000000002
#
# number of rings (size 3 to 8) (size 9 to 14) (size 15 to 20)
#    0.000    2.286    1.429    1.714    0.000    4.857 
#    0.000    0.714    0.000    1.286    0.000    0.000 
#    0.000    0.000    0.000    0.000    0.000    0.000 
#
# Total GULP energy -347239.644565 kJ/mol
# GULP energy per Si atom -12401.415877 kJ/mol
# Density = 1.826294 g / cm^3
# Si number density = 18.304601 Si / 1000 Ang^3
#
#
#
# Elastic Constant Matrix: (Units=GPa)
#
#
# Indices 1 2 3 4 5 6 
#
# 1 98.2920 36.2054 29.7699 0.0000 3.6385 0.0000
# 2 36.2054 32.1023 34.0582 0.0000 2.4733 0.0000
# 3 29.7699 34.0582 106.8406 0.0000 -8.9816 0.0000
# 4 0.0000 0.0000 0.0000 21.9710 0.0000 2.0136
# 5 3.6385 2.4733 -8.9816 0.0000 36.6809 0.0000
# 6 0.0000 0.0000 0.0000 2.0136 0.0000 27.0929
#
#
#
# Elastic Compliance Matrix: (Units=1/GPa)
#
#
# Indices 1 2 3 4 5 6 
#
# 1 0.017732 -0.022371 0.002215 0.000000 0.000292 0.000000
# 2 -0.022371 0.077117 -0.018991 0.000000 -0.007631 0.000000
# 3 0.002215 -0.018991 0.015198 0.000000 0.004782 0.000000
# 4 0.000000 0.000000 0.000000 0.045827 0.000000 -0.003406
# 5 0.000292 -0.007631 0.004782 0.000000 0.028919 0.000000
# 6 0.000000 0.000000 0.000000 -0.003406 0.000000 0.037163
#
#
# Mechanical properties :
#
#
# Convention : Reuss Voigt Hill
#
# Bulk Modulus (GPa) = 31.49278 48.58910 40.04094
# Shear Modulus (GPa) = 16.08566 26.29575 21.19071
#
# Velocity S-wave (km/s) = 2.96763 3.79432 3.40615
# Velocity P-wave (km/s) = 5.38374 6.76743 6.11485
#
# Compressibility (1/GPa) = 0.03175331
#
# Stress axis : x y z
#
# Youngs Moduli (GPa) = 56.39371 12.96727 65.79619
#
# Poissons Ratio (x) = 0.29010 -0.14574
# Poissons Ratio (y) = 1.26161 1.24954
# Poissons Ratio (z) = -0.12492 0.24626
#
# Static dielectric constant tensor:
#      x y z
#    x 3.562500 0.000000 -0.118950 
#    y 0.000000 3.014240 0.000000 
#    z -0.118950 0.000000 3.704110 
# 
# 
# High freq. dielectric constant tensor:
#      x y z
#    x 1.722680 0.000000 -0.005080 
#    y 0.000000 1.669630 0.000000 
#    z -0.005080 0.000000 1.726090 
# 
# From -- ./inp_files/231032.got.cif
#   From: 2010.06.25/outbox.cif.g09.slc.cpg/sg12_116_cif.got.tgz:231032.got - 2010.06.28 00:19:55.
