data_PCOD8090316
_publ_section_title
;
Structure prediction by ZEFSAII (Michael W. Deem and Ramdas Pophale) SiO2 
 PCOD8090316
Probable space group: C 2/M
;
_chemical_formula_sum "Si O2"
_cell_formula_units_Z 40
_cell_length_a 13.891503
_cell_length_b 13.279419
_cell_length_c 12.416486
_cell_angle_alpha 90.000000
_cell_angle_beta 105.585228
_cell_angle_gamma 90.000000
_cell_volume 2206.265922
_symmetry_space_group_name_H-M "C 2/M"
_symmetry_group_IT_number 12
_symmetry_cell_setting 'monoclinic'
loop_
_space_group_symop_operation_xyz
x,y,z
-x,y,-z
-x,-y,-z
x,-y,z
1/2+x,1/2+y,z
1/2-x,1/2+y,-z
1/2-x,1/2-y,-z
1/2+x,1/2-y,z
loop_
_atom_site_type_symbol
_atom_site_label
_atom_site_fract_x
_atom_site_fract_y
_atom_site_fract_z
Si Si1 0.097403 0.115470 0.967526
Si Si2 0.735096 0.385220 0.205692
Si Si3 0.716020 0.616579 0.590511
Si Si4 0.393665 0.718303 0.255374
Si Si5 0.876978 0.784160 0.640344
O O1 0.117350 0.181753 0.869470
O O2 0.078925 0.000000 0.927289
O O3 0.193832 0.126020 0.072516
O O4 0.000000 0.156958 0.000000
O O5 0.761015 0.500000 0.240715
O O6 0.836572 0.323653 0.251380
O O7 0.650145 0.347230 0.261769
O O8 0.744179 0.500000 0.589997
O O9 0.655557 0.635034 0.682259
O O10 0.819210 0.678276 0.619419
O O11 0.646631 0.648913 0.470657
O O12 0.506429 0.739843 0.323356
#
# Coordination Sequence:
#
# PCOD8090316 Si02
#       5
#     8   8   8   8   8
#     4  10  19  33  56  81 106 139 177 218 265 312
#     4  10  21  36  55  80 109 142 177 215 262 317
#     4  10  22  37  55  80 109 139 176 221 265 312
#     4  11  21  35  57  81 107 139 179 221 262 311
#     4  10  21  37  55  79 109 141 176 217 265 315
#
# _framework density 18.130182000000001
#
# number of rings (size 3 to 8) (size 9 to 14) (size 15 to 20)
#    0.000    1.800    2.000    2.400    0.000    4.000 
#    0.000    0.000    0.000    7.800    0.000    0.000 
#    0.000    0.000    0.000    0.000    0.000    0.000 
#
# Total GULP energy -248100.016327 kJ/mol
# GULP energy per Si atom -12405.000816 kJ/mol
# Density = 1.808892 g / cm^3
# Si number density = 18.130182 Si / 1000 Ang^3
#
#
#
# Elastic Constant Matrix: (Units=GPa)
#
#
# Indices 1 2 3 4 5 6 
#
# 1 81.1223 49.5120 16.0858 0.0000 5.3564 0.0000
# 2 49.5120 126.4807 40.3934 0.0000 2.3205 0.0000
# 3 16.0858 40.3934 71.9847 0.0000 -2.0571 0.0000
# 4 0.0000 0.0000 0.0000 21.1327 0.0000 0.4132
# 5 5.3564 2.3205 -2.0571 0.0000 31.1745 0.0000
# 6 0.0000 0.0000 0.0000 0.4132 0.0000 14.0594
#
#
#
# Elastic Compliance Matrix: (Units=1/GPa)
#
#
# Indices 1 2 3 4 5 6 
#
# 1 0.016367 -0.006304 -0.000187 0.000000 -0.002355 0.000000
# 2 -0.006304 0.012097 -0.005384 0.000000 -0.000173 0.000000
# 3 -0.000187 -0.005384 0.016999 0.000000 0.001555 0.000000
# 4 0.000000 0.000000 0.000000 0.047347 0.000000 -0.001392
# 5 -0.002355 -0.000173 0.001555 0.000000 0.032598 0.000000
# 6 0.000000 0.000000 0.000000 -0.001392 0.000000 0.071168
#
#
# Mechanical properties :
#
#
# Convention : Reuss Voigt Hill
#
# Bulk Modulus (GPa) = 46.05671 54.61891 50.33781
# Shear Modulus (GPa) = 21.97174 24.84641 23.40907
#
# Velocity S-wave (km/s) = 3.48499 3.70597 3.59718
# Velocity P-wave (km/s) = 6.45384 6.96445 6.71400
#
# Compressibility (1/GPa) = 0.02171236
#
# Stress axis : x y z
#
# Youngs Moduli (GPa) = 61.09718 82.66619 58.82552
#
# Poissons Ratio (x) = 0.52114 0.01102
# Poissons Ratio (y) = 0.38516 0.31673
# Poissons Ratio (z) = 0.01144 0.44509
#
# Static dielectric constant tensor:
#      x y z
#    x 3.273110 0.000000 -0.091860 
#    y 0.000000 3.225260 0.000000 
#    z -0.091860 0.000000 3.460460 
# 
# 
# High freq. dielectric constant tensor:
#      x y z
#    x 1.701480 0.000000 -0.004200 
#    y 0.000000 1.695800 0.000000 
#    z -0.004200 0.000000 1.719700 
# 
# From -- ./inp_files/129132.got.cif
#   From: 2010.06.25/outbox.cif.g09.slc.cpg/sg12_65_cif.got.tgz:129132.got - 2010.06.28 00:19:55.
