data_PCOD8090616
_publ_section_title
;
Structure prediction by ZEFSAII (Michael W. Deem and Ramdas Pophale) SiO2 
 PCOD8090616
Probable space group: C 2/M
;
_chemical_formula_sum "Si O2"
_cell_formula_units_Z 64
_cell_length_a 23.976065
_cell_length_b 17.800129
_cell_length_c 15.348972
_cell_angle_alpha 90.000000
_cell_angle_beta 150.885227
_cell_angle_gamma 90.000000
_cell_volume 3187.258873
_symmetry_space_group_name_H-M "C 2/M"
_symmetry_group_IT_number 12
_symmetry_cell_setting 'monoclinic'
loop_
_space_group_symop_operation_xyz
x,y,z
-x,y,-z
-x,-y,-z
x,-y,z
1/2+x,1/2+y,z
1/2-x,1/2+y,-z
1/2-x,1/2-y,-z
1/2+x,1/2-y,z
loop_
_atom_site_type_symbol
_atom_site_label
_atom_site_fract_x
_atom_site_fract_y
_atom_site_fract_z
Si Si1 0.092747 0.183560 0.201341
Si Si2 0.995113 0.414920 0.236180
Si Si3 0.406329 0.139882 0.802462
Si Si4 0.974147 0.911799 0.370319
Si Si5 0.731248 0.087897 0.995437
Si Si6 0.135160 0.587082 0.679433
Si Si7 0.854963 0.153572 0.530808
Si Si8 0.324950 0.179202 0.426113
O O1 0.083812 0.272163 0.203132
O O2 0.085252 0.152262 0.290747
O O3 0.215933 0.157051 0.335739
O O4 0.000000 0.157200 0.000000
O O5 0.002515 0.500000 0.280762
O O6 0.861601 0.388908 0.056429
O O7 0.054500 0.408706 0.225072
O O8 0.062043 0.365415 0.395731
O O9 0.274484 0.120086 0.644374
O O10 0.500000 0.114766 0.000000
O O11 0.000000 0.875822 0.500000
O O12 0.070422 0.898611 0.429154
O O13 0.960977 0.000000 0.362799
O O14 0.853815 0.872984 0.178634
O O15 0.684866 0.112293 0.839214
O O16 0.751877 0.000000 0.026826
O O17 0.166768 0.500000 0.698296
O O18 0.196475 0.649176 0.700748
O O19 0.000000 0.597344 0.500000
O O20 0.850191 0.233419 0.475219
#
# Coordination Sequence:
#
# PCOD8090616 Si02
#       8
#     8   8   8   8   8   8   8   8
#     4  10  21  39  61  83 117 161 189 234 307 355
#     4  11  20  35  61  88 117 153 194 243 293 343
#     4  10  21  38  60  85 116 150 191 244 298 345
#     4  10  24  45  63  81 117 161 198 242 292 349
#     4   9  20  38  59  84 117 157 194 232 292 352
#     4  10  19  33  57  88 120 154 188 235 295 347
#     4  11  22  41  62  88 117 154 200 240 294 354
#     4  11  20  37  59  85 123 153 189 244 293 350
#
# _framework density 20.079951000000001
#
# number of rings (size 3 to 8) (size 9 to 14) (size 15 to 20)
#    0.000    1.750    3.750    1.125    3.500    1.250 
#    0.000    0.625    0.000    1.875    0.000    0.000 
#    0.000    0.000    0.000    0.000    0.000    0.000 
#
# Total GULP energy -396455.706590 kJ/mol
# GULP energy per Si atom -12389.240831 kJ/mol
# Density = 2.003425 g / cm^3
# Si number density = 20.079951 Si / 1000 Ang^3
#
#
#
# Elastic Constant Matrix: (Units=GPa)
#
#
# Indices 1 2 3 4 5 6 
#
# 1 120.8522 20.1147 53.8669 0.0000 2.3502 0.0000
# 2 20.1147 24.2010 12.6592 0.0000 -2.8210 0.0000
# 3 53.8669 12.6592 148.0943 0.0000 0.9105 0.0000
# 4 0.0000 0.0000 0.0000 9.5006 0.0000 4.9103
# 5 2.3502 -2.8210 0.9105 0.0000 28.9781 0.0000
# 6 0.0000 0.0000 0.0000 4.9103 0.0000 37.6779
#
#
#
# Elastic Compliance Matrix: (Units=1/GPa)
#
#
# Indices 1 2 3 4 5 6 
#
# 1 0.011074 -0.007622 -0.003367 0.000000 -0.001534 0.000000
# 2 -0.007622 0.049050 -0.001454 0.000000 0.005439 0.000000
# 3 -0.003367 -0.001454 0.008102 0.000000 -0.000123 0.000000
# 4 0.000000 0.000000 0.000000 0.112858 0.000000 -0.014708
# 5 -0.001534 0.005439 -0.000123 0.000000 0.035167 0.000000
# 6 0.000000 0.000000 0.000000 -0.014708 0.000000 0.028458
#
#
# Mechanical properties :
#
#
# Convention : Reuss Voigt Hill
#
# Bulk Modulus (GPa) = 23.07307 51.82544 37.44926
# Shear Modulus (GPa) = 17.60316 28.99845 23.30081
#
# Velocity S-wave (km/s) = 2.96405 3.80432 3.41016
# Velocity P-wave (km/s) = 4.81971 6.72032 5.84775
#
# Compressibility (1/GPa) = 0.04334057
#
# Stress axis : x y z
#
# Youngs Moduli (GPa) = 90.30441 20.38748 123.42371
#
# Poissons Ratio (x) = 0.15538 0.41556
# Poissons Ratio (y) = 0.68826 0.17946
# Poissons Ratio (z) = 0.30405 0.02964
#
# Static dielectric constant tensor:
#      x y z
#    x 3.881470 0.000000 -0.160040 
#    y 0.000000 3.289260 0.000000 
#    z -0.160040 0.000000 4.324540 
# 
# 
# High freq. dielectric constant tensor:
#      x y z
#    x 1.795250 0.000000 -0.000260 
#    y 0.000000 1.747230 0.000000 
#    z -0.000260 0.000000 1.795960 
# 
# From -- ./inp_files/241530.got.cif
#   From: 2010.06.25/outbox.cif.g09.slc.cpg/sg12_121_cif.got.tgz:241530.got - 2010.06.28 00:19:55.
