data_PCOD8090160
_publ_section_title
;
Structure prediction by ZEFSAII (Michael W. Deem and Ramdas Pophale) SiO2 
 PCOD8090160
Probable space group: C 2/M
;
_chemical_formula_sum "Si O2"
_cell_formula_units_Z 52
_cell_length_a 18.780723
_cell_length_b 13.441610
_cell_length_c 20.927295
_cell_angle_alpha 90.000000
_cell_angle_beta 147.528567
_cell_angle_gamma 90.000000
_cell_volume 2836.306371
_symmetry_space_group_name_H-M "C 2/M"
_symmetry_group_IT_number 12
_symmetry_cell_setting 'monoclinic'
loop_
_space_group_symop_operation_xyz
x,y,z
-x,y,-z
-x,-y,-z
x,-y,z
1/2+x,1/2+y,z
1/2-x,1/2+y,-z
1/2-x,1/2-y,-z
1/2+x,1/2-y,z
loop_
_atom_site_type_symbol
_atom_site_label
_atom_site_fract_x
_atom_site_fract_y
_atom_site_fract_z
Si Si1 0.834574 0.228291 0.163305
Si Si2 0.052301 0.500000 0.381387
Si Si3 0.765053 0.500000 0.215457
Si Si4 0.149554 0.211313 0.127851
Si Si5 0.180482 0.116140 0.971002
Si Si6 0.763240 0.500000 0.363041
Si Si7 0.606193 0.306144 0.234688
Si Si8 0.383527 0.793900 0.629295
O O1 0.746430 0.217642 0.160327
O O2 0.809984 0.133912 0.098312
O O3 0.988652 0.233733 0.300934
O O4 0.800620 0.329195 0.098138
O O5 0.106885 0.500000 0.494962
O O6 0.105109 0.407993 0.380775
O O7 0.894354 0.500000 0.269000
O O8 0.677619 0.596075 0.131459
O O9 0.804602 0.500000 0.320096
O O10 0.177269 0.230681 0.223718
O O11 0.000000 0.240406 0.000000
O O12 0.045504 0.164769 0.896214
O O13 0.187609 0.000000 0.991880
O O14 0.677282 0.403749 0.316359
O O15 0.616931 0.217706 0.294104
O O16 0.250000 0.750000 0.500000
#
# Coordination Sequence:
#
# PCOD8090160 Si02
#       8
#     8   4   4   8   8   4   8   8
#     4  10  22  36  55  87 112 153 189 231 282 340
#     4  12  21  37  59  80 112 153 197 241 279 333
#     4  10  22  32  50  90 118 148 178 230 296 345
#     4  11  20  34  56  83 122 151 182 223 288 352
#     4  10  20  35  58  83 117 146 189 234 281 337
#     4  10  19  33  55  82 116 148 186 229 289 347
#     4  10  20  35  56  86 115 151 185 230 285 346
#     4  11  23  39  56  81 115 151 195 238 282 328
#
# _framework density 18.333704000000001
#
# number of rings (size 3 to 8) (size 9 to 14) (size 15 to 20)
#    0.000    1.538    5.385    0.462    2.154    0.000 
#    0.000    0.769    1.692    0.462    0.000    1.077 
#    0.000    0.000    0.000    0.000    0.000    0.000 
#
# Total GULP energy -322429.539018 kJ/mol
# GULP energy per Si atom -12401.136116 kJ/mol
# Density = 1.829198 g / cm^3
# Si number density = 18.333704 Si / 1000 Ang^3
#
#
#
# Elastic Constant Matrix: (Units=GPa)
#
#
# Indices 1 2 3 4 5 6 
#
# 1 119.1629 23.8671 26.1175 -0.0002 14.0575 0.0000
# 2 23.8671 48.9931 12.2012 -0.0006 1.3944 -0.0001
# 3 26.1175 12.2012 93.9620 -0.0004 17.3219 -0.0002
# 4 -0.0002 -0.0006 -0.0004 19.8773 -0.0003 2.4833
# 5 14.0575 1.3944 17.3219 -0.0003 24.2610 -0.0001
# 6 0.0000 -0.0001 -0.0002 2.4833 -0.0001 22.9941
#
#
#
# Elastic Compliance Matrix: (Units=1/GPa)
#
#
# Indices 1 2 3 4 5 6 
#
# 1 0.010135 -0.004461 -0.001385 0.000000 -0.004627 0.000000
# 2 -0.004461 0.023072 -0.002289 0.000001 0.002893 0.000000
# 3 -0.001385 -0.002289 0.012843 0.000000 -0.008236 0.000000
# 4 0.000000 0.000001 0.000000 0.050997 0.000001 -0.005507
# 5 -0.004627 0.002893 -0.008236 0.000001 0.049613 0.000000
# 6 0.000000 0.000000 0.000000 -0.005507 0.000000 0.044084
#
#
# Mechanical properties :
#
#
# Convention : Reuss Voigt Hill
#
# Bulk Modulus (GPa) = 33.57958 42.94329 38.26143
# Shear Modulus (GPa) = 23.04786 26.75530 24.90158
#
# Velocity S-wave (km/s) = 3.54945 3.82429 3.68943
# Velocity P-wave (km/s) = 5.92905 6.55547 6.25012
#
# Compressibility (1/GPa) = 0.02978001
#
# Stress axis : x y z
#
# Youngs Moduli (GPa) = 98.67136 43.34291 77.86312
#
# Poissons Ratio (x) = 0.19333 0.10782
# Poissons Ratio (y) = 0.44013 0.17826
# Poissons Ratio (z) = 0.13664 0.09923
#
# Static dielectric constant tensor:
#      x y z
#    x 3.567150 0.000000 0.011770 
#    y 0.000000 3.194630 0.000000 
#    z 0.011770 0.000000 3.425490 
# 
# 
# High freq. dielectric constant tensor:
#      x y z
#    x 1.717610 0.000000 0.000060 
#    y 0.000000 1.673250 0.000000 
#    z 0.000060 0.000000 1.718170 
# 
# From -- ./inp_files/155337.got.cif
#   From: 2010.06.25/outbox.cif.g09.slc.cpg/sg12_78_cif.got.tgz:155337.got - 2010.06.28 00:19:55.
