data_PCOD8090515
_publ_section_title
;
Structure prediction by ZEFSAII (Michael W. Deem and Ramdas Pophale) SiO2 
 PCOD8090515
Probable space group: C 2/M
;
_chemical_formula_sum "Si O2"
_cell_formula_units_Z 48
_cell_length_a 28.840598
_cell_length_b 18.527371
_cell_length_c 8.517038
_cell_angle_alpha 90.000000
_cell_angle_beta 30.141914
_cell_angle_gamma 90.000000
_cell_volume 2285.254032
_symmetry_space_group_name_H-M "C 2/M"
_symmetry_group_IT_number 12
_symmetry_cell_setting 'monoclinic'
loop_
_space_group_symop_operation_xyz
x,y,z
-x,y,-z
-x,-y,-z
x,-y,z
1/2+x,1/2+y,z
1/2-x,1/2+y,-z
1/2-x,1/2-y,-z
1/2+x,1/2-y,z
loop_
_atom_site_type_symbol
_atom_site_label
_atom_site_fract_x
_atom_site_fract_y
_atom_site_fract_z
Si Si1 0.860383 0.688687 0.769715
Si Si2 0.833373 0.843959 0.813012
Si Si3 0.259158 0.078284 0.665052
Si Si4 0.262212 0.826416 0.377407
Si Si5 0.558974 0.920265 0.681632
Si Si6 0.892943 0.083383 0.336980
O O1 0.895188 0.771154 0.642767
O O2 0.940037 0.634370 0.470919
O O3 0.769182 0.678671 0.935227
O O4 0.838591 0.676256 0.017094
O O5 0.874815 0.902375 0.573423
O O6 0.827244 0.879108 0.004697
O O7 0.301571 0.119073 0.391435
O O8 0.336622 0.069650 0.569435
O O9 0.223511 0.000000 0.714597
O O10 0.250000 0.750000 0.500000
O O11 0.165577 0.859541 0.595480
O O12 0.520183 0.000000 0.745766
O O13 0.500000 0.888327 0.000000
O O14 0.866820 0.000000 0.374408
O O15 0.000000 0.098767 0.000000
#
# Coordination Sequence:
#
# PCOD8090515 Si02
#       6
#     8   8   8   8   8   8
#     4   9  18  32  55  80 110 147 190 237 287 345
#     4   9  17  33  55  82 107 145 191 240 283 348
#     4  10  19  33  57  82 108 148 192 237 291 348
#     4  11  21  37  58  84 118 150 188 243 292 350
#     4   9  19  35  55  81 112 149 195 241 287 345
#     4  10  22  39  60  86 116 153 197 244 292 348
#
# _framework density 21.004228999999999
#
# number of rings (size 3 to 8) (size 9 to 14) (size 15 to 20)
#    0.000    2.333    1.667    1.000    2.333    5.333 
#    0.000    1.667    0.000    6.000    0.000    0.000 
#    0.000    0.000    0.000    0.000    0.000    0.000 
#
# Total GULP energy -297399.353589 kJ/mol
# GULP energy per Si atom -12391.639733 kJ/mol
# Density = 2.095642 g / cm^3
# Si number density = 21.004229 Si / 1000 Ang^3
#
#
#
# Elastic Constant Matrix: (Units=GPa)
#
#
# Indices 1 2 3 4 5 6 
#
# 1 54.9735 43.0332 23.2632 0.0000 28.9517 0.0000
# 2 43.0332 165.9690 62.9088 0.0000 32.9544 0.0000
# 3 23.2632 62.9088 98.9469 0.0000 32.4844 0.0000
# 4 0.0000 0.0000 0.0000 33.4043 0.0000 9.4974
# 5 28.9517 32.9544 32.4844 0.0000 38.4185 0.0000
# 6 0.0000 0.0000 0.0000 9.4974 0.0000 22.8431
#
#
#
# Elastic Compliance Matrix: (Units=1/GPa)
#
#
# Indices 1 2 3 4 5 6 
#
# 1 0.033108 -0.005163 0.003095 0.000000 -0.023138 0.000000
# 2 -0.005163 0.009103 -0.004551 0.000000 -0.000069 0.000000
# 3 0.003095 -0.004551 0.016274 0.000000 -0.012189 0.000000
# 4 0.000000 0.000000 0.000000 0.033949 0.000000 -0.014115
# 5 -0.023138 -0.000069 -0.012189 0.000000 0.053831 0.000000
# 6 0.000000 0.000000 0.000000 -0.014115 0.000000 0.049646
#
#
# Mechanical properties :
#
#
# Convention : Reuss Voigt Hill
#
# Bulk Modulus (GPa) = 22.10119 64.25554 43.17836
# Shear Modulus (GPa) = 22.29846 31.64547 26.97196
#
# Velocity S-wave (km/s) = 3.26178 3.88574 3.58735
# Velocity P-wave (km/s) = 4.97300 7.12671 6.14495
#
# Compressibility (1/GPa) = 0.04524644
#
# Stress axis : x y z
#
# Youngs Moduli (GPa) = 30.20392 109.85855 61.44911
#
# Poissons Ratio (x) = 0.56724 -0.19018
# Poissons Ratio (y) = 0.15595 0.27963
# Poissons Ratio (z) = -0.09348 0.49992
#
# Static dielectric constant tensor:
#      x y z
#    x 3.514970 0.000000 0.386930 
#    y 0.000000 4.396660 0.000000 
#    z 0.386930 0.000000 3.671660 
# 
# 
# High freq. dielectric constant tensor:
#      x y z
#    x 1.789750 0.000000 0.034870 
#    y 0.000000 1.842440 0.000000 
#    z 0.034870 0.000000 1.806990 
# 
# From -- ./inp_files/74629.got.cif
#   From: 2010.06.25/outbox.cif.g09.slc.cpg/sg12_38_cif.got.tgz:74629.got - 2010.06.28 00:19:55.
