data_PCOD8090383
_publ_section_title
;
Structure prediction by ZEFSAII (Michael W. Deem and Ramdas Pophale) SiO2 
 PCOD8090383
Probable space group: C 2/M
;
_chemical_formula_sum "Si O2"
_cell_formula_units_Z 52
_cell_length_a 14.426713
_cell_length_b 18.224386
_cell_length_c 12.450111
_cell_angle_alpha 90.000000
_cell_angle_beta 55.129420
_cell_angle_gamma 90.000000
_cell_volume 2685.612102
_symmetry_space_group_name_H-M "C 2/M"
_symmetry_group_IT_number 12
_symmetry_cell_setting 'monoclinic'
loop_
_space_group_symop_operation_xyz
x,y,z
-x,y,-z
-x,-y,-z
x,-y,z
1/2+x,1/2+y,z
1/2-x,1/2+y,-z
1/2-x,1/2-y,-z
1/2+x,1/2-y,z
loop_
_atom_site_type_symbol
_atom_site_label
_atom_site_fract_x
_atom_site_fract_y
_atom_site_fract_z
Si Si1 0.559480 0.870372 0.101888
Si Si2 0.161531 0.796225 0.277500
Si Si3 0.671072 0.917075 0.810067
Si Si4 0.174995 0.830645 0.844376
Si Si5 0.500000 0.802570 0.500000
Si Si6 0.111932 0.416188 0.291036
Si Si7 0.955876 0.199408 0.868747
O O1 0.428793 0.893640 0.204184
O O2 0.627452 0.904807 0.154953
O O3 0.567181 0.783517 0.087118
O O4 0.620676 0.906868 0.961408
O O5 0.214599 0.871338 0.286050
O O6 0.262380 0.745478 0.169080
O O7 0.104623 0.753459 0.416589
O O8 0.076066 0.814481 0.234899
O O9 0.706807 0.000000 0.765240
O O10 0.265136 0.892053 0.744162
O O11 0.087116 0.820272 0.804090
O O12 0.115193 0.849849 0.998467
O O13 0.509770 0.860441 0.394152
O O14 0.084649 0.500000 0.341809
#
# Coordination Sequence:
#
# PCOD8090383 Si02
#       7
#     8   8   8   8   4   8   8
#     4  11  18  33  59  87 115 136 172 223 275 324
#     4  11  20  36  55  77 108 148 186 219 265 308
#     4  11  21  33  54  89 119 137 166 219 282 337
#     4  10  19  33  56  83 110 140 173 221 273 322
#     4  10  23  38  57  76 100 146 196 232 249 302
#     4  11  22  38  56  80 110 143 179 225 276 314
#     4  11  18  33  57  86 110 137 181 224 257 328
#
# _framework density 19.362438999999998
#
# number of rings (size 3 to 8) (size 9 to 14) (size 15 to 20)
#    0.000    1.231    6.154    4.385    0.000    0.000 
#    0.000    9.615    0.000    0.000    0.000    0.000 
#    0.000    0.000    0.000    0.000    0.000    0.000 
#
# Total GULP energy -322091.120656 kJ/mol
# GULP energy per Si atom -12388.120025 kJ/mol
# Density = 1.931837 g / cm^3
# Si number density = 19.362439 Si / 1000 Ang^3
#
#
#
# Elastic Constant Matrix: (Units=GPa)
#
#
# Indices 1 2 3 4 5 6 
#
# 1 105.3719 27.9480 28.2942 0.0000 -14.3693 0.0000
# 2 27.9480 115.2026 36.1653 0.0000 -17.3572 0.0000
# 3 28.2942 36.1653 62.4663 0.0000 -16.7937 0.0000
# 4 0.0000 0.0000 0.0000 -54.8966 0.0000 -31.8383
# 5 -14.3693 -17.3572 -16.7937 0.0000 14.0027 0.0000
# 6 0.0000 0.0000 0.0000 -31.8383 0.0000 17.3052
#
#
#
# Elastic Compliance Matrix: (Units=1/GPa)
#
#
# Indices 1 2 3 4 5 6 
#
# 1 0.011453 -0.000796 -0.002704 0.000000 0.007523 0.000000
# 2 -0.000796 0.011403 -0.003927 0.000000 0.008608 0.000000
# 3 -0.002704 -0.003927 0.025757 0.000000 0.023248 0.000000
# 4 0.000000 0.000000 0.000000 -0.008813 0.000000 -0.016214
# 5 0.007523 0.008608 0.023248 0.000000 0.117688 0.000000
# 6 0.000000 0.000000 0.000000 -0.016214 0.000000 0.027956
#
#
# Mechanical properties :
#
#
# Convention : Reuss Voigt Hill
#
# Bulk Modulus (GPa) = 29.62188 51.98399 40.80293
# Shear Modulus (GPa) = 23.63470 7.99113 15.81291
#
# Velocity S-wave (km/s) = 3.49757 2.03374 2.86086
# Velocity P-wave (km/s) = 5.62516 5.69394 5.65965
#
# Compressibility (1/GPa) = 0.03375883
#
# Stress axis : x y z
#
# Youngs Moduli (GPa) = 87.31008 87.69374 38.82381
#
# Poissons Ratio (x) = 0.06982 0.10499
# Poissons Ratio (y) = 0.06951 0.15247
# Poissons Ratio (z) = 0.23612 0.34439
#
# Static dielectric constant tensor:
#      x y z
#    x 3.735370 0.000000 -0.077180 
#    y 0.000000 3.515480 0.000000 
#    z -0.077180 0.000000 3.427720 
# 
# 
# High freq. dielectric constant tensor:
#      x y z
#    x 1.747620 0.000000 -0.008790 
#    y 0.000000 1.739950 0.000000 
#    z -0.008790 0.000000 1.727880 
# 
# From -- ./inp_files/147547.got.cif
#   From: 2010.06.25/outbox.cif.g09.slc.cpg/sg12_74_cif.got.tgz:147547.got - 2010.06.28 00:19:55.
