data_PCOD8090946
_publ_section_title
;
Structure prediction by ZEFSAII (Michael W. Deem and Ramdas Pophale) SiO2 
 PCOD8090946
Probable space group: C 2/M
;
_chemical_formula_sum "Si O2"
_cell_formula_units_Z 56
_cell_length_a 14.292142
_cell_length_b 8.556151
_cell_length_c 31.851780
_cell_angle_alpha 90.000000
_cell_angle_beta 131.407506
_cell_angle_gamma 90.000000
_cell_volume 2921.358658
_symmetry_space_group_name_H-M "C 2/M"
_symmetry_group_IT_number 12
_symmetry_cell_setting 'monoclinic'
loop_
_space_group_symop_operation_xyz
x,y,z
-x,y,-z
-x,-y,-z
x,-y,z
1/2+x,1/2+y,z
1/2-x,1/2+y,-z
1/2-x,1/2-y,-z
1/2+x,1/2-y,z
loop_
_atom_site_type_symbol
_atom_site_label
_atom_site_fract_x
_atom_site_fract_y
_atom_site_fract_z
Si Si1 0.395429 0.684034 0.857831
Si Si2 0.315991 0.315570 0.146094
Si Si3 0.298693 0.184742 0.357639
Si Si4 0.903645 0.815588 0.766052
Si Si5 0.557074 0.682914 0.433952
Si Si6 0.839241 0.684584 0.061868
Si Si7 0.293232 0.184533 0.450293
O O1 0.422744 0.500000 0.867626
O O2 0.281356 0.725769 0.853846
O O3 0.363737 0.738592 0.800909
O O4 0.519638 0.773276 0.909461
O O5 0.295513 0.500000 0.144431
O O6 0.454670 0.263740 0.201969
O O7 0.297771 0.267021 0.092601
O O8 0.190946 0.259085 0.296088
O O9 0.432942 0.234607 0.379905
O O10 0.285175 0.251004 0.400796
O O11 0.286756 0.000000 0.354289
O O12 0.894430 0.000000 0.760695
O O13 0.535524 0.500000 0.427338
O O14 0.589925 0.739019 0.490826
O O15 0.665785 0.735833 0.434831
O O16 0.824157 0.500000 0.062074
O O17 0.750000 0.750000 0.000000
O O18 0.313562 0.000000 0.457235
#
# Coordination Sequence:
#
# PCOD8090946 Si02
#       7
#     8   8   8   8   8   8   8
#     4  10  20  37  58  82 112 147 184 223 270 322
#     4  10  20  37  59  83 111 147 186 224 269 319
#     4  10  19  34  54  74  99 136 175 211 259 317
#     4   8  18  35  54  76 105 138 176 221 264 313
#     4  10  20  33  49  73 102 129 165 217 267 313
#     4  11  22  38  59  86 117 148 183 226 271 317
#     4   9  19  34  51  70  97 134 171 206 257 324
#
# _framework density 19.169160999999999
#
# number of rings (size 3 to 8) (size 9 to 14) (size 15 to 20)
#    0.000    2.286    0.000    3.857    0.000    4.571 
#    0.000    8.571    0.000    0.000    0.000    0.000 
#    0.000    0.000    0.000    0.000    0.000    0.000 
#
# Total GULP energy -347218.550203 kJ/mol
# GULP energy per Si atom -12400.662507 kJ/mol
# Density = 1.912553 g / cm^3
# Si number density = 19.169161 Si / 1000 Ang^3
#
#
#
# Elastic Constant Matrix: (Units=GPa)
#
#
# Indices 1 2 3 4 5 6 
#
# 1 99.3745 2.2486 50.3246 0.0000 8.0786 0.0000
# 2 2.2486 32.7257 14.7830 0.0000 2.0938 0.0000
# 3 50.3246 14.7830 153.6588 0.0000 16.6915 0.0000
# 4 0.0000 0.0000 0.0000 22.5291 0.0000 3.2180
# 5 8.0786 2.0938 16.6915 0.0000 19.7482 0.0000
# 6 0.0000 0.0000 0.0000 3.2180 0.0000 31.4028
#
#
#
# Elastic Compliance Matrix: (Units=1/GPa)
#
#
# Indices 1 2 3 4 5 6 
#
# 1 0.012153 0.001035 -0.003884 0.000000 -0.001798 0.000000
# 2 0.001035 0.032047 -0.003311 0.000000 -0.001023 0.000000
# 3 -0.003884 -0.003311 0.008685 0.000000 -0.005401 0.000000
# 4 0.000000 0.000000 0.000000 0.045046 0.000000 -0.004616
# 5 -0.001798 -0.001023 -0.005401 0.000000 0.056047 0.000000
# 6 0.000000 0.000000 0.000000 -0.004616 0.000000 0.032317
#
#
# Mechanical properties :
#
#
# Convention : Reuss Voigt Hill
#
# Bulk Modulus (GPa) = 24.65245 46.71903 35.68574
# Shear Modulus (GPa) = 23.56958 29.29620 26.43289
#
# Velocity S-wave (km/s) = 3.51031 3.91359 3.71742
# Velocity P-wave (km/s) = 5.41462 6.69675 6.08952
#
# Compressibility (1/GPa) = 0.04056392
#
# Stress axis : x y z
#
# Youngs Moduli (GPa) = 82.28554 31.20415 115.13689
#
# Poissons Ratio (x) = -0.03229 0.44724
# Poissons Ratio (y) = -0.08514 0.38121
# Poissons Ratio (z) = 0.31963 0.10331
#
# Static dielectric constant tensor:
#      x y z
#    x 3.574170 0.000000 0.001390 
#    y 0.000000 3.349230 0.000000 
#    z 0.001390 0.000000 3.848690 
# 
# 
# High freq. dielectric constant tensor:
#      x y z
#    x 1.750680 0.000000 0.003750 
#    y 0.000000 1.734640 0.000000 
#    z 0.003750 0.000000 1.749070 
# 
# From -- ./inp_files/337873.got.cif
#   From: 2010.06.25/outbox.cif.g09.slc.cpg/sg12_169_cif.got.tgz:337873.got - 2010.06.28 00:19:55.
