data_PCOD8090999
_publ_section_title
;
Structure prediction by ZEFSAII (Michael W. Deem and Ramdas Pophale) SiO2 
 PCOD8090999
Probable space group: C 2/M
;
_chemical_formula_sum "Si O2"
_cell_formula_units_Z 64
_cell_length_a 29.163518
_cell_length_b 13.700011
_cell_length_c 14.479334
_cell_angle_alpha 90.000000
_cell_angle_beta 144.268491
_cell_angle_gamma 90.000000
_cell_volume 3378.416010
_symmetry_space_group_name_H-M "C 2/M"
_symmetry_group_IT_number 12
_symmetry_cell_setting 'monoclinic'
loop_
_space_group_symop_operation_xyz
x,y,z
-x,y,-z
-x,-y,-z
x,-y,z
1/2+x,1/2+y,z
1/2-x,1/2+y,-z
1/2-x,1/2-y,-z
1/2+x,1/2-y,z
loop_
_atom_site_type_symbol
_atom_site_label
_atom_site_fract_x
_atom_site_fract_y
_atom_site_fract_z
Si Si1 0.804544 0.609837 0.826837
Si Si2 0.542351 0.252487 0.238051
Si Si3 0.672773 0.391375 0.746576
Si Si4 0.545015 0.605846 0.386261
Si Si5 0.565344 0.267249 0.685456
Si Si6 0.929418 0.891236 0.954956
Si Si7 0.051478 0.390489 0.805921
Si Si8 0.825813 0.252806 0.689175
O O1 0.776939 0.500000 0.756775
O O2 0.742635 0.654150 0.799347
O O3 0.808059 0.668144 0.737839
O O4 0.887799 0.609371 0.011328
O O5 0.588740 0.331352 0.377816
O O6 0.525233 0.159773 0.275188
O O7 0.596810 0.216590 0.243211
O O8 0.460551 0.308953 0.077696
O O9 0.695458 0.500000 0.823873
O O10 0.597166 0.406478 0.560729
O O11 0.647515 0.312508 0.782689
O O12 0.524175 0.500000 0.310445
O O13 0.464865 0.658265 0.285910
O O14 0.500000 0.248600 0.500000
O O15 0.582966 0.164987 0.765906
O O16 0.849268 0.850555 0.775433
O O17 0.910489 0.000000 0.965199
O O18 0.000000 0.904226 0.000000
O O19 0.030324 0.500000 0.740382
O O20 0.750000 0.250000 0.500000
#
# Coordination Sequence:
#
# PCOD8090999 Si02
#       8
#     8   8   8   8   8   8   8   8
#     4  10  21  36  53  75 104 141 184 222 260 309
#     4  10  19  34  54  78 106 143 183 220 267 321
#     4   9  17  31  52  79 109 136 168 216 272 324
#     4   9  16  28  51  82 109 132 167 215 268 325
#     4   9  18  32  53  80 105 133 170 217 271 325
#     4   9  18  33  53  76 103 136 175 221 270 321
#     4  10  21  36  54  76 102 138 184 226 261 312
#     4  11  22  35  54  80 111 144 180 222 270 320
#
# _framework density 18.943788999999999
#
# number of rings (size 3 to 8) (size 9 to 14) (size 15 to 20)
#    0.000    2.375    1.250    1.500    0.000    3.750 
#    0.000    1.250    0.000    0.750    0.000    0.000 
#    0.000    0.000    0.000    0.000    0.000    0.000 
#
# Total GULP energy -396481.526622 kJ/mol
# GULP energy per Si atom -12390.047707 kJ/mol
# Density = 1.890067 g / cm^3
# Si number density = 18.943789 Si / 1000 Ang^3
#
#
#
# Elastic Constant Matrix: (Units=GPa)
#
#
# Indices 1 2 3 4 5 6 
#
# 1 110.9342 56.0106 6.3225 0.0000 -2.6089 0.0000
# 2 56.0106 130.5718 25.0141 0.0000 -3.2711 0.0000
# 3 6.3225 25.0141 57.5587 0.0000 -1.2103 0.0000
# 4 0.0000 0.0000 0.0000 17.8266 0.0000 -3.9828
# 5 -2.6089 -3.2711 -1.2103 0.0000 23.5789 0.0000
# 6 0.0000 0.0000 0.0000 -3.9828 0.0000 22.5530
#
#
#
# Elastic Compliance Matrix: (Units=1/GPa)
#
#
# Indices 1 2 3 4 5 6 
#
# 1 0.011564 -0.005132 0.000973 0.000000 0.000618 0.000000
# 2 -0.005132 0.010654 -0.004051 0.000000 0.000702 0.000000
# 3 0.000973 -0.004051 0.019038 0.000000 0.000523 0.000000
# 4 0.000000 0.000000 0.000000 0.058400 0.000000 0.010313
# 5 0.000618 0.000702 0.000523 0.000000 0.042603 0.000000
# 6 0.000000 0.000000 0.000000 0.010313 0.000000 0.046161
#
#
# Mechanical properties :
#
#
# Convention : Reuss Voigt Hill
#
# Bulk Modulus (GPa) = 40.26422 52.63989 46.45205
# Shear Modulus (GPa) = 23.46094 26.90620 25.18357
#
# Velocity S-wave (km/s) = 3.52298 3.77280 3.65003
# Velocity P-wave (km/s) = 6.15217 6.84298 6.50675
#
# Compressibility (1/GPa) = 0.02483594
#
# Stress axis : x y z
#
# Youngs Moduli (GPa) = 86.47254 93.86472 52.52539
#
# Poissons Ratio (x) = 0.48167 -0.05110
# Poissons Ratio (y) = 0.44374 0.21280
# Poissons Ratio (z) = -0.08412 0.38029
#
# Static dielectric constant tensor:
#      x y z
#    x 3.460520 0.000000 -0.119130 
#    y 0.000000 3.786940 0.000000 
#    z -0.119130 0.000000 3.312320 
# 
# 
# High freq. dielectric constant tensor:
#      x y z
#    x 1.729980 0.000000 -0.013410 
#    y 0.000000 1.733680 0.000000 
#    z -0.013410 0.000000 1.715560 
# 
# From -- ./inp_files/250864.got.cif
#   From: 2010.06.25/outbox.cif.g09.slc.cpg/sg12_126_cif.got.tgz:250864.got - 2010.06.28 00:19:55.
