data_PCOD8090373
_publ_section_title
;
Structure prediction by ZEFSAII (Michael W. Deem and Ramdas Pophale) SiO2 
 PCOD8090373
Probable space group: C 2/M
;
_chemical_formula_sum "Si O2"
_cell_formula_units_Z 48
_cell_length_a 30.676649
_cell_length_b 13.731958
_cell_length_c 8.975807
_cell_angle_alpha 90.000000
_cell_angle_beta 139.143260
_cell_angle_gamma 90.000000
_cell_volume 2473.457601
_symmetry_space_group_name_H-M "C 2/M"
_symmetry_group_IT_number 12
_symmetry_cell_setting 'monoclinic'
loop_
_space_group_symop_operation_xyz
x,y,z
-x,y,-z
-x,-y,-z
x,-y,z
1/2+x,1/2+y,z
1/2-x,1/2+y,-z
1/2-x,1/2-y,-z
1/2+x,1/2-y,z
loop_
_atom_site_type_symbol
_atom_site_label
_atom_site_fract_x
_atom_site_fract_y
_atom_site_fract_z
Si Si1 0.525658 0.217244 0.275180
Si Si2 0.104081 0.316242 0.199040
Si Si3 0.872074 0.386778 0.261643
Si Si4 0.163856 0.232633 0.071426
Si Si5 0.712262 0.894149 0.666896
Si Si6 0.956933 0.893722 0.244684
O O1 0.577673 0.241002 0.277625
O O2 0.559874 0.163959 0.503801
O O3 0.494375 0.321670 0.229959
O O4 0.462865 0.147950 0.061530
O O5 0.149746 0.249951 0.209884
O O6 0.151600 0.399694 0.389810
O O7 0.886152 0.500000 0.260741
O O8 0.815093 0.376204 0.238223
O O9 0.846955 0.332666 0.048030
O O10 0.238446 0.193668 0.244412
O O11 0.113733 0.149703 0.884460
O O12 0.747501 0.000000 0.750626
O O13 0.000000 0.908392 0.500000
O O14 0.946536 0.000000 0.141655
#
# Coordination Sequence:
#
# PCOD8090373 Si02
#       6
#     8   8   8   8   8   8
#     4   9  18  38  55  82 112 143 174 224 272 323
#     4   9  20  34  57  77 111 146 179 215 272 321
#     4  10  21  36  57  81 109 141 183 228 275 320
#     4  11  20  36  56  82 110 144 180 228 270 319
#     4  10  21  37  55  79 109 148 184 222 269 326
#     4  10  19  33  56  83 108 140 179 221 267 319
#
# _framework density 19.406033000000001
#
# number of rings (size 3 to 8) (size 9 to 14) (size 15 to 20)
#    0.000    2.167    1.667    1.500    0.000    1.333 
#    0.000   16.667    0.000    1.000    0.000    0.000 
#    0.000    0.000    0.000    0.000    0.000    0.000 
#
# Total GULP energy -297362.878870 kJ/mol
# GULP energy per Si atom -12390.119953 kJ/mol
# Density = 1.936186 g / cm^3
# Si number density = 19.406033 Si / 1000 Ang^3
#
#
#
# Elastic Constant Matrix: (Units=GPa)
#
#
# Indices 1 2 3 4 5 6 
#
# 1 86.2667 48.6372 33.7314 0.0000 5.3529 0.0000
# 2 48.6372 124.4678 43.9044 0.0000 4.0612 0.0000
# 3 33.7314 43.9044 78.2760 0.0000 -0.1966 0.0000
# 4 0.0000 0.0000 0.0000 -4.3338 0.0000 -1.7210
# 5 5.3529 4.0612 -0.1966 0.0000 22.3290 0.0000
# 6 0.0000 0.0000 0.0000 -1.7210 0.0000 18.3324
#
#
#
# Elastic Compliance Matrix: (Units=1/GPa)
#
#
# Indices 1 2 3 4 5 6 
#
# 1 0.016105 -0.004666 -0.004331 0.000000 -0.003050 0.000000
# 2 -0.004666 0.011447 -0.004412 0.000000 -0.001002 0.000000
# 3 -0.004331 -0.004412 0.017121 0.000000 0.001991 0.000000
# 4 0.000000 0.000000 0.000000 -0.222453 0.000000 -0.020883
# 5 -0.003050 -0.001002 0.001991 0.000000 0.045716 0.000000
# 6 0.000000 0.000000 0.000000 -0.020883 0.000000 0.052588
#
#
# Mechanical properties :
#
#
# Convention : Reuss Voigt Hill
#
# Bulk Modulus (GPa) = 56.00575 60.17295 58.08935
# Shear Modulus (GPa) = -107.05127 18.11469 -44.46829
#
# Velocity S-wave (km/s) = -7.43530 3.05857 -4.79212
# Velocity P-wave (km/s) = 6.69245 6.59907 0.78777
#
# Compressibility (1/GPa) = 0.01785531
#
# Stress axis : x y z
#
# Youngs Moduli (GPa) = 62.09084 87.36248 58.40716
#
# Poissons Ratio (x) = 0.40766 0.25294
# Poissons Ratio (y) = 0.28973 0.25769
# Poissons Ratio (z) = 0.26890 0.38544
#
# Static dielectric constant tensor:
#      x y z
#    x 3.562390 0.000000 0.028690 
#    y 0.000000 3.562700 0.000000 
#    z 0.028690 0.000000 3.678900 
# 
# 
# High freq. dielectric constant tensor:
#      x y z
#    x 1.759920 0.000000 0.003920 
#    y 0.000000 1.734330 0.000000 
#    z 0.003920 0.000000 1.757570 
# 
# From -- ./inp_files/111749.got.cif
#   From: 2010.06.25/outbox.cif.g09.slc.cpg/sg12_56_cif.got.tgz:111749.got - 2010.06.28 00:19:55.
