data_PCOD8090704
_publ_section_title
;
Structure prediction by ZEFSAII (Michael W. Deem and Ramdas Pophale) SiO2 
 PCOD8090704
Probable space group: C 2/M
;
_chemical_formula_sum "Si O2"
_cell_formula_units_Z 36
_cell_length_a 22.632394
_cell_length_b 7.531196
_cell_length_c 22.103626
_cell_angle_alpha 90.000000
_cell_angle_beta 152.017264
_cell_angle_gamma 90.000000
_cell_volume 1767.750874
_symmetry_space_group_name_H-M "C 2/M"
_symmetry_group_IT_number 12
_symmetry_cell_setting 'monoclinic'
loop_
_space_group_symop_operation_xyz
x,y,z
-x,y,-z
-x,-y,-z
x,-y,z
1/2+x,1/2+y,z
1/2-x,1/2+y,-z
1/2-x,1/2-y,-z
1/2+x,1/2-y,z
loop_
_atom_site_type_symbol
_atom_site_label
_atom_site_fract_x
_atom_site_fract_y
_atom_site_fract_z
Si Si1 0.769103 0.794379 0.947290
Si Si2 0.768153 0.299568 0.447890
Si Si3 0.818541 0.500000 0.790747
Si Si4 0.824111 0.000000 0.220462
Si Si5 0.451320 0.298037 0.841221
Si Si6 0.599477 0.500000 0.499252
O O1 0.677688 0.673991 0.823781
O O2 0.737880 0.000000 0.906788
O O3 0.750000 0.750000 0.000000
O O4 0.910280 0.745032 0.055196
O O5 0.816099 0.500000 0.483646
O O6 0.750000 0.250000 0.500000
O O7 0.634611 0.268778 0.295151
O O8 0.873656 0.175517 0.514976
O O9 0.793617 0.500000 0.839805
O O10 0.900845 0.673480 0.849367
O O11 0.682681 0.500000 0.635002
O O12 0.950097 0.000000 0.375501
O O13 0.444995 0.500000 0.859439
#
# Coordination Sequence:
#
# PCOD8090704 Si02
#       6
#     8   8   4   4   8   4
#     4  11  24  41  62  94 129 165 201 255 320 375
#     4  10  19  33  58  90 119 160 204 254 314 367
#     4  10  22  44  67  89 118 172 221 250 310 368
#     4  12  26  42  63  91 130 172 209 256 310 372
#     4   9  21  39  61  88 124 157 207 268 302 365
#     4  10  23  40  58  92 126 163 209 260 306 364
#
# _framework density 20.364861000000001
#
# number of rings (size 3 to 8) (size 9 to 14) (size 15 to 20)
#    0.000    1.778    2.222    1.000    3.111    3.556 
#    0.000    2.222    0.000    6.667    0.000    0.000 
#    0.000    0.000    0.000    0.000    0.000    0.000 
#
# Total GULP energy -223231.699589 kJ/mol
# GULP energy per Si atom -12401.761088 kJ/mol
# Density = 2.031851 g / cm^3
# Si number density = 20.364861 Si / 1000 Ang^3
#
#
#
# Elastic Constant Matrix: (Units=GPa)
#
#
# Indices 1 2 3 4 5 6 
#
# 1 106.2741 43.3526 20.9633 0.0000 -1.4199 0.0000
# 2 43.3526 141.4891 33.9128 0.0000 4.2184 0.0000
# 3 20.9633 33.9128 70.1182 0.0000 17.0722 0.0000
# 4 0.0000 0.0000 0.0000 27.1775 0.0000 1.4449
# 5 -1.4199 4.2184 17.0722 0.0000 28.2023 0.0000
# 6 0.0000 0.0000 0.0000 1.4449 0.0000 22.9797
#
#
#
# Elastic Compliance Matrix: (Units=1/GPa)
#
#
# Indices 1 2 3 4 5 6 
#
# 1 0.011118 -0.002870 -0.002553 0.000000 0.002534 0.000000
# 2 -0.002870 0.008779 -0.003557 0.000000 0.000696 0.000000
# 3 -0.002553 -0.003557 0.019525 0.000000 -0.011416 0.000000
# 4 0.000000 0.000000 0.000000 0.036919 0.000000 -0.002321
# 5 0.002534 0.000696 -0.011416 0.000000 0.042392 0.000000
# 6 0.000000 0.000000 0.000000 -0.002321 0.000000 0.043663
#
#
# Mechanical properties :
#
#
# Convention : Reuss Voigt Hill
#
# Bulk Modulus (GPa) = 46.59593 57.14874 51.87234
# Shear Modulus (GPa) = 26.66532 30.31540 28.49036
#
# Velocity S-wave (km/s) = 3.62246 3.86244 3.74437
# Velocity P-wave (km/s) = 6.35819 6.92926 6.64985
#
# Compressibility (1/GPa) = 0.02146110
#
# Stress axis : x y z
#
# Youngs Moduli (GPa) = 89.94494 113.90803 51.21695
#
# Poissons Ratio (x) = 0.32694 0.13075
# Poissons Ratio (y) = 0.25816 0.18219
# Poissons Ratio (z) = 0.22961 0.40520
#
# Static dielectric constant tensor:
#      x y z
#    x 3.540880 0.000000 0.029780 
#    y 0.000000 4.055280 0.000000 
#    z 0.029780 0.000000 3.623660 
# 
# 
# High freq. dielectric constant tensor:
#      x y z
#    x 1.789960 0.000000 -0.001010 
#    y 0.000000 1.811270 0.000000 
#    z -0.001010 0.000000 1.795180 
# 
# From -- ./inp_files/320428.got.cif
#   From: 2010.06.25/outbox.cif.g09.slc.cpg/sg12_161_cif.got.tgz:320428.got - 2010.06.28 00:19:55.
