data_PCOD8090168
_publ_section_title
;
Structure prediction by ZEFSAII (Michael W. Deem and Ramdas Pophale) SiO2 
 PCOD8090168
Probable space group: C 2/M
;
_chemical_formula_sum "Si O2"
_cell_formula_units_Z 48
_cell_length_a 20.325236
_cell_length_b 8.961825
_cell_length_c 20.911805
_cell_angle_alpha 90.000000
_cell_angle_beta 41.838500
_cell_angle_gamma 90.000000
_cell_volume 2540.803362
_symmetry_space_group_name_H-M "C 2/M"
_symmetry_group_IT_number 12
_symmetry_cell_setting 'monoclinic'
loop_
_space_group_symop_operation_xyz
x,y,z
-x,y,-z
-x,-y,-z
x,-y,z
1/2+x,1/2+y,z
1/2-x,1/2+y,-z
1/2-x,1/2-y,-z
1/2+x,1/2-y,z
loop_
_atom_site_type_symbol
_atom_site_label
_atom_site_fract_x
_atom_site_fract_y
_atom_site_fract_z
Si Si1 0.399504 0.672708 0.896597
Si Si2 0.265105 0.827915 0.089381
Si Si3 0.040561 0.176989 0.591650
Si Si4 0.597564 0.677216 0.689837
Si Si5 0.331575 0.172098 0.727717
Si Si6 0.298316 0.827736 0.605972
O O1 0.400612 0.500000 0.916128
O O2 0.330178 0.697283 0.885634
O O3 0.507295 0.733637 0.799246
O O4 0.362560 0.768518 0.983341
O O5 0.250452 0.735113 0.164720
O O6 0.280516 0.000000 0.095531
O O7 0.085166 0.235797 0.626459
O O8 0.107546 0.235957 0.485664
O O9 0.931092 0.235728 0.662303
O O10 0.036581 0.000000 0.592343
O O11 0.595658 0.500000 0.691882
O O12 0.700011 0.738368 0.644001
O O13 0.286770 0.192187 0.689855
O O14 0.353631 0.000000 0.727227
O O15 0.314401 0.000000 0.575672
#
# Coordination Sequence:
#
# PCOD8090168 Si02
#       6
#     8   8   8   8   8   8
#     4   9  17  33  56  81 107 137 176 222 269 318
#     4  10  19  33  55  83 110 137 176 225 271 315
#     4  11  21  36  58  82 107 141 183 227 272 315
#     4   9  18  36  58  80 108 141 181 224 266 317
#     4  11  22  36  55  80 110 145 183 220 265 321
#     4  10  22  38  55  78 110 146 182 222 266 319
#
# _framework density 18.891662
#
# number of rings (size 3 to 8) (size 9 to 14) (size 15 to 20)
#    0.000    2.000    1.667    2.500    0.000    4.000 
#    0.000    2.500    0.000    5.000    0.000    0.000 
#    0.000    0.000    0.000    0.000    0.000    0.000 
#
# Total GULP energy -297688.391947 kJ/mol
# GULP energy per Si atom -12403.682998 kJ/mol
# Density = 1.884866 g / cm^3
# Si number density = 18.891662 Si / 1000 Ang^3
#
#
#
# Elastic Constant Matrix: (Units=GPa)
#
#
# Indices 1 2 3 4 5 6 
#
# 1 65.3778 28.7475 16.3441 0.0003 11.7975 -0.0006
# 2 28.7475 73.5281 40.2294 0.0002 12.1790 -0.0004
# 3 16.3441 40.2294 111.3856 0.0000 16.6002 -0.0002
# 4 0.0003 0.0002 0.0000 29.7542 -0.0001 3.3216
# 5 11.7975 12.1790 16.6002 -0.0001 20.3675 0.0004
# 6 -0.0006 -0.0004 -0.0002 3.3216 0.0004 21.5969
#
#
#
# Elastic Compliance Matrix: (Units=1/GPa)
#
#
# Indices 1 2 3 4 5 6 
#
# 1 0.019486 -0.006720 0.000741 0.000000 -0.007873 0.000001
# 2 -0.006720 0.019904 -0.005702 0.000000 -0.003362 0.000000
# 3 0.000741 -0.005702 0.011934 0.000000 -0.006746 0.000000
# 4 0.000000 0.000000 0.000000 0.034196 0.000000 -0.005259
# 5 -0.007873 -0.003362 -0.006746 0.000000 0.061167 -0.000001
# 6 0.000001 0.000000 0.000000 -0.005259 -0.000001 0.047112
#
#
# Mechanical properties :
#
#
# Convention : Reuss Voigt Hill
#
# Bulk Modulus (GPa) = 35.76180 46.77038 41.26609
# Shear Modulus (GPa) = 22.07695 25.34173 23.70934
#
# Velocity S-wave (km/s) = 3.42220 3.66652 3.54646
# Velocity P-wave (km/s) = 5.88101 6.53723 6.21778
#
# Compressibility (1/GPa) = 0.02796280
#
# Stress axis : x y z
#
# Youngs Moduli (GPa) = 51.31911 50.24106 83.79574
#
# Poissons Ratio (x) = 0.33762 -0.06210
# Poissons Ratio (y) = 0.34486 0.47777
# Poissons Ratio (z) = -0.03803 0.28646
#
# Static dielectric constant tensor:
#      x y z
#    x 3.444190 0.000000 0.031060 
#    y 0.000000 3.352180 0.000000 
#    z 0.031060 0.000000 3.616510 
# 
# 
# High freq. dielectric constant tensor:
#      x y z
#    x 1.718240 0.000000 0.005470 
#    y 0.000000 1.723180 0.000000 
#    z 0.005470 0.000000 1.747930 
# 
# From -- ./inp_files/230338.got.cif
#   From: 2010.06.25/outbox.cif.g09.slc.cpg/sg12_116_cif.got.tgz:230338.got - 2010.06.28 00:19:55.
