data_PCOD8090132
_publ_section_title
;
Structure prediction by ZEFSAII (Michael W. Deem and Ramdas Pophale) SiO2 
 PCOD8090132
Probable space group: C 2/M
;
_chemical_formula_sum "Si O2"
_cell_formula_units_Z 64
_cell_length_a 29.331088
_cell_length_b 8.834095
_cell_length_c 12.735988
_cell_angle_alpha 90.000000
_cell_angle_beta 99.595458
_cell_angle_gamma 90.000000
_cell_volume 3253.897516
_symmetry_space_group_name_H-M "C 2/M"
_symmetry_group_IT_number 12
_symmetry_cell_setting 'monoclinic'
loop_
_space_group_symop_operation_xyz
x,y,z
-x,y,-z
-x,-y,-z
x,-y,z
1/2+x,1/2+y,z
1/2-x,1/2+y,-z
1/2-x,1/2-y,-z
1/2+x,1/2-y,z
loop_
_atom_site_type_symbol
_atom_site_label
_atom_site_fract_x
_atom_site_fract_y
_atom_site_fract_z
Si Si1 0.325576 0.322629 0.617911
Si Si2 0.145945 0.825596 0.009438
Si Si3 0.450782 0.327139 0.934690
Si Si4 0.211441 0.324960 0.202048
Si Si5 0.647049 0.820380 0.580696
Si Si6 0.547443 0.828078 0.482759
Si Si7 0.184946 0.824561 0.802907
Si Si8 0.083745 0.329320 0.276198
O O1 0.318508 0.500000 0.602244
O O2 0.287309 0.258616 0.684203
O O3 0.321449 0.247730 0.501039
O O4 0.374467 0.286345 0.690845
O O5 0.161343 0.765966 0.901007
O O6 0.160655 0.000000 0.027901
O O7 0.090624 0.803779 0.997288
O O8 0.170922 0.734197 0.111229
O O9 0.451152 0.500000 0.894669
O O10 0.444444 0.213947 0.836693
O O11 0.500000 0.281587 0.000000
O O12 0.202207 0.500000 0.220103
O O13 0.260382 0.297253 0.164618
O O14 0.594547 0.755738 0.548208
O O15 0.665685 0.774045 0.700452
O O16 0.647844 0.000000 0.567161
O O17 0.500000 0.743477 0.500000
O O18 0.547917 0.818283 0.357628
O O19 0.545630 0.000000 0.523224
O O20 0.173350 0.000000 0.776950
O O21 0.103671 0.500000 0.274845
#
# Coordination Sequence:
#
# PCOD8090132 Si02
#       8
#     8   8   8   8   8   8   8   8
#     4  11  21  36  60  84 112 150 187 232 290 350
#     4  10  21  39  60  82 115 158 197 236 286 344
#     4  10  21  36  55  82 116 154 192 233 286 341
#     4  11  22  37  60  87 113 146 195 246 289 341
#     4  10  21  37  58  85 116 151 193 239 287 340
#     4   8  16  32  54  80 110 144 183 231 285 335
#     4  10  23  40  57  82 118 156 192 237 292 346
#     4  10  19  33  55  82 111 144 188 239 284 335
#
# _framework density 19.668718999999999
#
# number of rings (size 3 to 8) (size 9 to 14) (size 15 to 20)
#    0.000    2.000    1.250    3.375    0.000    3.250 
#    0.000    0.000    0.000   12.750    0.000    0.000 
#    0.000    0.000    0.000    0.000    0.000    0.000 
#
# Total GULP energy -396794.220131 kJ/mol
# GULP energy per Si atom -12399.819379 kJ/mol
# Density = 1.962395 g / cm^3
# Si number density = 19.668719 Si / 1000 Ang^3
#
#
#
# Elastic Constant Matrix: (Units=GPa)
#
#
# Indices 1 2 3 4 5 6 
#
# 1 97.7992 25.2739 40.7650 0.0000 -13.2636 0.0000
# 2 25.2739 81.5396 38.9147 0.0000 -4.9196 0.0000
# 3 40.7650 38.9147 115.1240 0.0000 -8.1701 0.0000
# 4 0.0000 0.0000 0.0000 31.9406 0.0000 0.6731
# 5 -13.2636 -4.9196 -8.1701 0.0000 27.5004 0.0000
# 6 0.0000 0.0000 0.0000 0.6731 0.0000 20.3444
#
#
#
# Elastic Compliance Matrix: (Units=1/GPa)
#
#
# Indices 1 2 3 4 5 6 
#
# 1 0.012870 -0.002012 -0.003537 0.000000 0.004796 0.000000
# 2 -0.002012 0.014975 -0.004319 0.000000 0.000425 0.000000
# 3 -0.003537 -0.004319 0.011464 0.000000 0.000928 0.000000
# 4 0.000000 0.000000 0.000000 0.031330 0.000000 -0.001037
# 5 0.004796 0.000425 0.000928 0.000000 0.039028 0.000000
# 6 0.000000 0.000000 0.000000 -0.001037 0.000000 0.049188
#
#
# Mechanical properties :
#
#
# Convention : Reuss Voigt Hill
#
# Bulk Modulus (GPa) = 51.09008 56.04111 53.56560
# Shear Modulus (GPa) = 27.01035 28.59103 27.80069
#
# Velocity S-wave (km/s) = 3.70978 3.81679 3.76366
# Velocity P-wave (km/s) = 6.66195 6.92663 6.79558
#
# Compressibility (1/GPa) = 0.01957327
#
# Stress axis : x y z
#
# Youngs Moduli (GPa) = 77.70255 66.77997 87.22635
#
# Poissons Ratio (x) = 0.13435 0.30849
# Poissons Ratio (y) = 0.15632 0.37675
# Poissons Ratio (z) = 0.27481 0.28844
#
# Static dielectric constant tensor:
#      x y z
#    x 3.727560 0.000000 -0.224960 
#    y 0.000000 3.437170 0.000000 
#    z -0.224960 0.000000 3.602210 
# 
# 
# High freq. dielectric constant tensor:
#      x y z
#    x 1.768200 0.000000 -0.012300 
#    y 0.000000 1.754190 0.000000 
#    z -0.012300 0.000000 1.767990 
# 
# From -- ./inp_files/187595.got.cif
#   From: 2010.06.25/outbox.cif.g09.slc.cpg/sg12_94_cif.got.tgz:187595.got - 2010.06.28 00:19:55.
