data_PCOD8090188
_publ_section_title
;
Structure prediction by ZEFSAII (Michael W. Deem and Ramdas Pophale) SiO2 
 PCOD8090188
Probable space group: C 2/M
;
_chemical_formula_sum "Si O2"
_cell_formula_units_Z 56
_cell_length_a 20.946817
_cell_length_b 8.621147
_cell_length_c 27.769456
_cell_angle_alpha 90.000000
_cell_angle_beta 33.644914
_cell_angle_gamma 90.000000
_cell_volume 2778.401182
_symmetry_space_group_name_H-M "C 2/M"
_symmetry_group_IT_number 12
_symmetry_cell_setting 'monoclinic'
loop_
_space_group_symop_operation_xyz
x,y,z
-x,y,-z
-x,-y,-z
x,-y,z
1/2+x,1/2+y,z
1/2-x,1/2+y,-z
1/2-x,1/2-y,-z
1/2+x,1/2-y,z
loop_
_atom_site_type_symbol
_atom_site_label
_atom_site_fract_x
_atom_site_fract_y
_atom_site_fract_z
Si Si1 0.863318 0.816078 0.798978
Si Si2 0.516059 0.816656 0.934043
Si Si3 0.376967 0.669180 0.366910
Si Si4 0.458203 0.820263 0.576097
Si Si5 0.842250 0.167857 0.499759
Si Si6 0.758720 0.683931 0.768631
Si Si7 0.206672 0.817373 0.976943
O O1 0.803439 0.777116 0.786501
O O2 0.806247 0.716604 0.876494
O O3 0.995595 0.759864 0.715780
O O4 0.850275 0.000000 0.816272
O O5 0.626929 0.730623 0.842169
O O6 0.532536 0.000000 0.919864
O O7 0.500000 0.766384 0.000000
O O8 0.409138 0.765659 0.968521
O O9 0.376526 0.500000 0.342003
O O10 0.281379 0.776506 0.401123
O O11 0.335568 0.649309 0.447208
O O12 0.500000 0.738204 0.500000
O O13 0.557999 0.790440 0.552013
O O14 0.336072 0.760617 0.674220
O O15 0.443885 0.000000 0.575436
O O16 0.870254 0.000000 0.505455
O O17 0.770343 0.500000 0.770129
O O18 0.184135 0.000000 0.995655
O O19 0.250000 0.750000 0.000000
#
# Coordination Sequence:
#
# PCOD8090188 Si02
#       7
#     8   8   8   8   8   8   8
#     4  11  21  38  63  91 123 160 203 255 316 376
#     4  11  23  41  68  98 131 169 211 263 321 383
#     4   9  19  34  55  83 115 151 190 241 299 356
#     4  10  22  40  59  82 119 164 205 253 315 375
#     4  10  19  33  55  83 113 149 195 246 297 352
#     4  11  22  37  63  94 121 160 214 267 316 376
#     4  12  26  45  68  95 130 167 209 258 318 383
#
# _framework density 20.155477999999999
#
# number of rings (size 3 to 8) (size 9 to 14) (size 15 to 20)
#    0.000    1.429    2.857    3.000    0.000    3.143 
#    2.571    0.000    0.000    0.000    0.000    0.000 
#    0.000    0.000    0.000    0.000    0.000    0.000 
#
# Total GULP energy -347102.482001 kJ/mol
# GULP energy per Si atom -12396.517214 kJ/mol
# Density = 2.010960 g / cm^3
# Si number density = 20.155478 Si / 1000 Ang^3
#
#
#
# Elastic Constant Matrix: (Units=GPa)
#
#
# Indices 1 2 3 4 5 6 
#
# 1 81.3487 19.3348 52.9934 -0.0528 -2.1166 0.1108
# 2 19.3348 45.1724 26.5155 -0.0413 5.6313 0.0156
# 3 52.9934 26.5155 150.3756 0.0012 -16.9549 -0.0061
# 4 -0.0528 -0.0413 0.0012 26.2353 0.0150 -3.8023
# 5 -2.1166 5.6313 -16.9549 0.0150 37.7159 -0.0483
# 6 0.1108 0.0156 -0.0061 -3.8023 -0.0483 28.5786
#
#
#
# Elastic Compliance Matrix: (Units=1/GPa)
#
#
# Indices 1 2 3 4 5 6 
#
# 1 0.016633 -0.003923 -0.005266 0.000019 -0.000848 -0.000062
# 2 -0.003923 0.026953 -0.004054 0.000037 -0.006067 -0.000006
# 3 -0.005266 -0.004054 0.009750 -0.000016 0.004693 0.000031
# 4 0.000019 0.000037 -0.000016 0.038866 -0.000020 0.005171
# 5 -0.000848 -0.006067 0.004693 -0.000020 0.029482 0.000055
# 6 -0.000062 -0.000006 0.000031 0.005171 0.000055 0.035680
#
#
# Mechanical properties :
#
#
# Convention : Reuss Voigt Hill
#
# Bulk Modulus (GPa) = 37.24345 52.73157 44.98751
# Shear Modulus (GPa) = 25.93382 30.37616 28.15499
#
# Velocity S-wave (km/s) = 3.59094 3.88634 3.74155
# Velocity P-wave (km/s) = 5.97589 6.80863 6.40580
#
# Compressibility (1/GPa) = 0.02685036
#
# Stress axis : x y z
#
# Youngs Moduli (GPa) = 60.12002 37.10224 102.56815
#
# Poissons Ratio (x) = 0.14555 0.54009
# Poissons Ratio (y) = 0.23584 0.41582
# Poissons Ratio (z) = 0.31657 0.15042
#
# Static dielectric constant tensor:
#      x y z
#    x 3.349700 -0.000020 -0.117950 
#    y -0.000020 3.845300 0.000040 
#    z -0.117950 0.000040 3.915860 
# 
# 
# High freq. dielectric constant tensor:
#      x y z
#    x 1.765190 0.000000 -0.014860 
#    y 0.000000 1.790570 0.000000 
#    z -0.014860 0.000000 1.800580 
# 
# From -- ./inp_files/380620.got.cif
#   From: 2010.06.25/outbox.cif.g09.slc.cpg/sg12_191_cif.got.tgz:380620.got - 2010.06.28 00:19:55.
