data_PCOD8090417
_publ_section_title
;
Structure prediction by ZEFSAII (Michael W. Deem and Ramdas Pophale) SiO2 
 PCOD8090417
Probable space group: C 2/M
;
_chemical_formula_sum "Si O2"
_cell_formula_units_Z 48
_cell_length_a 29.641337
_cell_length_b 9.196138
_cell_length_c 10.098556
_cell_angle_alpha 90.000000
_cell_angle_beta 110.169395
_cell_angle_gamma 90.000000
_cell_volume 2583.918894
_symmetry_space_group_name_H-M "C 2/M"
_symmetry_group_IT_number 12
_symmetry_cell_setting 'monoclinic'
loop_
_space_group_symop_operation_xyz
x,y,z
-x,y,-z
-x,-y,-z
x,-y,z
1/2+x,1/2+y,z
1/2-x,1/2+y,-z
1/2-x,1/2-y,-z
1/2+x,1/2-y,z
loop_
_atom_site_type_symbol
_atom_site_label
_atom_site_fract_x
_atom_site_fract_y
_atom_site_fract_z
Si Si1 0.398799 0.328562 0.414340
Si Si2 0.796790 0.831936 0.196680
Si Si3 0.049839 0.329810 0.766046
Si Si4 0.939661 0.332444 0.697056
Si Si5 0.389473 0.831457 0.919689
Si Si6 0.797339 0.169312 0.889609
O O1 0.406784 0.500000 0.417441
O O2 0.344320 0.286354 0.323395
O O3 0.435832 0.256498 0.350315
O O4 0.408479 0.268796 0.570013
O O5 0.752928 0.737628 0.209535
O O6 0.783693 0.000000 0.203174
O O7 0.805680 0.796010 0.052154
O O8 0.056302 0.500000 0.744727
O O9 0.995275 0.290339 0.744309
O O10 0.082353 0.278201 0.921582
O O11 0.931195 0.500000 0.648904
O O12 0.923539 0.301367 0.829953
O O13 0.340707 0.740880 0.852252
O O14 0.375697 0.000000 0.917637
O O15 0.796178 0.000000 0.856541
#
# Coordination Sequence:
#
# PCOD8090417 Si02
#       6
#     8   8   8   8   8   8
#     4  11  22  37  56  82 114 146 181 225 276 326
#     4   9  19  35  54  79 110 141 178 224 271 324
#     4  10  20  36  59  82 107 145 190 230 268 317
#     4  10  22  38  55  80 113 148 187 226 267 323
#     4  10  20  36  58  82 111 146 183 226 275 322
#     4  10  19  33  56  84 110 137 178 228 275 324
#
# _framework density 18.576433999999999
#
# number of rings (size 3 to 8) (size 9 to 14) (size 15 to 20)
#    0.000    2.000    1.667    2.000    0.000    7.333 
#    0.000    0.833    0.000    3.000    0.000    0.000 
#    0.000    0.000    0.000    0.000    0.000    0.000 
#
# Total GULP energy -297727.431831 kJ/mol
# GULP energy per Si atom -12405.309660 kJ/mol
# Density = 1.853415 g / cm^3
# Si number density = 18.576434 Si / 1000 Ang^3
#
#
#
# Elastic Constant Matrix: (Units=GPa)
#
#
# Indices 1 2 3 4 5 6 
#
# 1 105.9052 45.7454 23.0124 0.0000 20.4522 0.0000
# 2 45.7454 62.7652 22.9788 0.0000 9.8844 0.0000
# 3 23.0124 22.9788 52.5777 0.0000 2.3446 0.0000
# 4 0.0000 0.0000 0.0000 26.9938 0.0000 4.0620
# 5 20.4522 9.8844 2.3446 0.0000 18.3226 0.0000
# 6 0.0000 0.0000 0.0000 4.0620 0.0000 28.7132
#
#
#
# Elastic Compliance Matrix: (Units=1/GPa)
#
#
# Indices 1 2 3 4 5 6 
#
# 1 0.016421 -0.008901 -0.002710 0.000000 -0.013182 0.000000
# 2 -0.008901 0.025479 -0.007111 0.000000 -0.002900 0.000000
# 3 -0.002710 -0.007111 0.023139 0.000000 0.003900 0.000000
# 4 0.000000 0.000000 0.000000 0.037851 0.000000 -0.005355
# 5 -0.013182 -0.002900 0.003900 0.000000 0.070357 0.000000
# 6 0.000000 0.000000 0.000000 -0.005355 0.000000 0.035585
#
#
# Mechanical properties :
#
#
# Convention : Reuss Voigt Hill
#
# Bulk Modulus (GPa) = 36.23411 44.96903 40.60157
# Shear Modulus (GPa) = 19.57145 23.44001 21.50573
#
# Velocity S-wave (km/s) = 3.24939 3.55606 3.40617
# Velocity P-wave (km/s) = 5.79877 6.41255 6.11337
#
# Compressibility (1/GPa) = 0.02759830
#
# Stress axis : x y z
#
# Youngs Moduli (GPa) = 60.89627 39.24729 43.21667
#
# Poissons Ratio (x) = 0.34932 0.11710
# Poissons Ratio (y) = 0.54201 0.30730
# Poissons Ratio (z) = 0.16501 0.27908
#
# Static dielectric constant tensor:
#      x y z
#    x 3.454350 0.000000 0.107350 
#    y 0.000000 3.369780 0.000000 
#    z 0.107350 0.000000 3.327120 
# 
# 
# High freq. dielectric constant tensor:
#      x y z
#    x 1.731300 0.000000 0.008600 
#    y 0.000000 1.718740 0.000000 
#    z 0.008600 0.000000 1.707970 
# 
# From -- ./inp_files/179333.got.cif
#   From: 2010.06.25/outbox.cif.g09.slc.cpg/sg12_90_cif.got.tgz:179333.got - 2010.06.28 00:19:55.
