data_PCOD8090707
_publ_section_title
;
Structure prediction by ZEFSAII (Michael W. Deem and Ramdas Pophale) SiO2 
 PCOD8090707
Probable space group: C 2/M
;
_chemical_formula_sum "Si O2"
_cell_formula_units_Z 56
_cell_length_a 11.819054
_cell_length_b 22.448874
_cell_length_c 11.237680
_cell_angle_alpha 90.000000
_cell_angle_beta 74.220787
_cell_angle_gamma 90.000000
_cell_volume 2869.273645
_symmetry_space_group_name_H-M "C 2/M"
_symmetry_group_IT_number 12
_symmetry_cell_setting 'monoclinic'
loop_
_space_group_symop_operation_xyz
x,y,z
-x,y,-z
-x,-y,-z
x,-y,z
1/2+x,1/2+y,z
1/2-x,1/2+y,-z
1/2-x,1/2-y,-z
1/2+x,1/2-y,z
loop_
_atom_site_type_symbol
_atom_site_label
_atom_site_fract_x
_atom_site_fract_y
_atom_site_fract_z
Si Si1 0.607660 0.566718 0.205369
Si Si2 0.612262 0.318687 0.047899
Si Si3 0.166906 0.763930 0.633068
Si Si4 0.810632 0.284580 0.815351
Si Si5 0.213098 0.432109 0.639458
Si Si6 0.011156 0.344106 0.635993
Si Si7 0.585348 0.612991 0.579820
O O1 0.618170 0.500000 0.148639
O O2 0.605187 0.614816 0.101908
O O3 0.719046 0.580705 0.257536
O O4 0.487250 0.567862 0.316500
O O5 0.610665 0.268062 0.150141
O O6 0.500000 0.305647 0.000000
O O7 0.730894 0.315099 0.938027
O O8 0.250000 0.750000 0.500000
O O9 0.234001 0.751443 0.736599
O O10 0.123669 0.831541 0.648543
O O11 0.056662 0.721818 0.647968
O O12 0.884523 0.339760 0.736763
O O13 0.171865 0.500000 0.642093
O O14 0.298294 0.418498 0.503945
O O15 0.095661 0.392616 0.671702
O O16 0.000000 0.358769 0.500000
O O17 0.500000 0.636426 0.500000
#
# Coordination Sequence:
#
# PCOD8090707 Si02
#       7
#     8   8   8   8   8   8   8
#     4  10  21  38  62  86 112 154 206 253 294 343
#     4  11  24  42  61  83 119 158 197 245 291 353
#     4  12  21  35  59  90 121 151 189 241 292 356
#     4  11  24  40  59  88 121 157 194 236 302 353
#     4  10  21  37  55  83 121 157 193 238 296 355
#     4  12  22  35  58  88 120 151 193 238 289 357
#     4  10  19  33  58  90 122 152 189 244 303 352
#
# _framework density 19.517135
#
# number of rings (size 3 to 8) (size 9 to 14) (size 15 to 20)
#    0.000    1.143    2.857    4.286    2.000    3.429 
#    0.000    0.714    0.000    1.714    0.000    0.000 
#    0.000    0.000    0.000    0.000    0.000    0.000 
#
# Total GULP energy -347256.442139 kJ/mol
# GULP energy per Si atom -12402.015791 kJ/mol
# Density = 1.947271 g / cm^3
# Si number density = 19.517135 Si / 1000 Ang^3
#
#
#
# Elastic Constant Matrix: (Units=GPa)
#
#
# Indices 1 2 3 4 5 6 
#
# 1 76.4609 30.8858 19.6337 0.0000 8.4494 0.0000
# 2 30.8858 93.3681 28.0388 0.0000 4.9745 0.0000
# 3 19.6337 28.0388 77.4606 0.0000 4.2797 0.0000
# 4 0.0000 0.0000 0.0000 25.6295 0.0000 1.5478
# 5 8.4494 4.9745 4.2797 0.0000 35.6472 0.0000
# 6 0.0000 0.0000 0.0000 1.5478 0.0000 32.9457
#
#
#
# Elastic Compliance Matrix: (Units=1/GPa)
#
#
# Indices 1 2 3 4 5 6 
#
# 1 0.015740 -0.004380 -0.002247 0.000000 -0.002850 0.000000
# 2 -0.004380 0.013283 -0.003677 0.000000 -0.000374 0.000000
# 3 -0.002247 -0.003677 0.014851 0.000000 -0.000737 0.000000
# 4 0.000000 0.000000 0.000000 0.039129 0.000000 -0.001838
# 5 -0.002850 -0.000374 -0.000737 0.000000 0.028869 0.000000
# 6 0.000000 0.000000 0.000000 -0.001838 0.000000 0.030439
#
#
# Mechanical properties :
#
#
# Convention : Reuss Voigt Hill
#
# Bulk Modulus (GPa) = 42.98101 44.93400 43.95751
# Shear Modulus (GPa) = 29.29553 30.09324 29.69439
#
# Velocity S-wave (km/s) = 3.87850 3.93095 3.90481
# Velocity P-wave (km/s) = 6.49053 6.60878 6.54992
#
# Compressibility (1/GPa) = 0.02326609
#
# Stress axis : x y z
#
# Youngs Moduli (GPa) = 63.53367 75.28140 67.33518
#
# Poissons Ratio (x) = 0.32974 0.15127
# Poissons Ratio (y) = 0.27829 0.24762
# Poissons Ratio (z) = 0.14273 0.27684
#
# Static dielectric constant tensor:
#      x y z
#    x 3.824750 0.000000 -0.003680 
#    y 0.000000 3.415350 0.000000 
#    z -0.003680 0.000000 3.461740 
# 
# 
# High freq. dielectric constant tensor:
#      x y z
#    x 1.768270 0.000000 -0.000990 
#    y 0.000000 1.750730 0.000000 
#    z -0.000990 0.000000 1.755860 
# 
# From -- ./inp_files/133303.got.cif
#   From: 2010.06.25/outbox.cif.g09.slc.cpg/sg12_67_cif.got.tgz:133303.got - 2010.06.28 00:19:55.
