data_PCOD8090663
_publ_section_title
;
Structure prediction by ZEFSAII (Michael W. Deem and Ramdas Pophale) SiO2 
 PCOD8090663
Probable space group: C 2/M
;
_chemical_formula_sum "Si O2"
_cell_formula_units_Z 40
_cell_length_a 23.633386
_cell_length_b 11.096665
_cell_length_c 22.398111
_cell_angle_alpha 90.000000
_cell_angle_beta 160.619479
_cell_angle_gamma 90.000000
_cell_volume 1949.212242
_symmetry_space_group_name_H-M "C 2/M"
_symmetry_group_IT_number 12
_symmetry_cell_setting 'monoclinic'
loop_
_space_group_symop_operation_xyz
x,y,z
-x,y,-z
-x,-y,-z
x,-y,z
1/2+x,1/2+y,z
1/2-x,1/2+y,-z
1/2-x,1/2-y,-z
1/2+x,1/2-y,z
loop_
_atom_site_type_symbol
_atom_site_label
_atom_site_fract_x
_atom_site_fract_y
_atom_site_fract_z
Si Si1 0.239786 0.861040 0.384690
Si Si2 0.912441 0.713718 0.084196
Si Si3 0.701651 0.632307 0.208412
Si Si4 0.156985 0.369504 0.111150
Si Si5 0.912923 0.635273 0.215455
O O1 0.250719 0.841243 0.325003
O O2 0.411179 0.807043 0.584970
O O3 0.079055 0.795635 0.253343
O O4 0.218394 0.000000 0.380492
O O5 0.908870 0.632722 0.139614
O O6 0.914850 0.631910 0.027633
O O7 0.743429 0.793626 0.912293
O O8 0.777675 0.500000 0.264084
O O9 0.770162 0.748020 0.237820
O O10 0.500000 0.624063 0.000000
O O11 0.252844 0.500000 0.214850
O O12 0.000000 0.365474 0.000000
O O13 0.897309 0.500000 0.223927
#
# Coordination Sequence:
#
# PCOD8090663 Si02
#       5
#     8   8   8   8   8
#     4  10  19  35  58  84 114 148 193 245 291 342
#     4  11  20  37  60  80 114 156 189 234 296 348
#     4   9  16  30  55  83 110 148 193 234 284 340
#     4  10  19  33  58  87 114 153 195 234 290 350
#     4  10  23  37  55  87 116 147 197 244 289 347
#
# _framework density 20.521111000000001
#
# number of rings (size 3 to 8) (size 9 to 14) (size 15 to 20)
#    0.000    2.000    4.000    1.800    0.000    0.800 
#    0.000    1.000    0.000   14.400    0.000    0.000 
#    0.000    0.000    0.000    0.000    0.000    0.000 
#
# Total GULP energy -247819.127674 kJ/mol
# GULP energy per Si atom -12390.956384 kJ/mol
# Density = 2.047440 g / cm^3
# Si number density = 20.521111 Si / 1000 Ang^3
#
#
#
# Elastic Constant Matrix: (Units=GPa)
#
#
# Indices 1 2 3 4 5 6 
#
# 1 77.3119 24.0338 43.1786 0.0006 -16.2537 -0.0012
# 2 24.0338 142.0040 33.0950 0.0025 1.2569 -0.0032
# 3 43.1786 33.0950 99.0302 0.0019 10.9555 -0.0026
# 4 0.0006 0.0025 0.0019 -7.2118 -0.0001 6.9370
# 5 -16.2537 1.2569 10.9555 -0.0001 28.4781 -0.0018
# 6 -0.0012 -0.0032 -0.0026 6.9370 -0.0018 3.6277
#
#
#
# Elastic Compliance Matrix: (Units=1/GPa)
#
#
# Indices 1 2 3 4 5 6 
#
# 1 0.023921 -0.001418 -0.011983 0.000002 0.018325 0.000004
# 2 -0.001418 0.007733 -0.001921 0.000002 -0.000412 0.000000
# 3 -0.011983 -0.001921 0.017455 0.000001 -0.013469 -0.000002
# 4 0.000002 0.000002 0.000001 -0.048835 0.000006 0.093384
# 5 0.018325 -0.000412 -0.013469 0.000006 0.050773 0.000009
# 6 0.000004 0.000000 -0.000002 0.093384 0.000009 0.097084
#
#
# Mechanical properties :
#
#
# Convention : Reuss Voigt Hill
#
# Bulk Modulus (GPa) = 54.15589 57.66234 55.90912
# Shear Modulus (GPa) = 27.03738 19.51470 23.27604
#
# Velocity S-wave (km/s) = 3.63373 3.08710 3.37151
# Velocity P-wave (km/s) = 6.63724 6.39273 6.51613
#
# Compressibility (1/GPa) = 0.01846521
#
# Stress axis : x y z
#
# Youngs Moduli (GPa) = 41.80505 129.31101 57.29128
#
# Poissons Ratio (x) = 0.18336 0.68653
# Poissons Ratio (y) = 0.05928 0.11003
# Poissons Ratio (z) = 0.50095 0.24835
#
# Static dielectric constant tensor:
#      x y z
#    x 3.552200 0.000000 -0.182900 
#    y 0.000000 4.546840 0.000000 
#    z -0.182900 0.000000 3.753620 
# 
# 
# High freq. dielectric constant tensor:
#      x y z
#    x 1.793620 0.000000 -0.026110 
#    y 0.000000 1.808960 0.000000 
#    z -0.026110 0.000000 1.784560 
# 
# From -- ./inp_files/94645.got.cif
#   From: 2010.06.25/outbox.cif.g09.slc.cpg/sg12_48_cif.got.tgz:94645.got - 2010.06.28 00:19:55.
