data_PCOD8090529
_publ_section_title
;
Structure prediction by ZEFSAII (Michael W. Deem and Ramdas Pophale) SiO2 
 PCOD8090529
Probable space group: C 2/M
;
_chemical_formula_sum "Si O2"
_cell_formula_units_Z 48
_cell_length_a 31.683437
_cell_length_b 8.545927
_cell_length_c 9.625644
_cell_angle_alpha 90.000000
_cell_angle_beta 103.381660
_cell_angle_gamma 90.000000
_cell_volume 2535.520633
_symmetry_space_group_name_H-M "C 2/M"
_symmetry_group_IT_number 12
_symmetry_cell_setting 'monoclinic'
loop_
_space_group_symop_operation_xyz
x,y,z
-x,y,-z
-x,-y,-z
x,-y,z
1/2+x,1/2+y,z
1/2-x,1/2+y,-z
1/2-x,1/2-y,-z
1/2+x,1/2-y,z
loop_
_atom_site_type_symbol
_atom_site_label
_atom_site_fract_x
_atom_site_fract_y
_atom_site_fract_z
Si Si1 0.547823 0.815893 0.043827
Si Si2 0.379604 0.815921 0.110567
Si Si3 0.261339 0.684591 0.358576
Si Si4 0.639937 0.317839 0.612614
Si Si5 0.181716 0.817227 0.157638
Si Si6 0.884054 0.682431 0.684011
O O1 0.570430 0.772792 0.207670
O O2 0.543138 0.000000 0.024591
O O3 0.500000 0.737284 0.000000
O O4 0.578073 0.755711 0.941093
O O5 0.380122 0.725190 0.255157
O O6 0.380507 0.000000 0.138996
O O7 0.337038 0.774884 0.988807
O O8 0.254342 0.500000 0.353146
O O9 0.250000 0.750000 0.500000
O O10 0.309954 0.732798 0.354909
O O11 0.230974 0.762842 0.218942
O O12 0.634258 0.500000 0.579387
O O13 0.612817 0.224728 0.475257
O O14 0.154938 0.780139 0.277149
O O15 0.180178 0.000000 0.123962
O O16 0.873804 0.500000 0.698798
#
# Coordination Sequence:
#
# PCOD8090529 Si02
#       6
#     8   8   8   8   8   8
#     4   8  16  34  60  87 109 134 177 228 273 325
#     4  10  21  37  58  82 110 145 183 227 276 329
#     4  11  22  35  54  79 108 146 192 234 272 318
#     4  11  23  37  54  79 113 149 182 227 280 324
#     4  11  21  35  55  79 110 148 186 230 275 323
#     4  10  19  33  57  83 109 144 185 226 270 327
#
# _framework density 18.931024000000001
#
# number of rings (size 3 to 8) (size 9 to 14) (size 15 to 20)
#    0.000    1.833    1.667    4.500    0.000    2.667 
#    0.000    0.833    0.000   23.000    0.000    0.000 
#    0.000    0.000    0.000    0.000    0.000    0.000 
#
# Total GULP energy -297664.080633 kJ/mol
# GULP energy per Si atom -12402.670026 kJ/mol
# Density = 1.888794 g / cm^3
# Si number density = 18.931024 Si / 1000 Ang^3
#
#
#
# Elastic Constant Matrix: (Units=GPa)
#
#
# Indices 1 2 3 4 5 6 
#
# 1 121.4829 30.7378 60.0234 0.0000 14.6363 0.0000
# 2 30.7378 52.7643 9.3348 0.0000 3.1166 0.0000
# 3 60.0234 9.3348 123.4752 0.0000 2.0586 0.0000
# 4 0.0000 0.0000 0.0000 33.6423 0.0000 -1.1807
# 5 14.6363 3.1166 2.0586 0.0000 24.2113 0.0000
# 6 0.0000 0.0000 0.0000 -1.1807 0.0000 17.2052
#
#
#
# Elastic Compliance Matrix: (Units=1/GPa)
#
#
# Indices 1 2 3 4 5 6 
#
# 1 0.013703 -0.006502 -0.006054 0.000000 -0.006932 0.000000
# 2 -0.006502 0.022429 0.001450 0.000000 0.000920 0.000000
# 3 -0.006054 0.001450 0.010890 0.000000 0.002547 0.000000
# 4 0.000000 0.000000 0.000000 0.029796 0.000000 0.002045
# 5 -0.006932 0.000920 0.002547 0.000000 0.045159 0.000000
# 6 0.000000 0.000000 0.000000 0.002045 0.000000 0.058262
#
#
# Mechanical properties :
#
#
# Convention : Reuss Voigt Hill
#
# Bulk Modulus (GPa) = 40.30797 55.32382 47.81590
# Shear Modulus (GPa) = 23.72784 28.18685 25.95735
#
# Velocity S-wave (km/s) = 3.54416 3.86284 3.70693
# Velocity P-wave (km/s) = 6.17141 7.01304 6.60564
#
# Compressibility (1/GPa) = 0.02480899
#
# Stress axis : x y z
#
# Youngs Moduli (GPa) = 72.97462 44.58457 91.82899
#
# Poissons Ratio (x) = 0.28990 0.55596
# Poissons Ratio (y) = 0.47451 -0.13314
# Poissons Ratio (z) = 0.44181 -0.06464
#
# Static dielectric constant tensor:
#      x y z
#    x 3.729470 0.000000 0.170270 
#    y 0.000000 3.354730 0.000000 
#    z 0.170270 0.000000 3.451920 
# 
# 
# High freq. dielectric constant tensor:
#      x y z
#    x 1.720410 0.000000 0.011750 
#    y 0.000000 1.732830 0.000000 
#    z 0.011750 0.000000 1.738230 
# 
# From -- ./inp_files/108772.got.cif
#   From: 2010.06.25/outbox.cif.g09.slc.cpg/sg12_55_cif.got.tgz:108772.got - 2010.06.28 00:19:55.
