data_PCOD8090024
_publ_section_title
;
Structure prediction by ZEFSAII (Michael W. Deem and Ramdas Pophale) SiO2 
 PCOD8090024
Probable space group: C 2/M
;
_chemical_formula_sum "Si O2"
_cell_formula_units_Z 64
_cell_length_a 19.651527
_cell_length_b 9.491046
_cell_length_c 31.014047
_cell_angle_alpha 90.000000
_cell_angle_beta 142.165643
_cell_angle_gamma 90.000000
_cell_volume 3548.125449
_symmetry_space_group_name_H-M "C 2/M"
_symmetry_group_IT_number 12
_symmetry_cell_setting 'monoclinic'
loop_
_space_group_symop_operation_xyz
x,y,z
-x,y,-z
-x,-y,-z
x,-y,z
1/2+x,1/2+y,z
1/2-x,1/2+y,-z
1/2-x,1/2-y,-z
1/2+x,1/2-y,z
loop_
_atom_site_type_symbol
_atom_site_label
_atom_site_fract_x
_atom_site_fract_y
_atom_site_fract_z
Si Si1 0.493669 0.336201 0.545876
Si Si2 0.246550 0.340352 0.956615
Si Si3 0.753780 0.160031 0.460207
Si Si4 0.380562 0.665972 0.812067
Si Si5 0.006199 0.664678 0.801643
Si Si6 0.522362 0.665112 0.964480
Si Si7 0.021868 0.335413 0.307912
Si Si8 0.619925 0.834033 0.681792
O O1 0.500000 0.284357 0.500000
O O2 0.527526 0.500000 0.567821
O O3 0.365858 0.308791 0.491590
O O4 0.573389 0.245640 0.616501
O O5 0.258540 0.500000 0.977802
O O6 0.134120 0.311926 0.875632
O O7 0.250000 0.250000 0.000000
O O8 0.349617 0.297361 0.978666
O O9 0.750000 0.250000 0.500000
O O10 0.649989 0.202344 0.379068
O O11 0.743710 0.000000 0.470110
O O12 0.402811 0.500000 0.816380
O O13 0.427031 0.748390 0.793884
O O14 0.443887 0.723710 0.886624
O O15 0.250215 0.697913 0.752096
O O16 0.971368 0.500000 0.786828
O O17 0.000113 0.728183 0.750323
O O18 0.498508 0.500000 0.955087
O O19 0.500000 0.735324 0.000000
O O20 0.997320 0.500000 0.293737
O O21 0.943450 0.274971 0.307100
O O22 0.597289 0.000000 0.664213
#
# Coordination Sequence:
#
# PCOD8090024 Si02
#       8
#     8   8   8   8   8   8   8   8
#     4  10  22  37  56  81 108 140 178 217 263 320
#     4  10  19  33  55  80 105 138 179 220 264 311
#     4  10  19  35  57  78 103 138 177 219 266 311
#     4  10  21  36  54  79 110 141 175 219 269 315
#     4  10  21  35  56  81 106 141 181 217 260 318
#     4   9  18  32  53  79 107 139 177 221 263 306
#     4   9  19  35  55  79 106 137 176 221 263 307
#     4  10  21  37  56  78 107 141 177 220 267 313
#
# _framework density 18.037693999999998
#
# number of rings (size 3 to 8) (size 9 to 14) (size 15 to 20)
#    0.000    2.250    2.500    0.000    3.500    0.750 
#    0.000    1.250    0.000    1.500    0.000    0.000 
#    0.000    0.000    0.000    0.000    0.000    0.000 
#
# Total GULP energy -396664.917850 kJ/mol
# GULP energy per Si atom -12395.778683 kJ/mol
# Density = 1.799664 g / cm^3
# Si number density = 18.037694 Si / 1000 Ang^3
#
#
#
# Elastic Constant Matrix: (Units=GPa)
#
#
# Indices 1 2 3 4 5 6 
#
# 1 146.8154 50.5390 85.5660 0.0000 -14.2606 0.0000
# 2 50.5390 41.3519 48.8832 -0.0001 -2.8575 0.0001
# 3 85.5660 48.8832 134.4826 0.0000 -4.8080 0.0000
# 4 0.0000 -0.0001 0.0000 25.5501 0.0000 -1.3098
# 5 -14.2606 -2.8575 -4.8080 0.0000 41.8114 0.0000
# 6 0.0000 0.0001 0.0000 -1.3098 0.0000 27.2684
#
#
#
# Elastic Compliance Matrix: (Units=1/GPa)
#
#
# Indices 1 2 3 4 5 6 
#
# 1 0.013548 -0.011008 -0.004499 0.000000 0.003351 0.000000
# 2 -0.011008 0.051401 -0.011736 0.000000 -0.001591 0.000000
# 3 -0.004499 -0.011736 0.014541 0.000000 -0.000664 0.000000
# 4 0.000000 0.000000 0.000000 0.039235 0.000000 0.001885
# 5 0.003351 -0.001591 -0.000664 0.000000 0.024875 0.000000
# 6 0.000000 0.000000 0.000000 0.001885 0.000000 0.036763
#
#
# Mechanical properties :
#
#
# Convention : Reuss Voigt Hill
#
# Bulk Modulus (GPa) = 39.99639 76.95848 58.47744
# Shear Modulus (GPa) = 20.56052 28.10343 24.33197
#
# Velocity S-wave (km/s) = 3.37985 3.95148 3.67679
# Velocity P-wave (km/s) = 6.11989 7.97351 7.10739
#
# Compressibility (1/GPa) = 0.02500226
#
# Stress axis : x y z
#
# Youngs Moduli (GPa) = 73.80972 19.45499 68.77210
#
# Poissons Ratio (x) = 0.21417 0.30941
# Poissons Ratio (y) = 0.81252 0.80714
# Poissons Ratio (z) = 0.33207 0.22833
#
# Static dielectric constant tensor:
#      x y z
#    x 3.464730 0.000000 0.082500 
#    y 0.000000 3.127030 0.000000 
#    z 0.082500 0.000000 3.494350 
# 
# 
# High freq. dielectric constant tensor:
#      x y z
#    x 1.712940 0.000000 0.003170 
#    y 0.000000 1.664280 0.000000 
#    z 0.003170 0.000000 1.714160 
# 
# From -- ./inp_files/378507.got.cif
#   From: 2010.06.25/outbox.cif.g09.slc.cpg/sg12_190_cif.got.tgz:378507.got - 2010.06.28 00:19:55.
