data_PCOD8090306
_publ_section_title
;
Structure prediction by ZEFSAII (Michael W. Deem and Ramdas Pophale) SiO2 
 PCOD8090306
Probable space group: C 2/M
;
_chemical_formula_sum "Si O2"
_cell_formula_units_Z 64
_cell_length_a 14.469891
_cell_length_b 8.898743
_cell_length_c 29.318439
_cell_angle_alpha 90.000000
_cell_angle_beta 117.762896
_cell_angle_gamma 90.000000
_cell_volume 3340.569631
_symmetry_space_group_name_H-M "C 2/M"
_symmetry_group_IT_number 12
_symmetry_cell_setting 'monoclinic'
loop_
_space_group_symop_operation_xyz
x,y,z
-x,y,-z
-x,-y,-z
x,-y,z
1/2+x,1/2+y,z
1/2-x,1/2+y,-z
1/2-x,1/2-y,-z
1/2+x,1/2-y,z
loop_
_atom_site_type_symbol
_atom_site_label
_atom_site_fract_x
_atom_site_fract_y
_atom_site_fract_z
Si Si1 0.043834 0.672115 0.881526
Si Si2 0.267811 0.669916 0.904895
Si Si3 0.336769 0.677914 0.823061
Si Si4 0.511869 0.820434 0.363543
Si Si5 0.449062 0.677251 0.440693
Si Si6 0.300484 0.321517 0.285168
Si Si7 0.721155 0.176391 0.363826
Si Si8 0.898440 0.329373 0.006796
O O1 0.004543 0.500000 0.877844
O O2 0.143008 0.681499 0.871088
O O3 0.953976 0.771881 0.837580
O O4 0.076525 0.741467 0.938158
O O5 0.305629 0.500000 0.918873
O O6 0.316443 0.737329 0.869881
O O7 0.302818 0.751160 0.959178
O O8 0.322598 0.500000 0.814998
O O9 0.255102 0.760085 0.772183
O O10 0.511184 0.764500 0.415519
O O11 0.414707 0.751688 0.313804
O O12 0.617812 0.756231 0.364039
O O13 0.505493 0.000000 0.360713
O O14 0.500000 0.723941 0.500000
O O15 0.458535 0.500000 0.432954
O O16 0.327396 0.727321 0.413977
O O17 0.313388 0.500000 0.285641
O O18 0.231258 0.273660 0.313258
O O19 0.710153 0.000000 0.364357
O O20 0.863887 0.500000 0.006339
O O21 0.000000 0.311292 0.000000
#
# Coordination Sequence:
#
# PCOD8090306 Si02
#       8
#     8   8   8   8   8   8   8   8
#     4  10  21  38  56  77 106 141 175 210 262 322
#     4  10  22  37  55  78 107 141 174 211 263 323
#     4  11  23  38  55  80 108 135 173 221 267 313
#     4  10  19  34  56  81 109 140 180 228 271 314
#     4   9  18  34  54  79 115 155 190 221 260 316
#     4  10  21  39  59  77 103 141 179 218 270 327
#     4   8  17  34  55  78 106 143 181 219 270 320
#     4  10  19  33  56  81 105 135 174 218 259 309
#
# _framework density 19.15841
#
# number of rings (size 3 to 8) (size 9 to 14) (size 15 to 20)
#    0.000    2.250    1.250    2.250    0.000    3.500 
#    0.000   11.250    0.000    0.000    0.000    0.000 
#    0.000    0.000    0.000    0.000    0.000    0.000 
#
# Total GULP energy -396774.276354 kJ/mol
# GULP energy per Si atom -12399.196136 kJ/mol
# Density = 1.911480 g / cm^3
# Si number density = 19.158410 Si / 1000 Ang^3
#
#
#
# Elastic Constant Matrix: (Units=GPa)
#
#
# Indices 1 2 3 4 5 6 
#
# 1 115.3318 31.3120 38.0058 0.0000 10.0328 0.0000
# 2 31.3120 58.1681 34.9636 0.0000 5.0222 0.0000
# 3 38.0058 34.9636 110.2154 0.0000 13.2448 0.0000
# 4 0.0000 0.0000 0.0000 31.2249 0.0000 2.1078
# 5 10.0328 5.0222 13.2448 0.0000 18.7563 0.0000
# 6 0.0000 0.0000 0.0000 2.1078 0.0000 26.8847
#
#
#
# Elastic Compliance Matrix: (Units=1/GPa)
#
#
# Indices 1 2 3 4 5 6 
#
# 1 0.010774 -0.004351 -0.001948 0.000000 -0.003223 0.000000
# 2 -0.004351 0.023017 -0.005836 0.000000 0.000285 0.000000
# 3 -0.001948 -0.005836 0.012329 0.000000 -0.006102 0.000000
# 4 0.000000 0.000000 0.000000 0.032196 0.000000 -0.002524
# 5 -0.003223 0.000285 -0.006102 0.000000 0.059272 0.000000
# 6 0.000000 0.000000 0.000000 -0.002524 0.000000 0.037394
#
#
# Mechanical properties :
#
#
# Convention : Reuss Voigt Hill
#
# Bulk Modulus (GPa) = 45.76268 54.69758 50.23013
# Shear Modulus (GPa) = 24.20917 27.33546 25.77231
#
# Velocity S-wave (km/s) = 3.55862 3.78141 3.67171
# Velocity P-wave (km/s) = 6.38931 6.90490 6.65210
#
# Compressibility (1/GPa) = 0.02185187
#
# Stress axis : x y z
#
# Youngs Moduli (GPa) = 92.81578 43.44708 81.10767
#
# Poissons Ratio (x) = 0.18902 0.15798
# Poissons Ratio (y) = 0.40381 0.47331
# Poissons Ratio (z) = 0.18079 0.25354
#
# Static dielectric constant tensor:
#      x y z
#    x 3.677580 0.000000 -0.001560 
#    y 0.000000 3.343240 0.000000 
#    z -0.001560 0.000000 3.494810 
# 
# 
# High freq. dielectric constant tensor:
#      x y z
#    x 1.752610 0.000000 0.003560 
#    y 0.000000 1.729730 0.000000 
#    z 0.003560 0.000000 1.742960 
# 
# From -- ./inp_files/375100.got.cif
#   From: 2010.06.25/outbox.cif.g09.slc.cpg/sg12_188_cif.got.tgz:375100.got - 2010.06.28 00:19:55.
