data_PCOD8090286
_publ_section_title
;
Structure prediction by ZEFSAII (Michael W. Deem and Ramdas Pophale) SiO2 
 PCOD8090286
Probable space group: C 2/M
;
_chemical_formula_sum "Si O2"
_cell_formula_units_Z 64
_cell_length_a 27.793942
_cell_length_b 8.906644
_cell_length_c 34.021546
_cell_angle_alpha 90.000000
_cell_angle_beta 156.039353
_cell_angle_gamma 90.000000
_cell_volume 3420.274749
_symmetry_space_group_name_H-M "C 2/M"
_symmetry_group_IT_number 12
_symmetry_cell_setting 'monoclinic'
loop_
_space_group_symop_operation_xyz
x,y,z
-x,y,-z
-x,-y,-z
x,-y,z
1/2+x,1/2+y,z
1/2-x,1/2+y,-z
1/2-x,1/2-y,-z
1/2+x,1/2-y,z
loop_
_atom_site_type_symbol
_atom_site_label
_atom_site_fract_x
_atom_site_fract_y
_atom_site_fract_z
Si Si1 0.369061 0.172556 0.101789
Si Si2 0.583871 0.326845 0.717732
Si Si3 0.404798 0.672710 0.362643
Si Si4 0.833041 0.678478 0.529282
Si Si5 0.474014 0.323727 0.112128
Si Si6 0.290472 0.823806 0.724858
Si Si7 0.332575 0.676685 0.447481
Si Si8 0.274062 0.171673 0.111961
O O1 0.474642 0.253371 0.156843
O O2 0.375397 0.188481 0.153758
O O3 0.366846 0.000000 0.087420
O O4 0.250000 0.250000 0.000000
O O5 0.550274 0.500000 0.699887
O O6 0.634352 0.303071 0.711584
O O7 0.467789 0.227356 0.638313
O O8 0.689697 0.277683 0.825258
O O9 0.409436 0.500000 0.378325
O O10 0.308811 0.747308 0.320186
O O11 0.537038 0.737972 0.467519
O O12 0.823772 0.500000 0.524091
O O13 0.750000 0.750000 0.500000
O O14 0.789216 0.736620 0.453946
O O15 0.484000 0.500000 0.123984
O O16 0.586950 0.259045 0.173467
O O17 0.355006 0.277210 0.999955
O O18 0.256174 0.789757 0.654227
O O19 0.307732 0.000000 0.745102
O O20 0.339854 0.500000 0.463196
O O21 0.268017 0.000000 0.121887
#
# Coordination Sequence:
#
# PCOD8090286 Si02
#       8
#     8   8   8   8   8   8   8   8
#     4   9  17  31  51  73  99 132 169 209 253 304
#     4  10  20  35  57  81 104 135 177 220 260 308
#     4   8  16  33  55  79 104 132 171 216 262 312
#     4  11  22  37  56  79 111 144 174 212 256 305
#     4  10  21  35  50  74 109 141 174 219 263 309
#     4  10  19  33  56  80 104 137 174 217 266 311
#     4   9  18  34  56  81 107 136 173 214 259 313
#     4   9  19  35  53  74 103 140 178 214 258 312
#
# _framework density 18.711948
#
# number of rings (size 3 to 8) (size 9 to 14) (size 15 to 20)
#    0.000    2.500    0.000    4.125    0.000    6.000 
#    0.000    5.000    0.000    7.500    0.000    0.000 
#    0.000    0.000    0.000    0.000    0.000    0.000 
#
# Total GULP energy -396695.433711 kJ/mol
# GULP energy per Si atom -12396.732303 kJ/mol
# Density = 1.866936 g / cm^3
# Si number density = 18.711948 Si / 1000 Ang^3
#
#
#
# Elastic Constant Matrix: (Units=GPa)
#
#
# Indices 1 2 3 4 5 6 
#
# 1 111.7717 49.8073 46.4888 0.0073 13.1276 0.0114
# 2 49.8073 92.8201 39.5819 -0.0026 -2.5696 0.0242
# 3 46.4888 39.5819 78.6043 0.0159 -1.0497 0.0067
# 4 0.0073 -0.0026 0.0159 30.2807 0.0018 -0.2670
# 5 13.1276 -2.5696 -1.0497 0.0018 27.4037 -0.0040
# 6 0.0114 0.0242 0.0067 -0.2670 -0.0040 26.3247
#
#
#
# Elastic Compliance Matrix: (Units=1/GPa)
#
#
# Indices 1 2 3 4 5 6 
#
# 1 0.014917 -0.005624 -0.006096 0.000000 -0.007907 -0.000001
# 2 -0.005624 0.015869 -0.004611 0.000005 0.004005 -0.000010
# 3 -0.006096 -0.004611 0.018692 -0.000009 0.003204 0.000003
# 4 0.000000 0.000005 -0.000009 0.033027 -0.000002 0.000335
# 5 -0.007907 0.004005 0.003204 -0.000002 0.040777 0.000005
# 6 -0.000001 -0.000010 0.000003 0.000335 0.000005 0.037991
#
#
# Mechanical properties :
#
#
# Convention : Reuss Voigt Hill
#
# Bulk Modulus (GPa) = 59.46845 61.66138 60.56491
# Shear Modulus (GPa) = 25.05763 26.62303 25.84033
#
# Velocity S-wave (km/s) = 3.66338 3.77607 3.72015
# Velocity P-wave (km/s) = 7.05293 7.21360 7.13372
#
# Compressibility (1/GPa) = 0.01681564
#
# Stress axis : x y z
#
# Youngs Moduli (GPa) = 67.03763 63.01786 53.49853
#
# Poissons Ratio (x) = 0.35440 0.32613
# Poissons Ratio (y) = 0.37701 0.24669
# Poissons Ratio (z) = 0.40866 0.29059
#
# Static dielectric constant tensor:
#      x y z
#    x 3.726920 -0.000020 0.078240 
#    y -0.000020 3.345540 0.000000 
#    z 0.078240 0.000000 3.302390 
# 
# 
# High freq. dielectric constant tensor:
#      x y z
#    x 1.729000 0.000000 0.002090 
#    y 0.000000 1.715850 0.000000 
#    z 0.002090 0.000000 1.712820 
# 
# From -- ./inp_files/382433.got.cif
#   From: 2010.06.25/outbox.cif.g09.slc.cpg/sg12_192_cif.got.tgz:382433.got - 2010.06.28 00:19:55.
