data_PCOD8090481
_publ_section_title
;
Structure prediction by ZEFSAII (Michael W. Deem and Ramdas Pophale) SiO2 
 PCOD8090481
Probable space group: C 2/M
;
_chemical_formula_sum "Si O2"
_cell_formula_units_Z 56
_cell_length_a 13.975537
_cell_length_b 22.906887
_cell_length_c 9.061137
_cell_angle_alpha 90.000000
_cell_angle_beta 76.255990
_cell_angle_gamma 90.000000
_cell_volume 2817.737819
_symmetry_space_group_name_H-M "C 2/M"
_symmetry_group_IT_number 12
_symmetry_cell_setting 'monoclinic'
loop_
_space_group_symop_operation_xyz
x,y,z
-x,y,-z
-x,-y,-z
x,-y,z
1/2+x,1/2+y,z
1/2-x,1/2+y,-z
1/2-x,1/2-y,-z
1/2+x,1/2-y,z
loop_
_atom_site_type_symbol
_atom_site_label
_atom_site_fract_x
_atom_site_fract_y
_atom_site_fract_z
Si Si1 0.906807 0.352130 0.130136
Si Si2 0.086020 0.066960 0.078577
Si Si3 0.863811 0.237486 0.298509
Si Si4 0.194535 0.565778 0.056760
Si Si5 0.857257 0.727171 0.627460
Si Si6 0.462250 0.888031 0.670630
Si Si7 0.964689 0.162857 0.678064
O O1 0.862151 0.288856 0.179619
O O2 0.941540 0.388765 0.260547
O O3 0.830527 0.390970 0.067581
O O4 0.000000 0.337379 0.000000
O O5 0.080880 0.106084 0.227944
O O6 0.072901 0.000000 0.134334
O O7 0.189580 0.075541 0.953867
O O8 0.000000 0.086090 0.000000
O O9 0.887091 0.267452 0.446459
O O10 0.756737 0.208053 0.323751
O O11 0.945964 0.187184 0.251410
O O12 0.175163 0.500000 0.008859
O O13 0.128290 0.575062 0.227841
O O14 0.924731 0.678276 0.675202
O O15 0.878731 0.788326 0.701459
O O16 0.500000 0.913523 0.500000
O O17 0.000000 0.145907 0.500000
#
# Coordination Sequence:
#
# PCOD8090481 Si02
#       7
#     8   8   8   8   8   8   8
#     4  10  20  36  58  84 120 158 191 242 297 359
#     4  10  23  44  63  84 122 162 201 252 298 343
#     4  10  19  33  56  86 122 158 191 235 297 355
#     4  10  24  43  61  85 118 161 203 246 304 360
#     4  10  19  34  57  86 123 155 187 244 300 347
#     4  11  20  38  62  87 121 152 197 251 306 351
#     4  10  20  37  61  91 121 156 200 241 293 358
#
# _framework density 19.874099000000001
#
# number of rings (size 3 to 8) (size 9 to 14) (size 15 to 20)
#    0.000    1.857    2.857    1.286    2.000    3.714 
#    0.000    2.143    0.000    3.429    0.000    0.000 
#    0.000    0.000    0.000    0.000    0.000    0.000 
#
# Total GULP energy -347137.029467 kJ/mol
# GULP energy per Si atom -12397.751052 kJ/mol
# Density = 1.982887 g / cm^3
# Si number density = 19.874099 Si / 1000 Ang^3
#
#
#
# Elastic Constant Matrix: (Units=GPa)
#
#
# Indices 1 2 3 4 5 6 
#
# 1 97.7626 32.8523 34.7986 0.0000 -0.4936 0.0000
# 2 32.8523 89.0733 40.9556 0.0000 -2.3610 0.0000
# 3 34.7986 40.9556 91.5629 0.0000 0.5181 0.0000
# 4 0.0000 0.0000 0.0000 26.1067 0.0000 -1.6069
# 5 -0.4936 -2.3610 0.5181 0.0000 23.9175 0.0000
# 6 0.0000 0.0000 0.0000 -1.6069 0.0000 23.0373
#
#
#
# Elastic Compliance Matrix: (Units=1/GPa)
#
#
# Indices 1 2 3 4 5 6 
#
# 1 0.012451 -0.003041 -0.003372 0.000000 0.000030 0.000000
# 2 -0.003041 0.014933 -0.005532 0.000000 0.001531 0.000000
# 3 -0.003372 -0.005532 0.014683 0.000000 -0.000934 0.000000
# 4 0.000000 0.000000 0.000000 0.038469 0.000000 0.002683
# 5 0.000030 0.001531 -0.000934 0.000000 0.041982 0.000000
# 6 0.000000 0.000000 0.000000 0.002683 0.000000 0.043595
#
#
# Mechanical properties :
#
#
# Convention : Reuss Voigt Hill
#
# Bulk Modulus (GPa) = 55.01738 55.06800 55.04269
# Shear Modulus (GPa) = 25.50205 25.93179 25.71692
#
# Velocity S-wave (km/s) = 3.58604 3.61612 3.60111
# Velocity P-wave (km/s) = 6.69995 6.72337 6.71167
#
# Compressibility (1/GPa) = 0.01817607
#
# Stress axis : x y z
#
# Youngs Moduli (GPa) = 80.31354 66.96765 68.10699
#
# Poissons Ratio (x) = 0.20365 0.22966
# Poissons Ratio (y) = 0.24424 0.37678
# Poissons Ratio (z) = 0.27082 0.37048
#
# Static dielectric constant tensor:
#      x y z
#    x 4.152070 0.000000 0.274760 
#    y 0.000000 3.436000 0.000000 
#    z 0.274760 0.000000 3.861570 
# 
# 
# High freq. dielectric constant tensor:
#      x y z
#    x 1.787750 0.000000 -0.005610 
#    y 0.000000 1.760320 0.000000 
#    z -0.005610 0.000000 1.764170 
# 
# From -- ./inp_files/65320.got.cif
#   From: 2010.06.25/outbox.cif.g09.slc.cpg/sg12_33_cif.got.tgz:65320.got - 2010.06.28 00:19:55.
