data_PCOD8090638
_publ_section_title
;
Structure prediction by ZEFSAII (Michael W. Deem and Ramdas Pophale) SiO2 
 PCOD8090638
Probable space group: C 2/M
;
_chemical_formula_sum "Si O2"
_cell_formula_units_Z 52
_cell_length_a 26.875068
_cell_length_b 12.198564
_cell_length_c 18.783092
_cell_angle_alpha 90.000000
_cell_angle_beta 26.718861
_cell_angle_gamma 90.000000
_cell_volume 2768.625945
_symmetry_space_group_name_H-M "C 2/M"
_symmetry_group_IT_number 12
_symmetry_cell_setting 'monoclinic'
loop_
_space_group_symop_operation_xyz
x,y,z
-x,y,-z
-x,-y,-z
x,-y,z
1/2+x,1/2+y,z
1/2-x,1/2+y,-z
1/2-x,1/2-y,-z
1/2+x,1/2-y,z
loop_
_atom_site_type_symbol
_atom_site_label
_atom_site_fract_x
_atom_site_fract_y
_atom_site_fract_z
Si Si1 0.439739 0.000000 0.693268
Si Si2 0.722841 0.870959 0.728413
Si Si3 0.560979 0.373949 0.630128
Si Si4 0.159148 0.500000 0.337654
Si Si5 0.500000 0.260704 0.000000
Si Si6 0.537877 0.626609 0.098324
Si Si7 0.739766 0.777245 0.193795
Si Si8 0.867241 0.271082 0.814524
O O1 0.403873 0.104907 0.785347
O O2 0.570546 0.000000 0.514072
O O3 0.384280 0.000000 0.687181
O O4 0.817359 0.836978 0.550774
O O5 0.607794 0.814441 0.855588
O O6 0.763276 0.830647 0.753963
O O7 0.703411 0.000000 0.755733
O O8 0.540888 0.500000 0.635520
O O9 0.556731 0.356042 0.720983
O O10 0.463066 0.310279 0.715599
O O11 0.225091 0.385919 0.262484
O O12 0.497258 0.337439 0.072724
O O13 0.575791 0.500000 0.047599
O O14 0.639313 0.703427 0.995496
O O15 0.646353 0.760142 0.253621
O O16 0.750000 0.250000 0.000000
#
# Coordination Sequence:
#
# PCOD8090638 Si02
#       8
#     4   8   8   4   4   8   8   8
#     4   9  20  30  48  76 108 147 191 222 271 305
#     4  10  22  40  57  83 113 151 188 228 279 341
#     4  10  22  37  59  83 117 151 187 229 275 332
#     4   9  16  32  52  75 104 143 184 236 268 311
#     4  10  22  38  64  84 104 143 185 242 294 338
#     4  10  19  36  59  88 109 140 185 239 289 335
#     4  10  19  33  58  81 114 151 187 228 271 325
#     4  11  21  34  54  83 119 154 190 223 271 328
#
# _framework density 18.781880000000001
#
# number of rings (size 3 to 8) (size 9 to 14) (size 15 to 20)
#    0.000    2.000    2.308    1.385    1.077    3.077 
#    0.000    1.538    1.692    0.000    0.000    0.000 
#    0.000    0.000    0.000    0.000    0.000    0.000 
#
# Total GULP energy -322319.723708 kJ/mol
# GULP energy per Si atom -12396.912450 kJ/mol
# Density = 1.873913 g / cm^3
# Si number density = 18.781880 Si / 1000 Ang^3
#
#
#
# Elastic Constant Matrix: (Units=GPa)
#
#
# Indices 1 2 3 4 5 6 
#
# 1 92.1647 32.9653 36.2449 0.0000 1.9404 0.0000
# 2 32.9653 71.3455 55.4683 -0.0001 6.4458 0.0000
# 3 36.2449 55.4683 141.3517 0.0000 1.8234 0.0000
# 4 0.0000 -0.0001 0.0000 30.5028 0.0000 -1.6234
# 5 1.9404 6.4458 1.8234 0.0000 22.5807 0.0000
# 6 0.0000 0.0000 0.0000 -1.6234 0.0000 26.0231
#
#
#
# Elastic Compliance Matrix: (Units=1/GPa)
#
#
# Indices 1 2 3 4 5 6 
#
# 1 0.013199 -0.005038 -0.001413 0.000000 0.000418 0.000000
# 2 -0.005038 0.022703 -0.007547 0.000000 -0.005438 0.000000
# 3 -0.001413 -0.007547 0.010380 0.000000 0.001438 0.000000
# 4 0.000000 0.000000 0.000000 0.032893 0.000000 0.002052
# 5 0.000418 -0.005438 0.001438 0.000000 0.045686 0.000000
# 6 0.000000 0.000000 0.000000 0.002052 0.000000 0.038555
#
#
# Mechanical properties :
#
#
# Convention : Reuss Voigt Hill
#
# Bulk Modulus (GPa) = 54.68620 61.57988 58.13304
# Shear Modulus (GPa) = 25.31556 27.83354 26.57455
#
# Velocity S-wave (km/s) = 3.67532 3.85377 3.76560
# Velocity P-wave (km/s) = 6.86952 7.25673 7.06578
#
# Compressibility (1/GPa) = 0.01828615
#
# Stress axis : x y z
#
# Youngs Moduli (GPa) = 75.76383 44.04733 96.34086
#
# Poissons Ratio (x) = 0.22191 0.13612
# Poissons Ratio (y) = 0.38169 0.72708
# Poissons Ratio (z) = 0.10704 0.33242
#
# Static dielectric constant tensor:
#      x y z
#    x 3.220900 0.000000 0.009390 
#    y 0.000000 3.546260 0.000000 
#    z 0.009390 0.000000 3.603960 
# 
# 
# High freq. dielectric constant tensor:
#      x y z
#    x 1.704190 0.000000 0.000050 
#    y 0.000000 1.734910 0.000000 
#    z 0.000050 0.000000 1.741430 
# 
# From -- ./inp_files/293122.got.cif
#   From: 2010.06.25/outbox.cif.g09.slc.cpg/sg12_147_cif.got.tgz:293122.got - 2010.06.28 00:19:55.
