data_PCOD8090753
_publ_section_title
;
Structure prediction by ZEFSAII (Michael W. Deem and Ramdas Pophale) SiO2 
 PCOD8090753
Probable space group: C 2/M
;
_chemical_formula_sum "Si O2"
_cell_formula_units_Z 64
_cell_length_a 9.059928
_cell_length_b 30.018126
_cell_length_c 16.995665
_cell_angle_alpha 90.000000
_cell_angle_beta 42.113367
_cell_angle_gamma 90.000000
_cell_volume 3099.629896
_symmetry_space_group_name_H-M "C 2/M"
_symmetry_group_IT_number 12
_symmetry_cell_setting 'monoclinic'
loop_
_space_group_symop_operation_xyz
x,y,z
-x,y,-z
-x,-y,-z
x,-y,z
1/2+x,1/2+y,z
1/2-x,1/2+y,-z
1/2-x,1/2-y,-z
1/2+x,1/2-y,z
loop_
_atom_site_type_symbol
_atom_site_label
_atom_site_fract_x
_atom_site_fract_y
_atom_site_fract_z
Si Si1 0.969568 0.450370 0.598335
Si Si2 0.242856 0.768656 0.870420
Si Si3 0.498083 0.366235 0.690503
Si Si4 0.726257 0.384768 0.446547
Si Si5 0.561379 0.845291 0.784117
Si Si6 0.533453 0.550811 0.197096
Si Si7 0.662530 0.390711 0.005506
Si Si8 0.984171 0.810057 0.174532
O O1 0.064603 0.500000 0.554808
O O2 0.721109 0.449411 0.726842
O O3 0.000000 0.427765 0.500000
O O4 0.112219 0.425885 0.606930
O O5 0.418304 0.800584 0.843508
O O6 0.329689 0.719679 0.856202
O O7 0.211724 0.781244 0.789682
O O8 0.000000 0.774495 0.000000
O O9 0.669830 0.361303 0.551490
O O10 0.267287 0.342186 0.761647
O O11 0.444204 0.417967 0.734115
O O12 0.615301 0.341359 0.717472
O O13 0.500000 0.403462 0.500000
O O14 0.846680 0.350609 0.340735
O O15 0.407140 0.886371 0.872525
O O16 0.614018 0.500000 0.182924
O O17 0.669258 0.571491 0.070386
O O18 0.592531 0.342678 0.067563
O O19 0.500000 0.405241 0.000000
#
# Coordination Sequence:
#
# PCOD8090753 Si02
#       8
#     8   8   8   8   8   8   8   8
#     4  10  19  33  60  89 116 154 206 258 301 360
#     4  12  23  38  62  97 127 156 202 254 304 375
#     4  10  23  40  61  90 123 164 209 258 306 367
#     4  10  22  39  61  87 121 163 209 258 312 362
#     4  11  22  40  60  88 122 166 205 253 309 366
#     4  10  22  39  63  92 126 164 206 256 308 368
#     4  11  21  39  61  91 127 159 202 250 309 373
#     4  11  23  37  61  93 125 155 196 252 311 358
#
# _framework density 20.647625999999999
#
# number of rings (size 3 to 8) (size 9 to 14) (size 15 to 20)
#    0.000    1.375    3.750    1.875    3.500    2.000 
#    0.000    4.375    0.000    0.000    0.000    0.000 
#    0.000    0.000    0.000    0.000    0.000    0.000 
#
# Total GULP energy -396650.625123 kJ/mol
# GULP energy per Si atom -12395.332035 kJ/mol
# Density = 2.060063 g / cm^3
# Si number density = 20.647626 Si / 1000 Ang^3
#
#
#
# Elastic Constant Matrix: (Units=GPa)
#
#
# Indices 1 2 3 4 5 6 
#
# 1 63.5132 23.7180 2.5036 0.0000 9.0202 0.0000
# 2 23.7180 88.6652 12.6045 0.0000 6.3372 0.0000
# 3 2.5036 12.6045 87.0025 0.0000 14.3176 0.0000
# 4 0.0000 0.0000 0.0000 12.5166 0.0000 -6.9082
# 5 9.0202 6.3372 14.3176 0.0000 35.7463 0.0000
# 6 0.0000 0.0000 0.0000 -6.9082 0.0000 31.1460
#
#
#
# Elastic Compliance Matrix: (Units=1/GPa)
#
#
# Indices 1 2 3 4 5 6 
#
# 1 0.018024 -0.004649 0.000822 0.000000 -0.004053 0.000000
# 2 -0.004649 0.012787 -0.001647 0.000000 -0.000434 0.000000
# 3 0.000822 -0.001647 0.012520 0.000000 -0.004930 0.000000
# 4 0.000000 0.000000 0.000000 0.091038 0.000000 0.020193
# 5 -0.004053 -0.000434 -0.004930 0.000000 0.031049 0.000000
# 6 0.000000 0.000000 0.000000 0.020193 0.000000 0.036586
#
#
# Mechanical properties :
#
#
# Convention : Reuss Voigt Hill
#
# Bulk Modulus (GPa) = 30.88025 35.20369 33.04197
# Shear Modulus (GPa) = 22.34664 29.23875 25.79270
#
# Velocity S-wave (km/s) = 3.29338 3.76717 3.53822
# Velocity P-wave (km/s) = 5.42680 6.00074 5.72097
#
# Compressibility (1/GPa) = 0.03238316
#
# Stress axis : x y z
#
# Youngs Moduli (GPa) = 55.48175 78.20392 79.87053
#
# Poissons Ratio (x) = 0.36354 -0.06564
# Poissons Ratio (y) = 0.25791 0.13157
# Poissons Ratio (z) = -0.04560 0.12883
#
# Static dielectric constant tensor:
#      x y z
#    x 3.914090 0.000000 0.125440 
#    y 0.000000 3.677640 0.000000 
#    z 0.125440 0.000000 3.737680 
# 
# 
# High freq. dielectric constant tensor:
#      x y z
#    x 1.811910 0.000000 0.008470 
#    y 0.000000 1.792570 0.000000 
#    z 0.008470 0.000000 1.800400 
# 
# From -- ./inp_files/260335.got.cif
#   From: 2010.06.25/outbox.cif.g09.slc.cpg/sg12_131_cif.got.tgz:260335.got - 2010.06.28 00:19:55.
