data_PCOD8090181
_publ_section_title
;
Structure prediction by ZEFSAII (Michael W. Deem and Ramdas Pophale) SiO2 
 PCOD8090181
Probable space group: C 2/M
;
_chemical_formula_sum "Si O2"
_cell_formula_units_Z 56
_cell_length_a 21.191737
_cell_length_b 14.186433
_cell_length_c 18.739088
_cell_angle_alpha 90.000000
_cell_angle_beta 26.854697
_cell_angle_gamma 90.000000
_cell_volume 2544.875898
_symmetry_space_group_name_H-M "C 2/M"
_symmetry_group_IT_number 12
_symmetry_cell_setting 'monoclinic'
loop_
_space_group_symop_operation_xyz
x,y,z
-x,y,-z
-x,-y,-z
x,-y,z
1/2+x,1/2+y,z
1/2-x,1/2+y,-z
1/2-x,1/2-y,-z
1/2+x,1/2-y,z
loop_
_atom_site_type_symbol
_atom_site_label
_atom_site_fract_x
_atom_site_fract_y
_atom_site_fract_z
Si Si1 0.718307 0.254001 0.776998
Si Si2 0.937719 0.104734 0.167472
Si Si3 0.250668 0.859422 0.508543
Si Si4 0.762810 0.390633 0.847186
Si Si5 0.260390 0.601069 0.638231
Si Si6 0.070197 0.608538 0.031196
Si Si7 0.068108 0.606276 0.191071
O O1 0.609470 0.316630 0.841067
O O2 0.809434 0.326887 0.732172
O O3 0.819662 0.192244 0.621789
O O4 0.642915 0.177020 0.902427
O O5 0.854265 0.107893 0.325128
O O6 0.918602 0.000000 0.153008
O O7 0.098184 0.123671 0.024551
O O8 0.250000 0.750000 0.500000
O O9 0.198372 0.901712 0.486338
O O10 0.404511 0.892873 0.374915
O O11 0.803437 0.500000 0.792353
O O12 0.842689 0.346741 0.835258
O O13 0.310124 0.500000 0.620248
O O14 0.094495 0.611856 0.814968
O O15 0.122566 0.500000 0.969102
O O16 0.099458 0.650184 0.081436
O O17 0.120822 0.500000 0.133257
#
# Coordination Sequence:
#
# PCOD8090181 Si02
#       7
#     8   8   8   8   8   8   8
#     4  12  21  33  54  85 119 153 193 237 286 343
#     4  11  22  37  58  85 118 154 192 239 288 339
#     4  11  21  38  61  87 112 148 195 240 287 344
#     4  10  22  38  58  86 119 154 191 235 291 344
#     4  10  19  33  55  83 112 145 189 241 289 336
#     4   9  18  32  54  83 113 145 187 239 290 337
#     4   9  20  40  61  85 116 150 192 242 289 338
#
# _framework density 22.005002000000001
#
# number of rings (size 3 to 8) (size 9 to 14) (size 15 to 20)
#    0.000    1.714    1.429    5.571    2.000    2.857 
#    0.000    0.714    0.000    2.571    0.000    1.000 
#    0.000    0.000    0.000    0.000    0.000    0.000 
#
# Total GULP energy -346973.468324 kJ/mol
# GULP energy per Si atom -12391.909583 kJ/mol
# Density = 2.195492 g / cm^3
# Si number density = 22.005002 Si / 1000 Ang^3
#
#
#
# Elastic Constant Matrix: (Units=GPa)
#
#
# Indices 1 2 3 4 5 6 
#
# 1 145.1702 52.4111 43.5860 -0.0006 26.3659 0.0006
# 2 52.4111 135.9174 20.7285 -0.0002 17.5431 0.0003
# 3 43.5860 20.7285 50.9187 -0.0004 20.8423 0.0006
# 4 -0.0006 -0.0002 -0.0004 21.0854 0.0003 14.2305
# 5 26.3659 17.5431 20.8423 0.0003 20.4604 -0.0003
# 6 0.0006 0.0003 0.0006 14.2305 -0.0003 33.4591
#
#
#
# Elastic Compliance Matrix: (Units=1/GPa)
#
#
# Indices 1 2 3 4 5 6 
#
# 1 0.010507 -0.002456 -0.005684 0.000000 -0.005643 0.000000
# 2 -0.002456 0.008866 0.000531 0.000000 -0.004977 0.000000
# 3 -0.005684 0.000531 0.036836 0.000002 -0.030654 -0.000002
# 4 0.000000 0.000000 0.000002 0.066520 -0.000004 -0.028292
# 5 -0.005643 -0.004977 -0.030654 -0.000004 0.091641 0.000003
# 6 0.000000 0.000000 -0.000002 -0.028292 0.000003 0.041920
#
#
# Mechanical properties :
#
#
# Convention : Reuss Voigt Hill
#
# Bulk Modulus (GPa) = 24.39634 62.82860 43.61247
# Shear Modulus (GPa) = 17.53326 29.35303 23.44314
#
# Velocity S-wave (km/s) = 2.82580 3.65626 3.26752
# Velocity P-wave (km/s) = 4.66451 6.81456 5.83934
#
# Compressibility (1/GPa) = 0.04098975
#
# Stress axis : x y z
#
# Youngs Moduli (GPa) = 95.17723 112.78957 27.14737
#
# Poissons Ratio (x) = 0.27704 0.15430
# Poissons Ratio (y) = 0.23378 -0.01440
# Poissons Ratio (z) = 0.54096 -0.05984
#
# Static dielectric constant tensor:
#      x y z
#    x 4.063960 0.000000 0.104430 
#    y 0.000000 4.563320 0.000000 
#    z 0.104430 0.000000 3.193200 
# 
# 
# High freq. dielectric constant tensor:
#      x y z
#    x 1.860340 0.000000 0.039240 
#    y 0.000000 1.889990 0.000000 
#    z 0.039240 0.000000 1.824730 
# 
# From -- ./inp_files/284532.got.cif
#   From: 2010.06.25/outbox.cif.g09.slc.cpg/sg12_143_cif.got.tgz:284532.got - 2010.06.28 00:19:55.
