data_PCOD8090525
_publ_section_title
;
Structure prediction by ZEFSAII (Michael W. Deem and Ramdas Pophale) SiO2 
 PCOD8090525
Probable space group: C 2/M
;
_chemical_formula_sum "Si O2"
_cell_formula_units_Z 64
_cell_length_a 11.603695
_cell_length_b 18.074327
_cell_length_c 21.192983
_cell_angle_alpha 90.000000
_cell_angle_beta 51.784593
_cell_angle_gamma 90.000000
_cell_volume 3492.223836
_symmetry_space_group_name_H-M "C 2/M"
_symmetry_group_IT_number 12
_symmetry_cell_setting 'monoclinic'
loop_
_space_group_symop_operation_xyz
x,y,z
-x,y,-z
-x,-y,-z
x,-y,z
1/2+x,1/2+y,z
1/2-x,1/2+y,-z
1/2-x,1/2-y,-z
1/2+x,1/2-y,z
loop_
_atom_site_type_symbol
_atom_site_label
_atom_site_fract_x
_atom_site_fract_y
_atom_site_fract_z
Si Si1 0.998046 0.144570 0.359275
Si Si2 0.083988 0.688558 0.342393
Si Si3 0.996824 0.915290 0.898589
Si Si4 0.763396 0.085104 0.076999
Si Si5 0.987094 0.662750 0.773713
Si Si6 0.771304 0.664540 0.476249
Si Si7 0.587901 0.326182 0.747681
Si Si8 0.239065 0.916561 0.360025
O O1 0.833839 0.122830 0.438839
O O2 0.995790 0.140651 0.284431
O O3 0.052275 0.225082 0.363579
O O4 0.108862 0.086732 0.352860
O O5 0.096816 0.669636 0.264232
O O6 0.236894 0.662638 0.321216
O O7 0.945566 0.644725 0.421322
O O8 0.124635 0.899644 0.904570
O O9 0.017965 0.865878 0.830618
O O10 0.999218 0.000000 0.875973
O O11 0.840940 0.896087 0.984172
O O12 0.624551 0.138482 0.133519
O O13 0.712259 0.000000 0.095437
O O14 0.061810 0.739618 0.766889
O O15 0.110984 0.600165 0.727487
O O16 0.750000 0.750000 0.500000
O O17 0.717100 0.643003 0.423942
O O18 0.244194 0.000000 0.385662
#
# Coordination Sequence:
#
# PCOD8090525 Si02
#       8
#     8   8   8   8   8   8   8   8
#     4  10  21  34  51  79 110 148 185 216 272 333
#     4   9  18  34  52  79 108 138 187 237 268 313
#     4   9  19  34  55  81 108 141 179 231 285 331
#     4   9  17  33  56  81 107 138 184 231 281 332
#     4  10  19  33  57  83 108 146 188 229 274 327
#     4   9  20  36  56  78 105 145 189 232 272 315
#     4  11  20  34  57  79 116 146 183 230 275 334
#     4  11  22  37  57  84 117 146 182 229 274 329
#
# _framework density 18.326430999999999
#
# number of rings (size 3 to 8) (size 9 to 14) (size 15 to 20)
#    0.000    2.250    2.500    2.250    0.000    2.500 
#    0.000    0.000    0.000    0.750    0.000    6.125 
#    0.000    0.000    0.000    0.000    0.000    0.000 
#
# Total GULP energy -396617.197990 kJ/mol
# GULP energy per Si atom -12394.287437 kJ/mol
# Density = 1.828472 g / cm^3
# Si number density = 18.326431 Si / 1000 Ang^3
#
#
#
# Elastic Constant Matrix: (Units=GPa)
#
#
# Indices 1 2 3 4 5 6 
#
# 1 80.8663 42.3947 42.6161 0.0000 -2.6312 0.0000
# 2 42.3947 67.7271 44.0117 0.0000 1.2205 0.0000
# 3 42.6161 44.0117 119.6092 0.0001 -8.9155 0.0000
# 4 0.0000 0.0000 0.0001 29.9298 0.0000 3.6183
# 5 -2.6312 1.2205 -8.9155 0.0000 27.2881 0.0000
# 6 0.0000 0.0000 0.0000 3.6183 0.0000 8.1776
#
#
#
# Elastic Compliance Matrix: (Units=1/GPa)
#
#
# Indices 1 2 3 4 5 6 
#
# 1 0.019338 -0.010139 -0.003061 0.000000 0.001318 0.000000
# 2 -0.010139 0.025013 -0.005891 0.000000 -0.004021 0.000000
# 3 -0.003061 -0.005891 0.011906 0.000000 0.003858 0.000000
# 4 0.000000 0.000000 0.000000 0.035300 0.000000 -0.015619
# 5 0.001318 -0.004021 0.003858 0.000000 0.038214 0.000000
# 6 0.000000 0.000000 0.000000 -0.015619 0.000000 0.129196
#
#
# Mechanical properties :
#
#
# Convention : Reuss Voigt Hill
#
# Bulk Modulus (GPa) = 55.32627 58.47197 56.89912
# Shear Modulus (GPa) = 16.49227 22.35777 19.42502
#
# Velocity S-wave (km/s) = 3.00312 3.49660 3.25921
# Velocity P-wave (km/s) = 6.50229 6.94814 6.72891
#
# Compressibility (1/GPa) = 0.01807460
#
# Stress axis : x y z
#
# Youngs Moduli (GPa) = 51.71268 39.97992 83.98950
#
# Poissons Ratio (x) = 0.40537 0.25707
# Poissons Ratio (y) = 0.52434 0.49476
# Poissons Ratio (z) = 0.15828 0.23551
#
# Static dielectric constant tensor:
#      x y z
#    x 3.260680 0.000000 -0.200940 
#    y 0.000000 3.162400 0.000000 
#    z -0.200940 0.000000 3.633160 
# 
# 
# High freq. dielectric constant tensor:
#      x y z
#    x 1.696080 0.000000 -0.013800 
#    y 0.000000 1.687760 0.000000 
#    z -0.013800 0.000000 1.717230 
# 
# From -- ./inp_files/263942.got.cif
#   From: 2010.06.25/outbox.cif.g09.slc.cpg/sg12_132_cif.got.tgz:263942.got - 2010.06.28 00:19:55.
