data_PCOD8090222
_publ_section_title
;
Structure prediction by ZEFSAII (Michael W. Deem and Ramdas Pophale) SiO2 
 PCOD8090222
Probable space group: C 2/M
;
_chemical_formula_sum "Si O2"
_cell_formula_units_Z 64
_cell_length_a 29.478986
_cell_length_b 8.911493
_cell_length_c 18.990813
_cell_angle_alpha 90.000000
_cell_angle_beta 40.787728
_cell_angle_gamma 90.000000
_cell_volume 3259.054365
_symmetry_space_group_name_H-M "C 2/M"
_symmetry_group_IT_number 12
_symmetry_cell_setting 'monoclinic'
loop_
_space_group_symop_operation_xyz
x,y,z
-x,y,-z
-x,-y,-z
x,-y,z
1/2+x,1/2+y,z
1/2-x,1/2+y,-z
1/2-x,1/2-y,-z
1/2+x,1/2-y,z
loop_
_atom_site_type_symbol
_atom_site_label
_atom_site_fract_x
_atom_site_fract_y
_atom_site_fract_z
Si Si1 0.328270 0.330102 0.832085
Si Si2 0.901621 0.825046 0.882372
Si Si3 0.816343 0.322049 0.384033
Si Si4 0.711861 0.674364 0.877442
Si Si5 0.077586 0.169096 0.405725
Si Si6 0.720832 0.329368 0.708417
Si Si7 0.942159 0.822547 0.317334
Si Si8 0.878322 0.331847 0.517671
O O1 0.301838 0.500000 0.873545
O O2 0.352714 0.256098 0.877563
O O3 0.266612 0.242155 0.867336
O O4 0.396815 0.323574 0.703895
O O5 0.980254 0.762629 0.791958
O O6 0.907267 0.000000 0.857796
O O7 0.865013 0.794988 0.000533
O O8 0.810038 0.500000 0.397592
O O9 0.750000 0.250000 0.500000
O O10 0.821849 0.273238 0.295625
O O11 0.888056 0.268223 0.333708
O O12 0.729441 0.500000 0.852114
O O13 0.714967 0.740698 0.794386
O O14 0.123545 0.279026 0.399328
O O15 0.000000 0.230805 0.500000
O O16 0.082383 0.000000 0.430026
O O17 0.691735 0.500000 0.742385
O O18 0.798888 0.327993 0.586346
O O19 0.925798 0.782383 0.417583
O O20 0.933890 0.000000 0.314442
O O21 0.908224 0.500000 0.475705
#
# Coordination Sequence:
#
# PCOD8090222 Si02
#       8
#     8   8   8   8   8   8   8   8
#     4  10  19  33  55  84 116 150 196 241 281 336
#     4   9  20  38  60  85 113 152 198 239 282 336
#     4  12  24  39  62  90 118 149 187 233 288 348
#     4  10  20  38  61  84 115 153 196 241 282 331
#     4  10  20  33  50  75 113 158 197 235 285 345
#     4  10  21  37  58  85 117 149 187 233 283 340
#     4  11  22  39  62  86 116 152 191 237 288 344
#     4  11  21  34  54  82 116 150 187 234 286 344
#
# _framework density 19.637599000000002
#
# number of rings (size 3 to 8) (size 9 to 14) (size 15 to 20)
#    0.000    1.625    2.500    3.000    0.000    3.250 
#    0.000    4.375    0.000    3.750    0.000    0.000 
#    0.000    0.000    0.000    0.000    0.000    0.000 
#
# Total GULP energy -396754.599252 kJ/mol
# GULP energy per Si atom -12398.581227 kJ/mol
# Density = 1.959290 g / cm^3
# Si number density = 19.637599 Si / 1000 Ang^3
#
#
#
# Elastic Constant Matrix: (Units=GPa)
#
#
# Indices 1 2 3 4 5 6 
#
# 1 110.9961 40.8878 45.7923 -0.0304 9.5612 0.0084
# 2 40.8878 77.5737 29.7176 -0.0541 3.6594 0.0287
# 3 45.7923 29.7176 109.6444 -0.0371 2.9476 0.0191
# 4 -0.0304 -0.0541 -0.0371 20.8769 0.0258 1.8115
# 5 9.5612 3.6594 2.9476 0.0258 23.1708 -0.0079
# 6 0.0084 0.0287 0.0191 1.8115 -0.0079 31.4424
#
#
#
# Elastic Compliance Matrix: (Units=1/GPa)
#
#
# Indices 1 2 3 4 5 6 
#
# 1 0.012824 -0.005089 -0.003869 0.000003 -0.003996 0.000002
# 2 -0.005089 0.016477 -0.002335 0.000033 -0.000205 -0.000014
# 3 -0.003869 -0.002335 0.011355 0.000008 0.000521 -0.000004
# 4 0.000003 0.000033 0.000008 0.048141 -0.000062 -0.002774
# 5 -0.003996 -0.000205 0.000521 -0.000062 0.044773 0.000016
# 6 0.000002 -0.000014 -0.000004 -0.002774 0.000016 0.031964
#
#
# Mechanical properties :
#
#
# Convention : Reuss Voigt Hill
#
# Bulk Modulus (GPa) = 55.33836 59.00105 57.16971
# Shear Modulus (GPa) = 25.75395 27.21911 26.48653
#
# Velocity S-wave (km/s) = 3.62534 3.72704 3.67654
# Velocity P-wave (km/s) = 6.76499 6.97361 6.87009
#
# Compressibility (1/GPa) = 0.01807065
#
# Stress axis : x y z
#
# Youngs Moduli (GPa) = 77.97623 60.68898 88.06429
#
# Poissons Ratio (x) = 0.30883 0.34075
# Poissons Ratio (y) = 0.39680 0.20565
# Poissons Ratio (z) = 0.30172 0.14172
#
# Static dielectric constant tensor:
#      x y z
#    x 3.629860 -0.000060 0.092910 
#    y -0.000060 3.436380 0.000150 
#    z 0.092910 0.000150 3.681890 
# 
# 
# High freq. dielectric constant tensor:
#      x y z
#    x 1.764250 0.000000 0.008500 
#    y 0.000000 1.746650 0.000000 
#    z 0.008500 0.000000 1.764790 
# 
# From -- ./inp_files/295516.got.cif
#   From: 2010.06.25/outbox.cif.g09.slc.cpg/sg12_148_cif.got.tgz:295516.got - 2010.06.28 00:19:55.
