data_PCOD8090623
_publ_section_title
;
Structure prediction by ZEFSAII (Michael W. Deem and Ramdas Pophale) SiO2 
 PCOD8090623
Probable space group: C 2/M
;
_chemical_formula_sum "Si O2"
_cell_formula_units_Z 64
_cell_length_a 22.559108
_cell_length_b 8.897063
_cell_length_c 22.506937
_cell_angle_alpha 90.000000
_cell_angle_beta 48.276781
_cell_angle_gamma 90.000000
_cell_volume 3371.617571
_symmetry_space_group_name_H-M "C 2/M"
_symmetry_group_IT_number 12
_symmetry_cell_setting 'monoclinic'
loop_
_space_group_symop_operation_xyz
x,y,z
-x,y,-z
-x,-y,-z
x,-y,z
1/2+x,1/2+y,z
1/2-x,1/2+y,-z
1/2-x,1/2-y,-z
1/2+x,1/2-y,z
loop_
_atom_site_type_symbol
_atom_site_label
_atom_site_fract_x
_atom_site_fract_y
_atom_site_fract_z
Si Si1 0.402573 0.171459 0.644927
Si Si2 0.552724 0.325085 0.597006
Si Si3 0.634312 0.325999 0.094132
Si Si4 0.289103 0.824725 0.063134
Si Si5 0.669143 0.174364 0.433099
Si Si6 0.538450 0.674484 0.743710
Si Si7 0.321693 0.822884 0.282493
Si Si8 0.228868 0.824782 0.802270
O O1 0.469579 0.283536 0.622319
O O2 0.387827 0.201828 0.585227
O O3 0.322781 0.206618 0.734692
O O4 0.430622 0.000000 0.636218
O O5 0.567600 0.500000 0.576500
O O6 0.625426 0.233700 0.520581
O O7 0.550441 0.282621 0.667355
O O8 0.640672 0.500000 0.071771
O O9 0.702134 0.283893 0.096314
O O10 0.551387 0.285476 0.179441
O O11 0.644382 0.227434 0.028132
O O12 0.303597 0.735535 0.114019
O O13 0.298749 0.000000 0.069535
O O14 0.752042 0.259388 0.370546
O O15 0.689503 0.000000 0.426985
O O16 0.557515 0.500000 0.742709
O O17 0.594356 0.777271 0.746188
O O18 0.317733 0.758350 0.218888
O O19 0.313704 0.000000 0.284904
O O20 0.210393 0.000000 0.808340
#
# Coordination Sequence:
#
# PCOD8090623 Si02
#       8
#     8   8   8   8   8   8   8   8
#     4   9  19  34  53  79 111 145 179 219 269 325
#     4  11  22  34  54  83 111 142 181 227 275 323
#     4   9  19  36  57  82 115 152 182 216 269 326
#     4  10  19  33  57  89 119 144 178 224 268 317
#     4  10  21  38  57  78 109 147 183 222 272 328
#     4  10  22  40  57  76 108 147 185 223 270 327
#     4  11  23  39  59  81 105 138 184 234 277 317
#     4  10  20  36  58  82 111 148 184 219 269 330
#
# _framework density 18.981987
#
# number of rings (size 3 to 8) (size 9 to 14) (size 15 to 20)
#    0.000    2.000    0.000    4.500    0.000    8.000 
#    0.000    0.625    0.000    3.750    0.000    0.000 
#    0.000    0.000    0.000    0.000    0.000    0.000 
#
# Total GULP energy -396979.489117 kJ/mol
# GULP energy per Si atom -12405.609035 kJ/mol
# Density = 1.893878 g / cm^3
# Si number density = 18.981987 Si / 1000 Ang^3
#
#
#
# Elastic Constant Matrix: (Units=GPa)
#
#
# Indices 1 2 3 4 5 6 
#
# 1 77.4243 45.0157 46.0656 -0.0011 4.2156 0.0016
# 2 45.0157 107.8148 57.4538 -0.0024 7.3937 0.0032
# 3 46.0656 57.4538 122.8528 -0.0010 22.6708 0.0017
# 4 -0.0011 -0.0024 -0.0010 34.7832 0.0008 1.1050
# 5 4.2156 7.3937 22.6708 0.0008 11.5735 -0.0013
# 6 0.0016 0.0032 0.0017 1.1050 -0.0013 32.5837
#
#
#
# Elastic Compliance Matrix: (Units=1/GPa)
#
#
# Indices 1 2 3 4 5 6 
#
# 1 0.019307 -0.005245 -0.006432 0.000000 0.008918 0.000000
# 2 -0.005245 0.013995 -0.005138 0.000001 0.003035 -0.000001
# 3 -0.006432 -0.005138 0.018663 0.000001 -0.030932 -0.000001
# 4 0.000000 0.000001 0.000001 0.028781 -0.000004 -0.000976
# 5 0.008918 0.003035 -0.030932 -0.000004 0.141808 0.000007
# 6 0.000000 -0.000001 -0.000001 -0.000976 0.000007 0.030723
#
#
# Mechanical properties :
#
#
# Convention : Reuss Voigt Hill
#
# Bulk Modulus (GPa) = 54.54483 67.24023 60.89253
# Shear Modulus (GPa) = 17.06373 26.42521 21.74447
#
# Velocity S-wave (km/s) = 3.00149 3.73516 3.38824
# Velocity P-wave (km/s) = 6.38822 7.35540 6.88881
#
# Compressibility (1/GPa) = 0.01833354
#
# Stress axis : x y z
#
# Youngs Moduli (GPa) = 51.79517 71.45299 53.58249
#
# Poissons Ratio (x) = 0.37477 0.34465
# Poissons Ratio (y) = 0.27167 0.27533
# Poissons Ratio (z) = 0.33316 0.36716
#
# Static dielectric constant tensor:
#      x y z
#    x 3.320010 0.000000 0.051960 
#    y 0.000000 3.475170 0.000000 
#    z 0.051960 0.000000 3.559530 
# 
# 
# High freq. dielectric constant tensor:
#      x y z
#    x 1.725720 0.000000 0.004730 
#    y 0.000000 1.744700 0.000000 
#    z 0.004730 0.000000 1.744380 
# 
# From -- ./inp_files/324165.got.cif
#   From: 2010.06.25/outbox.cif.g09.slc.cpg/sg12_163_cif.got.tgz:324165.got - 2010.06.28 00:19:55.
