data_PCOD8090438
_publ_section_title
;
Structure prediction by ZEFSAII (Michael W. Deem and Ramdas Pophale) SiO2 
 PCOD8090438
Probable space group: C 2/M
;
_chemical_formula_sum "Si O2"
_cell_formula_units_Z 64
_cell_length_a 19.222867
_cell_length_b 18.409208
_cell_length_c 22.144533
_cell_angle_alpha 90.000000
_cell_angle_beta 24.078972
_cell_angle_gamma 90.000000
_cell_volume 3197.238803
_symmetry_space_group_name_H-M "C 2/M"
_symmetry_group_IT_number 12
_symmetry_cell_setting 'monoclinic'
loop_
_space_group_symop_operation_xyz
x,y,z
-x,y,-z
-x,-y,-z
x,-y,z
1/2+x,1/2+y,z
1/2-x,1/2+y,-z
1/2-x,1/2-y,-z
1/2+x,1/2-y,z
loop_
_atom_site_type_symbol
_atom_site_label
_atom_site_fract_x
_atom_site_fract_y
_atom_site_fract_z
Si Si1 0.328493 0.083346 0.606899
Si Si2 0.790981 0.703682 0.266451
Si Si3 0.473724 0.348208 0.092341
Si Si4 0.690709 0.084506 0.124945
Si Si5 0.829318 0.919261 0.481684
Si Si6 0.096411 0.651022 0.573839
Si Si7 0.498627 0.297816 0.597782
Si Si8 0.964062 0.579160 0.193009
O O1 0.500000 0.115511 0.500000
O O2 0.306623 0.128206 0.563539
O O3 0.172870 0.093421 0.776340
O O4 0.350376 0.000000 0.572672
O O5 0.685998 0.701367 0.287198
O O6 0.656334 0.710921 0.427023
O O7 0.919289 0.635468 0.174851
O O8 0.916427 0.771419 0.163911
O O9 0.500000 0.347770 0.000000
O O10 0.642212 0.368582 0.995588
O O11 0.557999 0.097994 0.284686
O O12 0.611104 0.107415 0.122850
O O13 0.738085 0.000000 0.087545
O O14 0.744672 0.859500 0.505027
O O15 0.995968 0.876325 0.373215
O O16 0.706992 0.933566 0.634297
O O17 0.873813 0.000000 0.418537
O O18 0.018251 0.732080 0.630329
O O19 0.016725 0.500000 0.123949
#
# Coordination Sequence:
#
# PCOD8090438 Si02
#       8
#     8   8   8   8   8   8   8   8
#     4  11  22  35  54  79 111 150 188 226 275 331
#     4  10  20  35  56  83 112 148 189 236 280 335
#     4  12  24  37  55  80 113 151 188 235 277 333
#     4  10  21  37  58  83 114 149 189 231 276 335
#     4   9  18  32  54  87 119 147 184 232 281 336
#     4  11  19  35  58  83 116 151 184 226 284 332
#     4  10  19  33  56  84 116 149 188 230 283 334
#     4   8  17  35  58  83 111 146 187 232 285 337
#
# _framework density 20.017271999999998
#
# number of rings (size 3 to 8) (size 9 to 14) (size 15 to 20)
#    0.000    1.875    1.250    4.875    0.000    3.000 
#    0.000    2.500    2.750    0.375    0.000    0.000 
#    0.000    0.000    0.000    0.000    0.000    0.000 
#
# Total GULP energy -396562.326489 kJ/mol
# GULP energy per Si atom -12392.572703 kJ/mol
# Density = 1.997171 g / cm^3
# Si number density = 20.017272 Si / 1000 Ang^3
#
#
#
# Elastic Constant Matrix: (Units=GPa)
#
#
# Indices 1 2 3 4 5 6 
#
# 1 97.9152 79.1418 29.0731 0.0081 -25.8553 -0.0144
# 2 79.1418 131.0573 24.1089 -0.0688 -25.8365 -0.0202
# 3 29.0731 24.1089 69.0034 -0.1139 -12.7750 -0.0752
# 4 0.0081 -0.0688 -0.1139 17.6353 -0.0142 -5.1523
# 5 -25.8553 -25.8365 -12.7750 -0.0142 28.1033 0.0352
# 6 -0.0144 -0.0202 -0.0752 -5.1523 0.0352 36.1388
#
#
#
# Elastic Compliance Matrix: (Units=1/GPa)
#
#
# Indices 1 2 3 4 5 6 
#
# 1 0.022927 -0.011363 -0.004060 -0.000082 0.008801 -0.000026
# 2 -0.011363 0.015166 0.000147 0.000071 0.003556 0.000011
# 3 -0.004060 0.000147 0.016908 0.000129 0.004086 0.000048
# 4 -0.000082 0.000071 0.000129 0.059170 0.000068 0.008436
# 5 0.008801 0.003556 0.004086 0.000068 0.048806 -0.000024
# 6 -0.000026 0.000011 0.000048 0.008436 -0.000024 0.028874
#
#
# Mechanical properties :
#
#
# Convention : Reuss Voigt Hill
#
# Bulk Modulus (GPa) = 40.90286 62.51371 51.70829
# Shear Modulus (GPa) = 21.68703 27.41896 24.55300
#
# Velocity S-wave (km/s) = 3.29510 3.70505 3.50607
# Velocity P-wave (km/s) = 5.91228 7.04279 6.50215
#
# Compressibility (1/GPa) = 0.02444817
#
# Stress axis : x y z
#
# Youngs Moduli (GPa) = 43.61716 65.93728 59.14333
#
# Poissons Ratio (x) = 0.74924 0.24015
# Poissons Ratio (y) = 0.49562 -0.00870
# Poissons Ratio (z) = 0.17711 -0.00970
#
# Static dielectric constant tensor:
#      x y z
#    x 3.762030 -0.000130 -0.132150 
#    y -0.000130 4.045400 0.000290 
#    z -0.132150 0.000290 3.380720 
# 
# 
# High freq. dielectric constant tensor:
#      x y z
#    x 1.778840 0.000000 -0.017480 
#    y 0.000000 1.791360 0.000020 
#    z -0.017480 0.000020 1.746680 
# 
# From -- ./inp_files/347876.got.cif
#   From: 2010.06.25/outbox.cif.g09.slc.cpg/sg12_174_cif.got.tgz:347876.got - 2010.06.28 00:19:55.
