data_PCOD8090206
_publ_section_title
;
Structure prediction by ZEFSAII (Michael W. Deem and Ramdas Pophale) SiO2 
 PCOD8090206
Probable space group: C 2/M
;
_chemical_formula_sum "Si O2"
_cell_formula_units_Z 64
_cell_length_a 18.781862
_cell_length_b 8.740028
_cell_length_c 21.192431
_cell_angle_alpha 90.000000
_cell_angle_beta 74.003478
_cell_angle_gamma 90.000000
_cell_volume 3344.116838
_symmetry_space_group_name_H-M "C 2/M"
_symmetry_group_IT_number 12
_symmetry_cell_setting 'monoclinic'
loop_
_space_group_symop_operation_xyz
x,y,z
-x,y,-z
-x,-y,-z
x,-y,z
1/2+x,1/2+y,z
1/2-x,1/2+y,-z
1/2-x,1/2-y,-z
1/2+x,1/2-y,z
loop_
_atom_site_type_symbol
_atom_site_label
_atom_site_fract_x
_atom_site_fract_y
_atom_site_fract_z
Si Si1 0.935441 0.676777 0.325906
Si Si2 0.676895 0.322202 0.987007
Si Si3 0.044666 0.319904 0.093802
Si Si4 0.884790 0.177595 0.130378
Si Si5 0.433831 0.321394 0.779423
Si Si6 0.852301 0.321164 0.689862
Si Si7 0.517235 0.822092 0.428220
Si Si8 0.316693 0.677587 0.279694
O O1 0.951821 0.500000 0.306204
O O2 0.852801 0.723596 0.327075
O O3 0.987801 0.783053 0.271095
O O4 0.949098 0.708497 0.396815
O O5 0.679019 0.500000 0.003158
O O6 0.600508 0.252308 0.030221
O O7 0.750000 0.250000 0.000000
O O8 0.673707 0.294060 0.912142
O O9 0.048104 0.500000 0.085785
O O10 0.074127 0.271810 0.154708
O O11 0.960913 0.267602 0.101020
O O12 0.845113 0.233472 0.204310
O O13 0.906107 0.000000 0.129843
O O14 0.429422 0.500000 0.795450
O O15 0.367223 0.270681 0.750372
O O16 0.867880 0.500000 0.699237
O O17 0.906946 0.258587 0.621531
O O18 0.769317 0.288407 0.690098
O O19 0.500000 0.741463 0.500000
O O20 0.529233 0.000000 0.437727
O O21 0.334601 0.500000 0.285004
#
# Coordination Sequence:
#
# PCOD8090206 Si02
#       8
#     8   8   8   8   8   8   8   8
#     4  10  19  33  55  84 112 145 189 232 273 330
#     4  11  25  43  61  85 116 150 190 237 289 345
#     4  12  24  39  61  85 112 147 191 236 281 341
#     4  10  22  40  60  82 111 150 188 230 287 345
#     4  11  21  35  56  83 112 145 184 232 286 337
#     4   9  19  34  55  83 114 149 191 232 279 336
#     4   8  15  31  55  81 112 152 194 231 271 327
#     4  10  20  35  56  82 115 149 183 231 288 335
#
# _framework density 19.138086999999999
#
# number of rings (size 3 to 8) (size 9 to 14) (size 15 to 20)
#    0.000    1.875    1.250    4.125    1.750    3.000 
#    0.000    0.625    0.000    9.375    0.000    0.000 
#    0.000    0.000    0.000    0.000    0.000    0.000 
#
# Total GULP energy -396784.723702 kJ/mol
# GULP energy per Si atom -12399.522616 kJ/mol
# Density = 1.909453 g / cm^3
# Si number density = 19.138087 Si / 1000 Ang^3
#
#
#
# Elastic Constant Matrix: (Units=GPa)
#
#
# Indices 1 2 3 4 5 6 
#
# 1 129.2306 46.2175 57.3208 0.0000 10.4955 0.0000
# 2 46.2175 76.7745 33.5208 0.0000 7.8069 -0.0001
# 3 57.3208 33.5208 114.7639 0.0000 13.0294 0.0000
# 4 0.0000 0.0000 0.0000 16.3801 0.0000 5.9861
# 5 10.4955 7.8069 13.0294 0.0000 22.7292 0.0000
# 6 0.0000 -0.0001 0.0000 5.9861 0.0000 33.3917
#
#
#
# Elastic Compliance Matrix: (Units=1/GPa)
#
#
# Indices 1 2 3 4 5 6 
#
# 1 0.011442 -0.004963 -0.004128 0.000000 -0.001213 0.000000
# 2 -0.004963 0.017251 -0.002297 0.000000 -0.002317 0.000000
# 3 -0.004128 -0.002297 0.011916 0.000000 -0.004136 0.000000
# 4 0.000000 0.000000 0.000000 0.065330 0.000000 -0.011712
# 5 -0.001213 -0.002317 -0.004136 0.000000 0.047723 0.000000
# 6 0.000000 0.000000 0.000000 -0.011712 0.000000 0.032047
#
#
# Mechanical properties :
#
#
# Convention : Reuss Voigt Hill
#
# Bulk Modulus (GPa) = 56.07232 66.09860 61.08546
# Shear Modulus (GPa) = 23.31778 26.74753 25.03265
#
# Velocity S-wave (km/s) = 3.49434 3.74251 3.62055
# Velocity P-wave (km/s) = 6.75596 7.29986 7.03317
#
# Compressibility (1/GPa) = 0.01783411
#
# Stress axis : x y z
#
# Youngs Moduli (GPa) = 87.39471 57.96726 83.92245
#
# Poissons Ratio (x) = 0.28767 0.34642
# Poissons Ratio (y) = 0.43370 0.19278
# Poissons Ratio (z) = 0.36076 0.13316
#
# Static dielectric constant tensor:
#      x y z
#    x 3.494930 0.000000 0.087230 
#    y 0.000000 3.406320 0.000000 
#    z 0.087230 0.000000 3.895960 
# 
# 
# High freq. dielectric constant tensor:
#      x y z
#    x 1.745710 0.000000 0.012300 
#    y 0.000000 1.733190 0.000000 
#    z 0.012300 0.000000 1.741480 
# 
# From -- ./inp_files/314176.got.cif
#   From: 2010.06.25/outbox.cif.g09.slc.cpg/sg12_158_cif.got.tgz:314176.got - 2010.06.28 00:19:55.
