data_PCOD8090187
_publ_section_title
;
Structure prediction by ZEFSAII (Michael W. Deem and Ramdas Pophale) SiO2 
 PCOD8090187
Probable space group: C 2/M
;
_chemical_formula_sum "Si O2"
_cell_formula_units_Z 64
_cell_length_a 32.516561
_cell_length_b 8.957668
_cell_length_c 20.579482
_cell_angle_alpha 90.000000
_cell_angle_beta 143.888285
_cell_angle_gamma 90.000000
_cell_volume 3532.773618
_symmetry_space_group_name_H-M "C 2/M"
_symmetry_group_IT_number 12
_symmetry_cell_setting 'monoclinic'
loop_
_space_group_symop_operation_xyz
x,y,z
-x,y,-z
-x,-y,-z
x,-y,z
1/2+x,1/2+y,z
1/2-x,1/2+y,-z
1/2-x,1/2-y,-z
1/2+x,1/2-y,z
loop_
_atom_site_type_symbol
_atom_site_label
_atom_site_fract_x
_atom_site_fract_y
_atom_site_fract_z
Si Si1 0.789385 0.825664 0.609740
Si Si2 0.938070 0.828624 0.746253
Si Si3 0.725708 0.677584 0.653357
Si Si4 0.713437 0.323017 0.141420
Si Si5 0.563161 0.826243 0.752984
Si Si6 0.423248 0.175495 0.080718
Si Si7 0.075342 0.826598 0.418992
Si Si8 0.709211 0.825226 0.889996
O O1 0.750000 0.750000 0.500000
O O2 0.872325 0.802415 0.708751
O O3 0.769452 0.748680 0.651196
O O4 0.769861 0.000000 0.585626
O O5 0.915631 0.782387 0.644828
O O6 0.001481 0.724408 0.851370
O O7 0.963120 0.000000 0.779875
O O8 0.733978 0.500000 0.660404
O O9 0.753713 0.740454 0.755961
O O10 0.644837 0.726605 0.544589
O O11 0.713702 0.500000 0.152601
O O12 0.759925 0.273779 0.139207
O O13 0.634903 0.266365 0.032429
O O14 0.581092 0.776297 0.849379
O O15 0.492838 0.749894 0.636995
O O16 0.627607 0.779367 0.789186
O O17 0.548570 0.000000 0.732514
O O18 0.411810 0.000000 0.055861
O O19 0.063946 0.000000 0.413387
O O20 0.717902 0.000000 0.911597
O O21 0.750000 0.750000 0.000000
#
# Coordination Sequence:
#
# PCOD8090187 Si02
#       8
#     8   8   8   8   8   8   8   8
#     4  11  21  36  59  87 116 147 188 234 279 330
#     4   9  18  34  55  82 114 144 180 229 277 328
#     4  11  23  40  58  81 115 152 189 234 280 334
#     4  11  23  38  57  82 113 153 189 227 282 342
#     4   9  18  32  53  83 112 140 181 231 278 325
#     4  10  19  33  55  83 113 146 184 229 278 331
#     4   9  18  34  54  79 110 146 184 223 276 330
#     4  10  20  35  56  83 113 143 186 233 278 329
#
# _framework density 18.116076
#
# number of rings (size 3 to 8) (size 9 to 14) (size 15 to 20)
#    0.000    2.000    2.500    1.500    0.000    3.500 
#    0.000    1.250    0.000    7.500    0.000    0.000 
#    0.000    0.000    0.000    0.000    0.000    0.000 
#
# Total GULP energy -396856.102804 kJ/mol
# GULP energy per Si atom -12401.753213 kJ/mol
# Density = 1.807484 g / cm^3
# Si number density = 18.116076 Si / 1000 Ang^3
#
#
#
# Elastic Constant Matrix: (Units=GPa)
#
#
# Indices 1 2 3 4 5 6 
#
# 1 116.0833 51.5956 72.5947 0.0000 7.2767 0.0000
# 2 51.5956 70.7437 51.9397 0.0000 6.0349 0.0000
# 3 72.5947 51.9397 129.6967 0.0000 13.9460 0.0000
# 4 0.0000 0.0000 0.0000 34.9363 0.0000 3.9424
# 5 7.2767 6.0349 13.9460 0.0000 28.3866 0.0000
# 6 0.0000 0.0000 0.0000 3.9424 0.0000 27.4051
#
#
#
# Elastic Compliance Matrix: (Units=1/GPa)
#
#
# Indices 1 2 3 4 5 6 
#
# 1 0.015320 -0.006913 -0.005852 0.000000 0.000417 0.000000
# 2 -0.006913 0.023145 -0.005343 0.000000 -0.000523 0.000000
# 3 -0.005852 -0.005343 0.013558 0.000000 -0.004025 0.000000
# 4 0.000000 0.000000 0.000000 0.029096 0.000000 -0.004186
# 5 0.000417 -0.000523 -0.004025 0.000000 0.037210 0.000000
# 6 0.000000 0.000000 0.000000 -0.004186 0.000000 0.037092
#
#
# Mechanical properties :
#
#
# Convention : Reuss Voigt Hill
#
# Bulk Modulus (GPa) = 63.25953 74.30931 68.78442
# Shear Modulus (GPa) = 25.39285 27.50519 26.44902
#
# Velocity S-wave (km/s) = 3.74796 3.90073 3.82511
# Velocity P-wave (km/s) = 7.32969 7.83550 7.58681
#
# Compressibility (1/GPa) = 0.01580789
#
# Stress axis : x y z
#
# Youngs Moduli (GPa) = 65.27250 43.20585 73.75604
#
# Poissons Ratio (x) = 0.29868 0.43159
# Poissons Ratio (y) = 0.45123 0.39410
# Poissons Ratio (z) = 0.38195 0.23086
#
# Static dielectric constant tensor:
#      x y z
#    x 3.649910 0.000000 0.200110 
#    y 0.000000 3.377960 0.000000 
#    z 0.200110 0.000000 3.377510 
# 
# 
# High freq. dielectric constant tensor:
#      x y z
#    x 1.697770 0.000000 0.022430 
#    y 0.000000 1.707750 0.000000 
#    z 0.022430 0.000000 1.693940 
# 
# From -- ./inp_files/295710.got.cif
#   From: 2010.06.25/outbox.cif.g09.slc.cpg/sg12_148_cif.got.tgz:295710.got - 2010.06.28 00:19:55.
