data_PCOD8090441
_publ_section_title
;
Structure prediction by ZEFSAII (Michael W. Deem and Ramdas Pophale) SiO2 
 PCOD8090441
Probable space group: C 2/M
;
_chemical_formula_sum "Si O2"
_cell_formula_units_Z 48
_cell_length_a 13.084753
_cell_length_b 13.567223
_cell_length_c 14.133924
_cell_angle_alpha 90.000000
_cell_angle_beta 107.147073
_cell_angle_gamma 90.000000
_cell_volume 2397.580334
_symmetry_space_group_name_H-M "C 2/M"
_symmetry_group_IT_number 12
_symmetry_cell_setting 'monoclinic'
loop_
_space_group_symop_operation_xyz
x,y,z
-x,y,-z
-x,-y,-z
x,-y,z
1/2+x,1/2+y,z
1/2-x,1/2+y,-z
1/2-x,1/2-y,-z
1/2+x,1/2-y,z
loop_
_atom_site_type_symbol
_atom_site_label
_atom_site_fract_x
_atom_site_fract_y
_atom_site_fract_z
Si Si1 0.847609 0.788503 0.297591
Si Si2 0.656663 0.883403 0.929334
Si Si3 0.671945 0.747360 0.106697
Si Si4 0.119561 0.612684 0.563506
Si Si5 0.477818 0.772167 0.774257
Si Si6 0.798205 0.612009 0.613852
O O1 0.759861 0.804070 0.192757
O O2 0.843031 0.677430 0.337958
O O3 0.962918 0.806751 0.279105
O O4 0.820151 0.863245 0.376355
O O5 0.774976 0.849430 0.926166
O O6 0.566133 0.853458 0.828768
O O7 0.656059 0.000000 0.946255
O O8 0.630363 0.826307 0.019129
O O9 0.571981 0.717642 0.147177
O O10 0.123495 0.500000 0.598824
O O11 0.200230 0.631971 0.497995
O O12 0.000000 0.642229 0.500000
O O13 0.385186 0.821832 0.689221
O O14 0.828353 0.500000 0.643029
#
# Coordination Sequence:
#
# PCOD8090441 Si02
#       6
#     8   8   8   8   8   8
#     4  10  20  34  54  79 112 146 175 219 275 318
#     4  10  20  36  58  80 107 143 181 223 270 317
#     4   9  21  35  51  82 113 137 178 226 267 320
#     4  10  19  33  56  85 109 136 181 227 266 316
#     4  10  19  34  56  82 111 142 179 224 268 315
#     4  10  20  34  54  83 113 143 181 222 264 316
#
# _framework density 20.020184
#
# number of rings (size 3 to 8) (size 9 to 14) (size 15 to 20)
#    0.000    2.167    1.667    1.500    0.000    6.667 
#    0.000    0.833    0.000   14.500    0.000    0.000 
#    0.000    0.000    0.000    0.000    0.000    0.000 
#
# Total GULP energy -297459.500293 kJ/mol
# GULP energy per Si atom -12394.145846 kJ/mol
# Density = 1.997462 g / cm^3
# Si number density = 20.020184 Si / 1000 Ang^3
#
#
#
# Elastic Constant Matrix: (Units=GPa)
#
#
# Indices 1 2 3 4 5 6 
#
# 1 121.9613 14.4972 25.5409 0.0000 -45.2245 0.0000
# 2 14.4972 21.0640 8.5350 0.0000 -0.8357 0.0000
# 3 25.5409 8.5350 66.0638 0.0000 -18.5536 0.0000
# 4 0.0000 0.0000 0.0000 20.1538 0.0000 0.8368
# 5 -45.2245 -0.8357 -18.5536 0.0000 42.8983 0.0000
# 6 0.0000 0.0000 0.0000 0.8368 0.0000 19.8129
#
#
#
# Elastic Compliance Matrix: (Units=1/GPa)
#
#
# Indices 1 2 3 4 5 6 
#
# 1 0.015275 -0.009807 -0.000193 0.000000 0.015829 0.000000
# 2 -0.009807 0.056556 -0.006954 0.000000 -0.012244 0.000000
# 3 -0.000193 -0.006954 0.018229 0.000000 0.007545 0.000000
# 4 0.000000 0.000000 0.000000 0.049706 0.000000 -0.002099
# 5 0.015829 -0.012244 0.007545 0.000000 0.043023 0.000000
# 6 0.000000 0.000000 0.000000 -0.002099 0.000000 0.050561
#
#
# Mechanical properties :
#
#
# Convention : Reuss Voigt Hill
#
# Bulk Modulus (GPa) = 17.80879 34.02615 25.91747
# Shear Modulus (GPa) = 17.48412 27.27403 22.37908
#
# Velocity S-wave (km/s) = 2.95841 3.69497 3.34702
# Velocity P-wave (km/s) = 4.53700 5.93604 5.28304
#
# Compressibility (1/GPa) = 0.05615206
#
# Stress axis : x y z
#
# Youngs Moduli (GPa) = 65.46709 17.68165 54.85781
#
# Poissons Ratio (x) = 0.17340 0.01059
# Poissons Ratio (y) = 0.64201 0.38148
# Poissons Ratio (z) = 0.01264 0.12296
#
# Static dielectric constant tensor:
#      x y z
#    x 4.143310 0.000000 -0.502470 
#    y 0.000000 3.295950 0.000000 
#    z -0.502470 0.000000 3.802850 
# 
# 
# High freq. dielectric constant tensor:
#      x y z
#    x 1.787660 0.000000 -0.026920 
#    y 0.000000 1.734380 0.000000 
#    z -0.026920 0.000000 1.794350 
# 
# From -- ./inp_files/204305.got.cif
#   From: 2010.06.25/outbox.cif.g09.slc.cpg/sg12_103_cif.got.tgz:204305.got - 2010.06.28 00:19:55.
