data_PCOD8090217
_publ_section_title
;
Structure prediction by ZEFSAII (Michael W. Deem and Ramdas Pophale) SiO2 
 PCOD8090217
Probable space group: C 2/M
;
_chemical_formula_sum "Si O2"
_cell_formula_units_Z 56
_cell_length_a 26.749560
_cell_length_b 9.307416
_cell_length_c 11.820510
_cell_angle_alpha 90.000000
_cell_angle_beta 75.964153
_cell_angle_gamma 90.000000
_cell_volume 2855.079888
_symmetry_space_group_name_H-M "C 2/M"
_symmetry_group_IT_number 12
_symmetry_cell_setting 'monoclinic'
loop_
_space_group_symop_operation_xyz
x,y,z
-x,y,-z
-x,-y,-z
x,-y,z
1/2+x,1/2+y,z
1/2-x,1/2+y,-z
1/2-x,1/2-y,-z
1/2+x,1/2-y,z
loop_
_atom_site_type_symbol
_atom_site_label
_atom_site_fract_x
_atom_site_fract_y
_atom_site_fract_z
Si Si1 0.869774 0.668193 0.422215
Si Si2 0.650930 0.331436 0.782760
Si Si3 0.246494 0.168724 0.884098
Si Si4 0.844146 0.666825 0.686406
Si Si5 0.056995 0.829564 0.984599
Si Si6 0.425103 0.337277 0.780319
Si Si7 0.972584 0.837308 0.400358
O O1 0.873064 0.500000 0.395027
O O2 0.838698 0.745096 0.338256
O O3 0.839424 0.700218 0.555454
O O4 0.927208 0.729466 0.396322
O O5 0.653310 0.500000 0.753730
O O6 0.693641 0.289037 0.851333
O O7 0.594939 0.285560 0.861993
O O8 0.292760 0.219955 0.777329
O O9 0.249117 0.000000 0.907398
O O10 0.250000 0.250000 0.000000
O O11 0.853378 0.500000 0.702219
O O12 0.893942 0.745270 0.707582
O O13 0.052125 0.000000 0.995414
O O14 0.082057 0.775608 0.088948
O O15 0.000000 0.761615 0.000000
O O16 0.404632 0.500000 0.781468
O O17 0.486039 0.330445 0.722722
O O18 0.000000 0.787254 0.500000
O O19 0.950755 0.000000 0.424960
#
# Coordination Sequence:
#
# PCOD8090217 Si02
#       7
#     8   8   8   8   8   8   8
#     4  11  23  37  55  81 116 155 190 227 284 346
#     4  10  21  38  59  81 110 148 190 236 283 331
#     4  10  22  41  63  86 112 146 188 236 288 340
#     4  10  22  38  55  80 115 148 182 231 287 338
#     4   9  17  31  53  80 108 138 176 227 281 329
#     4  10  19  33  57  85 111 145 191 234 278 335
#     4  10  19  33  55  84 115 148 189 235 276 325
#
# _framework density 19.614162
#
# number of rings (size 3 to 8) (size 9 to 14) (size 15 to 20)
#    0.000    2.000    1.429    2.143    0.000    6.571 
#    0.000    0.714    0.000    1.714    0.000    0.000 
#    0.000    0.000    0.000    0.000    0.000    0.000 
#
# Total GULP energy -347243.282860 kJ/mol
# GULP energy per Si atom -12401.545816 kJ/mol
# Density = 1.956952 g / cm^3
# Si number density = 19.614162 Si / 1000 Ang^3
#
#
#
# Elastic Constant Matrix: (Units=GPa)
#
#
# Indices 1 2 3 4 5 6 
#
# 1 109.5892 46.6632 57.9768 0.0000 5.3125 0.0000
# 2 46.6632 61.1498 58.9271 0.0000 9.1254 0.0000
# 3 57.9768 58.9271 145.5788 0.0000 12.7109 0.0000
# 4 0.0000 0.0000 0.0000 28.6256 0.0000 5.8382
# 5 5.3125 9.1254 12.7109 0.0000 34.8369 0.0000
# 6 0.0000 0.0000 0.0000 5.8382 0.0000 24.5147
#
#
#
# Elastic Compliance Matrix: (Units=1/GPa)
#
#
# Indices 1 2 3 4 5 6 
#
# 1 0.013903 -0.008746 -0.002078 0.000000 0.000929 0.000000
# 2 -0.008746 0.032655 -0.009404 0.000000 -0.003789 0.000000
# 3 -0.002078 -0.009404 0.011631 0.000000 -0.001464 0.000000
# 4 0.000000 0.000000 0.000000 0.036717 0.000000 -0.008744
# 5 0.000929 -0.003789 -0.001464 0.000000 0.030090 0.000000
# 6 0.000000 0.000000 0.000000 -0.008744 0.000000 0.042874
#
#
# Mechanical properties :
#
#
# Convention : Reuss Voigt Hill
#
# Bulk Modulus (GPa) = 56.39060 71.49468 63.94264
# Shear Modulus (GPa) = 23.33858 27.77881 25.55870
#
# Velocity S-wave (km/s) = 3.45321 3.76741 3.61373
# Velocity P-wave (km/s) = 6.68670 7.44676 7.07694
#
# Compressibility (1/GPa) = 0.01773345
#
# Stress axis : x y z
#
# Youngs Moduli (GPa) = 71.92587 30.62332 85.97632
#
# Poissons Ratio (x) = 0.26782 0.17866
# Poissons Ratio (y) = 0.62904 0.80854
# Poissons Ratio (z) = 0.14946 0.28799
#
# Static dielectric constant tensor:
#      x y z
#    x 3.530140 0.000000 -0.027090 
#    y 0.000000 3.332620 0.000000 
#    z -0.027090 0.000000 3.841410 
# 
# 
# High freq. dielectric constant tensor:
#      x y z
#    x 1.760420 0.000000 0.003450 
#    y 0.000000 1.735390 0.000000 
#    z 0.003450 0.000000 1.783600 
# 
# From -- ./inp_files/180786.got.cif
#   From: 2010.06.25/outbox.cif.g09.slc.cpg/sg12_91_cif.got.tgz:180786.got - 2010.06.28 00:19:55.
