data_PCOD8090414
_publ_section_title
;
Structure prediction by ZEFSAII (Michael W. Deem and Ramdas Pophale) SiO2 
 PCOD8090414
Probable space group: C 2/M
;
_chemical_formula_sum "Si O2"
_cell_formula_units_Z 24
_cell_length_a 12.969168
_cell_length_b 12.275948
_cell_length_c 16.606326
_cell_angle_alpha 90.000000
_cell_angle_beta 157.937422
_cell_angle_gamma 90.000000
_cell_volume 993.089306
_symmetry_space_group_name_H-M "C 2/M"
_symmetry_group_IT_number 12
_symmetry_cell_setting 'monoclinic'
loop_
_space_group_symop_operation_xyz
x,y,z
-x,y,-z
-x,-y,-z
x,-y,z
1/2+x,1/2+y,z
1/2-x,1/2+y,-z
1/2-x,1/2-y,-z
1/2+x,1/2-y,z
loop_
_atom_site_type_symbol
_atom_site_label
_atom_site_fract_x
_atom_site_fract_y
_atom_site_fract_z
Si Si1 0.338699 0.623904 0.964928
Si Si2 0.435875 0.336858 0.206346
Si Si3 0.450558 0.000000 0.856964
Si Si4 0.909306 0.000000 0.561641
O O1 0.219991 0.500000 0.880882
O O2 0.087301 0.709377 0.788406
O O3 0.500000 0.645220 0.000000
O O4 0.535981 0.644450 0.185993
O O5 0.640692 0.393867 0.417946
O O6 0.132209 0.391054 0.990495
O O7 0.234432 0.000000 0.773710
O O8 0.283220 0.000000 0.653036
#
# Coordination Sequence:
#
# PCOD8090414 Si02
#       4
#     8   8   4   4
#     4  10  19  33  58  83 108 146 181 215 270 327
#     4  10  19  36  58  78 109 144 180 221 272 315
#     4  10  19  33  56  84 108 138 184 229 267 314
#     4  10  19  33  56  84 108 138 184 229 267 314
#
# _framework density 24.167012
#
# number of rings (size 3 to 8) (size 9 to 14) (size 15 to 20)
#    0.000    2.000    3.333    4.000    0.000    0.000 
#    0.000    6.667    0.000    8.000    0.000    0.000 
#    0.000    0.000    0.000    0.000    0.000    0.000 
#
# Total GULP energy -148701.982681 kJ/mol
# GULP energy per Si atom -12391.831890 kJ/mol
# Density = 2.411201 g / cm^3
# Si number density = 24.167012 Si / 1000 Ang^3
#
#
#
# Elastic Constant Matrix: (Units=GPa)
#
#
# Indices 1 2 3 4 5 6 
#
# 1 128.0041 36.4129 16.2583 0.0192 -45.2658 0.0043
# 2 36.4129 179.3058 34.8799 0.0474 -29.3265 0.0076
# 3 16.2583 34.8799 58.7613 0.0236 -21.9440 0.0051
# 4 0.0192 0.0474 0.0236 16.4753 0.0335 -7.1876
# 5 -45.2658 -29.3265 -21.9440 0.0335 44.3307 0.0233
# 6 0.0043 0.0076 0.0051 -7.1876 0.0233 35.5904
#
#
#
# Elastic Compliance Matrix: (Units=1/GPa)
#
#
# Indices 1 2 3 4 5 6 
#
# 1 0.012430 -0.000746 0.001913 -0.000051 0.013146 -0.000020
# 2 -0.000746 0.006656 -0.002926 -0.000021 0.002193 -0.000007
# 3 0.001913 -0.002926 0.022367 -0.000058 0.011090 -0.000022
# 4 -0.000051 -0.000021 -0.000058 0.066562 -0.000152 0.013443
# 5 0.013146 0.002193 0.011090 -0.000152 0.042921 -0.000062
# 6 -0.000020 -0.000007 -0.000022 0.013443 -0.000062 0.030812
#
#
# Mechanical properties :
#
#
# Convention : Reuss Voigt Hill
#
# Bulk Modulus (GPa) = 26.36055 60.13039 43.24547
# Shear Modulus (GPa) = 25.26372 37.84727 31.55549
#
# Velocity S-wave (km/s) = 3.23674 3.96166 3.61740
# Velocity P-wave (km/s) = 4.98999 6.77211 5.94817
#
# Compressibility (1/GPa) = 0.03793548
#
# Stress axis : x y z
#
# Youngs Moduli (GPa) = 80.44861 150.22978 44.70932
#
# Poissons Ratio (x) = 0.11213 -0.08553
# Poissons Ratio (y) = 0.06004 0.13080
# Poissons Ratio (z) = -0.15390 0.43952
#
# Static dielectric constant tensor:
#      x y z
#    x 4.636890 -0.000080 -0.621950 
#    y -0.000080 4.528100 -0.000120 
#    z -0.621950 -0.000120 4.138570 
# 
# 
# High freq. dielectric constant tensor:
#      x y z
#    x 1.952420 -0.000010 -0.053080 
#    y -0.000010 1.975260 -0.000020 
#    z -0.053080 -0.000020 1.944990 
# 
# From -- ./inp_files/213921.got.cif
#   From: 2010.06.25/outbox.cif.g09.slc.cpg/sg12_107_cif.got.tgz:213921.got - 2010.06.28 00:19:55.
