data_PCOD8090312
_publ_section_title
;
Structure prediction by ZEFSAII (Michael W. Deem and Ramdas Pophale) SiO2 
 PCOD8090312
Probable space group: C 2/M
;
_chemical_formula_sum "Si O2"
_cell_formula_units_Z 56
_cell_length_a 34.933159
_cell_length_b 9.121840
_cell_length_c 11.958181
_cell_angle_alpha 90.000000
_cell_angle_beta 53.301001
_cell_angle_gamma 90.000000
_cell_volume 3055.230271
_symmetry_space_group_name_H-M "C 2/M"
_symmetry_group_IT_number 12
_symmetry_cell_setting 'monoclinic'
loop_
_space_group_symop_operation_xyz
x,y,z
-x,y,-z
-x,-y,-z
x,-y,z
1/2+x,1/2+y,z
1/2-x,1/2+y,-z
1/2-x,1/2-y,-z
1/2+x,1/2-y,z
loop_
_atom_site_type_symbol
_atom_site_label
_atom_site_fract_x
_atom_site_fract_y
_atom_site_fract_z
Si Si1 0.508050 0.828322 0.358750
Si Si2 0.726256 0.828805 0.298897
Si Si3 0.821821 0.332023 0.188118
Si Si4 0.843255 0.171632 0.735260
Si Si5 0.079411 0.828435 0.584689
Si Si6 0.351198 0.170295 0.382576
Si Si7 0.615843 0.167408 0.132084
O O1 0.500000 0.777739 0.500000
O O2 0.472322 0.742178 0.340402
O O3 0.560948 0.782760 0.228835
O O4 0.498114 0.000000 0.362052
O O5 0.779098 0.770750 0.224777
O O6 0.703814 0.748736 0.230869
O O7 0.695540 0.793442 0.462826
O O8 0.728125 0.000000 0.269357
O O9 0.803749 0.500000 0.225801
O O10 0.840758 0.279186 0.274971
O O11 0.865330 0.314647 0.026266
O O12 0.888644 0.210224 0.579072
O O13 0.852777 0.231376 0.842113
O O14 0.833183 0.000000 0.758418
O O15 0.103693 0.761843 0.652648
O O16 0.073607 0.000000 0.612469
O O17 0.364682 0.000000 0.366462
O O18 0.620098 0.000000 0.167173
#
# Coordination Sequence:
#
# PCOD8090312 Si02
#       7
#     8   8   8   8   8   8   8
#     4  10  19  33  56  81 106 138 175 215 261 314
#     4  10  20  34  56  81 105 137 178 219 262 311
#     4  10  21  37  55  77 107 141 177 218 262 310
#     4  10  20  34  53  79 109 139 174 218 265 311
#     4  10  20  33  54  83 109 135 173 222 266 306
#     4   9  19  36  57  79 105 139 178 218 259 309
#     4  10  21  36  54  78 108 141 176 214 262 318
#
# _framework density 18.329224
#
# number of rings (size 3 to 8) (size 9 to 14) (size 15 to 20)
#    0.000    2.143    1.429    1.714    0.000    4.286 
#    0.000    0.714    0.000    4.286    0.000    0.000 
#    0.000    0.000    0.000    0.000    0.000    0.000 
#
# Total GULP energy -347356.864188 kJ/mol
# GULP energy per Si atom -12405.602292 kJ/mol
# Density = 1.828751 g / cm^3
# Si number density = 18.329224 Si / 1000 Ang^3
#
#
#
# Elastic Constant Matrix: (Units=GPa)
#
#
# Indices 1 2 3 4 5 6 
#
# 1 134.0107 56.5317 48.5886 0.0000 -11.9525 0.0000
# 2 56.5317 73.8809 29.0491 0.0000 -6.6854 0.0000
# 3 48.5886 29.0491 73.6337 0.0000 -8.0692 0.0000
# 4 0.0000 0.0000 0.0000 20.4671 0.0000 -2.0495
# 5 -11.9525 -6.6854 -8.0692 0.0000 16.2620 0.0000
# 6 0.0000 0.0000 0.0000 -2.0495 0.0000 35.6340
#
#
#
# Elastic Compliance Matrix: (Units=1/GPa)
#
#
# Indices 1 2 3 4 5 6 
#
# 1 0.012783 -0.007437 -0.005083 0.000000 0.003816 0.000000
# 2 -0.007437 0.020555 -0.003040 0.000000 0.001476 0.000000
# 3 -0.005083 -0.003040 0.018599 0.000000 0.004243 0.000000
# 4 0.000000 0.000000 0.000000 0.049142 0.000000 0.002826
# 5 0.003816 0.001476 0.004243 0.000000 0.067010 0.000000
# 6 0.000000 0.000000 0.000000 0.002826 0.000000 0.028226
#
#
# Mechanical properties :
#
#
# Convention : Reuss Voigt Hill
#
# Bulk Modulus (GPa) = 48.03767 61.09601 54.56684
# Shear Modulus (GPa) = 21.33363 24.29634 22.81498
#
# Velocity S-wave (km/s) = 3.41532 3.64476 3.53190
# Velocity P-wave (km/s) = 6.46666 7.14964 6.81671
#
# Compressibility (1/GPa) = 0.02081700
#
# Stress axis : x y z
#
# Youngs Moduli (GPa) = 78.23154 48.65059 53.76684
#
# Poissons Ratio (x) = 0.36182 0.27328
# Poissons Ratio (y) = 0.58182 0.16344
# Poissons Ratio (z) = 0.39762 0.14789
#
# Static dielectric constant tensor:
#      x y z
#    x 3.390040 0.000000 0.033170 
#    y 0.000000 3.332730 0.000000 
#    z 0.033170 0.000000 3.265090 
# 
# 
# High freq. dielectric constant tensor:
#      x y z
#    x 1.716580 0.000000 0.000620 
#    y 0.000000 1.712110 0.000000 
#    z 0.000620 0.000000 1.694330 
# 
# From -- ./inp_files/186444.got.cif
#   From: 2010.06.25/outbox.cif.g09.slc.cpg/sg12_94_cif.got.tgz:186444.got - 2010.06.28 00:19:55.
