data_PCOD8090949
_publ_section_title
;
Structure prediction by ZEFSAII (Michael W. Deem and Ramdas Pophale) SiO2 
 PCOD8090949
Probable space group: C 2/M
;
_chemical_formula_sum "Si O2"
_cell_formula_units_Z 40
_cell_length_a 24.322411
_cell_length_b 10.833584
_cell_length_c 23.755983
_cell_angle_alpha 90.000000
_cell_angle_beta 163.422772
_cell_angle_gamma 90.000000
_cell_volume 1785.931987
_symmetry_space_group_name_H-M "C 2/M"
_symmetry_group_IT_number 12
_symmetry_cell_setting 'monoclinic'
loop_
_space_group_symop_operation_xyz
x,y,z
-x,y,-z
-x,-y,-z
x,-y,z
1/2+x,1/2+y,z
1/2-x,1/2+y,-z
1/2-x,1/2-y,-z
1/2+x,1/2-y,z
loop_
_atom_site_type_symbol
_atom_site_label
_atom_site_fract_x
_atom_site_fract_y
_atom_site_fract_z
Si Si1 0.815377 0.863817 0.890867
Si Si2 0.297290 0.639368 0.423166
Si Si3 0.232643 0.360300 0.686928
Si Si4 0.481806 0.366214 0.250884
Si Si5 0.396080 0.801543 0.067093
O O1 0.686986 0.836189 0.708678
O O2 0.763744 0.000000 0.862141
O O3 0.768291 0.770141 0.894871
O O4 0.039311 0.855717 0.096117
O O5 0.372017 0.500000 0.479396
O O6 0.356001 0.746841 0.436209
O O7 0.390373 0.685775 0.572738
O O8 0.065936 0.623574 0.203260
O O9 0.160446 0.500000 0.598823
O O10 0.561011 0.500000 0.312003
O O11 0.505376 0.286653 0.218291
O O12 0.257814 0.382038 0.049942
#
# Coordination Sequence:
#
# PCOD8090949 Si02
#       5
#     8   8   8   8   8
#     4   8  14  28  52  77 101 132 172 216 258 299
#     4  10  20  35  54  78 107 137 169 209 257 306
#     4   8  15  30  52  78 104 133 172 213 254 305
#     4  10  21  35  51  75 106 136 171 214 256 303
#     4  10  19  34  54  75 100 136 175 210 255 305
#
# _framework density 22.397269999999999
#
# number of rings (size 3 to 8) (size 9 to 14) (size 15 to 20)
#    0.000    2.800    0.000    3.000    0.000    0.800 
#    0.000   16.000    0.000    4.800    0.000    0.000 
#    0.000    0.000    0.000    0.000    0.000    0.000 
#
# Total GULP energy -247790.132333 kJ/mol
# GULP energy per Si atom -12389.506617 kJ/mol
# Density = 2.234629 g / cm^3
# Si number density = 22.397270 Si / 1000 Ang^3
#
#
#
# Elastic Constant Matrix: (Units=GPa)
#
#
# Indices 1 2 3 4 5 6 
#
# 1 59.1340 41.6148 6.8730 0.0253 -22.5527 0.0157
# 2 41.6148 128.4734 30.7502 0.0410 -40.4851 0.0397
# 3 6.8730 30.7502 71.1885 0.0178 -35.2559 0.0272
# 4 0.0253 0.0410 0.0178 21.6234 0.0223 -6.8537
# 5 -22.5527 -40.4851 -35.2559 0.0223 46.1802 0.0245
# 6 0.0157 0.0397 0.0272 -6.8537 0.0245 -5.7184
#
#
#
# Elastic Compliance Matrix: (Units=1/GPa)
#
#
# Indices 1 2 3 4 5 6 
#
# 1 0.024637 -0.005778 0.005736 -0.000001 0.011345 0.000105
# 2 -0.005778 0.012110 -0.001307 0.000005 0.006797 0.000085
# 3 0.005736 -0.001307 0.023923 0.000015 0.019919 0.000188
# 4 -0.000001 0.000005 0.000015 0.033514 0.000020 -0.040168
# 5 0.011345 0.006797 0.019919 0.000020 0.048360 0.000356
# 6 0.000105 0.000085 0.000188 -0.040168 0.000356 -0.126727
#
#
# Mechanical properties :
#
#
# Convention : Reuss Voigt Hill
#
# Bulk Modulus (GPa) = 17.24982 46.36352 31.80667
# Shear Modulus (GPa) = 132.13520 24.38756 78.26138
#
# Velocity S-wave (km/s) = 7.68923 3.30337 5.91762
# Velocity P-wave (km/s) = 9.30326 5.94097 7.80531
#
# Compressibility (1/GPa) = 0.05797162
#
# Stress axis : x y z
#
# Youngs Moduli (GPa) = 40.58882 82.57620 41.80126
#
# Poissons Ratio (x) = 0.47714 -0.23977
# Poissons Ratio (y) = 0.23453 0.05464
# Poissons Ratio (z) = -0.23282 0.10793
#
# Static dielectric constant tensor:
#      x y z
#    x 4.007700 -0.000040 -0.299000 
#    y -0.000040 3.932080 -0.000080 
#    z -0.299000 -0.000080 3.967810 
# 
# 
# High freq. dielectric constant tensor:
#      x y z
#    x 1.866570 0.000000 -0.003780 
#    y 0.000000 1.870440 -0.000010 
#    z -0.003780 -0.000010 1.887140 
# 
# From -- ./inp_files/93716.got.cif
#   From: 2010.06.25/outbox.cif.g09.slc.cpg/sg12_47_cif.got.tgz:93716.got - 2010.06.28 00:19:55.
