data_PCOD8090735
_publ_section_title
;
Structure prediction by ZEFSAII (Michael W. Deem and Ramdas Pophale) SiO2 
 PCOD8090735
Probable space group: C 2/M
;
_chemical_formula_sum "Si O2"
_cell_formula_units_Z 56
_cell_length_a 15.692431
_cell_length_b 18.055157
_cell_length_c 11.801710
_cell_angle_alpha 90.000000
_cell_angle_beta 57.153402
_cell_angle_gamma 90.000000
_cell_volume 2809.187564
_symmetry_space_group_name_H-M "C 2/M"
_symmetry_group_IT_number 12
_symmetry_cell_setting 'monoclinic'
loop_
_space_group_symop_operation_xyz
x,y,z
-x,y,-z
-x,-y,-z
x,-y,z
1/2+x,1/2+y,z
1/2-x,1/2+y,-z
1/2-x,1/2-y,-z
1/2+x,1/2-y,z
loop_
_atom_site_type_symbol
_atom_site_label
_atom_site_fract_x
_atom_site_fract_y
_atom_site_fract_z
Si Si1 0.540910 0.833167 0.850111
Si Si2 0.486238 0.340834 0.139196
Si Si3 0.802024 0.913822 0.400636
Si Si4 0.370706 0.084132 0.856211
Si Si5 0.329015 0.586153 0.870726
Si Si6 0.250708 0.084954 0.313781
Si Si7 0.110751 0.584845 0.412691
O O1 0.532572 0.745902 0.844252
O O2 0.471695 0.868921 0.803386
O O3 0.655922 0.858956 0.753881
O O4 0.500000 0.861334 0.000000
O O5 0.390109 0.377334 0.266018
O O6 0.584370 0.362118 0.141277
O O7 0.500000 0.368870 0.000000
O O8 0.815133 0.900014 0.525517
O O9 0.693010 0.879938 0.439494
O O10 0.805448 0.000000 0.367870
O O11 0.341377 0.092236 0.746349
O O12 0.395673 0.000000 0.871360
O O13 0.276754 0.112936 0.998344
O O14 0.351377 0.500000 0.883265
O O15 0.322526 0.599321 0.740385
O O16 0.290989 0.000000 0.282764
O O17 0.094333 0.500000 0.461119
O O18 0.000000 0.624581 0.500000
#
# Coordination Sequence:
#
# PCOD8090735 Si02
#       7
#     8   8   8   8   8   8   8
#     4  11  22  38  58  88 123 160 194 241 303 361
#     4  11  25  41  57  86 121 165 203 237 295 360
#     4  10  21  39  64  87 117 157 196 249 299 348
#     4  10  19  33  59  89 117 153 197 251 302 343
#     4  10  21  38  62  90 117 151 202 253 293 348
#     4  10  21  39  65  92 116 151 199 252 303 350
#     4   9  17  31  53  85 116 144 186 237 293 348
#
# _framework density 19.934588000000002
#
# number of rings (size 3 to 8) (size 9 to 14) (size 15 to 20)
#    0.000    1.857    1.429    2.571    0.000    6.857 
#    2.571    2.143    3.143    0.000    0.000    0.000 
#    0.000    0.000    0.000    0.000    0.000    0.000 
#
# Total GULP energy -347225.702744 kJ/mol
# GULP energy per Si atom -12400.917955 kJ/mol
# Density = 1.988922 g / cm^3
# Si number density = 19.934588 Si / 1000 Ang^3
#
#
#
# Elastic Constant Matrix: (Units=GPa)
#
#
# Indices 1 2 3 4 5 6 
#
# 1 132.6185 41.5779 62.5640 0.0000 6.1455 0.0000
# 2 41.5779 60.7929 37.6494 0.0000 -1.0811 0.0000
# 3 62.5640 37.6494 134.5138 0.0000 2.8533 0.0000
# 4 0.0000 0.0000 0.0000 23.7338 0.0000 -3.8349
# 5 6.1455 -1.0811 2.8533 0.0000 30.7460 0.0000
# 6 0.0000 0.0000 0.0000 -3.8349 0.0000 25.4129
#
#
#
# Elastic Compliance Matrix: (Units=1/GPa)
#
#
# Indices 1 2 3 4 5 6 
#
# 1 0.010998 -0.005344 -0.003576 0.000000 -0.002054 0.000000
# 2 -0.005344 0.022541 -0.003871 0.000000 0.002220 0.000000
# 3 -0.003576 -0.003871 0.010189 0.000000 -0.000367 0.000000
# 4 0.000000 0.000000 0.000000 0.043187 0.000000 0.006517
# 5 -0.002054 0.002220 -0.000367 0.000000 0.033047 0.000000
# 6 0.000000 0.000000 0.000000 0.006517 0.000000 0.040334
#
#
# Mechanical properties :
#
#
# Convention : Reuss Voigt Hill
#
# Bulk Modulus (GPa) = 55.10729 67.94532 61.52630
# Shear Modulus (GPa) = 26.05191 28.38746 27.21969
#
# Velocity S-wave (km/s) = 3.61899 3.77773 3.69921
# Velocity P-wave (km/s) = 6.72063 7.29290 7.01260
#
# Compressibility (1/GPa) = 0.01814642
#
# Stress axis : x y z
#
# Youngs Moduli (GPa) = 90.92564 44.36450 98.14900
#
# Poissons Ratio (x) = 0.23707 0.35099
# Poissons Ratio (y) = 0.48588 0.37990
# Poissons Ratio (z) = 0.32516 0.17172
#
# Static dielectric constant tensor:
#      x y z
#    x 3.755690 0.000000 0.097740 
#    y 0.000000 3.385680 0.000000 
#    z 0.097740 0.000000 3.758500 
# 
# 
# High freq. dielectric constant tensor:
#      x y z
#    x 1.783800 0.000000 0.008540 
#    y 0.000000 1.745600 0.000000 
#    z 0.008540 0.000000 1.790100 
# 
# From -- ./inp_files/145480.got.cif
#   From: 2010.06.25/outbox.cif.g09.slc.cpg/sg12_73_cif.got.tgz:145480.got - 2010.06.28 00:19:55.
