data_PCOD8090251
_publ_section_title
;
Structure prediction by ZEFSAII (Michael W. Deem and Ramdas Pophale) SiO2 
 PCOD8090251
Probable space group: C 2/M
;
_chemical_formula_sum "Si O2"
_cell_formula_units_Z 40
_cell_length_a 15.385742
_cell_length_b 8.802193
_cell_length_c 14.586253
_cell_angle_alpha 90.000000
_cell_angle_beta 90.689903
_cell_angle_gamma 90.000000
_cell_volume 1975.247815
_symmetry_space_group_name_H-M "C 2/M"
_symmetry_group_IT_number 12
_symmetry_cell_setting 'monoclinic'
loop_
_space_group_symop_operation_xyz
x,y,z
-x,y,-z
-x,-y,-z
x,-y,z
1/2+x,1/2+y,z
1/2-x,1/2+y,-z
1/2-x,1/2-y,-z
1/2+x,1/2-y,z
loop_
_atom_site_type_symbol
_atom_site_label
_atom_site_fract_x
_atom_site_fract_y
_atom_site_fract_z
Si Si1 0.590455 0.677721 0.277805
Si Si2 0.349939 0.827698 0.099807
Si Si3 0.104231 0.176399 0.715419
Si Si4 0.252118 0.320496 0.599501
Si Si5 0.644462 0.673405 0.084431
O O1 0.609495 0.500000 0.268396
O O2 0.494946 0.710058 0.316945
O O3 0.663227 0.746345 0.346763
O O4 0.599812 0.744397 0.174879
O O5 0.387984 0.719134 0.178221
O O6 0.246850 0.814207 0.100766
O O7 0.380232 0.000000 0.117672
O O8 0.386664 0.772155 0.002492
O O9 0.165646 0.278000 0.653459
O O10 0.127689 0.000000 0.702553
O O11 0.257372 0.500000 0.589943
O O12 0.250000 0.250000 0.500000
O O13 0.616264 0.500000 0.065957
#
# Coordination Sequence:
#
# PCOD8090251 Si02
#       5
#     8   8   8   8   8
#     4   9  20  39  62  85 117 158 198 235 285 354
#     4  10  19  33  55  85 121 158 195 243 291 337
#     4  11  22  38  62  90 116 154 200 240 286 348
#     4  11  23  44  66  88 117 151 191 242 298 351
#     4   9  17  34  57  81 113 160 204 236 279 345
#
# _framework density 20.250623000000001
#
# number of rings (size 3 to 8) (size 9 to 14) (size 15 to 20)
#    0.000    2.000    2.000    1.800    0.000    2.400 
#    0.000   14.000    0.000    0.000    0.000    0.000 
#    0.000    0.000    0.000    0.000    0.000    0.000 
#
# Total GULP energy -248026.041897 kJ/mol
# GULP energy per Si atom -12401.302095 kJ/mol
# Density = 2.020453 g / cm^3
# Si number density = 20.250623 Si / 1000 Ang^3
#
#
#
# Elastic Constant Matrix: (Units=GPa)
#
#
# Indices 1 2 3 4 5 6 
#
# 1 94.7251 28.4597 57.1798 0.0000 -4.1263 0.0000
# 2 28.4597 61.3217 26.8385 0.0000 0.1286 0.0000
# 3 57.1798 26.8385 140.8269 0.0000 1.3563 0.0000
# 4 0.0000 0.0000 0.0000 37.3542 0.0000 -2.8918
# 5 -4.1263 0.1286 1.3563 0.0000 8.8338 0.0000
# 6 0.0000 0.0000 0.0000 -2.8918 0.0000 25.3019
#
#
#
# Elastic Compliance Matrix: (Units=1/GPa)
#
#
# Indices 1 2 3 4 5 6 
#
# 1 0.015727 -0.004895 -0.005532 0.000000 0.008267 0.000000
# 2 -0.004895 0.019316 -0.001671 0.000000 -0.002311 0.000000
# 3 -0.005532 -0.001671 0.009705 0.000000 -0.004050 0.000000
# 4 0.000000 0.000000 0.000000 0.027010 0.000000 0.003087
# 5 0.008267 -0.002311 -0.004050 0.000000 0.117719 0.000000
# 6 0.000000 0.000000 0.000000 0.003087 0.000000 0.039875
#
#
# Mechanical properties :
#
#
# Convention : Reuss Voigt Hill
#
# Bulk Modulus (GPa) = 48.66197 57.98110 53.32153
# Shear Modulus (GPa) = 19.20126 26.59102 22.89614
#
# Velocity S-wave (km/s) = 3.08260 3.62760 3.36615
# Velocity P-wave (km/s) = 6.06233 6.79999 6.44173
#
# Compressibility (1/GPa) = 0.02054993
#
# Stress axis : x y z
#
# Youngs Moduli (GPa) = 63.58371 51.77163 103.04207
#
# Poissons Ratio (x) = 0.25343 0.57008
# Poissons Ratio (y) = 0.31125 0.17222
# Poissons Ratio (z) = 0.35177 0.08653
#
# Static dielectric constant tensor:
#      x y z
#    x 3.743390 0.000000 -0.000930 
#    y 0.000000 3.533530 0.000000 
#    z -0.000930 0.000000 3.815270 
# 
# 
# High freq. dielectric constant tensor:
#      x y z
#    x 1.791380 0.000000 -0.001420 
#    y 0.000000 1.773350 0.000000 
#    z -0.001420 0.000000 1.794410 
# 
# From -- ./inp_files/211338.got.cif
#   From: 2010.06.25/outbox.cif.g09.slc.cpg/sg12_106_cif.got.tgz:211338.got - 2010.06.28 00:19:55.
