data_PCOD8090898
_publ_section_title
;
Structure prediction by ZEFSAII (Michael W. Deem and Ramdas Pophale) SiO2 
 PCOD8090898
Probable space group: C 2/M
;
_chemical_formula_sum "Si O2"
_cell_formula_units_Z 64
_cell_length_a 14.843394
_cell_length_b 8.900183
_cell_length_c 27.420125
_cell_angle_alpha 90.000000
_cell_angle_beta 105.775018
_cell_angle_gamma 90.000000
_cell_volume 3486.009731
_symmetry_space_group_name_H-M "C 2/M"
_symmetry_group_IT_number 12
_symmetry_cell_setting 'monoclinic'
loop_
_space_group_symop_operation_xyz
x,y,z
-x,y,-z
-x,-y,-z
x,-y,z
1/2+x,1/2+y,z
1/2-x,1/2+y,-z
1/2-x,1/2-y,-z
1/2+x,1/2-y,z
loop_
_atom_site_type_symbol
_atom_site_label
_atom_site_fract_x
_atom_site_fract_y
_atom_site_fract_z
Si Si1 0.029673 0.824413 0.739192
Si Si2 0.403730 0.324409 0.627433
Si Si3 0.650993 0.677808 0.999977
Si Si4 0.038594 0.178533 0.076874
Si Si5 0.280527 0.322545 0.369090
Si Si6 0.213760 0.322548 0.735536
Si Si7 0.095960 0.178065 0.189942
Si Si8 0.470829 0.321860 0.443526
O O1 0.966637 0.786705 0.683325
O O2 0.977305 0.769878 0.779966
O O3 0.122844 0.726777 0.751541
O O4 0.055182 0.000000 0.743985
O O5 0.378280 0.500000 0.622589
O O6 0.310494 0.226965 0.615057
O O7 0.456133 0.269673 0.586695
O O8 0.664604 0.500000 0.999898
O O9 0.616316 0.730632 0.048655
O O10 0.750000 0.750000 0.000000
O O11 0.567392 0.731049 0.951369
O O12 0.067056 0.247654 0.133451
O O13 0.038687 0.000000 0.077654
O O14 0.283845 0.500000 0.362571
O O15 0.283630 0.250061 0.316807
O O16 0.368311 0.264022 0.413544
O O17 0.217256 0.500000 0.729018
O O18 0.301695 0.263919 0.779862
O O19 0.096344 0.000000 0.186668
O O20 0.500000 0.251672 0.500000
O O21 0.470415 0.500000 0.446585
#
# Coordination Sequence:
#
# PCOD8090898 Si02
#       8
#     8   8   8   8   8   8   8   8
#     4  10  19  34  53  76 102 137 175 209 255 309
#     4  10  19  35  56  78 104 136 173 209 255 309
#     4   9  17  31  54  78 101 133 177 214 256 305
#     4   8  16  32  51  73 102 141 176 207 249 314
#     4  11  21  35  56  80 104 134 173 214 257 308
#     4  11  21  34  53  78 104 137 176 213 257 308
#     4   9  18  33  52  73 105 140 174 210 255 309
#     4   9  19  36  56  76 103 139 172 207 257 314
#
# _framework density 18.359100999999999
#
# number of rings (size 3 to 8) (size 9 to 14) (size 15 to 20)
#    0.000    2.375    2.500    1.500    0.000    2.000 
#    0.000    1.250    0.000    5.625    0.000    0.000 
#    0.000    0.000    0.000    0.000    0.000    0.000 
#
# Total GULP energy -396742.993785 kJ/mol
# GULP energy per Si atom -12398.218556 kJ/mol
# Density = 1.831731 g / cm^3
# Si number density = 18.359101 Si / 1000 Ang^3
#
#
#
# Elastic Constant Matrix: (Units=GPa)
#
#
# Indices 1 2 3 4 5 6 
#
# 1 177.6336 38.5266 95.2590 0.0000 2.4266 0.0000
# 2 38.5266 36.2004 30.7737 0.0000 4.4583 0.0000
# 3 95.2590 30.7737 185.9167 0.0000 1.5984 0.0000
# 4 0.0000 0.0000 0.0000 10.8950 0.0000 -0.6559
# 5 2.4266 4.4583 1.5984 0.0000 29.0916 0.0000
# 6 0.0000 0.0000 0.0000 -0.6559 0.0000 35.6253
#
#
#
# Elastic Compliance Matrix: (Units=1/GPa)
#
#
# Indices 1 2 3 4 5 6 
#
# 1 0.008921 -0.006588 -0.003484 0.000000 0.000457 0.000000
# 2 -0.006588 0.037651 -0.002813 0.000000 -0.005066 0.000000
# 3 -0.003484 -0.002813 0.007627 0.000000 0.000303 0.000000
# 4 0.000000 0.000000 0.000000 0.091887 0.000000 0.001692
# 5 0.000457 -0.005066 0.000303 0.000000 0.035096 0.000000
# 6 0.000000 0.000000 0.000000 0.001692 0.000000 0.028101
#
#
# Mechanical properties :
#
#
# Convention : Reuss Voigt Hill
#
# Bulk Modulus (GPa) = 35.17693 80.98547 58.08120
# Shear Modulus (GPa) = 20.44748 30.80182 25.62465
#
# Velocity S-wave (km/s) = 3.34091 4.10047 3.74002
# Velocity P-wave (km/s) = 5.83818 8.16248 7.09614
#
# Compressibility (1/GPa) = 0.02842772
#
# Stress axis : x y z
#
# Youngs Moduli (GPa) = 112.09902 26.55985 131.11456
#
# Poissons Ratio (x) = 0.17499 0.45682
# Poissons Ratio (y) = 0.73855 0.36880
# Poissons Ratio (z) = 0.39057 0.07471
#
# Static dielectric constant tensor:
#      x y z
#    x -3.616030 0.000000 0.758780 
#    y 0.000000 3.011550 0.000000 
#    z 0.758780 0.000000 3.687720 
# 
# 
# High freq. dielectric constant tensor:
#      x y z
#    x 1.725990 0.000000 -0.000960 
#    y 0.000000 1.673130 0.000000 
#    z -0.000960 0.000000 1.717620 
# 
# From -- ./inp_files/359920.got.cif
#   From: 2010.06.25/outbox.cif.g09.slc.cpg/sg12_180_cif.got.tgz:359920.got - 2010.06.28 00:19:55.
