data_PCOD8090856
_publ_section_title
;
Structure prediction by ZEFSAII (Michael W. Deem and Ramdas Pophale) SiO2 
 PCOD8090856
Probable space group: C 2/M
;
_chemical_formula_sum "Si O2"
_cell_formula_units_Z 56
_cell_length_a 20.103301
_cell_length_b 19.827795
_cell_length_c 15.650877
_cell_angle_alpha 90.000000
_cell_angle_beta 150.391910
_cell_angle_gamma 90.000000
_cell_volume 3082.224294
_symmetry_space_group_name_H-M "C 2/M"
_symmetry_group_IT_number 12
_symmetry_cell_setting 'monoclinic'
loop_
_space_group_symop_operation_xyz
x,y,z
-x,y,-z
-x,-y,-z
x,-y,z
1/2+x,1/2+y,z
1/2-x,1/2+y,-z
1/2-x,1/2-y,-z
1/2+x,1/2-y,z
loop_
_atom_site_type_symbol
_atom_site_label
_atom_site_fract_x
_atom_site_fract_y
_atom_site_fract_z
Si Si1 0.675458 0.831609 0.001722
Si Si2 0.588929 0.317124 0.863925
Si Si3 0.718870 0.319704 0.514304
Si Si4 0.347757 0.200204 0.837834
Si Si5 0.629439 0.646074 0.099381
Si Si6 0.066625 0.579140 0.315867
Si Si7 0.396736 0.922103 0.449422
O O1 0.807324 0.843935 0.091694
O O2 0.720172 0.827095 0.150834
O O3 0.599600 0.763315 0.888236
O O4 0.570414 0.892919 0.878419
O O5 0.439030 0.335516 0.667396
O O6 0.620876 0.355766 0.987377
O O7 0.750000 0.250000 0.500000
O O8 0.756974 0.319212 0.656317
O O9 0.800445 0.381769 0.565593
O O10 0.352464 0.279993 0.843464
O O11 0.500000 0.171097 0.000000
O O12 0.749288 0.602797 0.268083
O O13 0.500000 0.613216 0.000000
O O14 0.082307 0.500000 0.311337
O O15 0.051176 0.593204 0.398451
O O16 0.500000 0.885223 0.500000
O O17 0.393379 0.000000 0.425187
#
# Coordination Sequence:
#
# PCOD8090856 Si02
#       7
#     8   8   8   8   8   8   8
#     4  10  20  38  54  83 119 146 191 238 286 345
#     4  10  21  34  58  85 113 150 190 240 288 334
#     4  12  20  37  61  83 114 151 190 240 291 333
#     4  10  19  35  57  83 109 141 188 238 285 340
#     4  10  19  34  52  80 110 143 187 229 276 337
#     4  11  22  37  59  86 115 153 197 236 286 350
#     4  10  21  35  52  78 112 149 186 223 274 342
#
# _framework density 18.168697000000002
#
# number of rings (size 3 to 8) (size 9 to 14) (size 15 to 20)
#    0.000    1.571    2.857    4.286    0.000    0.857 
#    0.000    2.857    0.000    0.000    0.000    2.000 
#    0.000    0.000    0.000    0.000    0.000    0.000 
#
# Total GULP energy -347195.565999 kJ/mol
# GULP energy per Si atom -12399.841643 kJ/mol
# Density = 1.812734 g / cm^3
# Si number density = 18.168697 Si / 1000 Ang^3
#
#
#
# Elastic Constant Matrix: (Units=GPa)
#
#
# Indices 1 2 3 4 5 6 
#
# 1 139.9326 22.2761 43.4811 0.0000 -4.0942 0.0000
# 2 22.2761 71.7502 18.3089 0.0000 9.6122 0.0000
# 3 43.4811 18.3089 93.8950 0.0000 -5.3642 0.0000
# 4 0.0000 0.0000 0.0000 15.3251 0.0000 -1.9742
# 5 -4.0942 9.6122 -5.3642 0.0000 42.8450 0.0000
# 6 0.0000 0.0000 0.0000 -1.9742 0.0000 17.1794
#
#
#
# Elastic Compliance Matrix: (Units=1/GPa)
#
#
# Indices 1 2 3 4 5 6 
#
# 1 0.008572 -0.001858 -0.003562 0.000000 0.000790 0.000000
# 2 -0.001858 0.015668 -0.002423 0.000000 -0.003996 0.000000
# 3 -0.003562 -0.002423 0.012876 0.000000 0.001815 0.000000
# 4 0.000000 0.000000 0.000000 0.066233 0.000000 0.007611
# 5 0.000790 -0.003996 0.001815 0.000000 0.024539 0.000000
# 6 0.000000 0.000000 0.000000 0.007611 0.000000 0.059084
#
#
# Mechanical properties :
#
#
# Convention : Reuss Voigt Hill
#
# Bulk Modulus (GPa) = 46.66510 52.63445 49.64977
# Shear Modulus (GPa) = 23.83207 29.83735 26.83471
#
# Velocity S-wave (km/s) = 3.62568 4.05685 3.84731
# Velocity P-wave (km/s) = 6.57781 7.13980 6.86456
#
# Compressibility (1/GPa) = 0.02142929
#
# Stress axis : x y z
#
# Youngs Moduli (GPa) = 116.65792 63.82540 77.66456
#
# Poissons Ratio (x) = 0.11860 0.27665
# Poissons Ratio (y) = 0.21678 0.18817
# Poissons Ratio (z) = 0.41555 0.15464
#
# Static dielectric constant tensor:
#      x y z
#    x 3.676370 0.000000 0.032140 
#    y 0.000000 3.394450 0.000000 
#    z 0.032140 0.000000 3.360990 
# 
# 
# High freq. dielectric constant tensor:
#      x y z
#    x 1.722620 0.000000 -0.001190 
#    y 0.000000 1.672100 0.000000 
#    z -0.001190 0.000000 1.707970 
# 
# From -- ./inp_files/75885.got.cif
#   From: 2010.06.25/outbox.cif.g09.slc.cpg/sg12_38_cif.got.tgz:75885.got - 2010.06.28 00:19:55.
