data_PCOD8090098
_publ_section_title
;
Structure prediction by ZEFSAII (Michael W. Deem and Ramdas Pophale) SiO2 
 PCOD8090098
Probable space group: C 2/M
;
_chemical_formula_sum "Si O2"
_cell_formula_units_Z 64
_cell_length_a 18.778662
_cell_length_b 8.816241
_cell_length_c 20.699875
_cell_angle_alpha 90.000000
_cell_angle_beta 99.098599
_cell_angle_gamma 90.000000
_cell_volume 3383.893747
_symmetry_space_group_name_H-M "C 2/M"
_symmetry_group_IT_number 12
_symmetry_cell_setting 'monoclinic'
loop_
_space_group_symop_operation_xyz
x,y,z
-x,y,-z
-x,-y,-z
x,-y,z
1/2+x,1/2+y,z
1/2-x,1/2+y,-z
1/2-x,1/2-y,-z
1/2+x,1/2-y,z
loop_
_atom_site_type_symbol
_atom_site_label
_atom_site_fract_x
_atom_site_fract_y
_atom_site_fract_z
Si Si1 0.591024 0.680722 0.596387
Si Si2 0.775402 0.321000 0.069888
Si Si3 0.323751 0.323561 0.272600
Si Si4 0.057989 0.175871 0.216890
Si Si5 0.808665 0.323431 0.825129
Si Si6 0.671115 0.679373 0.482004
Si Si7 0.101263 0.175960 0.843116
Si Si8 0.056477 0.179632 0.363641
O O1 0.588474 0.500000 0.594206
O O2 0.650095 0.746288 0.655928
O O3 0.617811 0.740046 0.530823
O O4 0.512045 0.743786 0.605437
O O5 0.772662 0.500000 0.064225
O O6 0.721821 0.267304 0.118527
O O7 0.857873 0.267733 0.094714
O O8 0.750000 0.250000 0.000000
O O9 0.341293 0.500000 0.278821
O O10 0.239920 0.291034 0.245808
O O11 0.371257 0.256826 0.221073
O O12 0.112177 0.269971 0.180878
O O13 0.055183 0.241291 0.289812
O O14 0.983935 0.199398 0.167479
O O15 0.080520 0.000000 0.222048
O O16 0.808124 0.500000 0.843182
O O17 0.680783 0.500000 0.487914
O O18 0.750000 0.750000 0.500000
O O19 0.631421 0.727389 0.409442
O O20 0.123032 0.000000 0.853592
O O21 0.048780 0.000000 0.360411
#
# Coordination Sequence:
#
# PCOD8090098 Si02
#       8
#     8   8   8   8   8   8   8   8
#     4   9  15  28  51  74  97 134 185 230 272 327
#     4  11  22  39  63  88 116 149 185 222 265 320
#     4   8  14  27  48  74 100 134 179 225 270 320
#     4  10  19  33  55  81 113 148 183 230 286 334
#     4  10  21  35  54  82 116 148 184 228 273 323
#     4  10  21  33  49  74 105 139 182 233 285 336
#     4   9  17  33  56  82 112 145 183 226 273 328
#     4   9  17  31  51  76 103 138 186 236 277 326
#
# _framework density 18.913122999999999
#
# number of rings (size 3 to 8) (size 9 to 14) (size 15 to 20)
#    0.000    2.500    1.250    2.625    1.750    2.000 
#    0.000    0.625    0.000    6.000    0.000    0.000 
#    0.000    0.000    0.000    0.000    0.000    0.000 
#
# Total GULP energy -396611.722128 kJ/mol
# GULP energy per Si atom -12394.116317 kJ/mol
# Density = 1.887008 g / cm^3
# Si number density = 18.913123 Si / 1000 Ang^3
#
#
#
# Elastic Constant Matrix: (Units=GPa)
#
#
# Indices 1 2 3 4 5 6 
#
# 1 123.9879 39.3354 53.8197 0.0000 6.2010 0.0000
# 2 39.3354 65.0958 37.5660 0.0000 6.3689 0.0000
# 3 53.8197 37.5660 115.0839 0.0000 20.5642 0.0000
# 4 0.0000 0.0000 0.0000 17.8948 0.0000 1.4301
# 5 6.2010 6.3689 20.5642 0.0000 27.9102 0.0000
# 6 0.0000 0.0000 0.0000 1.4301 0.0000 29.4339
#
#
#
# Elastic Compliance Matrix: (Units=1/GPa)
#
#
# Indices 1 2 3 4 5 6 
#
# 1 0.011185 -0.004598 -0.004000 0.000000 0.001511 0.000000
# 2 -0.004598 0.020820 -0.004583 0.000000 -0.000353 0.000000
# 3 -0.004000 -0.004583 0.013485 0.000000 -0.008002 0.000000
# 4 0.000000 0.000000 0.000000 0.056100 0.000000 -0.002726
# 5 0.001511 -0.000353 -0.008002 0.000000 0.041470 0.000000
# 6 0.000000 0.000000 0.000000 -0.002726 0.000000 0.034107
#
#
# Mechanical properties :
#
#
# Convention : Reuss Voigt Hill
#
# Bulk Modulus (GPa) = 52.27714 62.84552 57.56133
# Shear Modulus (GPa) = 23.82047 26.61087 25.21567
#
# Velocity S-wave (km/s) = 3.55275 3.75508 3.65531
# Velocity P-wave (km/s) = 6.67308 7.21813 6.95095
#
# Compressibility (1/GPa) = 0.01912882
#
# Stress axis : x y z
#
# Youngs Moduli (GPa) = 89.40818 48.03168 74.15405
#
# Poissons Ratio (x) = 0.22086 0.29659
# Poissons Ratio (y) = 0.41112 0.33981
# Poissons Ratio (z) = 0.35760 0.22011
#
# Static dielectric constant tensor:
#      x y z
#    x 3.543270 0.000000 0.149860 
#    y 0.000000 3.065550 0.000000 
#    z 0.149860 0.000000 3.628970 
# 
# 
# High freq. dielectric constant tensor:
#      x y z
#    x 1.741340 0.000000 0.011810 
#    y 0.000000 1.690460 0.000000 
#    z 0.011810 0.000000 1.733540 
# 
# From -- ./inp_files/314210.got.cif
#   From: 2010.06.25/outbox.cif.g09.slc.cpg/sg12_158_cif.got.tgz:314210.got - 2010.06.28 00:19:55.
