data_PCOD8090815
_publ_section_title
;
Structure prediction by ZEFSAII (Michael W. Deem and Ramdas Pophale) SiO2 
 PCOD8090815
Probable space group: C 2/M
;
_chemical_formula_sum "Si O2"
_cell_formula_units_Z 64
_cell_length_a 31.563492
_cell_length_b 11.101137
_cell_length_c 21.025375
_cell_angle_alpha 90.000000
_cell_angle_beta 26.885505
_cell_angle_gamma 90.000000
_cell_volume 3331.467179
_symmetry_space_group_name_H-M "C 2/M"
_symmetry_group_IT_number 12
_symmetry_cell_setting 'monoclinic'
loop_
_space_group_symop_operation_xyz
x,y,z
-x,y,-z
-x,-y,-z
x,-y,z
1/2+x,1/2+y,z
1/2-x,1/2+y,-z
1/2-x,1/2-y,-z
1/2+x,1/2-y,z
loop_
_atom_site_type_symbol
_atom_site_label
_atom_site_fract_x
_atom_site_fract_y
_atom_site_fract_z
Si Si1 0.387294 0.738229 0.291064
Si Si2 0.599144 0.136901 0.851479
Si Si3 0.945233 0.140106 0.862830
Si Si4 0.216384 0.758675 0.340728
Si Si5 0.021532 0.860547 0.621089
Si Si6 0.782701 0.370026 0.535943
Si Si7 0.241953 0.638172 0.173739
Si Si8 0.552291 0.863438 0.363425
O O1 0.382893 0.849918 0.248011
O O2 0.493006 0.700069 0.164292
O O3 0.327089 0.633188 0.337386
O O4 0.339359 0.769381 0.422092
O O5 0.681785 0.186685 0.784296
O O6 0.591044 0.000000 0.881595
O O7 0.500000 0.202632 0.000000
O O8 0.985174 0.170596 0.740050
O O9 0.949843 0.000000 0.869050
O O10 0.838903 0.187520 0.013684
O O11 0.134250 0.855764 0.464320
O O12 0.203699 0.649302 0.407143
O O13 0.209766 0.713686 0.277786
O O14 0.979754 0.750844 0.635323
O O15 0.991806 0.000000 0.642074
O O16 0.824213 0.500000 0.463806
O O17 0.252730 0.500000 0.180779
O O18 0.163444 0.652093 0.224692
O O19 0.500000 0.855097 0.500000
O O20 0.533113 0.000000 0.360234
#
# Coordination Sequence:
#
# PCOD8090815 Si02
#       8
#     8   8   8   8   8   8   8   8
#     4  10  19  34  51  76 109 149 191 235 284 337
#     4  10  21  35  51  74 111 153 189 234 291 346
#     4  10  21  38  58  84 118 154 192 236 293 351
#     4  11  20  36  57  85 110 148 195 243 284 343
#     4  11  23  39  61  90 121 154 193 243 296 355
#     4  10  20  31  51  80 110 144 191 242 285 331
#     4  10  21  38  62  86 114 151 190 238 294 354
#     4  10  21  40  64  91 119 151 192 242 296 352
#
# _framework density 19.210756
#
# number of rings (size 3 to 8) (size 9 to 14) (size 15 to 20)
#    0.000    1.750    2.500    2.250    0.000    1.250 
#    0.000    0.000    0.000    9.000    0.000    0.000 
#    0.000    0.000    0.000    0.000    0.000    0.000 
#
# Total GULP energy -396538.345361 kJ/mol
# GULP energy per Si atom -12391.823293 kJ/mol
# Density = 1.916703 g / cm^3
# Si number density = 19.210756 Si / 1000 Ang^3
#
#
#
# Elastic Constant Matrix: (Units=GPa)
#
#
# Indices 1 2 3 4 5 6 
#
# 1 82.3291 42.9486 28.1347 0.0000 -11.8838 0.0000
# 2 42.9486 90.2632 17.5867 -0.0013 2.3443 -0.0001
# 3 28.1347 17.5867 96.8283 -0.0004 -12.5405 -0.0001
# 4 0.0000 -0.0013 -0.0004 23.8871 -0.0001 0.0849
# 5 -11.8838 2.3443 -12.5405 -0.0001 35.1136 0.0001
# 6 0.0000 -0.0001 -0.0001 0.0849 0.0001 11.0919
#
#
#
# Elastic Compliance Matrix: (Units=1/GPa)
#
#
# Indices 1 2 3 4 5 6 
#
# 1 0.018332 -0.008267 -0.003093 -0.000001 0.005651 0.000000
# 2 -0.008267 0.015298 -0.000913 0.000001 -0.004145 0.000000
# 3 -0.003093 -0.000913 0.011811 0.000000 0.003232 0.000000
# 4 -0.000001 0.000001 0.000000 0.041865 0.000000 -0.000321
# 5 0.005651 -0.004145 0.003232 0.000000 0.031823 0.000000
# 6 0.000000 0.000000 0.000000 -0.000321 0.000000 0.090158
#
#
# Mechanical properties :
#
#
# Convention : Reuss Voigt Hill
#
# Bulk Modulus (GPa) = 47.86076 49.64007 48.75041
# Shear Modulus (GPa) = 20.76441 26.06856 23.41648
#
# Velocity S-wave (km/s) = 3.29123 3.68771 3.49510
# Velocity P-wave (km/s) = 6.27778 6.63537 6.45905
#
# Compressibility (1/GPa) = 0.02089394
#
# Stress axis : x y z
#
# Youngs Moduli (GPa) = 54.55071 65.36938 84.66812
#
# Poissons Ratio (x) = 0.54038 0.26189
# Poissons Ratio (y) = 0.45095 0.07734
# Poissons Ratio (z) = 0.16873 0.05971
#
# Static dielectric constant tensor:
#      x y z
#    x 3.498750 0.000000 -0.213940 
#    y 0.000000 3.359390 0.000000 
#    z -0.213940 0.000000 3.784000 
# 
# 
# High freq. dielectric constant tensor:
#      x y z
#    x 1.743440 0.000000 -0.010140 
#    y 0.000000 1.733630 0.000000 
#    z -0.010140 0.000000 1.755460 
# 
# From -- ./inp_files/250803.got.cif
#   From: 2010.06.25/outbox.cif.g09.slc.cpg/sg12_126_cif.got.tgz:250803.got - 2010.06.28 00:19:55.
