data_PCOD8090759
_publ_section_title
;
Structure prediction by ZEFSAII (Michael W. Deem and Ramdas Pophale) SiO2 
 PCOD8090759
Probable space group: C 2/M
;
_chemical_formula_sum "Si O2"
_cell_formula_units_Z 48
_cell_length_a 18.939127
_cell_length_b 14.155502
_cell_length_c 21.561374
_cell_angle_alpha 90.000000
_cell_angle_beta 157.202434
_cell_angle_gamma 90.000000
_cell_volume 2239.788177
_symmetry_space_group_name_H-M "C 2/M"
_symmetry_group_IT_number 12
_symmetry_cell_setting 'monoclinic'
loop_
_space_group_symop_operation_xyz
x,y,z
-x,y,-z
-x,-y,-z
x,-y,z
1/2+x,1/2+y,z
1/2-x,1/2+y,-z
1/2-x,1/2-y,-z
1/2+x,1/2-y,z
loop_
_atom_site_type_symbol
_atom_site_label
_atom_site_fract_x
_atom_site_fract_y
_atom_site_fract_z
Si Si1 0.926607 0.225349 0.327907
Si Si2 0.306889 0.394753 0.820293
Si Si3 0.153130 0.293755 0.308256
Si Si4 0.337414 0.801469 0.128802
Si Si5 0.981179 0.102472 0.835074
Si Si6 0.148181 0.390282 0.172449
O O1 0.864579 0.327350 0.304263
O O2 0.875124 0.225708 0.213824
O O3 0.836772 0.141043 0.294137
O O4 0.137421 0.201872 0.505850
O O5 0.272604 0.500000 0.820493
O O6 0.327673 0.401280 0.763562
O O7 0.500000 0.351713 0.000000
O O8 0.084962 0.185667 0.263403
O O9 0.109181 0.330381 0.203117
O O10 0.027822 0.349097 0.257946
O O11 0.250000 0.750000 0.000000
O O12 0.186910 0.878453 0.029272
O O13 0.985237 0.000000 0.804419
O O14 0.156445 0.500000 0.197272
O O15 0.000000 0.368095 0.000000
#
# Coordination Sequence:
#
# PCOD8090759 Si02
#       6
#     8   8   8   8   8   8
#     4  12  22  39  64  91 129 162 203 263 322 372
#     4  10  19  33  60  94 123 158 203 245 297 367
#     4  11  24  40  61  95 129 164 201 260 325 376
#     4  10  22  40  61  85 120 169 214 251 302 371
#     4  10  20  37  61  90 124 162 202 245 297 368
#     4  11  24  43  67  91 119 165 221 267 311 374
#
# _framework density 21.430599000000001
#
# number of rings (size 3 to 8) (size 9 to 14) (size 15 to 20)
#    0.000    1.333    3.333    3.500    0.000    2.667 
#    0.000    6.667    0.000    6.000    0.000    0.000 
#    0.000    0.000    0.000    0.000    0.000    0.000 
#
# Total GULP energy -297365.556207 kJ/mol
# GULP energy per Si atom -12390.231509 kJ/mol
# Density = 2.138182 g / cm^3
# Si number density = 21.430599 Si / 1000 Ang^3
#
#
#
# Elastic Constant Matrix: (Units=GPa)
#
#
# Indices 1 2 3 4 5 6 
#
# 1 112.2658 18.8719 23.3821 -0.0052 9.4767 -0.0025
# 2 18.8719 98.5140 25.2788 -0.0367 -0.3197 -0.0045
# 3 23.3821 25.2788 83.1169 -0.0221 19.1210 -0.0174
# 4 -0.0052 -0.0367 -0.0221 14.9564 0.0014 -4.3429
# 5 9.4767 -0.3197 19.1210 0.0014 40.5577 0.0002
# 6 -0.0025 -0.0045 -0.0174 -4.3429 0.0002 11.5363
#
#
#
# Elastic Compliance Matrix: (Units=1/GPa)
#
#
# Indices 1 2 3 4 5 6 
#
# 1 0.009662 -0.001340 -0.002006 -0.000004 -0.001322 -0.000003
# 2 -0.001340 0.011324 -0.003544 0.000024 0.002073 0.000008
# 3 -0.002006 -0.003544 0.015223 0.000022 -0.006736 0.000030
# 4 -0.000004 0.000024 0.000022 0.075067 -0.000012 0.028260
# 5 -0.001322 0.002073 -0.006736 -0.000012 0.028157 -0.000015
# 6 -0.000003 0.000008 0.000030 0.028260 -0.000015 0.097322
#
#
# Mechanical properties :
#
#
# Convention : Reuss Voigt Hill
#
# Bulk Modulus (GPa) = 44.58697 47.66248 46.12472
# Shear Modulus (GPa) = 19.37890 28.50098 23.93994
#
# Velocity S-wave (km/s) = 3.01036 3.65076 3.34592
# Velocity P-wave (km/s) = 5.73877 6.32925 6.04123
#
# Compressibility (1/GPa) = 0.02242808
#
# Stress axis : x y z
#
# Youngs Moduli (GPa) = 103.49568 88.31035 65.68969
#
# Poissons Ratio (x) = 0.11837 0.13179
# Poissons Ratio (y) = 0.13873 0.23279
# Poissons Ratio (z) = 0.20764 0.31295
#
# Static dielectric constant tensor:
#      x y z
#    x 4.414480 -0.000070 0.517180 
#    y -0.000070 3.952150 -0.000080 
#    z 0.517180 -0.000080 3.944740 
# 
# 
# High freq. dielectric constant tensor:
#      x y z
#    x 1.851070 0.000000 0.016600 
#    y 0.000000 1.821150 -0.000010 
#    z 0.016600 -0.000010 1.832010 
# 
# From -- ./inp_files/85183.got.cif
#   From: 2010.06.25/outbox.cif.g09.slc.cpg/sg12_43_cif.got.tgz:85183.got - 2010.06.28 00:19:55.
