data_PCOD8090090
_publ_section_title
;
Structure prediction by ZEFSAII (Michael W. Deem and Ramdas Pophale) SiO2 
 PCOD8090090
Probable space group: C 2/M
;
_chemical_formula_sum "Si O2"
_cell_formula_units_Z 56
_cell_length_a 25.049183
_cell_length_b 8.771711
_cell_length_c 16.346928
_cell_angle_alpha 90.000000
_cell_angle_beta 55.578108
_cell_angle_gamma 90.000000
_cell_volume 2962.879948
_symmetry_space_group_name_H-M "C 2/M"
_symmetry_group_IT_number 12
_symmetry_cell_setting 'monoclinic'
loop_
_space_group_symop_operation_xyz
x,y,z
-x,y,-z
-x,-y,-z
x,-y,z
1/2+x,1/2+y,z
1/2-x,1/2+y,-z
1/2-x,1/2-y,-z
1/2+x,1/2-y,z
loop_
_atom_site_type_symbol
_atom_site_label
_atom_site_fract_x
_atom_site_fract_y
_atom_site_fract_z
Si Si1 0.146425 0.176293 0.590164
Si Si2 0.987731 0.321540 0.261935
Si Si3 0.116211 0.181228 0.207513
Si Si4 0.721512 0.819541 0.217125
Si Si5 0.666493 0.676006 0.993282
Si Si6 0.757952 0.322933 0.615010
Si Si7 0.474568 0.676595 0.935843
O O1 0.082142 0.276671 0.643604
O O2 0.188509 0.220037 0.474953
O O3 0.187482 0.209803 0.637091
O O4 0.126922 0.000000 0.601679
O O5 0.997908 0.500000 0.261398
O O6 0.042788 0.240440 0.268775
O O7 0.991705 0.272782 0.164168
O O8 0.152261 0.243934 0.256641
O O9 0.113616 0.000000 0.209839
O O10 0.155187 0.245194 0.093749
O O11 0.774152 0.748868 0.107846
O O12 0.743672 0.774620 0.288850
O O13 0.715385 0.000000 0.214174
O O14 0.682513 0.500000 0.989609
O O15 0.602163 0.700712 0.995966
O O16 0.776490 0.500000 0.587392
O O17 0.492964 0.500000 0.905462
O O18 0.500000 0.737713 0.000000
#
# Coordination Sequence:
#
# PCOD8090090 Si02
#       7
#     8   8   8   8   8   8   8
#     4  10  20  37  60  82 109 143 182 223 274 331
#     4  11  22  36  56  79 109 145 183 226 277 325
#     4  10  20  36  54  78 110 145 188 226 267 322
#     4  10  19  33  55  81 110 143 182 223 271 322
#     4   8  16  30  50  77 108 145 182 217 261 316
#     4   9  20  36  57  84 112 141 178 224 274 329
#     4   9  18  32  53  79 111 146 185 224 264 321
#
# _framework density 18.900528999999999
#
# number of rings (size 3 to 8) (size 9 to 14) (size 15 to 20)
#    0.000    2.429    0.000    3.429    2.000    1.429 
#    0.000    3.571    0.000    4.286    0.000    0.000 
#    0.000    0.000    0.000    0.000    0.000    0.000 
#
# Total GULP energy -347200.421072 kJ/mol
# GULP energy per Si atom -12400.015038 kJ/mol
# Density = 1.885751 g / cm^3
# Si number density = 18.900529 Si / 1000 Ang^3
#
#
#
# Elastic Constant Matrix: (Units=GPa)
#
#
# Indices 1 2 3 4 5 6 
#
# 1 108.9026 33.1652 48.1703 0.0000 1.3631 0.0001
# 2 33.1652 63.6066 28.5527 -0.0001 0.4016 0.0002
# 3 48.1703 28.5527 63.1567 -0.0001 -5.8509 0.0000
# 4 0.0000 -0.0001 -0.0001 25.8625 0.0000 -1.1444
# 5 1.3631 0.4016 -5.8509 0.0000 26.1860 0.0000
# 6 0.0001 0.0002 0.0000 -1.1444 0.0000 29.2372
#
#
#
# Elastic Compliance Matrix: (Units=1/GPa)
#
#
# Indices 1 2 3 4 5 6 
#
# 1 0.014584 -0.003099 -0.009995 0.000000 -0.002945 0.000000
# 2 -0.003099 0.020525 -0.007076 0.000000 -0.001735 0.000000
# 3 -0.009995 -0.007076 0.027279 0.000000 0.006724 0.000000
# 4 0.000000 0.000000 0.000000 0.038733 0.000000 0.001516
# 5 -0.002945 -0.001735 0.006724 0.000000 0.039871 0.000000
# 6 0.000000 0.000000 0.000000 0.001516 0.000000 0.034262
#
#
# Mechanical properties :
#
#
# Convention : Reuss Voigt Hill
#
# Bulk Modulus (GPa) = 45.35712 50.60471 47.98092
# Shear Modulus (GPa) = 22.42705 24.64231 23.53468
#
# Velocity S-wave (km/s) = 3.44842 3.61472 3.53255
# Velocity P-wave (km/s) = 6.31707 6.65236 6.48688
#
# Compressibility (1/GPa) = 0.02204726
#
# Stress axis : x y z
#
# Youngs Moduli (GPa) = 68.56658 48.72128 36.65782
#
# Poissons Ratio (x) = 0.15098 0.36641
# Poissons Ratio (y) = 0.21248 0.25940
# Poissons Ratio (z) = 0.68535 0.34476
#
# Static dielectric constant tensor:
#      x y z
#    x 3.585550 0.000000 0.047990 
#    y 0.000000 3.255780 0.000000 
#    z 0.047990 0.000000 3.458620 
# 
# 
# High freq. dielectric constant tensor:
#      x y z
#    x 1.743830 0.000000 -0.002060 
#    y 0.000000 1.719140 0.000000 
#    z -0.002060 0.000000 1.719570 
# 
# From -- ./inp_files/238277.got.cif
#   From: 2010.06.25/outbox.cif.g09.slc.cpg/sg12_120_cif.got.tgz:238277.got - 2010.06.28 00:19:55.
