data_PCOD8090004
_publ_section_title
;
Structure prediction by ZEFSAII (Michael W. Deem and Ramdas Pophale) SiO2 
 PCOD8090004
Probable space group: C 2/M
;
_chemical_formula_sum "Si O2"
_cell_formula_units_Z 56
_cell_length_a 19.798879
_cell_length_b 8.739028
_cell_length_c 28.260439
_cell_angle_alpha 90.000000
_cell_angle_beta 37.201162
_cell_angle_gamma 90.000000
_cell_volume 2956.390152
_symmetry_space_group_name_H-M "C 2/M"
_symmetry_group_IT_number 12
_symmetry_cell_setting 'monoclinic'
loop_
_space_group_symop_operation_xyz
x,y,z
-x,y,-z
-x,-y,-z
x,-y,z
1/2+x,1/2+y,z
1/2-x,1/2+y,-z
1/2-x,1/2-y,-z
1/2+x,1/2-y,z
loop_
_atom_site_type_symbol
_atom_site_label
_atom_site_fract_x
_atom_site_fract_y
_atom_site_fract_z
Si Si1 0.168885 0.827241 0.197456
Si Si2 0.034505 0.182348 0.625801
Si Si3 0.319578 0.819860 0.374678
Si Si4 0.364281 0.680688 0.951927
Si Si5 0.079216 0.681529 0.499997
Si Si6 0.614206 0.319162 0.955496
Si Si7 0.498097 0.674538 0.211654
O O1 0.281289 0.728928 0.135148
O O2 0.082616 0.767279 0.285306
O O3 0.111295 0.812862 0.178622
O O4 0.203138 0.000000 0.189612
O O5 0.136710 0.248821 0.600165
O O6 0.030685 0.248510 0.575371
O O7 0.048891 0.000000 0.617174
O O8 0.202655 0.747782 0.423873
O O9 0.404302 0.786511 0.284483
O O10 0.305234 0.000000 0.389979
O O11 0.352551 0.500000 0.957872
O O12 0.468180 0.727542 0.859986
O O13 0.250000 0.750000 0.000000
O O14 0.383234 0.747422 0.993232
O O15 0.084936 0.500000 0.501488
O O16 0.000000 0.729579 0.500000
O O17 0.611181 0.500000 0.957238
O O18 0.500000 0.248588 0.000000
O O19 0.452573 0.500000 0.238867
#
# Coordination Sequence:
#
# PCOD8090004 Si02
#       7
#     8   8   8   8   8   8   8
#     4   9  18  34  56  81 109 143 182 229 278 326
#     4  10  21  39  63  88 117 149 188 235 284 338
#     4  11  22  37  61  89 117 149 191 236 281 337
#     4  10  19  33  55  79 108 145 187 234 281 329
#     4  11  24  42  62  86 117 152 189 229 282 341
#     4  10  21  35  51  77 112 148 186 228 277 334
#     4   9  18  34  55  81 112 144 186 237 286 330
#
# _framework density 18.942018000000001
#
# number of rings (size 3 to 8) (size 9 to 14) (size 15 to 20)
#    0.000    2.000    1.429    3.429    0.000    4.857 
#    2.571    0.000    0.000    0.000    0.000    0.000 
#    0.000    0.000    0.000    0.000    0.000    0.000 
#
# Total GULP energy -347143.266069 kJ/mol
# GULP energy per Si atom -12397.973788 kJ/mol
# Density = 1.889890 g / cm^3
# Si number density = 18.942018 Si / 1000 Ang^3
#
#
#
# Elastic Constant Matrix: (Units=GPa)
#
#
# Indices 1 2 3 4 5 6 
#
# 1 136.0164 40.9868 72.7581 0.0119 -3.8218 -0.0335
# 2 40.9868 56.9695 31.9311 0.0183 0.3730 -0.0146
# 3 72.7581 31.9311 126.1767 0.0022 -0.7397 -0.0069
# 4 0.0119 0.0183 0.0022 34.6935 0.0003 -1.6132
# 5 -3.8218 0.3730 -0.7397 0.0003 27.6515 0.0058
# 6 -0.0335 -0.0146 -0.0069 -1.6132 0.0058 24.8341
#
#
#
# Elastic Compliance Matrix: (Units=1/GPa)
#
#
# Indices 1 2 3 4 5 6 
#
# 1 0.012026 -0.005571 -0.005515 0.000000 0.001590 0.000011
# 2 -0.005571 0.023040 -0.002625 -0.000010 -0.001151 0.000005
# 3 -0.005515 -0.002625 0.011768 0.000002 -0.000412 -0.000005
# 4 0.000000 -0.000010 0.000002 0.028911 -0.000001 0.001878
# 5 0.001590 -0.001151 -0.000412 -0.000001 0.036389 -0.000007
# 6 0.000011 0.000005 -0.000005 0.001878 -0.000007 0.040389
#
#
# Mechanical properties :
#
#
# Convention : Reuss Voigt Hill
#
# Bulk Modulus (GPa) = 51.51760 67.83495 59.67627
# Shear Modulus (GPa) = 26.82181 29.00160 27.91171
#
# Velocity S-wave (km/s) = 3.76705 3.91714 3.84283
# Velocity P-wave (km/s) = 6.79540 7.50655 7.15981
#
# Compressibility (1/GPa) = 0.01941084
#
# Stress axis : x y z
#
# Youngs Moduli (GPa) = 83.15484 43.40246 84.97905
#
# Poissons Ratio (x) = 0.24180 0.46869
# Poissons Ratio (y) = 0.46326 0.22307
# Poissons Ratio (z) = 0.45863 0.11393
#
# Static dielectric constant tensor:
#      x y z
#    x 3.502150 0.000030 0.103400 
#    y 0.000030 3.399590 0.000020 
#    z 0.103400 0.000020 3.608840 
# 
# 
# High freq. dielectric constant tensor:
#      x y z
#    x 1.720400 0.000000 0.005010 
#    y 0.000000 1.732110 0.000000 
#    z 0.005010 0.000000 1.751880 
# 
# From -- ./inp_files/362950.got.cif
#   From: 2010.06.25/outbox.cif.g09.slc.cpg/sg12_182_cif.got.tgz:362950.got - 2010.06.28 00:19:55.
