data_PCOD8090363
_publ_section_title
;
Structure prediction by ZEFSAII (Michael W. Deem and Ramdas Pophale) SiO2 
 PCOD8090363
Probable space group: C 2/M
;
_chemical_formula_sum "Si O2"
_cell_formula_units_Z 64
_cell_length_a 17.516112
_cell_length_b 8.863616
_cell_length_c 27.119731
_cell_angle_alpha 90.000000
_cell_angle_beta 48.056473
_cell_angle_gamma 90.000000
_cell_volume 3131.789222
_symmetry_space_group_name_H-M "C 2/M"
_symmetry_group_IT_number 12
_symmetry_cell_setting 'monoclinic'
loop_
_space_group_symop_operation_xyz
x,y,z
-x,y,-z
-x,-y,-z
x,-y,z
1/2+x,1/2+y,z
1/2-x,1/2+y,-z
1/2-x,1/2-y,-z
1/2+x,1/2-y,z
loop_
_atom_site_type_symbol
_atom_site_label
_atom_site_fract_x
_atom_site_fract_y
_atom_site_fract_z
Si Si1 0.928621 0.174733 0.725134
Si Si2 0.277335 0.326171 0.639843
Si Si3 0.821402 0.174226 0.509462
Si Si4 0.398397 0.669716 0.011402
Si Si5 0.791020 0.324551 0.141762
Si Si6 0.429572 0.675062 0.242832
Si Si7 0.029198 0.677752 0.394607
Si Si8 0.510591 0.175969 0.879903
O O1 0.814708 0.230029 0.788262
O O2 0.969798 0.273525 0.662581
O O3 0.003639 0.204565 0.737889
O O4 0.927271 0.000000 0.709924
O O5 0.296094 0.500000 0.646069
O O6 0.267969 0.304189 0.585344
O O7 0.173690 0.271609 0.710101
O O8 0.369526 0.228296 0.621007
O O9 0.750000 0.250000 0.500000
O O10 0.932553 0.249467 0.463721
O O11 0.834693 0.000000 0.489856
O O12 0.370007 0.500000 0.008023
O O13 0.416537 0.769023 0.954693
O O14 0.500000 0.674705 0.000000
O O15 0.305971 0.737811 0.083638
O O16 0.787748 0.500000 0.129937
O O17 0.881016 0.287024 0.141203
O O18 0.401658 0.500000 0.248779
O O19 0.495410 0.731375 0.168032
O O20 0.017973 0.500000 0.402601
O O21 0.497278 0.000000 0.874924
#
# Coordination Sequence:
#
# PCOD8090363 Si02
#       8
#     8   8   8   8   8   8   8   8
#     4  10  22  40  60  83 117 156 192 238 294 350
#     4  11  24  42  63  87 117 155 197 240 288 342
#     4  11  24  42  65  92 124 160 196 237 287 344
#     4   9  17  30  51  80 112 143 181 235 290 340
#     4   9  18  34  56  81 108 144 189 233 285 347
#     4  11  23  38  58  85 116 151 192 239 291 346
#     4  12  25  40  63  92 120 153 196 244 290 341
#     4  10  19  33  56  82 111 149 191 236 286 347
#
# _framework density 20.435604000000001
#
# number of rings (size 3 to 8) (size 9 to 14) (size 15 to 20)
#    0.000    1.625    0.000    4.875    0.000   10.000 
#    0.000    0.625    0.000    0.000    0.000    0.000 
#    0.000    0.000    0.000    0.000    0.000    0.000 
#
# Total GULP energy -396997.762633 kJ/mol
# GULP energy per Si atom -12406.180082 kJ/mol
# Density = 2.038909 g / cm^3
# Si number density = 20.435604 Si / 1000 Ang^3
#
#
#
# Elastic Constant Matrix: (Units=GPa)
#
#
# Indices 1 2 3 4 5 6 
#
# 1 60.1985 33.5202 7.9431 0.0000 13.1953 0.0006
# 2 33.5202 111.8186 35.3136 -0.0001 16.5107 0.0004
# 3 7.9431 35.3136 67.9488 -0.0001 19.4520 -0.0002
# 4 0.0000 -0.0001 -0.0001 37.4586 0.0000 3.1789
# 5 13.1953 16.5107 19.4520 0.0000 28.7918 0.0001
# 6 0.0006 0.0004 -0.0002 3.1789 0.0001 28.3122
#
#
#
# Elastic Compliance Matrix: (Units=1/GPa)
#
#
# Indices 1 2 3 4 5 6 
#
# 1 0.021485 -0.006181 0.003106 0.000000 -0.008400 0.000000
# 2 -0.006181 0.012683 -0.005700 0.000000 -0.000589 0.000000
# 3 0.003106 -0.005700 0.020814 0.000000 -0.012216 0.000000
# 4 0.000000 0.000000 0.000000 0.026953 0.000000 -0.003026
# 5 -0.008400 -0.000589 -0.012216 0.000000 0.047173 0.000000
# 6 0.000000 0.000000 0.000000 -0.003026 0.000000 0.035660
#
#
# Mechanical properties :
#
#
# Convention : Reuss Voigt Hill
#
# Bulk Modulus (GPa) = 26.71645 43.72441 35.22043
# Shear Modulus (GPa) = 25.66781 29.79180 27.72980
#
# Velocity S-wave (km/s) = 3.54790 3.82231 3.68766
# Velocity P-wave (km/s) = 5.46675 6.39708 5.95013
#
# Compressibility (1/GPa) = 0.03743012
#
# Stress axis : x y z
#
# Youngs Moduli (GPa) = 46.54414 78.84449 48.04543
#
# Poissons Ratio (x) = 0.48734 -0.14921
# Poissons Ratio (y) = 0.28769 0.27387
# Poissons Ratio (z) = -0.14454 0.44944
#
# Static dielectric constant tensor:
#      x y z
#    x 3.747740 0.000000 -0.504670 
#    y 0.000000 3.764750 0.000000 
#    z -0.504670 0.000000 5.435010 
# 
# 
# High freq. dielectric constant tensor:
#      x y z
#    x 1.788080 0.000000 0.008870 
#    y 0.000000 1.805690 0.000000 
#    z 0.008870 0.000000 1.813130 
# 
# From -- ./inp_files/378044.got.cif
#   From: 2010.06.25/outbox.cif.g09.slc.cpg/sg12_190_cif.got.tgz:378044.got - 2010.06.28 00:19:55.
