data_PCOD8090424
_publ_section_title
;
Structure prediction by ZEFSAII (Michael W. Deem and Ramdas Pophale) SiO2 
 PCOD8090424
Probable space group: C 2/M
;
_chemical_formula_sum "Si O2"
_cell_formula_units_Z 56
_cell_length_a 18.089296
_cell_length_b 8.436185
_cell_length_c 29.003926
_cell_angle_alpha 90.000000
_cell_angle_beta 140.873923
_cell_angle_gamma 90.000000
_cell_volume 2793.018603
_symmetry_space_group_name_H-M "C 2/M"
_symmetry_group_IT_number 12
_symmetry_cell_setting 'monoclinic'
loop_
_space_group_symop_operation_xyz
x,y,z
-x,y,-z
-x,-y,-z
x,-y,z
1/2+x,1/2+y,z
1/2-x,1/2+y,-z
1/2-x,1/2-y,-z
1/2+x,1/2-y,z
loop_
_atom_site_type_symbol
_atom_site_label
_atom_site_fract_x
_atom_site_fract_y
_atom_site_fract_z
Si Si1 0.371002 0.185233 0.431878
Si Si2 0.058982 0.683299 0.707166
Si Si3 0.216095 0.816584 0.704511
Si Si4 0.199337 0.188804 0.427853
Si Si5 0.671806 0.815367 0.002125
Si Si6 0.480831 0.186450 0.844409
Si Si7 0.360616 0.314339 0.159337
O O1 0.500000 0.263336 0.500000
O O2 0.321342 0.215970 0.357459
O O3 0.284369 0.254039 0.428771
O O4 0.381482 0.000000 0.445372
O O5 0.069449 0.500000 0.698706
O O6 0.129045 0.786576 0.704279
O O7 0.112241 0.710217 0.783208
O O8 0.925244 0.734941 0.642123
O O9 0.346013 0.762941 0.782301
O O10 0.212639 0.000000 0.689191
O O11 0.250000 0.250000 0.500000
O O12 0.188391 0.000000 0.422712
O O13 0.538037 0.771410 0.922888
O O14 0.689679 0.000000 0.011533
O O15 0.750000 0.750000 0.000000
O O16 0.729376 0.758120 0.078477
O O17 0.543015 0.282504 0.833564
O O18 0.495803 0.000000 0.841303
O O19 0.365057 0.500000 0.174584
#
# Coordination Sequence:
#
# PCOD8090424 Si02
#       7
#     8   8   8   8   8   8   8
#     4  10  22  40  61  86 116 148 180 219 272 331
#     4  12  25  40  57  78 112 154 193 236 283 330
#     4  11  23  38  58  83 111 145 188 236 283 336
#     4  11  23  40  64  92 121 151 186 227 272 328
#     4   8  15  29  51  79 110 143 180 226 279 337
#     4   9  18  34  56  83 113 145 183 229 286 346
#     4  10  19  33  56  84 112 145 188 234 280 335
#
# _framework density 20.049992
#
# number of rings (size 3 to 8) (size 9 to 14) (size 15 to 20)
#    0.000    1.857    0.000    4.286    0.000    6.571 
#    0.000    0.714    0.000    4.286    0.000    0.000 
#    0.000    0.000    0.000    0.000    0.000    0.000 
#
# Total GULP energy -347047.794790 kJ/mol
# GULP energy per Si atom -12394.564100 kJ/mol
# Density = 2.000436 g / cm^3
# Si number density = 20.049992 Si / 1000 Ang^3
#
#
#
# Elastic Constant Matrix: (Units=GPa)
#
#
# Indices 1 2 3 4 5 6 
#
# 1 104.0026 -0.4311 61.0114 0.0001 3.6189 -0.0002
# 2 -0.4311 25.7303 11.3908 0.0004 1.7850 -0.0010
# 3 61.0114 11.3908 178.9150 0.0000 1.8293 0.0000
# 4 0.0001 0.0004 0.0000 25.7103 0.0000 -4.4775
# 5 3.6189 1.7850 1.8293 0.0000 33.9643 0.0001
# 6 -0.0002 -0.0010 0.0000 -4.4775 0.0001 24.2003
#
#
#
# Elastic Compliance Matrix: (Units=1/GPa)
#
#
# Indices 1 2 3 4 5 6 
#
# 1 0.012175 0.002180 -0.004279 0.000000 -0.001181 0.000000
# 2 0.002180 0.040514 -0.003300 0.000000 -0.002184 0.000002
# 3 -0.004279 -0.003300 0.007256 0.000000 0.000239 0.000000
# 4 0.000000 0.000000 0.000000 0.040190 0.000000 0.007436
# 5 -0.001181 -0.002184 0.000239 0.000000 0.029670 0.000000
# 6 0.000000 0.000002 0.000000 0.007436 0.000000 0.042698
#
#
# Mechanical properties :
#
#
# Convention : Reuss Voigt Hill
#
# Bulk Modulus (GPa) = 20.34708 50.28779 35.31744
# Shear Modulus (GPa) = 25.03966 32.55343 28.79654
#
# Velocity S-wave (km/s) = 3.53776 4.03378 3.79388
# Velocity P-wave (km/s) = 5.18245 6.84330 6.06995
#
# Compressibility (1/GPa) = 0.04914709
#
# Stress axis : x y z
#
# Youngs Moduli (GPa) = 82.13387 24.68297 137.81769
#
# Poissons Ratio (x) = -0.05381 0.58966
# Poissons Ratio (y) = -0.17906 0.45486
# Poissons Ratio (z) = 0.35142 0.08146
#
# Static dielectric constant tensor:
#      x y z
#    x 3.583120 0.000000 0.153240 
#    y 0.000000 3.572540 0.000000 
#    z 0.153240 0.000000 4.319870 
# 
# 
# High freq. dielectric constant tensor:
#      x y z
#    x 1.762050 0.000000 0.000730 
#    y 0.000000 1.778140 0.000000 
#    z 0.000730 0.000000 1.813080 
# 
# From -- ./inp_files/377778.got.cif
#   From: 2010.06.25/outbox.cif.g09.slc.cpg/sg12_189_cif.got.tgz:377778.got - 2010.06.28 00:19:55.
