data_PCOD8090560
_publ_section_title
;
Structure prediction by ZEFSAII (Michael W. Deem and Ramdas Pophale) SiO2 
 PCOD8090560
Probable space group: C 2/M
;
_chemical_formula_sum "Si O2"
_cell_formula_units_Z 64
_cell_length_a 20.600537
_cell_length_b 8.877781
_cell_length_c 20.128659
_cell_angle_alpha 90.000000
_cell_angle_beta 66.491924
_cell_angle_gamma 90.000000
_cell_volume 3375.739888
_symmetry_space_group_name_H-M "C 2/M"
_symmetry_group_IT_number 12
_symmetry_cell_setting 'monoclinic'
loop_
_space_group_symop_operation_xyz
x,y,z
-x,y,-z
-x,-y,-z
x,-y,z
1/2+x,1/2+y,z
1/2-x,1/2+y,-z
1/2-x,1/2-y,-z
1/2+x,1/2-y,z
loop_
_atom_site_type_symbol
_atom_site_label
_atom_site_fract_x
_atom_site_fract_y
_atom_site_fract_z
Si Si1 0.578832 0.178981 0.462966
Si Si2 0.341552 0.672468 0.918372
Si Si3 0.633302 0.821388 0.299254
Si Si4 0.387413 0.822694 0.290469
Si Si5 0.962955 0.174750 0.769993
Si Si6 0.705806 0.674007 0.920544
Si Si7 0.174946 0.678071 0.543254
Si Si8 0.216107 0.323349 0.785449
O O1 0.500000 0.246760 0.500000
O O2 0.615975 0.235262 0.380550
O O3 0.622480 0.239691 0.508013
O O4 0.575441 0.000000 0.465668
O O5 0.316426 0.500000 0.917260
O O6 0.418275 0.701135 0.855587
O O7 0.286134 0.781721 0.905482
O O8 0.345056 0.707655 0.995745
O O9 0.571377 0.763375 0.277010
O O10 0.708408 0.756480 0.247858
O O11 0.635541 0.000000 0.293852
O O12 0.459469 0.735970 0.246854
O O13 0.355402 0.769958 0.373605
O O14 0.331809 0.774286 0.256819
O O15 0.402725 0.000000 0.283163
O O16 0.966191 0.000000 0.749589
O O17 0.704622 0.500000 0.900885
O O18 0.678158 0.770430 0.869077
O O19 0.183214 0.500000 0.536684
O O20 0.250000 0.750000 0.500000
O O21 0.229039 0.500000 0.781138
#
# Coordination Sequence:
#
# PCOD8090560 Si02
#       8
#     8   8   8   8   8   8   8   8
#     4   9  18  33  54  79 107 139 178 226 275 326
#     4   9  19  35  55  83 116 146 181 230 282 330
#     4  11  21  34  57  85 111 144 187 230 279 342
#     4  10  23  40  58  80 113 154 192 231 280 339
#     4  11  22  37  58  84 115 149 184 231 285 334
#     4  10  19  33  57  85 111 146 188 228 277 335
#     4  10  20  37  59  81 107 144 187 232 280 332
#     4  11  22  37  55  81 115 148 185 235 283 323
#
# _framework density 18.958805999999999
#
# number of rings (size 3 to 8) (size 9 to 14) (size 15 to 20)
#    0.000    1.875    1.250    3.000    0.000    4.500 
#    0.000    1.250    0.000    6.375    0.000    0.000 
#    0.000    0.000    0.000    0.000    0.000    0.000 
#
# Total GULP energy -396895.993306 kJ/mol
# GULP energy per Si atom -12402.999791 kJ/mol
# Density = 1.891565 g / cm^3
# Si number density = 18.958806 Si / 1000 Ang^3
#
#
#
# Elastic Constant Matrix: (Units=GPa)
#
#
# Indices 1 2 3 4 5 6 
#
# 1 107.0323 31.9713 53.4746 -0.0001 4.9865 -0.0002
# 2 31.9713 56.4506 35.7609 -0.0004 1.4906 -0.0010
# 3 53.4746 35.7609 139.0699 0.0001 9.8780 0.0000
# 4 -0.0001 -0.0004 0.0001 25.6175 0.0000 -2.4791
# 5 4.9865 1.4906 9.8780 0.0000 33.8953 0.0000
# 6 -0.0002 -0.0010 0.0000 -2.4791 0.0000 28.6467
#
#
#
# Elastic Compliance Matrix: (Units=1/GPa)
#
#
# Indices 1 2 3 4 5 6 
#
# 1 0.012599 -0.004872 -0.003549 0.000000 -0.000605 0.000000
# 2 -0.004872 0.023060 -0.004121 0.000000 0.000903 0.000001
# 3 -0.003549 -0.004121 0.009767 0.000000 -0.002143 0.000000
# 4 0.000000 0.000000 0.000000 0.039366 0.000000 0.003407
# 5 -0.000605 0.000903 -0.002143 0.000000 0.030176 0.000000
# 6 0.000000 0.000001 0.000000 0.003407 0.000000 0.035203
#
#
# Mechanical properties :
#
#
# Convention : Reuss Voigt Hill
#
# Bulk Modulus (GPa) = 49.15423 60.55181 54.85302
# Shear Modulus (GPa) = 27.46712 29.72164 28.59438
#
# Velocity S-wave (km/s) = 3.81041 3.96371 3.88782
# Velocity P-wave (km/s) = 6.73366 7.27708 7.01064
#
# Compressibility (1/GPa) = 0.02034413
#
# Stress axis : x y z
#
# Youngs Moduli (GPa) = 79.36839 43.36465 102.38425
#
# Poissons Ratio (x) = 0.21125 0.36336
# Poissons Ratio (y) = 0.38665 0.42190
# Poissons Ratio (z) = 0.28168 0.17870
#
# Static dielectric constant tensor:
#      x y z
#    x 6.699640 0.000010 2.740720 
#    y 0.000010 3.375320 0.000010 
#    z 2.740720 0.000010 5.860240 
# 
# 
# High freq. dielectric constant tensor:
#      x y z
#    x 1.725690 0.000000 0.006560 
#    y 0.000000 1.728770 0.000000 
#    z 0.006560 0.000000 1.756590 
# 
# From -- ./inp_files/319845.got.cif
#   From: 2010.06.25/outbox.cif.g09.slc.cpg/sg12_160_cif.got.tgz:319845.got - 2010.06.28 00:19:55.
