data_PCOD8090727
_publ_section_title
;
Structure prediction by ZEFSAII (Michael W. Deem and Ramdas Pophale) SiO2 
 PCOD8090727
Probable space group: C 2/M
;
_chemical_formula_sum "Si O2"
_cell_formula_units_Z 64
_cell_length_a 15.965283
_cell_length_b 23.629784
_cell_length_c 12.917142
_cell_angle_alpha 90.000000
_cell_angle_beta 36.483835
_cell_angle_gamma 90.000000
_cell_volume 2897.508826
_symmetry_space_group_name_H-M "C 2/M"
_symmetry_group_IT_number 12
_symmetry_cell_setting 'monoclinic'
loop_
_space_group_symop_operation_xyz
x,y,z
-x,y,-z
-x,-y,-z
x,-y,z
1/2+x,1/2+y,z
1/2-x,1/2+y,-z
1/2-x,1/2-y,-z
1/2+x,1/2-y,z
loop_
_atom_site_type_symbol
_atom_site_label
_atom_site_fract_x
_atom_site_fract_y
_atom_site_fract_z
Si Si1 0.653377 0.384343 0.557966
Si Si2 0.383631 0.064335 0.465434
Si Si3 0.339392 0.667119 0.657118
Si Si4 0.167141 0.384137 0.120842
Si Si5 0.071672 0.190588 0.826362
Si Si6 0.343927 0.220831 0.994688
Si Si7 0.876569 0.935545 0.764763
Si Si8 0.657184 0.835676 0.344423
O O1 0.784543 0.419911 0.467851
O O2 0.707801 0.340264 0.415771
O O3 0.570108 0.351652 0.731491
O O4 0.542864 0.427394 0.616350
O O5 0.543954 0.072991 0.272240
O O6 0.348401 0.102195 0.599264
O O7 0.359009 0.000000 0.523161
O O8 0.500000 0.688543 0.500000
O O9 0.247403 0.714580 0.808671
O O10 0.322524 0.605966 0.728747
O O11 0.215826 0.345230 0.170166
O O12 0.110724 0.341043 0.089402
O O13 0.297303 0.420851 0.950759
O O14 0.235581 0.203412 0.695551
O O15 0.000000 0.162600 0.000000
O O16 0.988382 0.246969 0.877092
O O17 0.250000 0.250000 0.000000
O O18 0.846431 0.000000 0.761561
O O19 0.500000 0.808336 0.500000
#
# Coordination Sequence:
#
# PCOD8090727 Si02
#       8
#     8   8   8   8   8   8   8   8
#     4  10  21  39  59  87 122 152 194 248 294 353
#     4  10  21  37  59  87 120 158 197 242 301 360
#     4   9  20  38  58  86 123 157 198 245 294 359
#     4  10  21  39  59  85 120 154 197 248 294 353
#     4  11  22  40  64  88 119 158 199 246 301 355
#     4  11  22  39  63  89 120 161 203 250 307 358
#     4  10  19  33  59  88 116 157 199 238 292 353
#     4   9  20  39  60  86 119 156 200 250 299 355
#
# _framework density 22.087938000000001
#
# number of rings (size 3 to 8) (size 9 to 14) (size 15 to 20)
#    0.000    2.000    0.000    4.500    0.000    6.500 
#    0.000   21.875    0.000    7.875    0.000    0.000 
#    0.000    0.000    0.000    0.000    0.000    3.625 
#
# Total GULP energy -396756.071657 kJ/mol
# GULP energy per Si atom -12398.627239 kJ/mol
# Density = 2.203766 g / cm^3
# Si number density = 22.087938 Si / 1000 Ang^3
#
#
#
# Elastic Constant Matrix: (Units=GPa)
#
#
# Indices 1 2 3 4 5 6 
#
# 1 105.7789 34.4421 41.6391 -0.0092 -7.3477 0.0098
# 2 34.4421 88.6540 27.6698 -0.0077 -5.6525 0.0077
# 3 41.6391 27.6698 98.3223 -0.0083 10.5321 0.0092
# 4 -0.0092 -0.0077 -0.0083 31.3557 0.0069 -1.8384
# 5 -7.3477 -5.6525 10.5321 0.0069 44.3534 -0.0083
# 6 0.0098 0.0077 0.0092 -1.8384 -0.0083 23.8892
#
#
#
# Elastic Compliance Matrix: (Units=1/GPa)
#
#
# Indices 1 2 3 4 5 6 
#
# 1 0.012551 -0.003230 -0.004704 0.000001 0.002785 -0.000001
# 2 -0.003230 0.013466 -0.002615 0.000001 0.001802 -0.000001
# 3 -0.004704 -0.002615 0.013358 0.000002 -0.004284 -0.000004
# 4 0.000001 0.000001 0.000002 0.032037 -0.000005 0.002465
# 5 0.002785 0.001802 -0.004284 -0.000005 0.024255 0.000008
# 6 -0.000001 -0.000001 -0.000004 0.002465 0.000008 0.042050
#
#
# Mechanical properties :
#
#
# Convention : Reuss Voigt Hill
#
# Bulk Modulus (GPa) = 54.71719 55.58413 55.15066
# Shear Modulus (GPa) = 30.32048 32.51993 31.42020
#
# Velocity S-wave (km/s) = 3.70904 3.84121 3.77570
# Velocity P-wave (km/s) = 6.57030 6.70021 6.63557
#
# Compressibility (1/GPa) = 0.01827579
#
# Stress axis : x y z
#
# Youngs Moduli (GPa) = 79.67664 74.26328 74.86328
#
# Poissons Ratio (x) = 0.23988 0.35219
# Poissons Ratio (y) = 0.25736 0.19573
# Poissons Ratio (z) = 0.37484 0.19416
#
# Static dielectric constant tensor:
#      x y z
#    x 4.117170 -0.000010 0.148480 
#    y -0.000010 3.728350 0.000030 
#    z 0.148480 0.000030 4.236870 
# 
# 
# High freq. dielectric constant tensor:
#      x y z
#    x 1.871530 0.000000 0.008660 
#    y 0.000000 1.853380 0.000000 
#    z 0.008660 0.000000 1.878300 
# 
# From -- ./inp_files/149732.got.cif
#   From: 2010.06.25/outbox.cif.g09.slc.cpg/sg12_75_cif.got.tgz:149732.got - 2010.06.28 00:19:55.
