data_PCOD8090670
_publ_section_title
;
Structure prediction by ZEFSAII (Michael W. Deem and Ramdas Pophale) SiO2 
 PCOD8090670
Probable space group: C 2/M
;
_chemical_formula_sum "Si O2"
_cell_formula_units_Z 48
_cell_length_a 20.497444
_cell_length_b 8.765036
_cell_length_c 23.037186
_cell_angle_alpha 90.000000
_cell_angle_beta 141.475788
_cell_angle_gamma 90.000000
_cell_volume 2577.881973
_symmetry_space_group_name_H-M "C 2/M"
_symmetry_group_IT_number 12
_symmetry_cell_setting 'monoclinic'
loop_
_space_group_symop_operation_xyz
x,y,z
-x,y,-z
-x,-y,-z
x,-y,z
1/2+x,1/2+y,z
1/2-x,1/2+y,-z
1/2-x,1/2-y,-z
1/2+x,1/2-y,z
loop_
_atom_site_type_symbol
_atom_site_label
_atom_site_fract_x
_atom_site_fract_y
_atom_site_fract_z
Si Si1 0.060743 0.820449 0.722977
Si Si2 0.801965 0.678135 0.277773
Si Si3 0.885339 0.177192 0.936096
Si Si4 0.884504 0.177381 0.443906
Si Si5 0.247319 0.178882 0.935194
Si Si6 0.645082 0.180309 0.451740
O O1 0.109618 0.767034 0.696367
O O2 0.137598 0.774349 0.828960
O O3 0.950489 0.735994 0.655716
O O4 0.041311 0.000000 0.705897
O O5 0.830547 0.500000 0.298701
O O6 0.688553 0.707341 0.170674
O O7 0.800797 0.747693 0.341453
O O8 0.844090 0.262931 0.964238
O O9 0.890107 0.000000 0.955663
O O10 0.000000 0.240664 0.000000
O O11 0.873511 0.262933 0.496470
O O12 0.000000 0.204700 0.500000
O O13 0.858397 0.000000 0.434125
O O14 0.257920 0.000000 0.948309
O O15 0.250000 0.250000 0.000000
O O16 0.750000 0.250000 0.500000
O O17 0.652365 0.000000 0.455381
#
# Coordination Sequence:
#
# PCOD8090670 Si02
#       6
#     8   8   8   8   8   8
#     4  10  20  37  59  84 114 151 191 236 288 340
#     4  10  19  33  58  88 113 148 194 237 283 337
#     4   9  19  37  59  84 117 152 185 232 290 341
#     4  11  22  37  60  86 116 151 190 235 281 336
#     4  10  21  37  60  86 114 150 192 238 283 339
#     4  12  25  41  61  85 117 152 190 235 288 343
#
# _framework density 18.619935999999999
#
# number of rings (size 3 to 8) (size 9 to 14) (size 15 to 20)
#    0.000    1.667    1.667    3.500    0.000    3.667 
#    3.000    0.000    0.000    0.000    0.000    0.000 
#    0.000    0.000    0.000    0.000    0.000    0.000 
#
# Total GULP energy -297694.052938 kJ/mol
# GULP energy per Si atom -12403.918872 kJ/mol
# Density = 1.857756 g / cm^3
# Si number density = 18.619936 Si / 1000 Ang^3
#
#
#
# Elastic Constant Matrix: (Units=GPa)
#
#
# Indices 1 2 3 4 5 6 
#
# 1 115.9343 68.5657 82.4958 0.0000 8.9971 0.0000
# 2 68.5657 107.5543 58.4062 0.0000 -3.2367 0.0000
# 3 82.4958 58.4062 125.3095 0.0000 0.5002 0.0000
# 4 0.0000 0.0000 0.0000 33.0716 0.0000 -2.8490
# 5 8.9971 -3.2367 0.5002 0.0000 34.0903 0.0000
# 6 0.0000 0.0000 0.0000 -2.8490 0.0000 35.2296
#
#
#
# Elastic Compliance Matrix: (Units=1/GPa)
#
#
# Indices 1 2 3 4 5 6 
#
# 1 0.021094 -0.008175 -0.010052 0.000000 -0.006196 0.000000
# 2 -0.008175 0.015672 -0.001937 0.000000 0.003674 0.000000
# 3 -0.010052 -0.001937 0.015492 0.000000 0.002242 0.000000
# 4 0.000000 0.000000 0.000000 0.030450 0.000000 0.002462
# 5 -0.006196 0.003674 0.002242 0.000000 0.031285 0.000000
# 6 0.000000 0.000000 0.000000 0.002462 0.000000 0.028584
#
#
# Mechanical properties :
#
#
# Convention : Reuss Voigt Hill
#
# Bulk Modulus (GPa) = 83.82880 85.30373 84.56627
# Shear Modulus (GPa) = 26.75497 29.76700 28.26099
#
# Velocity S-wave (km/s) = 3.79476 4.00267 3.90010
# Velocity P-wave (km/s) = 8.01991 8.20209 8.11151
#
# Compressibility (1/GPa) = 0.01192907
#
# Stress axis : x y z
#
# Youngs Moduli (GPa) = 47.40684 63.80845 64.55111
#
# Poissons Ratio (x) = 0.52166 0.64885
# Poissons Ratio (y) = 0.38757 0.12504
# Poissons Ratio (z) = 0.47652 0.12361
#
# Static dielectric constant tensor:
#      x y z
#    x 3.362580 0.000000 0.069480 
#    y 0.000000 3.540380 0.000000 
#    z 0.069480 0.000000 3.691610 
# 
# 
# High freq. dielectric constant tensor:
#      x y z
#    x 1.707170 0.000000 -0.002360 
#    y 0.000000 1.737220 0.000000 
#    z -0.002360 0.000000 1.734200 
# 
# From -- ./inp_files/345705.got.cif
#   From: 2010.06.25/outbox.cif.g09.slc.cpg/sg12_173_cif.got.tgz:345705.got - 2010.06.28 00:19:55.
