data_PCOD8090635
_publ_section_title
;
Structure prediction by ZEFSAII (Michael W. Deem and Ramdas Pophale) SiO2 
 PCOD8090635
Probable space group: C 2/M
;
_chemical_formula_sum "Si O2"
_cell_formula_units_Z 56
_cell_length_a 20.913026
_cell_length_b 29.069824
_cell_length_c 8.757895
_cell_angle_alpha 90.000000
_cell_angle_beta 152.275597
_cell_angle_gamma 90.000000
_cell_volume 2476.946089
_symmetry_space_group_name_H-M "C 2/M"
_symmetry_group_IT_number 12
_symmetry_cell_setting 'monoclinic'
loop_
_space_group_symop_operation_xyz
x,y,z
-x,y,-z
-x,-y,-z
x,-y,z
1/2+x,1/2+y,z
1/2-x,1/2+y,-z
1/2-x,1/2-y,-z
1/2+x,1/2-y,z
loop_
_atom_site_type_symbol
_atom_site_label
_atom_site_fract_x
_atom_site_fract_y
_atom_site_fract_z
Si Si1 0.765549 0.551935 0.732078
Si Si2 0.581357 0.049793 0.358899
Si Si3 0.350494 0.210259 0.765574
Si Si4 0.126916 0.746661 0.858893
Si Si5 0.611923 0.351370 0.857586
Si Si6 0.351044 0.900320 0.213268
Si Si7 0.223352 0.884435 0.389756
O O1 0.707150 0.500000 0.630198
O O2 0.670608 0.581153 0.412327
O O3 0.768202 0.580032 0.894404
O O4 0.918702 0.550034 0.986261
O O5 0.619216 0.055612 0.616885
O O6 0.643914 0.092497 0.403870
O O7 0.640912 0.000000 0.432589
O O8 0.250000 0.250000 0.500000
O O9 0.276172 0.162938 0.570792
O O10 0.500000 0.214564 0.000000
O O11 0.354259 0.212990 0.957547
O O12 0.091325 0.797580 0.846053
O O13 0.000000 0.725654 0.500000
O O14 0.250000 0.750000 0.000000
O O15 0.500000 0.370629 0.500000
O O16 0.761365 0.360282 0.100953
O O17 0.605418 0.376593 0.010388
O O18 0.500000 0.877041 0.500000
#
# Coordination Sequence:
#
# PCOD8090635 Si02
#       7
#     8   8   8   8   8   8   8
#     4  10  19  33  57  96 132 162 206 267 328 383
#     4   9  17  33  58  90 132 170 204 256 324 391
#     4  12  25  45  68  99 137 172 219 279 331 387
#     4  11  25  45  68  95 129 175 221 271 331 395
#     4  10  23  44  62  86 123 170 221 259 320 395
#     4   9  19  35  62  94 126 164 213 264 316 378
#     4  11  22  38  61  93 127 168 215 265 325 387
#
# _framework density 22.608485999999999
#
# number of rings (size 3 to 8) (size 9 to 14) (size 15 to 20)
#    0.000    1.714    1.429    3.000    2.000    3.429 
#    0.000    0.714    0.000   16.286    0.000    0.000 
#    0.000    0.000    0.000    0.000    0.000    0.000 
#
# Total GULP energy -347010.388146 kJ/mol
# GULP energy per Si atom -12393.228148 kJ/mol
# Density = 2.255703 g / cm^3
# Si number density = 22.608486 Si / 1000 Ang^3
#
#
#
# Elastic Constant Matrix: (Units=GPa)
#
#
# Indices 1 2 3 4 5 6 
#
# 1 92.4027 20.7240 48.7367 0.0000 -29.4996 0.0000
# 2 20.7240 110.2268 32.7841 0.0000 -22.3023 0.0000
# 3 48.7367 32.7841 123.3618 0.0000 -41.2507 0.0000
# 4 0.0000 0.0000 0.0000 15.2175 0.0000 -4.0850
# 5 -29.4996 -22.3023 -41.2507 0.0000 52.5930 0.0000
# 6 0.0000 0.0000 0.0000 -4.0850 0.0000 27.4180
#
#
#
# Elastic Compliance Matrix: (Units=1/GPa)
#
#
# Indices 1 2 3 4 5 6 
#
# 1 0.014599 -0.000582 -0.004009 0.000000 0.004798 0.000000
# 2 -0.000582 0.010206 -0.001551 0.000000 0.002785 0.000000
# 3 -0.004009 -0.001551 0.012376 0.000000 0.006801 0.000000
# 4 0.000000 0.000000 0.000000 0.068452 0.000000 0.010199
# 5 0.004798 0.002785 0.006801 0.000000 0.028220 0.000000
# 6 0.000000 0.000000 0.000000 0.010199 0.000000 0.037992
#
#
# Mechanical properties :
#
#
# Convention : Reuss Voigt Hill
#
# Bulk Modulus (GPa) = 40.16376 58.94232 49.55304
# Shear Modulus (GPa) = 25.98375 33.96212 29.97293
#
# Velocity S-wave (km/s) = 3.39380 3.88001 3.64502
# Velocity P-wave (km/s) = 5.75853 6.79706 6.29923
#
# Compressibility (1/GPa) = 0.02489807
#
# Stress axis : x y z
#
# Youngs Moduli (GPa) = 68.49963 97.97696 80.79919
#
# Poissons Ratio (x) = 0.05700 0.32389
# Poissons Ratio (y) = 0.03985 0.12535
# Poissons Ratio (z) = 0.27459 0.15199
#
# Static dielectric constant tensor:
#      x y z
#    x 4.379940 0.000000 -0.546790 
#    y 0.000000 4.173260 0.000000 
#    z -0.546790 0.000000 4.199470 
# 
# 
# High freq. dielectric constant tensor:
#      x y z
#    x 1.890170 0.000000 -0.036580 
#    y 0.000000 1.895780 0.000000 
#    z -0.036580 0.000000 1.882650 
# 
# From -- ./inp_files/91615.got.cif
#   From: 2010.06.25/outbox.cif.g09.slc.cpg/sg12_46_cif.got.tgz:91615.got - 2010.06.28 00:19:55.
