data_PCOD8090621
_publ_section_title
;
Structure prediction by ZEFSAII (Michael W. Deem and Ramdas Pophale) SiO2 
 PCOD8090621
Probable space group: C 2/M
;
_chemical_formula_sum "Si O2"
_cell_formula_units_Z 48
_cell_length_a 17.338390
_cell_length_b 30.365628
_cell_length_c 9.081896
_cell_angle_alpha 90.000000
_cell_angle_beta 149.735134
_cell_angle_gamma 90.000000
_cell_volume 2409.885735
_symmetry_space_group_name_H-M "C 2/M"
_symmetry_group_IT_number 12
_symmetry_cell_setting 'monoclinic'
loop_
_space_group_symop_operation_xyz
x,y,z
-x,y,-z
-x,-y,-z
x,-y,z
1/2+x,1/2+y,z
1/2-x,1/2+y,-z
1/2-x,1/2-y,-z
1/2+x,1/2-y,z
loop_
_atom_site_type_symbol
_atom_site_label
_atom_site_fract_x
_atom_site_fract_y
_atom_site_fract_z
Si Si1 0.239131 0.586152 0.624725
Si Si2 0.143455 0.500000 0.621425
Si Si3 0.064760 0.089472 0.315167
Si Si4 0.585050 0.757146 0.287029
Si Si5 0.368589 0.169216 0.397882
Si Si6 0.035350 0.178180 0.724231
Si Si7 0.481134 0.500000 0.302030
O O1 0.144348 0.542713 0.516421
O O2 0.274382 0.590861 0.509046
O O3 0.139906 0.627295 0.510907
O O4 0.409436 0.588458 0.967516
O O5 0.000000 0.500000 0.500000
O O6 0.301741 0.500000 0.970275
O O7 0.074123 0.042734 0.407727
O O8 0.053059 0.131516 0.404351
O O9 0.750000 0.750000 0.500000
O O10 0.583373 0.790364 0.420410
O O11 0.522658 0.711048 0.245361
O O12 0.500000 0.774164 0.000000
O O13 0.500000 0.159838 0.500000
O O14 0.216358 0.175700 0.049960
O O15 0.000000 0.195242 0.500000
O O16 0.500000 0.500000 0.500000
#
# Coordination Sequence:
#
# PCOD8090621 Si02
#       7
#     8   4   8   8   8   8   4
#     4   9  18  35  59  87 114 153 200 242 288 343
#     4  10  19  33  59  85 117 156 192 233 291 354
#     4   9  18  34  60  86 117 150 198 245 287 343
#     4  12  25  42  65  88 116 156 201 248 303 355
#     4  11  24  41  61  88 124 157 197 248 297 356
#     4  11  24  40  62  89 121 160 197 245 301 352
#     4  10  19  33  57  89 117 150 192 242 288 343
#
# _framework density 19.917957000000001
#
# number of rings (size 3 to 8) (size 9 to 14) (size 15 to 20)
#    0.000    1.667    1.667    3.000    4.667    3.333 
#    0.000    0.000    0.000    1.000    0.000    0.000 
#    0.000    0.000    0.000    0.000    0.000    0.000 
#
# Total GULP energy -297397.020656 kJ/mol
# GULP energy per Si atom -12391.542527 kJ/mol
# Density = 1.987262 g / cm^3
# Si number density = 19.917957 Si / 1000 Ang^3
#
#
#
# Elastic Constant Matrix: (Units=GPa)
#
#
# Indices 1 2 3 4 5 6 
#
# 1 165.3021 52.4562 43.1258 0.0000 19.9338 0.0000
# 2 52.4562 125.0561 23.3464 0.0000 8.1521 0.0000
# 3 43.1258 23.3464 73.5730 0.0000 -4.2638 0.0000
# 4 0.0000 0.0000 0.0000 21.1005 0.0000 0.1650
# 5 19.9338 8.1521 -4.2638 0.0000 37.3882 0.0000
# 6 0.0000 0.0000 0.0000 0.1650 0.0000 23.8887
#
#
#
# Elastic Compliance Matrix: (Units=1/GPa)
#
#
# Indices 1 2 3 4 5 6 
#
# 1 0.008547 -0.002450 -0.004495 0.000000 -0.004535 0.000000
# 2 -0.002450 0.009382 -0.001594 0.000000 -0.000921 0.000000
# 3 -0.004495 -0.001594 0.017004 0.000000 0.004683 0.000000
# 4 0.000000 0.000000 0.000000 0.047395 0.000000 -0.000327
# 5 -0.004535 -0.000921 0.004683 0.000000 0.029899 0.000000
# 6 0.000000 0.000000 0.000000 -0.000327 0.000000 0.041863
#
#
# Mechanical properties :
#
#
# Convention : Reuss Voigt Hill
#
# Bulk Modulus (GPa) = 56.01112 66.86536 61.43824
# Shear Modulus (GPa) = 28.22946 32.80899 30.51923
#
# Velocity S-wave (km/s) = 3.76877 4.06298 3.91864
# Velocity P-wave (km/s) = 6.86441 7.46014 7.16847
#
# Compressibility (1/GPa) = 0.01785360
#
# Stress axis : x y z
#
# Youngs Moduli (GPa) = 117.00456 106.58890 58.80936
#
# Poissons Ratio (x) = 0.26116 0.26435
# Poissons Ratio (y) = 0.28668 0.09376
# Poissons Ratio (z) = 0.52594 0.16993
#
# Static dielectric constant tensor:
#      x y z
#    x 3.822320 0.000000 0.055480 
#    y 0.000000 3.748580 0.000000 
#    z 0.055480 0.000000 3.241680 
# 
# 
# High freq. dielectric constant tensor:
#      x y z
#    x 1.799010 0.000000 0.003070 
#    y 0.000000 1.791320 0.000000 
#    z 0.003070 0.000000 1.746150 
# 
# From -- ./inp_files/80900.got.cif
#   From: 2010.06.25/outbox.cif.g09.slc.cpg/sg12_41_cif.got.tgz:80900.got - 2010.06.28 00:19:55.
