data_PCOD8090736
_publ_section_title
;
Structure prediction by ZEFSAII (Michael W. Deem and Ramdas Pophale) SiO2 
 PCOD8090736
Probable space group: C 2/M
;
_chemical_formula_sum "Si O2"
_cell_formula_units_Z 56
_cell_length_a 15.649313
_cell_length_b 24.414663
_cell_length_c 8.578604
_cell_angle_alpha 90.000000
_cell_angle_beta 63.603229
_cell_angle_gamma 90.000000
_cell_volume 2935.912153
_symmetry_space_group_name_H-M "C 2/M"
_symmetry_group_IT_number 12
_symmetry_cell_setting 'monoclinic'
loop_
_space_group_symop_operation_xyz
x,y,z
-x,y,-z
-x,-y,-z
x,-y,z
1/2+x,1/2+y,z
1/2-x,1/2+y,-z
1/2-x,1/2-y,-z
1/2+x,1/2-y,z
loop_
_atom_site_type_symbol
_atom_site_label
_atom_site_fract_x
_atom_site_fract_y
_atom_site_fract_z
Si Si1 0.028031 0.378212 0.275345
Si Si2 0.150798 0.812441 0.028198
Si Si3 0.710569 0.644061 0.648259
Si Si4 0.158586 0.686626 0.948614
Si Si5 0.123188 0.294141 0.624618
Si Si6 0.535828 0.678519 0.645810
Si Si7 0.631056 0.063486 0.470529
O O1 0.099154 0.399983 0.348793
O O2 0.967206 0.325008 0.378496
O O3 0.944878 0.425547 0.325633
O O4 0.088814 0.360292 0.075736
O O5 0.232970 0.824419 0.088006
O O6 0.052539 0.836664 0.173377
O O7 0.174435 0.844601 0.851953
O O8 0.131192 0.747614 0.026315
O O9 0.781454 0.695390 0.554061
O O10 0.620165 0.634823 0.605568
O O11 0.764190 0.586287 0.578185
O O12 0.146201 0.681024 0.775424
O O13 0.094571 0.231479 0.655965
O O14 0.500000 0.683323 0.500000
O O15 0.635538 0.000000 0.424624
#
# Coordination Sequence:
#
# PCOD8090736 Si02
#       7
#     8   8   8   8   8   8   8
#     4  10  19  33  59  89 120 154 192 239 308 355
#     4  11  23  35  56  83 127 166 203 241 288 364
#     4  11  23  40  59  88 117 162 210 254 304 354
#     4  11  21  35  52  86 128 169 191 236 293 371
#     4  11  23  34  54  85 132 165 196 230 295 378
#     4  12  25  36  55  86 127 168 202 239 296 373
#     4  10  22  41  65  91 116 156 216 269 305 350
#
# _framework density 19.07414
#
# number of rings (size 3 to 8) (size 9 to 14) (size 15 to 20)
#    0.000    1.143    4.286    3.000    8.000    0.000 
#    0.000    0.000    0.000   18.429    0.000    0.000 
#    0.000    0.000    0.000    0.000    0.000    0.000 
#
# Total GULP energy -346904.989387 kJ/mol
# GULP energy per Si atom -12389.463907 kJ/mol
# Density = 1.903073 g / cm^3
# Si number density = 19.074140 Si / 1000 Ang^3
#
#
#
# Elastic Constant Matrix: (Units=GPa)
#
#
# Indices 1 2 3 4 5 6 
#
# 1 131.8109 37.6436 51.3691 0.0000 -11.4433 0.0000
# 2 37.6436 59.2189 33.2360 0.0000 -1.5512 0.0000
# 3 51.3691 33.2360 118.5926 0.0000 -12.4548 0.0000
# 4 0.0000 0.0000 0.0000 16.2335 0.0000 -1.2871
# 5 -11.4433 -1.5512 -12.4548 0.0000 37.5631 0.0000
# 6 0.0000 0.0000 0.0000 -1.2871 0.0000 10.4600
#
#
#
# Elastic Compliance Matrix: (Units=1/GPa)
#
#
# Indices 1 2 3 4 5 6 
#
# 1 0.010267 -0.004860 -0.002878 0.000000 0.001973 0.000000
# 2 -0.004860 0.022380 -0.004378 0.000000 -0.002008 0.000000
# 3 -0.002878 -0.004378 0.011184 0.000000 0.002651 0.000000
# 4 0.000000 0.000000 0.000000 0.062208 0.000000 0.007654
# 5 0.001973 -0.002008 0.002651 0.000000 0.028019 0.000000
# 6 0.000000 0.000000 0.000000 0.007654 0.000000 0.096544
#
#
# Mechanical properties :
#
#
# Convention : Reuss Voigt Hill
#
# Bulk Modulus (GPa) = 51.02023 61.56887 56.29455
# Shear Modulus (GPa) = 19.13011 25.34290 22.23651
#
# Velocity S-wave (km/s) = 3.17035 3.64902 3.41808
# Velocity P-wave (km/s) = 6.34097 7.07832 6.71977
#
# Compressibility (1/GPa) = 0.01960007
#
# Stress axis : x y z
#
# Youngs Moduli (GPa) = 97.39489 44.68247 89.41088
#
# Poissons Ratio (x) = 0.21714 0.25735
# Poissons Ratio (y) = 0.47330 0.39144
# Poissons Ratio (z) = 0.28033 0.19562
#
# Static dielectric constant tensor:
#      x y z
#    x 3.845050 0.000000 -0.186560 
#    y 0.000000 3.133780 0.000000 
#    z -0.186560 0.000000 3.518060 
# 
# 
# High freq. dielectric constant tensor:
#      x y z
#    x 1.764970 0.000000 -0.013690 
#    y 0.000000 1.682390 0.000000 
#    z -0.013690 0.000000 1.742540 
# 
# From -- ./inp_files/66845.got.cif
#   From: 2010.06.25/outbox.cif.g09.slc.cpg/sg12_34_cif.got.tgz:66845.got - 2010.06.28 00:19:55.
