data_PCOD8090931
_publ_section_title
;
Structure prediction by ZEFSAII (Michael W. Deem and Ramdas Pophale) SiO2 
 PCOD8090931
Probable space group: C 2/M
;
_chemical_formula_sum "Si O2"
_cell_formula_units_Z 64
_cell_length_a 10.039653
_cell_length_b 25.264131
_cell_length_c 20.658494
_cell_angle_alpha 90.000000
_cell_angle_beta 52.710204
_cell_angle_gamma 90.000000
_cell_volume 4168.754707
_symmetry_space_group_name_H-M "C 2/M"
_symmetry_group_IT_number 12
_symmetry_cell_setting 'monoclinic'
loop_
_space_group_symop_operation_xyz
x,y,z
-x,y,-z
-x,-y,-z
x,-y,z
1/2+x,1/2+y,z
1/2-x,1/2+y,-z
1/2-x,1/2-y,-z
1/2+x,1/2-y,z
loop_
_atom_site_type_symbol
_atom_site_label
_atom_site_fract_x
_atom_site_fract_y
_atom_site_fract_z
Si Si1 0.853337 0.202715 0.497987
Si Si2 0.195713 0.440264 0.935764
Si Si3 0.416084 0.150085 0.839690
Si Si4 0.379571 0.195558 0.326930
Si Si5 0.777498 0.655773 0.156378
Si Si6 0.808818 0.245023 0.055596
Si Si7 0.690806 0.439136 0.954861
Si Si8 0.919375 0.206013 0.677127
O O1 0.750000 0.250000 0.500000
O O2 0.725068 0.169033 0.581620
O O3 0.000000 0.226297 0.500000
O O4 0.945613 0.174825 0.409309
O O5 0.236055 0.500000 0.901401
O O6 0.269165 0.400741 0.860649
O O7 0.278788 0.427003 0.979357
O O8 0.000000 0.430669 0.000000
O O9 0.513749 0.150691 0.741937
O O10 0.542872 0.153244 0.862265
O O11 0.296860 0.200966 0.875824
O O12 0.310032 0.096251 0.874549
O O13 0.247922 0.221024 0.314348
O O14 0.502869 0.240475 0.317265
O O15 0.785248 0.699216 0.097982
O O16 0.628255 0.667289 0.250449
O O17 0.750000 0.250000 0.000000
O O18 0.000000 0.226450 0.000000
O O19 0.729199 0.500000 0.925841
O O20 0.500000 0.423625 0.000000
#
# Coordination Sequence:
#
# PCOD8090931 Si02
#       8
#     8   8   8   8   8   8   8   8
#     4   8  14  26  44  62  84 119 150 178 223 261
#     4  10  19  34  54  67  84 117 158 197 229 263
#     4  11  20  32  47  68  92 122 154 187 229 270
#     4   9  17  29  44  65  92 118 152 185 218 272
#     4  11  20  32  46  68  95 117 156 193 221 271
#     4  12  22  31  42  59  92 125 149 182 224 273
#     4  10  21  37  52  68  89 116 156 201 235 265
#     4   9  17  29  44  64  92 121 148 187 221 267
#
# _framework density 15.352307
#
# number of rings (size 3 to 8) (size 9 to 14) (size 15 to 20)
#    0.000    2.000    3.750    1.500    0.000    0.000 
#    2.250    0.000    0.000    0.000    0.000    0.875 
#    0.000    5.000    0.000    4.500    0.000    1.000 
#
# Total GULP energy -396521.698166 kJ/mol
# GULP energy per Si atom -12391.303068 kJ/mol
# Density = 1.531736 g / cm^3
# Si number density = 15.352307 Si / 1000 Ang^3
#
#
#
# Elastic Constant Matrix: (Units=GPa)
#
#
# Indices 1 2 3 4 5 6 
#
# 1 84.4984 26.7140 46.6766 0.0000 -2.8263 0.0000
# 2 26.7140 74.3126 55.7667 0.0000 0.7536 0.0000
# 3 46.6766 55.7667 140.6267 0.0000 2.1289 0.0000
# 4 0.0000 0.0000 0.0000 16.5629 0.0000 -0.9572
# 5 -2.8263 0.7536 2.1289 0.0000 18.9272 0.0000
# 6 0.0000 0.0000 0.0000 -0.9572 0.0000 19.9104
#
#
#
# Elastic Compliance Matrix: (Units=1/GPa)
#
#
# Indices 1 2 3 4 5 6 
#
# 1 0.014912 -0.002339 -0.004064 0.000000 0.002777 0.000000
# 2 -0.002339 0.019525 -0.006961 0.000000 -0.000344 0.000000
# 3 -0.004064 -0.006961 0.011245 0.000000 -0.001594 0.000000
# 4 0.000000 0.000000 0.000000 0.060544 0.000000 0.002911
# 5 0.002777 -0.000344 -0.001594 0.000000 0.053442 0.000000
# 6 0.000000 0.000000 0.000000 0.002911 0.000000 0.050365
#
#
# Mechanical properties :
#
#
# Convention : Reuss Voigt Hill
#
# Bulk Modulus (GPa) = 52.76209 61.97248 57.36729
# Shear Modulus (GPa) = 20.56952 22.43213 21.50083
#
# Velocity S-wave (km/s) = 3.66434 3.82666 3.74638
# Velocity P-wave (km/s) = 7.23501 7.74460 7.49414
#
# Compressibility (1/GPa) = 0.01895300
#
# Stress axis : x y z
#
# Youngs Moduli (GPa) = 67.06083 51.21671 88.93141
#
# Poissons Ratio (x) = 0.11979 0.36142
# Poissons Ratio (y) = 0.15685 0.61907
# Poissons Ratio (z) = 0.27254 0.35653
#
# Static dielectric constant tensor:
#      x y z
#    x 3.097370 0.000000 -0.019640 
#    y 0.000000 2.711300 0.000000 
#    z -0.019640 0.000000 3.406420 
# 
# 
# High freq. dielectric constant tensor:
#      x y z
#    x 1.605230 0.000000 -0.000660 
#    y 0.000000 1.544520 0.000000 
#    z -0.000660 0.000000 1.596830 
# 
# From -- ./inp_files/302565.got.cif
#   From: 2010.06.25/outbox.cif.g09.slc.cpg/sg12_152_cif.got.tgz:302565.got - 2010.06.28 00:19:55.
