data_PCOD8090500
_publ_section_title
;
Structure prediction by ZEFSAII (Michael W. Deem and Ramdas Pophale) SiO2 
 PCOD8090500
Probable space group: C 2/M
;
_chemical_formula_sum "Si O2"
_cell_formula_units_Z 64
_cell_length_a 18.531186
_cell_length_b 9.008771
_cell_length_c 20.750103
_cell_angle_alpha 90.000000
_cell_angle_beta 80.585736
_cell_angle_gamma 90.000000
_cell_volume 3417.432641
_symmetry_space_group_name_H-M "C 2/M"
_symmetry_group_IT_number 12
_symmetry_cell_setting 'monoclinic'
loop_
_space_group_symop_operation_xyz
x,y,z
-x,y,-z
-x,-y,-z
x,-y,z
1/2+x,1/2+y,z
1/2-x,1/2+y,-z
1/2-x,1/2-y,-z
1/2+x,1/2-y,z
loop_
_atom_site_type_symbol
_atom_site_label
_atom_site_fract_x
_atom_site_fract_y
_atom_site_fract_z
Si Si1 0.661894 0.166056 0.835414
Si Si2 0.017450 0.326492 0.925201
Si Si3 0.338093 0.175132 0.402080
Si Si4 0.303093 0.825536 0.782937
Si Si5 0.558974 0.324846 0.180371
Si Si6 0.581790 0.825143 0.483638
Si Si7 0.197706 0.325732 0.364404
Si Si8 0.561759 0.167036 0.727887
O O1 0.602635 0.208302 0.898737
O O2 0.726038 0.286266 0.827300
O O3 0.624687 0.173301 0.771531
O O4 0.692919 0.000000 0.842908
O O5 0.001432 0.500000 0.915770
O O6 0.965900 0.235093 0.885229
O O7 0.000000 0.276341 0.000000
O O8 0.365596 0.234773 0.467173
O O9 0.262602 0.251848 0.394813
O O10 0.402813 0.219934 0.343766
O O11 0.324069 0.000000 0.402600
O O12 0.362206 0.740202 0.816131
O O13 0.305247 0.768278 0.708633
O O14 0.317061 0.000000 0.784925
O O15 0.562842 0.500000 0.176939
O O16 0.504029 0.276355 0.245093
O O17 0.500000 0.754586 0.500000
O O18 0.620322 0.785777 0.409947
O O19 0.574360 0.000000 0.494190
O O20 0.212503 0.500000 0.363621
O O21 0.529676 0.000000 0.727207
#
# Coordination Sequence:
#
# PCOD8090500 Si02
#       8
#     8   8   8   8   8   8   8   8
#     4   9  17  33  56  83 113 141 178 223 267 320
#     4   9  19  39  65  89 116 150 184 219 265 324
#     4  10  19  33  57  79 103 142 183 227 279 338
#     4  11  22  35  54  80 113 149 187 231 280 330
#     4  11  23  36  55  83 116 148 184 230 275 321
#     4   9  19  34  53  77 104 139 186 234 281 335
#     4  10  21  35  54  79 107 142 184 233 281 334
#     4   9  18  33  54  80 107 141 185 228 276 334
#
# _framework density 18.727509000000001
#
# number of rings (size 3 to 8) (size 9 to 14) (size 15 to 20)
#    0.000    2.250    1.250    2.625    1.750    3.250 
#    0.000    0.625    0.000    0.750    0.000    0.000 
#    0.000    0.000    0.000    0.000    0.000    0.000 
#
# Total GULP energy -396812.477014 kJ/mol
# GULP energy per Si atom -12400.389907 kJ/mol
# Density = 1.868488 g / cm^3
# Si number density = 18.727509 Si / 1000 Ang^3
#
#
#
# Elastic Constant Matrix: (Units=GPa)
#
#
# Indices 1 2 3 4 5 6 
#
# 1 121.0081 48.5587 55.1521 0.0000 -5.4442 0.0000
# 2 48.5587 65.9317 36.2199 0.0000 -3.4733 0.0000
# 3 55.1521 36.2199 103.9279 0.0000 -17.9924 0.0000
# 4 0.0000 0.0000 0.0000 19.7066 0.0000 -0.7678
# 5 -5.4442 -3.4733 -17.9924 0.0000 19.5420 0.0000
# 6 0.0000 0.0000 0.0000 -0.7678 0.0000 34.0609
#
#
#
# Elastic Compliance Matrix: (Units=1/GPa)
#
#
# Indices 1 2 3 4 5 6 
#
# 1 0.013300 -0.007209 -0.004908 0.000000 -0.002095 0.000000
# 2 -0.007209 0.022836 -0.004494 0.000000 -0.002087 0.000000
# 3 -0.004908 -0.004494 0.015962 0.000000 0.012530 0.000000
# 4 0.000000 0.000000 0.000000 0.050789 0.000000 0.001145
# 5 -0.002095 -0.002087 0.012530 0.000000 0.061754 0.000000
# 6 0.000000 0.000000 0.000000 0.001145 0.000000 0.029385
#
#
# Mechanical properties :
#
#
# Convention : Reuss Voigt Hill
#
# Bulk Modulus (GPa) = 52.98076 63.41436 58.19756
# Shear Modulus (GPa) = 21.40970 24.72438 23.06704
#
# Velocity S-wave (km/s) = 3.38482 3.63742 3.51339
# Velocity P-wave (km/s) = 6.60513 7.18166 6.89942
#
# Compressibility (1/GPa) = 0.01887478
#
# Stress axis : x y z
#
# Youngs Moduli (GPa) = 75.19069 43.79107 62.64843
#
# Poissons Ratio (x) = 0.31570 0.30747
# Poissons Ratio (y) = 0.54207 0.28155
# Poissons Ratio (z) = 0.36903 0.19680
#
# Static dielectric constant tensor:
#      x y z
#    x 3.456890 0.000000 -0.124900 
#    y 0.000000 3.230780 0.000000 
#    z -0.124900 0.000000 3.522670 
# 
# 
# High freq. dielectric constant tensor:
#      x y z
#    x 1.730390 0.000000 -0.008460 
#    y 0.000000 1.705620 0.000000 
#    z -0.008460 0.000000 1.724580 
# 
# From -- ./inp_files/314139.got.cif
#   From: 2010.06.25/outbox.cif.g09.slc.cpg/sg12_158_cif.got.tgz:314139.got - 2010.06.28 00:19:55.
