data_PCOD8090337
_publ_section_title
;
Structure prediction by ZEFSAII (Michael W. Deem and Ramdas Pophale) SiO2 
 PCOD8090337
Probable space group: C 2/M
;
_chemical_formula_sum "Si O2"
_cell_formula_units_Z 64
_cell_length_a 20.379122
_cell_length_b 8.942413
_cell_length_c 19.803744
_cell_angle_alpha 90.000000
_cell_angle_beta 103.149862
_cell_angle_gamma 90.000000
_cell_volume 3514.371051
_symmetry_space_group_name_H-M "C 2/M"
_symmetry_group_IT_number 12
_symmetry_cell_setting 'monoclinic'
loop_
_space_group_symop_operation_xyz
x,y,z
-x,y,-z
-x,-y,-z
x,-y,z
1/2+x,1/2+y,z
1/2-x,1/2+y,-z
1/2-x,1/2-y,-z
1/2+x,1/2-y,z
loop_
_atom_site_type_symbol
_atom_site_label
_atom_site_fract_x
_atom_site_fract_y
_atom_site_fract_z
Si Si1 0.036973 0.323677 0.357618
Si Si2 0.610290 0.826325 0.630865
Si Si3 0.951153 0.676938 0.789384
Si Si4 0.405034 0.826620 0.127547
Si Si5 0.829946 0.676408 0.856026
Si Si6 0.301441 0.171224 0.223153
Si Si7 0.179825 0.177311 0.004446
Si Si8 0.576689 0.330644 0.494740
O O1 0.045974 0.500000 0.364745
O O2 0.057696 0.260910 0.288797
O O3 0.085941 0.251012 0.425072
O O4 0.959749 0.275193 0.351677
O O5 0.670581 0.788878 0.696294
O O6 0.623762 0.741407 0.563564
O O7 0.607086 0.000000 0.613046
O O8 0.956159 0.500000 0.785821
O O9 0.888326 0.729925 0.819087
O O10 0.020303 0.734386 0.839184
O O11 0.360556 0.804024 0.183496
O O12 0.377824 0.725022 0.060832
O O13 0.404985 0.000000 0.104792
O O14 0.832858 0.500000 0.871178
O O15 0.758752 0.716076 0.806175
O O16 0.841625 0.766279 0.927264
O O17 0.275792 0.000000 0.213783
O O18 0.188761 0.000000 0.007105
O O19 0.250000 0.250000 0.000000
O O20 0.500000 0.313291 0.500000
O O21 0.599373 0.500000 0.490643
#
# Coordination Sequence:
#
# PCOD8090337 Si02
#       8
#     8   8   8   8   8   8   8   8
#     4   9  15  29  52  75 101 137 179 219 259 312
#     4   9  16  28  50  78 103 135 179 224 264 310
#     4   9  19  36  58  83 110 144 184 222 265 323
#     4  10  19  36  61  84 107 140 182 225 268 317
#     4  11  23  38  57  82 112 145 180 219 270 329
#     4  10  19  33  56  82 108 139 181 229 271 315
#     4  12  24  39  58  82 110 142 181 224 272 323
#     4   9  17  27  41  71 111 143 170 212 269 319
#
# _framework density 18.210939
#
# number of rings (size 3 to 8) (size 9 to 14) (size 15 to 20)
#    0.000    2.125    2.500    1.875    0.000    2.500 
#    0.000    5.625    0.000    0.750    0.000    0.000 
#    0.000    0.000    0.000    0.000    0.000    0.000 
#
# Total GULP energy -396827.251237 kJ/mol
# GULP energy per Si atom -12400.851601 kJ/mol
# Density = 1.816949 g / cm^3
# Si number density = 18.210939 Si / 1000 Ang^3
#
#
#
# Elastic Constant Matrix: (Units=GPa)
#
#
# Indices 1 2 3 4 5 6 
#
# 1 59.7685 24.9877 31.1624 0.0000 -7.3459 0.0000
# 2 24.9877 74.7693 52.1652 0.0000 -2.7049 0.0000
# 3 31.1624 52.1652 150.6864 0.0000 -1.9938 0.0000
# 4 0.0000 0.0000 0.0000 30.0237 0.0000 5.0141
# 5 -7.3459 -2.7049 -1.9938 0.0000 22.9608 0.0000
# 6 0.0000 0.0000 0.0000 5.0141 0.0000 18.7755
#
#
#
# Elastic Compliance Matrix: (Units=1/GPa)
#
#
# Indices 1 2 3 4 5 6 
#
# 1 0.020850 -0.005012 -0.002499 0.000000 0.005863 0.000000
# 2 -0.005012 0.018894 -0.005502 0.000000 0.000144 0.000000
# 3 -0.002499 -0.005502 0.009049 0.000000 -0.000662 0.000000
# 4 0.000000 0.000000 0.000000 0.034862 0.000000 -0.009310
# 5 0.005863 0.000144 -0.000662 0.000000 0.045388 0.000000
# 6 0.000000 0.000000 0.000000 -0.009310 0.000000 0.055747
#
#
# Mechanical properties :
#
#
# Convention : Reuss Voigt Hill
#
# Bulk Modulus (GPa) = 43.92575 55.76164 49.84370
# Shear Modulus (GPa) = 22.89314 26.14593 24.51954
#
# Velocity S-wave (km/s) = 3.54942 3.79321 3.67334
# Velocity P-wave (km/s) = 6.40084 7.06193 6.73950
#
# Compressibility (1/GPa) = 0.02276569
#
# Stress axis : x y z
#
# Youngs Moduli (GPa) = 47.96069 52.92802 110.50796
#
# Poissons Ratio (x) = 0.26530 0.27617
# Poissons Ratio (y) = 0.24040 0.60803
# Poissons Ratio (z) = 0.11986 0.29122
#
# Static dielectric constant tensor:
#      x y z
#    x 3.154530 0.000000 0.024590 
#    y 0.000000 3.220460 0.000000 
#    z 0.024590 0.000000 3.660100 
# 
# 
# High freq. dielectric constant tensor:
#      x y z
#    x 1.672310 0.000000 0.006340 
#    y 0.000000 1.692300 0.000000 
#    z 0.006340 0.000000 1.725520 
# 
# From -- ./inp_files/319225.got.cif
#   From: 2010.06.25/outbox.cif.g09.slc.cpg/sg12_160_cif.got.tgz:319225.got - 2010.06.28 00:19:55.
