data_PCOD8090318
_publ_section_title
;
Structure prediction by ZEFSAII (Michael W. Deem and Ramdas Pophale) SiO2 
 PCOD8090318
Probable space group: C 2/M
;
_chemical_formula_sum "Si O2"
_cell_formula_units_Z 48
_cell_length_a 29.450087
_cell_length_b 8.891575
_cell_length_c 10.125336
_cell_angle_alpha 90.000000
_cell_angle_beta 80.668701
_cell_angle_gamma 90.000000
_cell_volume 2616.311599
_symmetry_space_group_name_H-M "C 2/M"
_symmetry_group_IT_number 12
_symmetry_cell_setting 'monoclinic'
loop_
_space_group_symop_operation_xyz
x,y,z
-x,y,-z
-x,-y,-z
x,-y,z
1/2+x,1/2+y,z
1/2-x,1/2+y,-z
1/2-x,1/2-y,-z
1/2+x,1/2-y,z
loop_
_atom_site_type_symbol
_atom_site_label
_atom_site_fract_x
_atom_site_fract_y
_atom_site_fract_z
Si Si1 0.882490 0.325339 0.337994
Si Si2 0.380612 0.174193 0.034627
Si Si3 0.972351 0.824672 0.382768
Si Si4 0.285568 0.677010 0.082738
Si Si5 0.213414 0.177714 0.614854
Si Si6 0.031982 0.175261 0.106590
O O1 0.874254 0.500000 0.370492
O O2 0.894268 0.293902 0.179642
O O3 0.924856 0.266679 0.405052
O O4 0.836767 0.237193 0.402096
O O5 0.335685 0.267022 0.016630
O O6 0.370558 0.000000 0.013676
O O7 0.421465 0.229299 0.921519
O O8 0.000000 0.783365 0.500000
O O9 0.005082 0.773859 0.248820
O O10 0.959963 0.000000 0.378570
O O11 0.283335 0.500000 0.067162
O O12 0.274967 0.724598 0.239403
O O13 0.250000 0.750000 0.000000
O O14 0.250000 0.250000 0.500000
O O15 0.214171 0.000000 0.597009
O O16 0.044989 0.000000 0.101369
O O17 0.000000 0.217870 0.000000
#
# Coordination Sequence:
#
# PCOD8090318 Si02
#       6
#     8   8   8   8   8   8
#     4  10  20  35  57  82 110 145 185 227 273 327
#     4  10  20  34  56  84 111 143 185 228 273 325
#     4  10  21  37  55  78 110 145 182 226 278 328
#     4  10  21  38  60  85 115 147 183 229 281 332
#     4  10  21  38  61  86 112 145 187 231 276 332
#     4  10  19  33  56  81 106 140 184 228 269 324
#
# _framework density 18.346440000000001
#
# number of rings (size 3 to 8) (size 9 to 14) (size 15 to 20)
#    0.000    2.000    1.667    2.000    0.000    4.667 
#    3.000    0.000    0.000    0.000    0.000    0.000 
#    0.000    0.000    0.000    0.000    0.000    0.000 
#
# Total GULP energy -297699.158152 kJ/mol
# GULP energy per Si atom -12404.131590 kJ/mol
# Density = 1.830468 g / cm^3
# Si number density = 18.346440 Si / 1000 Ang^3
#
#
#
# Elastic Constant Matrix: (Units=GPa)
#
#
# Indices 1 2 3 4 5 6 
#
# 1 141.5005 62.7677 74.5409 0.0000 -8.9141 0.0000
# 2 62.7677 79.8134 43.4807 0.0000 -3.1655 0.0000
# 3 74.5409 43.4807 109.0843 0.0000 -9.2743 0.0000
# 4 0.0000 0.0000 0.0000 -81.5260 0.0000 -50.3984
# 5 -8.9141 -3.1655 -9.2743 0.0000 27.8604 0.0000
# 6 0.0000 0.0000 0.0000 -50.3984 0.0000 20.9516
#
#
#
# Elastic Compliance Matrix: (Units=1/GPa)
#
#
# Indices 1 2 3 4 5 6 
#
# 1 0.013741 -0.007282 -0.006364 0.000000 0.001451 0.000000
# 2 -0.007282 0.019866 -0.003035 0.000000 -0.001083 0.000000
# 3 -0.006364 -0.003035 0.014946 0.000000 0.002594 0.000000
# 4 0.000000 0.000000 0.000000 -0.004932 0.000000 -0.011864
# 5 0.001451 -0.001083 0.002594 0.000000 0.037098 0.000000
# 6 0.000000 0.000000 0.000000 -0.011864 0.000000 0.019191
#
#
# Mechanical properties :
#
#
# Convention : Reuss Voigt Hill
#
# Bulk Modulus (GPa) = 65.82240 76.88632 71.35436
# Shear Modulus (GPa) = 36.14398 3.43114 19.78756
#
# Velocity S-wave (km/s) = 4.44338 1.36903 3.28769
# Velocity P-wave (km/s) = 7.89178 6.67068 7.30678
#
# Compressibility (1/GPa) = 0.01519240
#
# Stress axis : x y z
#
# Youngs Moduli (GPa) = 72.77451 50.33654 66.90741
#
# Poissons Ratio (x) = 0.36655 0.42579
# Poissons Ratio (y) = 0.52994 0.20304
# Poissons Ratio (z) = 0.46312 0.15276
#
# Static dielectric constant tensor:
#      x y z
#    x 3.491640 0.000000 0.000750 
#    y 0.000000 3.391930 0.000000 
#    z 0.000750 0.000000 3.309370 
# 
# 
# High freq. dielectric constant tensor:
#      x y z
#    x 1.718640 0.000000 -0.006590 
#    y 0.000000 1.718540 0.000000 
#    z -0.006590 0.000000 1.698960 
# 
# From -- ./inp_files/172089.got.cif
#   From: 2010.06.25/outbox.cif.g09.slc.cpg/sg12_87_cif.got.tgz:172089.got - 2010.06.28 00:19:55.
