data_PCOD8090993
_publ_section_title
;
Structure prediction by ZEFSAII (Michael W. Deem and Ramdas Pophale) SiO2 
 PCOD8090993
Probable space group: C 2/M
;
_chemical_formula_sum "Si O2"
_cell_formula_units_Z 56
_cell_length_a 19.282437
_cell_length_b 8.818182
_cell_length_c 21.965222
_cell_angle_alpha 90.000000
_cell_angle_beta 125.124329
_cell_angle_gamma 90.000000
_cell_volume 3054.778297
_symmetry_space_group_name_H-M "C 2/M"
_symmetry_group_IT_number 12
_symmetry_cell_setting 'monoclinic'
loop_
_space_group_symop_operation_xyz
x,y,z
-x,y,-z
-x,-y,-z
x,-y,z
1/2+x,1/2+y,z
1/2-x,1/2+y,-z
1/2-x,1/2-y,-z
1/2+x,1/2-y,z
loop_
_atom_site_type_symbol
_atom_site_label
_atom_site_fract_x
_atom_site_fract_y
_atom_site_fract_z
Si Si1 0.458437 0.824336 0.312244
Si Si2 0.376138 0.179955 0.546625
Si Si3 0.757103 0.321197 0.596751
Si Si4 0.522890 0.174649 0.817124
Si Si5 0.662534 0.821692 0.237372
Si Si6 0.724925 0.180511 0.804667
Si Si7 0.802771 0.820854 0.080785
O O1 0.527531 0.756600 0.394747
O O2 0.494070 0.796305 0.262580
O O3 0.363282 0.757284 0.270266
O O4 0.452687 0.000000 0.323541
O O5 0.335487 0.251416 0.465235
O O6 0.323007 0.233203 0.578740
O O7 0.375189 0.000000 0.539830
O O8 0.749512 0.500000 0.593818
O O9 0.788816 0.261511 0.678070
O O10 0.437046 0.216156 0.809180
O O11 0.598539 0.279782 0.879360
O O12 0.548923 0.000000 0.841009
O O13 0.696777 0.732236 0.196523
O O14 0.677409 0.000000 0.236499
O O15 0.734240 0.252182 0.875750
O O16 0.723112 0.000000 0.810987
O O17 0.791577 0.000000 0.075983
O O18 0.750000 0.750000 0.000000
#
# Coordination Sequence:
#
# PCOD8090993 Si02
#       7
#     8   8   8   8   8   8   8
#     4   8  14  29  51  72  96 135 182 223 264 314
#     4   9  15  27  47  70  96 132 181 229 269 314
#     4   9  17  28  45  71 102 137 175 223 273 315
#     4   9  17  33  57  81 106 141 180 217 261 315
#     4  10  19  34  54  77 110 147 180 218 270 323
#     4  10  21  36  56  80 109 142 178 220 265 316
#     4  11  22  39  62  87 112 138 171 211 256 311
#
# _framework density 18.331935999999999
#
# number of rings (size 3 to 8) (size 9 to 14) (size 15 to 20)
#    0.000    2.571    1.429    2.571    0.000    1.143 
#    0.000    5.000    0.000    8.571    0.000    0.000 
#    0.000    0.000    0.000    0.000    0.000    0.000 
#
# Total GULP energy -347075.593214 kJ/mol
# GULP energy per Si atom -12395.556900 kJ/mol
# Density = 1.829021 g / cm^3
# Si number density = 18.331936 Si / 1000 Ang^3
#
#
#
# Elastic Constant Matrix: (Units=GPa)
#
#
# Indices 1 2 3 4 5 6 
#
# 1 90.4325 21.1853 16.6280 0.0000 -18.9446 0.0000
# 2 21.1853 47.3988 10.9260 0.0000 -19.5270 0.0000
# 3 16.6280 10.9260 66.7462 0.0000 -26.1677 0.0000
# 4 0.0000 0.0000 0.0000 29.6526 0.0000 1.3976
# 5 -18.9446 -19.5270 -26.1677 0.0000 -1.6623 0.0000
# 6 0.0000 0.0000 0.0000 1.3976 0.0000 26.3316
#
#
#
# Elastic Compliance Matrix: (Units=1/GPa)
#
#
# Indices 1 2 3 4 5 6 
#
# 1 0.012328 -0.006505 -0.003783 0.000000 -0.004532 0.000000
# 2 -0.006505 0.018793 -0.008219 0.000000 -0.017250 0.000000
# 3 -0.003783 -0.008219 0.010043 0.000000 -0.018434 0.000000
# 4 0.000000 0.000000 0.000000 0.033808 0.000000 -0.001794
# 5 -0.004532 -0.017250 -0.018434 0.000000 -0.057103 0.000000
# 6 0.000000 0.000000 0.000000 -0.001794 0.000000 0.038072
#
#
# Mechanical properties :
#
#
# Convention : Reuss Voigt Hill
#
# Bulk Modulus (GPa) = 240.93790 33.56178 137.24984
# Shear Modulus (GPa) = 53.00050 21.25360 37.12705
#
# Velocity S-wave (km/s) = 5.38278 3.40865 4.50518
# Velocity P-wave (km/s) = 13.05176 5.81717 10.10416
#
# Compressibility (1/GPa) = 0.00415045
#
# Stress axis : x y z
#
# Youngs Moduli (GPa) = 81.11523 53.21127 99.57432
#
# Poissons Ratio (x) = 0.34614 0.37669
# Poissons Ratio (y) = 0.52766 0.81836
# Poissons Ratio (z) = 0.30686 0.43732
#
# Static dielectric constant tensor:
#      x y z
#    x 3.265220 0.000000 0.215950 
#    y 0.000000 3.162340 0.000000 
#    z 0.215950 0.000000 3.492590 
# 
# 
# High freq. dielectric constant tensor:
#      x y z
#    x 1.698040 0.000000 0.016980 
#    y 0.000000 1.691150 0.000000 
#    z 0.016980 0.000000 1.708010 
# 
# From -- ./inp_files/314440.got.cif
#   From: 2010.06.25/outbox.cif.g09.slc.cpg/sg12_158_cif.got.tgz:314440.got - 2010.06.28 00:19:55.
