data_PCOD8090897
_publ_section_title
;
Structure prediction by ZEFSAII (Michael W. Deem and Ramdas Pophale) SiO2 
 PCOD8090897
Probable space group: C 2/M
;
_chemical_formula_sum "Si O2"
_cell_formula_units_Z 56
_cell_length_a 26.293241
_cell_length_b 15.153430
_cell_length_c 12.557492
_cell_angle_alpha 90.000000
_cell_angle_beta 31.970586
_cell_angle_gamma 90.000000
_cell_volume 2649.175207
_symmetry_space_group_name_H-M "C 2/M"
_symmetry_group_IT_number 12
_symmetry_cell_setting 'monoclinic'
loop_
_space_group_symop_operation_xyz
x,y,z
-x,y,-z
-x,-y,-z
x,-y,z
1/2+x,1/2+y,z
1/2-x,1/2+y,-z
1/2-x,1/2-y,-z
1/2+x,1/2-y,z
loop_
_atom_site_type_symbol
_atom_site_label
_atom_site_fract_x
_atom_site_fract_y
_atom_site_fract_z
Si Si1 0.889556 0.094679 0.062103
Si Si2 0.553462 0.403883 0.601662
Si Si3 0.983009 0.285730 0.358073
Si Si4 0.235460 0.355377 0.783300
Si Si5 0.276582 0.163345 0.778860
Si Si6 0.068049 0.717770 0.972022
Si Si7 0.853217 0.596743 0.852212
O O1 0.896490 0.182398 0.122986
O O2 0.987329 0.091974 0.821705
O O3 0.883232 0.000000 0.136106
O O4 0.795178 0.098381 0.155402
O O5 0.545559 0.500000 0.555340
O O6 0.525347 0.316210 0.583272
O O7 0.664054 0.388950 0.442169
O O8 0.883439 0.339172 0.539815
O O9 0.012798 0.283000 0.182066
O O10 0.058123 0.335596 0.299307
O O11 0.235016 0.261163 0.843861
O O12 0.160299 0.347155 0.818235
O O13 0.198410 0.418776 0.942524
O O14 0.278068 0.133747 0.899197
O O15 0.000000 0.680770 0.000000
O O16 0.890304 0.500000 0.750520
#
# Coordination Sequence:
#
# PCOD8090897 Si02
#       7
#     8   8   8   8   8   8   8
#     4   9  18  32  51  78 109 140 179 221 258 310
#     4   9  17  34  56  74 102 142 177 216 265 307
#     4   9  20  35  53  80 107 137 179 223 264 317
#     4   9  19  34  53  79 107 138 179 225 261 308
#     4  10  19  34  53  75 109 145 176 217 268 317
#     4   9  18  35  57  78 104 140 176 217 272 317
#     4  11  21  33  54  80 108 144 180 218 268 321
#
# _framework density 21.138653999999999
#
# number of rings (size 3 to 8) (size 9 to 14) (size 15 to 20)
#    0.000    2.571    0.000    2.571    0.000    2.000 
#    0.000   13.571    0.000   23.571    0.000    0.000 
#    0.000    0.000    0.000    0.000    0.000    0.000 
#
# Total GULP energy -346875.173393 kJ/mol
# GULP energy per Si atom -12388.399050 kJ/mol
# Density = 2.109054 g / cm^3
# Si number density = 21.138654 Si / 1000 Ang^3
#
#
#
# Elastic Constant Matrix: (Units=GPa)
#
#
# Indices 1 2 3 4 5 6 
#
# 1 78.8477 20.8037 14.0849 0.0000 -28.4745 0.0000
# 2 20.8037 101.1436 21.0608 0.0000 -11.0391 0.0000
# 3 14.0849 21.0608 97.6223 0.0000 -23.3560 0.0000
# 4 0.0000 0.0000 0.0000 -4.4655 0.0000 -6.1507
# 5 -28.4745 -11.0391 -23.3560 0.0000 25.2380 0.0000
# 6 0.0000 0.0000 0.0000 -6.1507 0.0000 10.3800
#
#
#
# Elastic Compliance Matrix: (Units=1/GPa)
#
#
# Indices 1 2 3 4 5 6 
#
# 1 0.022901 -0.002441 0.004044 0.000000 0.028513 0.000000
# 2 -0.002441 0.010812 -0.001937 0.000000 0.000184 0.000000
# 3 0.004044 -0.001937 0.014085 0.000000 0.016751 0.000000
# 4 0.000000 0.000000 0.000000 -0.123303 0.000000 -0.073064
# 5 0.028513 0.000184 0.016751 0.000000 0.087374 0.000000
# 6 0.000000 0.000000 0.000000 -0.073064 0.000000 0.053045
#
#
# Mechanical properties :
#
#
# Convention : Reuss Voigt Hill
#
# Bulk Modulus (GPa) = 21.21660 43.27915 32.24787
# Shear Modulus (GPa) = 61.50641 21.00811 41.25726
#
# Velocity S-wave (km/s) = 5.39998 3.15592 4.42265
# Velocity P-wave (km/s) = 6.99560 5.81362 6.43182
#
# Compressibility (1/GPa) = 0.04713292
#
# Stress axis : x y z
#
# Youngs Moduli (GPa) = 43.66580 92.48818 70.99509
#
# Poissons Ratio (x) = 0.22572 -0.28711
# Poissons Ratio (y) = 0.10657 0.13749
# Poissons Ratio (z) = -0.17659 0.17911
#
# Static dielectric constant tensor:
#      x y z
#    x 3.332860 0.000000 -0.328450 
#    y 0.000000 4.245830 0.000000 
#    z -0.328450 0.000000 3.900310 
# 
# 
# High freq. dielectric constant tensor:
#      x y z
#    x 1.778190 0.000000 -0.024580 
#    y 0.000000 1.839900 0.000000 
#    z -0.024580 0.000000 1.834000 
# 
# From -- ./inp_files/240896.got.cif
#   From: 2010.06.25/outbox.cif.g09.slc.cpg/sg12_121_cif.got.tgz:240896.got - 2010.06.28 00:19:55.
