data_PCOD8090243
_publ_section_title
;
Structure prediction by ZEFSAII (Michael W. Deem and Ramdas Pophale) SiO2 
 PCOD8090243
Probable space group: C 2/M
;
_chemical_formula_sum "Si O2"
_cell_formula_units_Z 56
_cell_length_a 15.158839
_cell_length_b 8.644913
_cell_length_c 23.991850
_cell_angle_alpha 90.000000
_cell_angle_beta 63.067150
_cell_angle_gamma 90.000000
_cell_volume 2803.045554
_symmetry_space_group_name_H-M "C 2/M"
_symmetry_group_IT_number 12
_symmetry_cell_setting 'monoclinic'
loop_
_space_group_symop_operation_xyz
x,y,z
-x,y,-z
-x,-y,-z
x,-y,z
1/2+x,1/2+y,z
1/2-x,1/2+y,-z
1/2-x,1/2-y,-z
1/2+x,1/2-y,z
loop_
_atom_site_type_symbol
_atom_site_label
_atom_site_fract_x
_atom_site_fract_y
_atom_site_fract_z
Si Si1 0.329470 0.816819 0.934837
Si Si2 0.350385 0.682039 0.711301
Si Si3 0.736122 0.182704 0.852873
Si Si4 0.476089 0.681199 0.070839
Si Si5 0.735406 0.320563 0.378567
Si Si6 0.095819 0.682645 0.504876
Si Si7 0.943524 0.679190 0.360520
O O1 0.295074 0.776367 0.882815
O O2 0.435546 0.740512 0.915576
O O3 0.336433 0.000000 0.940636
O O4 0.250000 0.750000 0.000000
O O5 0.343312 0.500000 0.709110
O O6 0.281974 0.739166 0.781343
O O7 0.310687 0.754594 0.664346
O O8 0.462719 0.731018 0.690478
O O9 0.621169 0.225122 0.884757
O O10 0.748854 0.000000 0.859400
O O11 0.458988 0.500000 0.085755
O O12 0.500000 0.717068 0.000000
O O13 0.709667 0.500000 0.389364
O O14 0.692980 0.245072 0.446674
O O15 0.853447 0.293566 0.343582
O O16 0.101760 0.500000 0.502486
O O17 0.088763 0.745084 0.569891
O O18 0.000000 0.745375 0.500000
O O19 0.972356 0.500000 0.357402
#
# Coordination Sequence:
#
# PCOD8090243 Si02
#       7
#     8   8   8   8   8   8   8
#     4  12  24  40  65  95 125 159 199 248 304 361
#     4  10  23  41  59  84 118 156 198 245 294 353
#     4  11  24  42  63  90 126 163 205 254 305 366
#     4  11  23  40  65  96 127 159 200 247 302 364
#     4  10  21  37  58  84 115 152 198 246 297 353
#     4  10  19  33  55  85 117 150 195 248 302 353
#     4  10  21  37  58  84 117 156 198 247 299 356
#
# _framework density 19.978269000000001
#
# number of rings (size 3 to 8) (size 9 to 14) (size 15 to 20)
#    0.000    1.429    2.857    2.571    0.000    4.286 
#    0.000    1.429    0.000    0.000    0.000    0.000 
#    0.000    0.000    0.000    0.000    0.000    0.000 
#
# Total GULP energy -347307.461103 kJ/mol
# GULP energy per Si atom -12403.837897 kJ/mol
# Density = 1.993280 g / cm^3
# Si number density = 19.978269 Si / 1000 Ang^3
#
#
#
# Elastic Constant Matrix: (Units=GPa)
#
#
# Indices 1 2 3 4 5 6 
#
# 1 110.3415 8.2091 37.7216 0.0000 -10.2395 0.0000
# 2 8.2091 32.4494 25.4868 0.0000 -0.0050 0.0001
# 3 37.7216 25.4868 123.9719 0.0000 -15.0165 0.0000
# 4 0.0000 0.0000 0.0000 28.1881 0.0000 -5.0871
# 5 -10.2395 -0.0050 -15.0165 0.0000 25.3918 0.0000
# 6 0.0000 0.0001 0.0000 -5.0871 0.0000 34.0043
#
#
#
# Elastic Compliance Matrix: (Units=1/GPa)
#
#
# Indices 1 2 3 4 5 6 
#
# 1 0.010262 -0.000458 -0.002722 0.000000 0.002528 0.000000
# 2 -0.000458 0.037325 -0.008139 0.000000 -0.004990 0.000000
# 3 -0.002722 -0.008139 0.011240 0.000000 0.005548 0.000000
# 4 0.000000 0.000000 0.000000 0.036460 0.000000 0.005455
# 5 0.002528 -0.004990 0.005548 0.000000 0.043682 0.000000
# 6 0.000000 0.000000 0.000000 0.005455 0.000000 0.030224
#
#
# Mechanical properties :
#
#
# Convention : Reuss Voigt Hill
#
# Bulk Modulus (GPa) = 27.63228 45.51088 36.57158
# Shear Modulus (GPa) = 24.52265 30.53986 27.53125
#
# Velocity S-wave (km/s) = 3.50732 3.91404 3.71625
# Velocity P-wave (km/s) = 5.50118 6.57693 6.06296
#
# Compressibility (1/GPa) = 0.03618956
#
# Stress axis : x y z
#
# Youngs Moduli (GPa) = 97.44654 26.79200 88.96953
#
# Poissons Ratio (x) = 0.01226 0.24219
# Poissons Ratio (y) = 0.04460 0.72409
# Poissons Ratio (z) = 0.26526 0.21805
#
# Static dielectric constant tensor:
#      x y z
#    x 3.866640 0.000000 0.228120 
#    y 0.000000 3.579910 0.000000 
#    z 0.228120 0.000000 3.956520 
# 
# 
# High freq. dielectric constant tensor:
#      x y z
#    x 1.794670 0.000000 -0.001460 
#    y 0.000000 1.772630 0.000000 
#    z -0.001460 0.000000 1.777590 
# 
# From -- ./inp_files/308887.got.cif
#   From: 2010.06.25/outbox.cif.g09.slc.cpg/sg12_155_cif.got.tgz:308887.got - 2010.06.28 00:19:55.
