data_PCOD8090451
_publ_section_title
;
Structure prediction by ZEFSAII (Michael W. Deem and Ramdas Pophale) SiO2 
 PCOD8090451
Probable space group: C 2/M
;
_chemical_formula_sum "Si O2"
_cell_formula_units_Z 64
_cell_length_a 15.003836
_cell_length_b 9.300419
_cell_length_c 24.991549
_cell_angle_alpha 90.000000
_cell_angle_beta 72.774680
_cell_angle_gamma 90.000000
_cell_volume 3330.952829
_symmetry_space_group_name_H-M "C 2/M"
_symmetry_group_IT_number 12
_symmetry_cell_setting 'monoclinic'
loop_
_space_group_symop_operation_xyz
x,y,z
-x,y,-z
-x,-y,-z
x,-y,z
1/2+x,1/2+y,z
1/2-x,1/2+y,-z
1/2-x,1/2-y,-z
1/2+x,1/2-y,z
loop_
_atom_site_type_symbol
_atom_site_label
_atom_site_fract_x
_atom_site_fract_y
_atom_site_fract_z
Si Si1 0.232052 0.336448 0.251263
Si Si2 0.586201 0.335043 0.142825
Si Si3 0.522823 0.163850 0.250625
Si Si4 0.548896 0.329881 0.437384
Si Si5 0.708530 0.169216 0.858622
Si Si6 0.430696 0.336026 0.357333
Si Si7 0.725692 0.163448 0.373214
Si Si8 0.963958 0.166114 0.064273
O O1 0.267043 0.500000 0.236854
O O2 0.290759 0.235182 0.201222
O O3 0.247451 0.283381 0.309032
O O4 0.123218 0.321740 0.259413
O O5 0.573256 0.500000 0.162553
O O6 0.522416 0.239665 0.193124
O O7 0.695203 0.292187 0.127636
O O8 0.549725 0.306581 0.089572
O O9 0.449657 0.240577 0.302136
O O10 0.491900 0.000000 0.248089
O O11 0.500000 0.274375 0.500000
O O12 0.560278 0.500000 0.436089
O O13 0.486844 0.277341 0.398446
O O14 0.650922 0.262064 0.415830
O O15 0.625061 0.237331 0.906913
O O16 0.692856 0.000000 0.856616
O O17 0.459760 0.500000 0.339313
O O18 0.320895 0.325945 0.390217
O O19 0.687885 0.000000 0.377747
O O20 0.932496 0.000000 0.070883
O O21 0.000000 0.213225 0.000000
#
# Coordination Sequence:
#
# PCOD8090451 Si02
#       8
#     8   8   8   8   8   8   8   8
#     4   9  18  34  55  80 113 146 181 227 279 336
#     4   9  20  38  57  80 113 150 185 225 280 337
#     4  10  19  33  56  85 114 143 184 232 278 330
#     4  10  22  40  59  81 114 152 189 233 282 331
#     4  10  21  36  56  84 114 146 185 232 284 330
#     4  10  21  36  56  82 113 149 186 227 281 336
#     4  10  21  37  57  83 111 147 190 231 278 334
#     4  10  22  40  60  81 110 152 195 229 272 335
#
# _framework density 19.213722000000001
#
# number of rings (size 3 to 8) (size 9 to 14) (size 15 to 20)
#    0.000    2.250    1.250    0.750    1.750    4.000 
#    0.000    0.000    0.000    0.000    0.000    0.000 
#    0.000    0.000    0.000    0.000    0.000    0.000 
#
# Total GULP energy -396913.713975 kJ/mol
# GULP energy per Si atom -12403.553562 kJ/mol
# Density = 1.916999 g / cm^3
# Si number density = 19.213722 Si / 1000 Ang^3
#
#
#
# Elastic Constant Matrix: (Units=GPa)
#
#
# Indices 1 2 3 4 5 6 
#
# 1 68.3423 34.2332 41.1528 0.0000 -13.7555 0.0000
# 2 34.2332 78.0875 55.2436 0.0000 -14.1662 0.0000
# 3 41.1528 55.2436 123.7189 0.0000 -17.7620 0.0000
# 4 0.0000 0.0000 0.0000 27.9778 0.0000 -10.3649
# 5 -13.7555 -14.1662 -17.7620 0.0000 24.6453 0.0000
# 6 0.0000 0.0000 0.0000 -10.3649 0.0000 28.5514
#
#
#
# Elastic Compliance Matrix: (Units=1/GPa)
#
#
# Indices 1 2 3 4 5 6 
#
# 1 0.020720 -0.005472 -0.003614 0.000000 0.005815 0.000000
# 2 -0.005472 0.020802 -0.006905 0.000000 0.003927 0.000000
# 3 -0.003614 -0.006905 0.012837 0.000000 0.003266 0.000000
# 4 0.000000 0.000000 0.000000 0.041297 0.000000 0.014992
# 5 0.005815 0.003927 0.003266 0.000000 0.048432 0.000000
# 6 0.000000 0.000000 0.000000 0.014992 0.000000 0.040467
#
#
# Mechanical properties :
#
#
# Convention : Reuss Voigt Hill
#
# Bulk Modulus (GPa) = 44.68747 59.04533 51.86640
# Shear Modulus (GPa) = 22.32197 25.53618 23.92908
#
# Velocity S-wave (km/s) = 3.41218 3.64958 3.53287
# Velocity P-wave (km/s) = 6.23157 6.96827 6.61019
#
# Compressibility (1/GPa) = 0.02237764
#
# Stress axis : x y z
#
# Youngs Moduli (GPa) = 48.26347 48.07167 77.90002
#
# Poissons Ratio (x) = 0.26304 0.28152
# Poissons Ratio (y) = 0.26409 0.53789
# Poissons Ratio (z) = 0.17442 0.33193
#
# Static dielectric constant tensor:
#      x y z
#    x 3.511810 0.000000 0.100660 
#    y 0.000000 3.484410 0.000000 
#    z 0.100660 0.000000 3.439980 
# 
# 
# High freq. dielectric constant tensor:
#      x y z
#    x 1.752570 0.000000 0.003140 
#    y 0.000000 1.742940 0.000000 
#    z 0.003140 0.000000 1.739050 
# 
# From -- ./inp_files/359781.got.cif
#   From: 2010.06.25/outbox.cif.g09.slc.cpg/sg12_180_cif.got.tgz:359781.got - 2010.06.28 00:19:55.
