data_PCOD8090321
_publ_section_title
;
Structure prediction by ZEFSAII (Michael W. Deem and Ramdas Pophale) SiO2 
 PCOD8090321
Probable space group: C 2/M
;
_chemical_formula_sum "Si O2"
_cell_formula_units_Z 48
_cell_length_a 14.525058
_cell_length_b 9.147357
_cell_length_c 28.344853
_cell_angle_alpha 90.000000
_cell_angle_beta 139.001643
_cell_angle_gamma 90.000000
_cell_volume 2470.678883
_symmetry_space_group_name_H-M "C 2/M"
_symmetry_group_IT_number 12
_symmetry_cell_setting 'monoclinic'
loop_
_space_group_symop_operation_xyz
x,y,z
-x,y,-z
-x,-y,-z
x,-y,z
1/2+x,1/2+y,z
1/2-x,1/2+y,-z
1/2-x,1/2-y,-z
1/2+x,1/2-y,z
loop_
_atom_site_type_symbol
_atom_site_label
_atom_site_fract_x
_atom_site_fract_y
_atom_site_fract_z
Si Si1 0.590808 0.830910 0.989674
Si Si2 0.584832 0.832760 0.664177
Si Si3 0.351826 0.173800 0.744129
Si Si4 0.664575 0.834412 0.368427
Si Si5 0.583567 0.669865 0.890688
Si Si6 0.403254 0.165983 0.507586
O O1 0.755621 0.806292 0.062660
O O2 0.559170 0.000000 0.965572
O O3 0.500000 0.780672 0.000000
O O4 0.546848 0.734113 0.927940
O O5 0.721388 0.732715 0.724227
O O6 0.497412 0.823492 0.678629
O O7 0.488452 0.768792 0.584691
O O8 0.629972 0.000000 0.670475
O O9 0.326023 0.228977 0.680667
O O10 0.494640 0.244849 0.817447
O O11 0.363996 0.000000 0.752612
O O12 0.759152 0.750261 0.442854
O O13 0.718350 0.000000 0.389597
O O14 0.542856 0.500000 0.875480
O O15 0.500000 0.182012 0.500000
O O16 0.361756 0.000000 0.502715
#
# Coordination Sequence:
#
# PCOD8090321 Si02
#       6
#     8   8   8   8   8   8
#     4   9  19  38  63  90 118 147 183 223 265 319
#     4  10  21  38  56  78 109 144 186 233 284 338
#     4  11  23  38  55  79 112 148 186 229 276 328
#     4  10  22  37  55  79 108 144 186 234 283 333
#     4  10  21  37  59  86 116 150 183 223 272 321
#     4  10  19  33  56  81 106 141 184 234 285 336
#
# _framework density 19.427859999999999
#
# number of rings (size 3 to 8) (size 9 to 14) (size 15 to 20)
#    0.000    2.000    1.667    1.500    0.000    4.667 
#    0.000    3.333    0.000    0.000    0.000    0.000 
#    0.000    0.000    0.000    0.000    0.000    0.000 
#
# Total GULP energy -297661.446951 kJ/mol
# GULP energy per Si atom -12402.560290 kJ/mol
# Density = 1.938364 g / cm^3
# Si number density = 19.427860 Si / 1000 Ang^3
#
#
#
# Elastic Constant Matrix: (Units=GPa)
#
#
# Indices 1 2 3 4 5 6 
#
# 1 91.8556 31.2529 23.9051 0.0000 4.5706 0.0000
# 2 31.2529 81.5097 45.9911 0.0000 5.9510 0.0000
# 3 23.9051 45.9911 88.4364 0.0000 10.6883 0.0000
# 4 0.0000 0.0000 0.0000 36.3979 0.0000 2.0372
# 5 4.5706 5.9510 10.6883 0.0000 19.3689 0.0000
# 6 0.0000 0.0000 0.0000 2.0372 0.0000 27.3546
#
#
#
# Elastic Compliance Matrix: (Units=1/GPa)
#
#
# Indices 1 2 3 4 5 6 
#
# 1 0.012641 -0.004124 -0.001141 0.000000 -0.001086 0.000000
# 2 -0.004124 0.018711 -0.008613 0.000000 -0.000023 0.000000
# 3 -0.001141 -0.008613 0.016868 0.000000 -0.006393 0.000000
# 4 0.000000 0.000000 0.000000 0.027589 0.000000 -0.002055
# 5 -0.001086 -0.000023 -0.006393 0.000000 0.055420 0.000000
# 6 0.000000 0.000000 0.000000 -0.002055 0.000000 0.036710
#
#
# Mechanical properties :
#
#
# Convention : Reuss Voigt Hill
#
# Bulk Modulus (GPa) = 48.86689 51.56665 50.21677
# Shear Modulus (GPa) = 24.68938 27.33447 26.01192
#
# Velocity S-wave (km/s) = 3.56873 3.75503 3.66307
# Velocity P-wave (km/s) = 6.49528 6.73800 6.61775
#
# Compressibility (1/GPa) = 0.02046376
#
# Stress axis : x y z
#
# Youngs Moduli (GPa) = 79.10971 53.44394 59.28404
#
# Poissons Ratio (x) = 0.22038 0.06765
# Poissons Ratio (y) = 0.32621 0.51063
# Poissons Ratio (z) = 0.09028 0.46033
#
# Static dielectric constant tensor:
#      x y z
#    x 3.551470 0.000000 -0.015460 
#    y 0.000000 3.509030 0.000000 
#    z -0.015460 0.000000 3.460810 
# 
# 
# High freq. dielectric constant tensor:
#      x y z
#    x 1.761980 0.000000 0.001370 
#    y 0.000000 1.752580 0.000000 
#    z 0.001370 0.000000 1.750010 
# 
# From -- ./inp_files/308301.got.cif
#   From: 2010.06.25/outbox.cif.g09.slc.cpg/sg12_155_cif.got.tgz:308301.got - 2010.06.28 00:19:55.
