data_PCOD8090128
_publ_section_title
;
Structure prediction by ZEFSAII (Michael W. Deem and Ramdas Pophale) SiO2 
 PCOD8090128
Probable space group: C 2/M
;
_chemical_formula_sum "Si O2"
_cell_formula_units_Z 56
_cell_length_a 32.672329
_cell_length_b 9.195562
_cell_length_c 11.149683
_cell_angle_alpha 90.000000
_cell_angle_beta 118.717207
_cell_angle_gamma 90.000000
_cell_volume 2937.794590
_symmetry_space_group_name_H-M "C 2/M"
_symmetry_group_IT_number 12
_symmetry_cell_setting 'monoclinic'
loop_
_space_group_symop_operation_xyz
x,y,z
-x,y,-z
-x,-y,-z
x,-y,z
1/2+x,1/2+y,z
1/2-x,1/2+y,-z
1/2-x,1/2-y,-z
1/2+x,1/2-y,z
loop_
_atom_site_type_symbol
_atom_site_label
_atom_site_fract_x
_atom_site_fract_y
_atom_site_fract_z
Si Si1 0.368983 0.334179 0.178691
Si Si2 0.536165 0.330513 0.817362
Si Si3 0.416771 0.830874 0.904281
Si Si4 0.555192 0.168381 0.328348
Si Si5 0.854871 0.672104 0.399629
Si Si6 0.238083 0.668997 0.604380
Si Si7 0.830738 0.167315 0.871427
O O1 0.362163 0.500000 0.209636
O O2 0.422690 0.304096 0.219865
O O3 0.353403 0.231676 0.263704
O O4 0.336071 0.295825 0.019363
O O5 0.529032 0.500000 0.834127
O O6 0.489421 0.262595 0.695289
O O7 0.547735 0.251308 0.958320
O O8 0.434230 0.805249 0.795336
O O9 0.364602 0.768124 0.840516
O O10 0.416210 0.000000 0.938025
O O11 0.598691 0.225316 0.467451
O O12 0.544848 0.000000 0.340503
O O13 0.852586 0.500000 0.388823
O O14 0.810148 0.730657 0.409850
O O15 0.233705 0.500000 0.566947
O O16 0.250000 0.750000 0.500000
O O17 0.277892 0.698104 0.759198
O O18 0.845627 0.000000 0.870001
#
# Coordination Sequence:
#
# PCOD8090128 Si02
#       7
#     8   8   8   8   8   8   8
#     4   9  20  38  55  76 106 139 179 224 269 318
#     4  10  21  36  55  79 108 141 179 224 270 319
#     4  10  19  33  55  82 111 141 177 221 268 322
#     4  10  21  35  51  76 110 144 179 222 271 319
#     4  10  22  38  55  78 109 143 180 224 268 314
#     4  10  21  38  59  84 113 143 177 218 267 320
#     4   9  19  36  57  80 110 145 178 220 269 316
#
# _framework density 19.061917999999999
#
# number of rings (size 3 to 8) (size 9 to 14) (size 15 to 20)
#    0.000    2.286    0.000    3.000    0.000    9.714 
#    0.000    2.857    0.000    0.000    0.000    0.000 
#    0.000    0.000    0.000    0.000    0.000    0.000 
#
# Total GULP energy -347302.013875 kJ/mol
# GULP energy per Si atom -12403.643353 kJ/mol
# Density = 1.901853 g / cm^3
# Si number density = 19.061918 Si / 1000 Ang^3
#
#
#
# Elastic Constant Matrix: (Units=GPa)
#
#
# Indices 1 2 3 4 5 6 
#
# 1 109.9671 50.8152 78.3064 0.0000 7.0498 0.0000
# 2 50.8152 67.3520 47.7541 0.0000 2.1343 0.0000
# 3 78.3064 47.7541 110.3037 0.0000 15.4318 0.0000
# 4 0.0000 0.0000 0.0000 31.2343 0.0000 -1.7773
# 5 7.0498 2.1343 15.4318 0.0000 31.9268 0.0000
# 6 0.0000 0.0000 0.0000 -1.7773 0.0000 32.1352
#
#
#
# Elastic Compliance Matrix: (Units=1/GPa)
#
#
# Indices 1 2 3 4 5 6 
#
# 1 0.020801 -0.007381 -0.011796 0.000000 0.001602 0.000000
# 2 -0.007381 0.024366 -0.005694 0.000000 0.002753 0.000000
# 3 -0.011796 -0.005694 0.020901 0.000000 -0.007117 0.000000
# 4 0.000000 0.000000 0.000000 0.032117 0.000000 0.001776
# 5 0.001602 0.002753 -0.007117 0.000000 0.034224 0.000000
# 6 0.000000 0.000000 0.000000 0.001776 0.000000 0.031217
#
#
# Mechanical properties :
#
#
# Convention : Reuss Voigt Hill
#
# Bulk Modulus (GPa) = 61.25115 71.26380 66.25747
# Shear Modulus (GPa) = 22.85079 26.44240 24.64660
#
# Velocity S-wave (km/s) = 3.46608 3.72853 3.59970
# Velocity P-wave (km/s) = 6.94412 7.48348 7.21884
#
# Compressibility (1/GPa) = 0.01632622
#
# Stress axis : x y z
#
# Youngs Moduli (GPa) = 48.07351 41.04015 47.84534
#
# Poissons Ratio (x) = 0.30294 0.56437
# Poissons Ratio (y) = 0.35485 0.27243
# Poissons Ratio (z) = 0.56706 0.23368
#
# Static dielectric constant tensor:
#      x y z
#    x 3.526250 0.000000 0.231770 
#    y 0.000000 3.462770 0.000000 
#    z 0.231770 0.000000 3.576970 
# 
# 
# High freq. dielectric constant tensor:
#      x y z
#    x 1.741110 0.000000 0.009190 
#    y 0.000000 1.738330 0.000000 
#    z 0.009190 0.000000 1.745810 
# 
# From -- ./inp_files/187745.got.cif
#   From: 2010.06.25/outbox.cif.g09.slc.cpg/sg12_94_cif.got.tgz:187745.got - 2010.06.28 00:19:55.
