data_PCOD8090490
_publ_section_title
;
Structure prediction by ZEFSAII (Michael W. Deem and Ramdas Pophale) SiO2 
 PCOD8090490
Probable space group: C 2/M
;
_chemical_formula_sum "Si O2"
_cell_formula_units_Z 40
_cell_length_a 11.401064
_cell_length_b 25.779925
_cell_length_c 14.052684
_cell_angle_alpha 90.000000
_cell_angle_beta 30.172983
_cell_angle_gamma 90.000000
_cell_volume 2075.962351
_symmetry_space_group_name_H-M "C 2/M"
_symmetry_group_IT_number 12
_symmetry_cell_setting 'monoclinic'
loop_
_space_group_symop_operation_xyz
x,y,z
-x,y,-z
-x,-y,-z
x,-y,z
1/2+x,1/2+y,z
1/2-x,1/2+y,-z
1/2-x,1/2-y,-z
1/2+x,1/2-y,z
loop_
_atom_site_type_symbol
_atom_site_label
_atom_site_fract_x
_atom_site_fract_y
_atom_site_fract_z
Si Si1 0.275473 0.840255 0.038264
Si Si2 0.622101 0.309897 0.816561
Si Si3 0.281418 0.442585 0.029630
Si Si4 0.799058 0.418057 0.705823
Si Si5 0.770230 0.195364 0.716512
O O1 0.266372 0.901354 0.020517
O O2 0.533581 0.820622 0.827871
O O3 0.227455 0.831754 0.182949
O O4 0.081230 0.806364 0.119937
O O5 0.792751 0.357822 0.677459
O O6 0.771154 0.257700 0.722384
O O7 0.500000 0.324622 0.000000
O O8 0.194025 0.500000 0.060001
O O9 0.145326 0.424858 0.220985
O O10 0.556873 0.446294 0.854495
O O11 0.000000 0.444149 0.500000
O O12 0.000000 0.176371 0.500000
#
# Coordination Sequence:
#
# PCOD8090490 Si02
#       5
#     8   8   8   8   8
#     4  10  22  40  58  80 117 150 190 240 275 339
#     4  11  19  37  60  87 121 150 180 224 285 347
#     4  10  21  37  57  81 112 151 190 237 289 331
#     4  10  19  33  56  89 121 146 179 227 286 352
#     4  11  24  38  58  84 114 156 194 231 277 329
#
# _framework density 19.268173000000001
#
# number of rings (size 3 to 8) (size 9 to 14) (size 15 to 20)
#    0.000    1.600    6.000    2.400    0.000    5.600 
#    0.000    2.000    0.000    1.200    0.000    0.000 
#    0.000    0.000    0.000    0.000    0.000    0.000 
#
# Total GULP energy -247928.627661 kJ/mol
# GULP energy per Si atom -12396.431383 kJ/mol
# Density = 1.922432 g / cm^3
# Si number density = 19.268173 Si / 1000 Ang^3
#
#
#
# Elastic Constant Matrix: (Units=GPa)
#
#
# Indices 1 2 3 4 5 6 
#
# 1 79.0545 41.2593 30.4409 0.0008 11.4185 -0.0005
# 2 41.2593 131.3015 23.1067 0.0001 5.7745 0.0000
# 3 30.4409 23.1067 139.2883 -0.0010 11.6763 -0.0024
# 4 0.0008 0.0001 -0.0010 10.6646 0.0000 1.9461
# 5 11.4185 5.7745 11.6763 0.0000 13.7467 0.0010
# 6 -0.0005 0.0000 -0.0024 1.9461 0.0010 18.8193
#
#
#
# Elastic Compliance Matrix: (Units=1/GPa)
#
#
# Indices 1 2 3 4 5 6 
#
# 1 0.017441 -0.004632 -0.002145 -0.000002 -0.010720 0.000001
# 2 -0.004632 0.009147 -0.000544 0.000000 0.000467 0.000000
# 3 -0.002145 -0.000544 0.008150 0.000001 -0.004913 0.000001
# 4 -0.000002 0.000000 0.000001 0.095571 0.000001 -0.009883
# 5 -0.010720 0.000467 -0.004913 0.000001 0.085625 -0.000006
# 6 0.000001 0.000000 0.000001 -0.009883 -0.000006 0.054159
#
#
# Mechanical properties :
#
#
# Convention : Reuss Voigt Hill
#
# Bulk Modulus (GPa) = 49.75969 59.91755 54.83862
# Shear Modulus (GPa) = 17.15655 25.63528 21.39592
#
# Velocity S-wave (km/s) = 2.98721 3.65149 3.33592
# Velocity P-wave (km/s) = 6.14644 6.99585 6.58486
#
# Compressibility (1/GPa) = 0.02009659
#
# Stress axis : x y z
#
# Youngs Moduli (GPa) = 57.33617 109.32891 122.69678
#
# Poissons Ratio (x) = 0.50637 0.26315
# Poissons Ratio (y) = 0.26556 0.06678
# Poissons Ratio (z) = 0.12297 0.05951
#
# Static dielectric constant tensor:
#      x y z
#    x 3.457860 0.000000 -0.081290 
#    y 0.000000 3.512500 0.000000 
#    z -0.081290 0.000000 3.543730 
# 
# 
# High freq. dielectric constant tensor:
#      x y z
#    x 1.726620 0.000000 0.004800 
#    y 0.000000 1.753240 0.000000 
#    z 0.004800 0.000000 1.748050 
# 
# From -- ./inp_files/208902.got.cif
#   From: 2010.06.25/outbox.cif.g09.slc.cpg/sg12_105_cif.got.tgz:208902.got - 2010.06.28 00:19:55.
