data_PCOD8090997
_publ_section_title
;
Structure prediction by ZEFSAII (Michael W. Deem and Ramdas Pophale) SiO2 
 PCOD8090997
Probable space group: C 2/M
;
_chemical_formula_sum "Si O2"
_cell_formula_units_Z 56
_cell_length_a 20.550112
_cell_length_b 9.227114
_cell_length_c 17.144303
_cell_angle_alpha 90.000000
_cell_angle_beta 74.311994
_cell_angle_gamma 90.000000
_cell_volume 3129.772035
_symmetry_space_group_name_H-M "C 2/M"
_symmetry_group_IT_number 12
_symmetry_cell_setting 'monoclinic'
loop_
_space_group_symop_operation_xyz
x,y,z
-x,y,-z
-x,-y,-z
x,-y,z
1/2+x,1/2+y,z
1/2-x,1/2+y,-z
1/2-x,1/2-y,-z
1/2+x,1/2-y,z
loop_
_atom_site_type_symbol
_atom_site_label
_atom_site_fract_x
_atom_site_fract_y
_atom_site_fract_z
Si Si1 0.593407 0.171251 0.163655
Si Si2 0.676752 0.831345 0.818794
Si Si3 0.309936 0.172292 0.729350
Si Si4 0.183456 0.669333 0.995120
Si Si5 0.047686 0.832263 0.597634
Si Si6 0.900826 0.831600 0.586042
Si Si7 0.446076 0.170190 0.251051
O O1 0.643950 0.228811 0.214080
O O2 0.518406 0.235522 0.200278
O O3 0.589312 0.000000 0.170160
O O4 0.621446 0.220311 0.070194
O O5 0.735424 0.734691 0.763496
O O6 0.664712 0.791357 0.912886
O O7 0.607912 0.790464 0.797404
O O8 0.695547 0.000000 0.802473
O O9 0.340929 0.233369 0.639203
O O10 0.306017 0.000000 0.726319
O O11 0.197404 0.500000 0.001747
O O12 0.250000 0.750000 0.000000
O O13 0.094586 0.800634 0.507672
O O14 0.076384 0.740855 0.660237
O O15 0.970907 0.785928 0.604132
O O16 0.050577 0.000000 0.618930
O O17 0.885295 0.000000 0.606740
O O18 0.450701 0.000000 0.263462
#
# Coordination Sequence:
#
# PCOD8090997 Si02
#       7
#     8   8   8   8   8   8   8
#     4   9  18  32  53  79 105 135 174 221 263 305
#     4  10  22  36  54  78 108 146 179 216 268 321
#     4  11  20  33  55  82 108 138 179 224 265 311
#     4  10  19  34  54  78 106 138 178 221 265 310
#     4   9  18  33  54  80 109 141 173 216 268 316
#     4   9  18  33  54  81 110 137 175 220 264 317
#     4  10  20  36  54  78 111 142 177 219 266 320
#
# _framework density 17.892676000000002
#
# number of rings (size 3 to 8) (size 9 to 14) (size 15 to 20)
#    0.000    2.286    2.857    1.286    0.000    1.714 
#    0.000    5.714    0.000    0.000    0.000    3.000 
#    0.000    0.000    0.000    0.000    0.000    0.000 
#
# Total GULP energy -347232.087329 kJ/mol
# GULP energy per Si atom -12401.145976 kJ/mol
# Density = 1.785195 g / cm^3
# Si number density = 17.892676 Si / 1000 Ang^3
#
#
#
# Elastic Constant Matrix: (Units=GPa)
#
#
# Indices 1 2 3 4 5 6 
#
# 1 108.8457 41.2396 63.2952 0.0000 3.9565 0.0000
# 2 41.2396 48.3761 48.8106 0.0000 -0.0224 0.0000
# 3 63.2952 48.8106 142.1811 0.0000 -0.1860 0.0000
# 4 0.0000 0.0000 0.0000 25.0230 0.0000 0.7064
# 5 3.9565 -0.0224 -0.1860 0.0000 32.1434 0.0000
# 6 0.0000 0.0000 0.0000 0.7064 0.0000 25.5646
#
#
#
# Elastic Compliance Matrix: (Units=1/GPa)
#
#
# Indices 1 2 3 4 5 6 
#
# 1 0.014678 -0.009055 -0.003428 0.000000 -0.001833 0.000000
# 2 -0.009055 0.037212 -0.008742 0.000000 0.001090 0.000000
# 3 -0.003428 -0.008742 0.011561 0.000000 0.000483 0.000000
# 4 0.000000 0.000000 0.000000 0.039994 0.000000 -0.001105
# 5 -0.001833 0.001090 0.000483 0.000000 0.031340 0.000000
# 6 0.000000 0.000000 0.000000 -0.001105 0.000000 0.039147
#
#
# Mechanical properties :
#
#
# Convention : Reuss Voigt Hill
#
# Bulk Modulus (GPa) = 47.61777 67.34375 57.48076
# Shear Modulus (GPa) = 22.38304 26.28335 24.33320
#
# Velocity S-wave (km/s) = 3.54073 3.83684 3.69175
# Velocity P-wave (km/s) = 6.58684 7.57283 7.09698
#
# Compressibility (1/GPa) = 0.02100056
#
# Stress axis : x y z
#
# Youngs Moduli (GPa) = 68.12848 26.87330 86.49494
#
# Poissons Ratio (x) = 0.24333 0.29653
# Poissons Ratio (y) = 0.61687 0.75618
# Poissons Ratio (z) = 0.23356 0.23494
#
# Static dielectric constant tensor:
#      x y z
#    x 3.338760 0.000000 -0.055260 
#    y 0.000000 3.107380 0.000000 
#    z -0.055260 0.000000 3.522930 
# 
# 
# High freq. dielectric constant tensor:
#      x y z
#    x 1.676530 0.000000 -0.002480 
#    y 0.000000 1.675550 0.000000 
#    z -0.002480 0.000000 1.707060 
# 
# From -- ./inp_files/280912.got.cif
#   From: 2010.06.25/outbox.cif.g09.slc.cpg/sg12_141_cif.got.tgz:280912.got - 2010.06.28 00:19:55.
