data_PCOD8090690
_publ_section_title
;
Structure prediction by ZEFSAII (Michael W. Deem and Ramdas Pophale) SiO2 
 PCOD8090690
Probable space group: C 2/M
;
_chemical_formula_sum "Si O2"
_cell_formula_units_Z 56
_cell_length_a 19.313829
_cell_length_b 8.934253
_cell_length_c 27.496788
_cell_angle_alpha 90.000000
_cell_angle_beta 38.496886
_cell_angle_gamma 90.000000
_cell_volume 2953.442264
_symmetry_space_group_name_H-M "C 2/M"
_symmetry_group_IT_number 12
_symmetry_cell_setting 'monoclinic'
loop_
_space_group_symop_operation_xyz
x,y,z
-x,y,-z
-x,-y,-z
x,-y,z
1/2+x,1/2+y,z
1/2-x,1/2+y,-z
1/2-x,1/2-y,-z
1/2+x,1/2-y,z
loop_
_atom_site_type_symbol
_atom_site_label
_atom_site_fract_x
_atom_site_fract_y
_atom_site_fract_z
Si Si1 0.403995 0.828085 0.699136
Si Si2 0.621197 0.334002 0.455410
Si Si3 0.250627 0.673423 0.710226
Si Si4 0.326355 0.822301 0.999603
Si Si5 0.720297 0.671347 0.875146
Si Si6 0.565278 0.324184 0.869721
Si Si7 0.857345 0.329003 0.459642
O O1 0.354790 0.716941 0.686337
O O2 0.341969 0.806203 0.784594
O O3 0.534311 0.788214 0.632532
O O4 0.387498 0.000000 0.690422
O O5 0.500000 0.330550 0.500000
O O6 0.645087 0.500000 0.463636
O O7 0.715478 0.295395 0.363885
O O8 0.623565 0.209738 0.495027
O O9 0.222113 0.500000 0.734804
O O10 0.144339 0.774032 0.782044
O O11 0.451844 0.765276 0.926240
O O12 0.322905 0.000000 0.995431
O O13 0.250000 0.750000 0.000000
O O14 0.282412 0.778708 0.077089
O O15 0.702497 0.500000 0.901895
O O16 0.624588 0.714231 0.888610
O O17 0.541768 0.500000 0.878549
O O18 0.830336 0.500000 0.470160
O O19 0.750000 0.250000 0.500000
#
# Coordination Sequence:
#
# PCOD8090690 Si02
#       7
#     8   8   8   8   8   8   8
#     4   9  19  36  58  84 115 152 192 238 291 343
#     4  10  20  36  58  85 117 154 193 239 291 342
#     4  10  19  33  58  89 118 150 191 241 289 335
#     4  12  25  41  61  87 119 154 192 235 287 344
#     4   9  19  38  63  88 115 150 189 236 290 343
#     4  10  21  39  63  89 120 153 190 235 285 342
#     4  11  23  38  57  82 115 157 200 244 291 345
#
# _framework density 18.960926000000001
#
# number of rings (size 3 to 8) (size 9 to 14) (size 15 to 20)
#    0.000    1.857    1.429    3.857    0.000    6.571 
#    2.571    0.000    0.000    0.000    0.000    0.000 
#    0.000    0.000    0.000    0.000    0.000    0.000 
#
# Total GULP energy -347186.587647 kJ/mol
# GULP energy per Si atom -12399.520987 kJ/mol
# Density = 1.891777 g / cm^3
# Si number density = 18.960926 Si / 1000 Ang^3
#
#
#
# Elastic Constant Matrix: (Units=GPa)
#
#
# Indices 1 2 3 4 5 6 
#
# 1 90.2852 53.8845 69.0807 0.0000 -10.6915 -0.0002
# 2 53.8845 99.9422 65.5455 0.0000 -10.0882 -0.0006
# 3 69.0807 65.5455 140.3977 0.0000 -12.9860 -0.0001
# 4 0.0000 0.0000 0.0000 33.6323 0.0000 -0.9702
# 5 -10.6915 -10.0882 -12.9860 0.0000 23.3112 0.0000
# 6 -0.0002 -0.0006 -0.0001 -0.9702 0.0000 34.0860
#
#
#
# Elastic Compliance Matrix: (Units=1/GPa)
#
#
# Indices 1 2 3 4 5 6 
#
# 1 0.020358 -0.006187 -0.006866 0.000000 0.002835 0.000000
# 2 -0.006187 0.016456 -0.004472 0.000000 0.001792 0.000000
# 3 -0.006866 -0.004472 0.012777 0.000000 0.002033 0.000000
# 4 0.000000 0.000000 0.000000 0.029758 0.000000 0.000847
# 5 0.002835 0.001792 0.002033 0.000000 0.046106 0.000000
# 6 0.000000 0.000000 0.000000 0.000847 0.000000 0.029362
#
#
# Mechanical properties :
#
#
# Convention : Reuss Voigt Hill
#
# Bulk Modulus (GPa) = 68.77853 78.62740 73.70296
# Shear Modulus (GPa) = 25.67877 27.68017 26.67947
#
# Velocity S-wave (km/s) = 3.68407 3.82495 3.75517
# Velocity P-wave (km/s) = 7.37896 7.81442 7.59981
#
# Compressibility (1/GPa) = 0.01453942
#
# Stress axis : x y z
#
# Youngs Moduli (GPa) = 49.12146 60.76978 78.26504
#
# Poissons Ratio (x) = 0.37597 0.53738
# Poissons Ratio (y) = 0.30390 0.35004
# Poissons Ratio (z) = 0.33728 0.27179
#
# Static dielectric constant tensor:
#      x y z
#    x 3.188630 0.000000 -0.067660 
#    y 0.000000 3.768770 0.000000 
#    z -0.067660 0.000000 3.730270 
# 
# 
# High freq. dielectric constant tensor:
#      x y z
#    x 1.713550 0.000000 -0.004800 
#    y 0.000000 1.743720 0.000000 
#    z -0.004800 0.000000 1.755890 
# 
# From -- ./inp_files/362885.got.cif
#   From: 2010.06.25/outbox.cif.g09.slc.cpg/sg12_182_cif.got.tgz:362885.got - 2010.06.28 00:19:55.
