data_PCOD8090170
_publ_section_title
;
Structure prediction by ZEFSAII (Michael W. Deem and Ramdas Pophale) SiO2 
 PCOD8090170
Probable space group: C 2/M
;
_chemical_formula_sum "Si O2"
_cell_formula_units_Z 64
_cell_length_a 16.314549
_cell_length_b 14.680049
_cell_length_c 27.830859
_cell_angle_alpha 90.000000
_cell_angle_beta 31.226224
_cell_angle_gamma 90.000000
_cell_volume 3455.489989
_symmetry_space_group_name_H-M "C 2/M"
_symmetry_group_IT_number 12
_symmetry_cell_setting 'monoclinic'
loop_
_space_group_symop_operation_xyz
x,y,z
-x,y,-z
-x,-y,-z
x,-y,z
1/2+x,1/2+y,z
1/2-x,1/2+y,-z
1/2-x,1/2-y,-z
1/2+x,1/2-y,z
loop_
_atom_site_type_symbol
_atom_site_label
_atom_site_fract_x
_atom_site_fract_y
_atom_site_fract_z
Si Si1 0.813811 0.281499 0.798375
Si Si2 0.639302 0.804988 0.964596
Si Si3 0.904451 0.104554 0.448272
Si Si4 0.453323 0.398623 0.827565
Si Si5 0.869096 0.606127 0.348689
Si Si6 0.752370 0.606627 0.300240
Si Si7 0.516428 0.601764 0.292482
Si Si8 0.570574 0.743426 0.845805
O O1 0.722552 0.280851 0.895290
O O2 0.847229 0.175712 0.768572
O O3 0.700710 0.312528 0.811619
O O4 0.967386 0.342615 0.724953
O O5 0.767453 0.883838 0.909939
O O6 0.500000 0.843851 0.000000
O O7 0.576755 0.768528 0.046663
O O8 0.755528 0.149009 0.550466
O O9 0.073487 0.143103 0.381532
O O10 0.884842 0.117799 0.400266
O O11 0.900663 0.000000 0.465977
O O12 0.475436 0.500000 0.837683
O O13 0.551330 0.388835 0.727887
O O14 0.517597 0.324429 0.831185
O O15 0.903585 0.500000 0.339948
O O16 0.799139 0.625151 0.331567
O O17 0.768611 0.500000 0.278772
O O18 0.868689 0.663252 0.208029
O O19 0.588667 0.500000 0.263640
#
# Coordination Sequence:
#
# PCOD8090170 Si02
#       8
#     8   8   8   8   8   8   8   8
#     4  10  20  36  55  78 106 144 181 218 264 316
#     4   9  20  37  57  78 104 134 177 229 274 312
#     4   9  17  32  55  81 108 138 176 224 276 319
#     4  10  21  35  54  79 109 145 177 213 262 318
#     4  10  21  35  54  80 110 143 179 222 266 317
#     4  10  19  33  55  83 111 138 174 224 279 321
#     4   9  17  33  54  76 103 135 176 221 267 311
#     4  11  21  36  56  79 110 145 176 220 265 318
#
# _framework density 18.521253000000002
#
# number of rings (size 3 to 8) (size 9 to 14) (size 15 to 20)
#    0.000    2.250    1.250    2.250    0.000    3.250 
#    0.000    3.125    0.000    2.250    0.000    3.500 
#    0.000    0.000    0.000    0.000    0.000    0.000 
#
# Total GULP energy -396541.871151 kJ/mol
# GULP energy per Si atom -12391.933473 kJ/mol
# Density = 1.847910 g / cm^3
# Si number density = 18.521253 Si / 1000 Ang^3
#
#
#
# Elastic Constant Matrix: (Units=GPa)
#
#
# Indices 1 2 3 4 5 6 
#
# 1 90.3284 46.2865 63.3208 0.0006 18.3044 0.0004
# 2 46.2865 71.6120 49.4562 -0.0002 3.0367 0.0005
# 3 63.3208 49.4562 149.5116 0.0012 18.8532 0.0013
# 4 0.0006 -0.0002 0.0012 23.1031 -0.0005 -2.0949
# 5 18.3044 3.0367 18.8532 -0.0005 29.6721 -0.0003
# 6 0.0004 0.0005 0.0013 -2.0949 -0.0003 20.9487
#
#
#
# Elastic Compliance Matrix: (Units=1/GPa)
#
#
# Indices 1 2 3 4 5 6 
#
# 1 0.021384 -0.010346 -0.004462 -0.000001 -0.009298 0.000000
# 2 -0.010346 0.023228 -0.004138 0.000001 0.006635 0.000000
# 3 -0.004462 -0.004138 0.010378 -0.000001 -0.003418 -0.000001
# 4 -0.000001 0.000001 -0.000001 0.043680 0.000001 0.004368
# 5 -0.009298 0.006635 -0.003418 0.000001 0.040930 0.000001
# 6 0.000000 0.000000 -0.000001 0.004368 0.000001 0.048173
#
#
# Mechanical properties :
#
#
# Convention : Reuss Voigt Hill
#
# Bulk Modulus (GPa) = 58.48718 69.95324 64.22021
# Shear Modulus (GPa) = 21.61088 24.90399 23.25744
#
# Velocity S-wave (km/s) = 3.41957 3.67088 3.54745
# Velocity P-wave (km/s) = 6.87301 7.47117 7.17832
#
# Compressibility (1/GPa) = 0.01709776
#
# Stress axis : x y z
#
# Youngs Moduli (GPa) = 46.76354 43.05154 96.35743
#
# Poissons Ratio (x) = 0.44541 0.42993
# Poissons Ratio (y) = 0.48382 0.39876
# Poissons Ratio (z) = 0.20865 0.17816
#
# Static dielectric constant tensor:
#      x y z
#    x 3.433330 0.000000 0.240400 
#    y 0.000000 3.175110 0.000000 
#    z 0.240400 0.000000 3.649520 
# 
# 
# High freq. dielectric constant tensor:
#      x y z
#    x 1.721580 0.000000 0.021450 
#    y 0.000000 1.692530 0.000000 
#    z 0.021450 0.000000 1.722080 
# 
# From -- ./inp_files/379334.got.cif
#   From: 2010.06.25/outbox.cif.g09.slc.cpg/sg12_190_cif.got.tgz:379334.got - 2010.06.28 00:19:55.
