data_PCOD8090935
_publ_section_title
;
Structure prediction by ZEFSAII (Michael W. Deem and Ramdas Pophale) SiO2 
 PCOD8090935
Probable space group: C 2/M
;
_chemical_formula_sum "Si O2"
_cell_formula_units_Z 64
_cell_length_a 14.346911
_cell_length_b 9.038510
_cell_length_c 27.461985
_cell_angle_alpha 90.000000
_cell_angle_beta 74.968172
_cell_angle_gamma 90.000000
_cell_volume 3439.269716
_symmetry_space_group_name_H-M "C 2/M"
_symmetry_group_IT_number 12
_symmetry_cell_setting 'monoclinic'
loop_
_space_group_symop_operation_xyz
x,y,z
-x,y,-z
-x,-y,-z
x,-y,z
1/2+x,1/2+y,z
1/2-x,1/2+y,-z
1/2-x,1/2-y,-z
1/2+x,1/2-y,z
loop_
_atom_site_type_symbol
_atom_site_label
_atom_site_fract_x
_atom_site_fract_y
_atom_site_fract_z
Si Si1 0.723197 0.827107 0.053265
Si Si2 0.644227 0.175400 0.211301
Si Si3 0.532002 0.825922 0.133543
Si Si4 0.171431 0.328150 0.402481
Si Si5 0.666759 0.674620 0.865934
Si Si6 0.560208 0.176644 0.324435
Si Si7 0.112303 0.823934 0.609645
Si Si8 0.146965 0.673926 0.511741
O O1 0.614705 0.783147 0.083520
O O2 0.798730 0.778807 0.084804
O O3 0.730155 0.000000 0.043744
O O4 0.750000 0.750000 0.000000
O O5 0.566366 0.231470 0.182082
O O6 0.751927 0.231317 0.183453
O O7 0.615006 0.231554 0.268688
O O8 0.645285 0.000000 0.208586
O O9 0.433898 0.748556 0.132178
O O10 0.514147 0.000000 0.136608
O O11 0.181081 0.500000 0.390502
O O12 0.118579 0.258351 0.363015
O O13 0.280215 0.266386 0.392347
O O14 0.110158 0.301831 0.460908
O O15 0.653911 0.500000 0.863854
O O16 0.456491 0.256501 0.339535
O O17 0.546807 0.000000 0.327265
O O18 0.080711 0.753533 0.561398
O O19 0.104192 0.000000 0.608065
O O20 0.154448 0.500000 0.522404
O O21 0.250000 0.750000 0.500000
#
# Coordination Sequence:
#
# PCOD8090935 Si02
#       8
#     8   8   8   8   8   8   8   8
#     4   9  19  34  51  74 109 142 171 208 251 294
#     4   8  17  34  53  71  97 129 164 204 250 299
#     4   9  18  34  53  75 102 134 168 207 251 296
#     4   8  17  32  50  70  95 125 159 196 240 294
#     4   9  18  34  54  76 100 134 175 211 245 294
#     4  10  19  34  54  73  93 127 167 201 243 300
#     4  10  20  34  49  72 102 128 158 203 250 296
#     4   9  16  30  50  71  96 129 163 198 242 297
#
# _framework density 18.608602999999999
#
# number of rings (size 3 to 8) (size 9 to 14) (size 15 to 20)
#    0.000    3.000    0.000    3.000    0.000    3.000 
#    0.000   13.125    0.000    0.000    0.000    0.000 
#    0.000    0.000    0.000    0.000    0.000    0.000 
#
# Total GULP energy -396583.734761 kJ/mol
# GULP energy per Si atom -12393.241711 kJ/mol
# Density = 1.856625 g / cm^3
# Si number density = 18.608603 Si / 1000 Ang^3
#
#
#
# Elastic Constant Matrix: (Units=GPa)
#
#
# Indices 1 2 3 4 5 6 
#
# 1 112.5721 30.5018 58.8490 0.0000 -2.5608 0.0000
# 2 30.5018 46.1668 40.1726 0.0000 -3.3872 0.0000
# 3 58.8490 40.1726 151.0776 0.0000 -9.2981 0.0000
# 4 0.0000 0.0000 0.0000 25.6828 0.0000 -4.4950
# 5 -2.5608 -3.3872 -9.2981 0.0000 21.1747 0.0000
# 6 0.0000 0.0000 0.0000 -4.4950 0.0000 29.6134
#
#
#
# Elastic Compliance Matrix: (Units=1/GPa)
#
#
# Indices 1 2 3 4 5 6 
#
# 1 0.012000 -0.005045 -0.003385 0.000000 -0.000842 0.000000
# 2 -0.005045 0.030334 -0.006002 0.000000 0.001607 0.000000
# 3 -0.003385 -0.006002 0.009712 0.000000 0.002895 0.000000
# 4 0.000000 0.000000 0.000000 0.039999 0.000000 0.006071
# 5 -0.000842 0.001607 0.002895 0.000000 0.048653 0.000000
# 6 0.000000 0.000000 0.000000 0.006071 0.000000 0.034690
#
#
# Mechanical properties :
#
#
# Convention : Reuss Voigt Hill
#
# Bulk Modulus (GPa) = 43.13534 63.20701 53.17118
# Shear Modulus (GPa) = 23.58713 27.31372 25.45042
#
# Velocity S-wave (km/s) = 3.56411 3.83534 3.70221
# Velocity P-wave (km/s) = 6.33781 7.32485 6.84914
#
# Compressibility (1/GPa) = 0.02318285
#
# Stress axis : x y z
#
# Youngs Moduli (GPa) = 83.33002 32.96591 102.96761
#
# Poissons Ratio (x) = 0.16631 0.34853
# Poissons Ratio (y) = 0.42040 0.61802
# Poissons Ratio (z) = 0.28206 0.19786
#
# Static dielectric constant tensor:
#      x y z
#    x 3.494140 0.000000 0.104030 
#    y 0.000000 3.119970 0.000000 
#    z 0.104030 0.000000 4.097870 
# 
# 
# High freq. dielectric constant tensor:
#      x y z
#    x 1.720960 0.000000 -0.003580 
#    y 0.000000 1.693980 0.000000 
#    z -0.003580 0.000000 1.728380 
# 
# From -- ./inp_files/359806.got.cif
#   From: 2010.06.25/outbox.cif.g09.slc.cpg/sg12_180_cif.got.tgz:359806.got - 2010.06.28 00:19:55.
