data_PCOD8090936
_publ_section_title
;
Structure prediction by ZEFSAII (Michael W. Deem and Ramdas Pophale) SiO2 
 PCOD8090936
Probable space group: C 2/M
;
_chemical_formula_sum "Si O2"
_cell_formula_units_Z 56
_cell_length_a 14.426633
_cell_length_b 8.922651
_cell_length_c 26.661124
_cell_angle_alpha 90.000000
_cell_angle_beta 123.655558
_cell_angle_gamma 90.000000
_cell_volume 2856.677374
_symmetry_space_group_name_H-M "C 2/M"
_symmetry_group_IT_number 12
_symmetry_cell_setting 'monoclinic'
loop_
_space_group_symop_operation_xyz
x,y,z
-x,y,-z
-x,-y,-z
x,-y,z
1/2+x,1/2+y,z
1/2-x,1/2+y,-z
1/2-x,1/2-y,-z
1/2+x,1/2-y,z
loop_
_atom_site_type_symbol
_atom_site_label
_atom_site_fract_x
_atom_site_fract_y
_atom_site_fract_z
Si Si1 0.649137 0.822644 0.999126
Si Si2 0.596266 0.177630 0.093514
Si Si3 0.209359 0.673425 0.320944
Si Si4 0.516390 0.823698 0.695048
Si Si5 0.297451 0.327028 0.448542
Si Si6 0.582513 0.328498 0.422315
Si Si7 0.761294 0.821302 0.227669
O O1 0.531798 0.768617 0.939669
O O2 0.661425 0.000000 0.999288
O O3 0.750000 0.750000 0.000000
O O4 0.650428 0.767705 0.057379
O O5 0.668064 0.240519 0.161441
O O6 0.597128 0.000000 0.093773
O O7 0.193373 0.500000 0.304774
O O8 0.093649 0.734591 0.309172
O O9 0.309700 0.699715 0.391854
O O10 0.235179 0.747981 0.275057
O O11 0.508000 0.772674 0.633869
O O12 0.620079 0.745085 0.753350
O O13 0.531228 0.000000 0.701860
O O14 0.255484 0.500000 0.443786
O O15 0.411825 0.302907 0.514980
O O16 0.206066 0.210154 0.440327
O O17 0.552744 0.500000 0.401034
O O18 0.767709 0.000000 0.228628
#
# Coordination Sequence:
#
# PCOD8090936 Si02
#       7
#     8   8   8   8   8   8   8
#     4   9  17  33  55  79 106 136 167 201 241 284
#     4   8  17  33  52  74 104 137 166 199 243 292
#     4   8  16  31  50  69  93 126 163 203 250 302
#     4  10  20  34  49  70 101 131 161 207 260 300
#     4   8  14  26  44  67  94 123 159 209 261 300
#     4   9  15  25  45  69  91 123 166 206 250 307
#     4  10  19  34  54  73  95 131 174 205 236 293
#
# _framework density 19.603193000000001
#
# number of rings (size 3 to 8) (size 9 to 14) (size 15 to 20)
#    0.000    3.143    0.000    2.571    0.000    1.714 
#    0.000    8.571    0.000    4.286    0.000    0.000 
#    0.000    0.000    0.000    0.000    0.000    0.000 
#
# Total GULP energy -346885.899760 kJ/mol
# GULP energy per Si atom -12388.782134 kJ/mol
# Density = 1.955858 g / cm^3
# Si number density = 19.603193 Si / 1000 Ang^3
#
#
#
# Elastic Constant Matrix: (Units=GPa)
#
#
# Indices 1 2 3 4 5 6 
#
# 1 72.2344 15.2350 42.8285 0.0000 0.9121 0.0000
# 2 15.2350 32.6324 21.9944 0.0000 2.0064 0.0000
# 3 42.8285 21.9944 147.1135 0.0000 9.0788 0.0000
# 4 0.0000 0.0000 0.0000 19.7150 0.0000 5.1615
# 5 0.9121 2.0064 9.0788 0.0000 27.2983 0.0000
# 6 0.0000 0.0000 0.0000 5.1615 0.0000 23.6489
#
#
#
# Elastic Compliance Matrix: (Units=1/GPa)
#
#
# Indices 1 2 3 4 5 6 
#
# 1 0.017553 -0.005311 -0.004394 0.000000 0.001265 0.000000
# 2 -0.005311 0.035704 -0.003717 0.000000 -0.001211 0.000000
# 3 -0.004394 -0.003717 0.008787 0.000000 -0.002502 0.000000
# 4 0.000000 0.000000 0.000000 0.053797 0.000000 -0.011741
# 5 0.001265 -0.001211 -0.002502 0.000000 0.037511 0.000000
# 6 0.000000 0.000000 0.000000 -0.011741 0.000000 0.044848
#
#
# Mechanical properties :
#
#
# Convention : Reuss Voigt Hill
#
# Bulk Modulus (GPa) = 28.40981 45.78847 37.09914
# Shear Modulus (GPa) = 21.11683 25.59392 23.35538
#
# Velocity S-wave (km/s) = 3.28565 3.61723 3.45542
# Velocity P-wave (km/s) = 5.37754 6.39173 5.90644
#
# Compressibility (1/GPa) = 0.03519911
#
# Stress axis : x y z
#
# Youngs Moduli (GPa) = 56.96888 28.00831 113.80566
#
# Poissons Ratio (x) = 0.14876 0.50010
# Poissons Ratio (y) = 0.30257 0.42302
# Poissons Ratio (z) = 0.25034 0.10411
#
# Static dielectric constant tensor:
#      x y z
#    x 3.414520 0.000000 -0.051880 
#    y 0.000000 3.183730 0.000000 
#    z -0.051880 0.000000 4.181420 
# 
# 
# High freq. dielectric constant tensor:
#      x y z
#    x 1.741980 0.000000 0.003070 
#    y 0.000000 1.726110 0.000000 
#    z 0.003070 0.000000 1.776960 
# 
# From -- ./inp_files/339005.got.cif
#   From: 2010.06.25/outbox.cif.g09.slc.cpg/sg12_170_cif.got.tgz:339005.got - 2010.06.28 00:19:55.
