data_PCOD8090095
_publ_section_title
;
Structure prediction by ZEFSAII (Michael W. Deem and Ramdas Pophale) SiO2 
 PCOD8090095
Probable space group: C 2/M
;
_chemical_formula_sum "Si O2"
_cell_formula_units_Z 64
_cell_length_a 11.558274
_cell_length_b 13.721499
_cell_length_c 31.455442
_cell_angle_alpha 90.000000
_cell_angle_beta 140.712049
_cell_angle_gamma 90.000000
_cell_volume 3158.956699
_symmetry_space_group_name_H-M "C 2/M"
_symmetry_group_IT_number 12
_symmetry_cell_setting 'monoclinic'
loop_
_space_group_symop_operation_xyz
x,y,z
-x,y,-z
-x,-y,-z
x,-y,z
1/2+x,1/2+y,z
1/2-x,1/2+y,-z
1/2-x,1/2-y,-z
1/2+x,1/2-y,z
loop_
_atom_site_type_symbol
_atom_site_label
_atom_site_fract_x
_atom_site_fract_y
_atom_site_fract_z
Si Si1 0.411961 0.889623 0.276083
Si Si2 0.764020 0.114482 0.128555
Si Si3 0.988138 0.811646 0.725650
Si Si4 0.953268 0.246504 0.036124
Si Si5 0.037464 0.890224 0.649172
Si Si6 0.870590 0.611291 0.499529
Si Si7 0.093709 0.310091 0.634607
Si Si8 0.978454 0.109964 0.871914
O O1 0.511684 0.806550 0.276857
O O2 0.460761 0.866726 0.338416
O O3 0.194637 0.880174 0.208231
O O4 0.478025 0.000000 0.282966
O O5 0.554498 0.150154 0.072228
O O6 0.844624 0.145854 0.105100
O O7 0.889261 0.161351 0.199777
O O8 0.766669 0.000000 0.135119
O O9 0.782877 0.853699 0.670917
O O10 0.067402 0.866568 0.707162
O O11 0.056924 0.168111 0.094824
O O12 0.750000 0.250000 0.000000
O O13 0.000000 0.216310 0.000000
O O14 0.141303 0.805061 0.653620
O O15 0.831876 0.877652 0.574863
O O16 0.109944 0.000000 0.660113
O O17 0.919535 0.500000 0.524407
O O18 0.000000 0.653406 0.500000
O O19 0.918423 0.674937 0.554552
O O20 0.010932 0.000000 0.895621
#
# Coordination Sequence:
#
# PCOD8090095 Si02
#       8
#     8   8   8   8   8   8   8   8
#     4  10  21  36  58  87 118 153 196 244 300 357
#     4  11  23  40  65  94 126 163 207 253 304 368
#     4  11  21  36  60  88 119 153 200 247 297 356
#     4  12  25  43  68  95 130 166 207 256 305 375
#     4  10  22  37  54  81 117 157 196 246 302 355
#     4  10  19  33  55  81 111 148 199 252 300 353
#     4  11  21  34  58  84 114 155 199 248 298 361
#     4  10  21  40  65  91 123 162 204 251 305 364
#
# _framework density 20.259853
#
# number of rings (size 3 to 8) (size 9 to 14) (size 15 to 20)
#    0.000    1.375    5.000    1.125    0.000    2.500 
#    0.000    0.000    0.000    2.625    0.000    0.000 
#    0.000    0.000    0.000    0.000    0.000    0.000 
#
# Total GULP energy -396504.686778 kJ/mol
# GULP energy per Si atom -12390.771462 kJ/mol
# Density = 2.021374 g / cm^3
# Si number density = 20.259853 Si / 1000 Ang^3
#
#
#
# Elastic Constant Matrix: (Units=GPa)
#
#
# Indices 1 2 3 4 5 6 
#
# 1 80.9309 27.6170 38.8615 0.0000 -12.2129 0.0000
# 2 27.6170 99.9804 34.4434 0.0000 -23.7514 0.0000
# 3 38.8615 34.4434 78.7752 0.0000 -17.9435 0.0000
# 4 0.0000 0.0000 0.0000 31.4894 0.0000 16.1113
# 5 -12.2129 -23.7514 -17.9435 0.0000 35.0877 0.0000
# 6 0.0000 0.0000 0.0000 16.1113 0.0000 44.7266
#
#
#
# Elastic Compliance Matrix: (Units=1/GPa)
#
#
# Indices 1 2 3 4 5 6 
#
# 1 0.016566 -0.001921 -0.007148 0.000000 0.000810 0.000000
# 2 -0.001921 0.013250 -0.003345 0.000000 0.006590 0.000000
# 3 -0.007148 -0.003345 0.018789 0.000000 0.004857 0.000000
# 4 0.000000 0.000000 0.000000 0.038932 0.000000 -0.014024
# 5 0.000810 0.006590 0.004857 0.000000 0.035727 0.000000
# 6 0.000000 0.000000 0.000000 -0.014024 0.000000 0.027410
#
#
# Mechanical properties :
#
#
# Convention : Reuss Voigt Hill
#
# Bulk Modulus (GPa) = 42.05458 51.28113 46.66786
# Shear Modulus (GPa) = 27.25858 32.84503 30.05180
#
# Velocity S-wave (km/s) = 3.67201 4.03077 3.85556
# Velocity P-wave (km/s) = 6.22743 6.85780 6.55020
#
# Compressibility (1/GPa) = 0.02377862
#
# Stress axis : x y z
#
# Youngs Moduli (GPa) = 60.36322 75.46899 53.22176
#
# Poissons Ratio (x) = 0.14498 0.38043
# Poissons Ratio (y) = 0.11596 0.17801
# Poissons Ratio (z) = 0.43148 0.25243
#
# Static dielectric constant tensor:
#      x y z
#    x 3.614620 0.000000 -0.060780 
#    y 0.000000 3.843840 0.000000 
#    z -0.060780 0.000000 3.719060 
# 
# 
# High freq. dielectric constant tensor:
#      x y z
#    x 1.774790 0.000000 -0.007470 
#    y 0.000000 1.793180 0.000000 
#    z -0.007470 0.000000 1.801940 
# 
# From -- ./inp_files/374120.got.cif
#   From: 2010.06.25/outbox.cif.g09.slc.cpg/sg12_188_cif.got.tgz:374120.got - 2010.06.28 00:19:55.
