data_PCOD8090398
_publ_section_title
;
Structure prediction by ZEFSAII (Michael W. Deem and Ramdas Pophale) SiO2 
 PCOD8090398
Probable space group: C 2/M
;
_chemical_formula_sum "Si O2"
_cell_formula_units_Z 48
_cell_length_a 30.344680
_cell_length_b 8.869942
_cell_length_c 18.111480
_cell_angle_alpha 90.000000
_cell_angle_beta 150.927249
_cell_angle_gamma 90.000000
_cell_volume 2368.764327
_symmetry_space_group_name_H-M "C 2/M"
_symmetry_group_IT_number 12
_symmetry_cell_setting 'monoclinic'
loop_
_space_group_symop_operation_xyz
x,y,z
-x,y,-z
-x,-y,-z
x,-y,z
1/2+x,1/2+y,z
1/2-x,1/2+y,-z
1/2-x,1/2-y,-z
1/2+x,1/2-y,z
loop_
_atom_site_type_symbol
_atom_site_label
_atom_site_fract_x
_atom_site_fract_y
_atom_site_fract_z
Si Si1 0.601287 0.169412 0.178592
Si Si2 0.663210 0.322981 0.687111
Si Si3 0.968299 0.827304 0.789484
Si Si4 0.167243 0.824749 0.137809
Si Si5 0.158753 0.678134 0.836033
Si Si6 0.488887 0.675133 0.653480
O O1 0.600806 0.230760 0.261628
O O2 0.665406 0.270145 0.220228
O O3 0.639585 0.000000 0.234547
O O4 0.500000 0.177431 0.000000
O O5 0.666281 0.500000 0.707483
O O6 0.760526 0.269817 0.802116
O O7 0.635533 0.238466 0.720950
O O8 0.588315 0.280109 0.517202
O O9 0.949162 0.789352 0.676282
O O10 0.948204 0.000000 0.779062
O O11 0.072439 0.789498 0.959627
O O12 0.192854 0.000000 0.172905
O O13 0.170369 0.500000 0.851274
O O14 0.077053 0.723333 0.770254
O O15 0.250000 0.750000 0.000000
O O16 0.516973 0.500000 0.688000
#
# Coordination Sequence:
#
# PCOD8090398 Si02
#       6
#     8   8   8   8   8   8
#     4   9  17  30  51  80 112 144 183 234 287 335
#     4  11  23  39  59  84 117 153 188 230 283 340
#     4   9  18  34  56  81 109 144 187 233 282 335
#     4  10  19  33  56  83 112 148 192 238 282 335
#     4  12  25  41  63  88 114 146 188 235 281 334
#     4  10  22  40  60  84 117 153 187 230 285 340
#
# _framework density 20.263729999999999
#
# number of rings (size 3 to 8) (size 9 to 14) (size 15 to 20)
#    0.000    1.833    0.000    4.500    0.000    8.000 
#    0.000    0.833    0.000    0.000    0.000    0.000 
#    0.000    0.000    0.000    0.000    0.000    0.000 
#
# Total GULP energy -297708.437634 kJ/mol
# GULP energy per Si atom -12404.518235 kJ/mol
# Density = 2.021761 g / cm^3
# Si number density = 20.263730 Si / 1000 Ang^3
#
#
#
# Elastic Constant Matrix: (Units=GPa)
#
#
# Indices 1 2 3 4 5 6 
#
# 1 78.5028 19.9890 12.7090 0.0000 -24.3142 0.0000
# 2 19.9890 92.7233 26.8576 0.0000 -11.5688 0.0000
# 3 12.7090 26.8576 52.8080 0.0000 -25.1471 0.0000
# 4 0.0000 0.0000 0.0000 22.5602 0.0000 1.0353
# 5 -24.3142 -11.5688 -25.1471 0.0000 29.0798 0.0000
# 6 0.0000 0.0000 0.0000 1.0353 0.0000 44.5718
#
#
#
# Elastic Compliance Matrix: (Units=1/GPa)
#
#
# Indices 1 2 3 4 5 6 
#
# 1 0.018810 -0.003532 0.006953 0.000000 0.020335 0.000000
# 2 -0.003532 0.013325 -0.008176 0.000000 -0.004722 0.000000
# 3 0.006953 -0.008176 0.038491 0.000000 0.035847 0.000000
# 4 0.000000 0.000000 0.000000 0.044373 0.000000 -0.001031
# 5 0.020335 -0.004722 0.035847 0.000000 0.080511 0.000000
# 6 0.000000 0.000000 0.000000 -0.001031 0.000000 0.022460
#
#
# Mechanical properties :
#
#
# Convention : Reuss Voigt Hill
#
# Bulk Modulus (GPa) = 16.36182 38.12728 27.24455
# Shear Modulus (GPa) = 20.17326 30.20757 25.19042
#
# Velocity S-wave (km/s) = 3.15863 3.86517 3.52963
# Velocity P-wave (km/s) = 4.62543 6.22702 5.48500
#
# Compressibility (1/GPa) = 0.06111791
#
# Stress axis : x y z
#
# Youngs Moduli (GPa) = 53.16198 75.04633 25.97986
#
# Poissons Ratio (x) = 0.26505 -0.18063
# Poissons Ratio (y) = 0.18776 0.21240
# Poissons Ratio (z) = -0.36963 0.61354
#
# Static dielectric constant tensor:
#      x y z
#    x 3.909760 0.000000 -0.144730 
#    y 0.000000 3.730850 0.000000 
#    z -0.144730 0.000000 3.486030 
# 
# 
# High freq. dielectric constant tensor:
#      x y z
#    x 1.808280 0.000000 -0.008510 
#    y 0.000000 1.795490 0.000000 
#    z -0.008510 0.000000 1.770460 
# 
# From -- ./inp_files/244628.got.cif
#   From: 2010.06.25/outbox.cif.g09.slc.cpg/sg12_123_cif.got.tgz:244628.got - 2010.06.28 00:19:55.
