data_PCOD8090218
_publ_section_title
;
Structure prediction by ZEFSAII (Michael W. Deem and Ramdas Pophale) SiO2 
 PCOD8090218
Probable space group: C 2/M
;
_chemical_formula_sum "Si O2"
_cell_formula_units_Z 64
_cell_length_a 24.118450
_cell_length_b 8.848985
_cell_length_c 19.988113
_cell_angle_alpha 90.000000
_cell_angle_beta 54.411234
_cell_angle_gamma 90.000000
_cell_volume 3469.125145
_symmetry_space_group_name_H-M "C 2/M"
_symmetry_group_IT_number 12
_symmetry_cell_setting 'monoclinic'
loop_
_space_group_symop_operation_xyz
x,y,z
-x,y,-z
-x,-y,-z
x,-y,z
1/2+x,1/2+y,z
1/2-x,1/2+y,-z
1/2-x,1/2-y,-z
1/2+x,1/2-y,z
loop_
_atom_site_type_symbol
_atom_site_label
_atom_site_fract_x
_atom_site_fract_y
_atom_site_fract_z
Si Si1 0.808975 0.325052 0.629780
Si Si2 0.075892 0.324359 0.711537
Si Si3 0.320277 0.321474 0.974291
Si Si4 0.680266 0.177208 0.526666
Si Si5 0.081615 0.324337 0.199091
Si Si6 0.156912 0.174837 0.262393
Si Si7 0.844843 0.824473 0.228758
Si Si8 0.187529 0.324415 0.882322
O O1 0.822633 0.500000 0.636654
O O2 0.837585 0.277243 0.537153
O O3 0.848257 0.225144 0.656857
O O4 0.728378 0.289917 0.687021
O O5 0.089654 0.500000 0.716133
O O6 0.118972 0.268153 0.617136
O O7 0.096953 0.231228 0.762018
O O8 0.997913 0.290582 0.750771
O O9 0.311940 0.500000 0.979076
O O10 0.380488 0.274413 0.882795
O O11 0.250000 0.250000 0.000000
O O12 0.339741 0.265548 0.034473
O O13 0.750000 0.250000 0.500000
O O14 0.691553 0.000000 0.522963
O O15 0.098829 0.500000 0.176274
O O16 0.104431 0.274118 0.256835
O O17 0.232264 0.207023 0.181605
O O18 0.137354 0.000000 0.270161
O O19 0.853025 0.735181 0.153577
O O20 0.855027 0.000000 0.206570
O O21 0.171659 0.500000 0.903124
#
# Coordination Sequence:
#
# PCOD8090218 Si02
#       8
#     8   8   8   8   8   8   8   8
#     4   9  18  32  53  82 113 145 184 231 282 332
#     4  10  22  38  57  82 115 154 191 230 282 338
#     4  12  23  37  59  87 115 145 185 234 280 332
#     4  10  19  34  56  84 114 145 189 235 278 330
#     4  11  23  39  58  81 114 154 190 230 280 337
#     4  10  20  34  55  82 111 146 187 231 281 333
#     4  10  19  33  55  84 115 149 187 231 282 334
#     4  10  20  35  57  85 115 146 184 233 281 331
#
# _framework density 18.448456
#
# number of rings (size 3 to 8) (size 9 to 14) (size 15 to 20)
#    0.000    1.750    2.500    2.625    0.000    3.000 
#    0.000    1.250    0.000    7.500    0.000    0.000 
#    0.000    0.000    0.000    0.000    0.000    0.000 
#
# Total GULP energy -396945.098434 kJ/mol
# GULP energy per Si atom -12404.534326 kJ/mol
# Density = 1.840647 g / cm^3
# Si number density = 18.448456 Si / 1000 Ang^3
#
#
#
# Elastic Constant Matrix: (Units=GPa)
#
#
# Indices 1 2 3 4 5 6 
#
# 1 118.1850 58.5923 59.9701 -0.0001 17.7968 -0.0006
# 2 58.5923 98.8577 48.7159 -0.0030 7.7656 0.0031
# 3 59.9701 48.7159 109.7900 -0.0011 15.2824 0.0010
# 4 -0.0001 -0.0030 -0.0011 26.6266 0.0008 6.2452
# 5 17.7968 7.7656 15.2824 0.0008 30.1085 -0.0008
# 6 -0.0006 0.0031 0.0010 6.2452 -0.0008 33.8348
#
#
#
# Elastic Compliance Matrix: (Units=1/GPa)
#
#
# Indices 1 2 3 4 5 6 
#
# 1 0.014438 -0.005919 -0.004610 -0.000001 -0.004667 0.000001
# 2 -0.005919 0.015378 -0.003794 0.000002 0.001458 -0.000002
# 3 -0.004610 -0.003794 0.013767 0.000000 -0.003284 0.000000
# 4 -0.000001 0.000002 0.000000 0.039256 -0.000001 -0.007246
# 5 -0.004667 0.001458 -0.003284 -0.000001 0.037263 0.000001
# 6 0.000001 -0.000002 0.000000 -0.007246 0.000001 0.030893
#
#
# Mechanical properties :
#
#
# Convention : Reuss Voigt Hill
#
# Bulk Modulus (GPa) = 66.94374 73.48770 70.21572
# Shear Modulus (GPa) = 27.08264 28.75094 27.91679
#
# Velocity S-wave (km/s) = 3.83563 3.95200 3.89425
# Velocity P-wave (km/s) = 7.48209 7.79390 7.63959
#
# Compressibility (1/GPa) = 0.01493792
#
# Stress axis : x y z
#
# Youngs Moduli (GPa) = 69.26242 65.02591 72.63679
#
# Poissons Ratio (x) = 0.38486 0.33489
# Poissons Ratio (y) = 0.40994 0.27556
# Poissons Ratio (z) = 0.31933 0.24669
#
# Static dielectric constant tensor:
#      x y z
#    x 3.286040 -0.000010 0.216550 
#    y -0.000010 3.580760 0.000010 
#    z 0.216550 0.000010 3.532600 
# 
# 
# High freq. dielectric constant tensor:
#      x y z
#    x 1.709050 0.000000 0.024610 
#    y 0.000000 1.723440 0.000000 
#    z 0.024610 0.000000 1.707940 
# 
# From -- ./inp_files/324072.got.cif
#   From: 2010.06.25/outbox.cif.g09.slc.cpg/sg12_163_cif.got.tgz:324072.got - 2010.06.28 00:19:55.
