data_PCOD8090480
_publ_section_title
;
Structure prediction by ZEFSAII (Michael W. Deem and Ramdas Pophale) SiO2 
 PCOD8090480
Probable space group: C 2/M
;
_chemical_formula_sum "Si O2"
_cell_formula_units_Z 64
_cell_length_a 23.757020
_cell_length_b 8.540734
_cell_length_c 28.763824
_cell_angle_alpha 90.000000
_cell_angle_beta 149.083297
_cell_angle_gamma 90.000000
_cell_volume 2998.614190
_symmetry_space_group_name_H-M "C 2/M"
_symmetry_group_IT_number 12
_symmetry_cell_setting 'monoclinic'
loop_
_space_group_symop_operation_xyz
x,y,z
-x,y,-z
-x,-y,-z
x,-y,z
1/2+x,1/2+y,z
1/2-x,1/2+y,-z
1/2-x,1/2-y,-z
1/2+x,1/2-y,z
loop_
_atom_site_type_symbol
_atom_site_label
_atom_site_fract_x
_atom_site_fract_y
_atom_site_fract_z
Si Si1 0.369798 0.684053 0.024685
Si Si2 0.947948 0.181526 0.336282
Si Si3 0.717613 0.814695 0.712565
Si Si4 0.447625 0.313951 0.915353
Si Si5 0.682573 0.815999 0.495806
Si Si6 0.221305 0.685741 0.342187
Si Si7 0.021998 0.679167 0.815757
Si Si8 0.154859 0.681072 0.822400
O O1 0.360126 0.500000 0.016497
O O2 0.475792 0.745810 0.072055
O O3 0.383438 0.737125 0.087409
O O4 0.260185 0.751083 0.923647
O O5 0.891467 0.234649 0.344306
O O6 0.860416 0.213471 0.233662
O O7 0.053932 0.283784 0.398567
O O8 0.979893 0.000000 0.361927
O O9 0.824581 0.754250 0.817167
O O10 0.723679 0.767508 0.662993
O O11 0.706063 0.000000 0.708281
O O12 0.446538 0.500000 0.917332
O O13 0.500000 0.245214 0.000000
O O14 0.750000 0.750000 0.500000
O O15 0.715421 0.731217 0.566526
O O16 0.704507 0.000000 0.514797
O O17 0.224965 0.500000 0.338621
O O18 0.097533 0.750821 0.259423
O O19 0.024189 0.500000 0.832240
O O20 0.049421 0.699205 0.780936
O O21 0.172409 0.500000 0.819882
#
# Coordination Sequence:
#
# PCOD8090480 Si02
#       8
#     8   8   8   8   8   8   8   8
#     4  10  19  33  56  86 121 165 217 264 313 378
#     4  12  26  44  66  95 129 166 210 263 323 386
#     4  11  22  40  65  92 128 171 219 270 325 386
#     4   9  17  31  54  84 119 164 217 268 316 370
#     4  12  26  47  74 103 132 166 211 260 319 385
#     4  11  23  41  65  95 133 173 216 269 326 384
#     4  10  21  36  57  87 127 167 206 259 319 377
#     4  10  21  38  60  88 124 170 216 263 321 382
#
# _framework density 21.343192999999999
#
# number of rings (size 3 to 8) (size 9 to 14) (size 15 to 20)
#    0.000    1.375    1.250    4.875    0.000    5.000 
#    0.000    2.500    0.000    1.875    0.000    0.000 
#    0.000    0.000    0.000    0.000    0.000    0.000 
#
# Total GULP energy -396882.413787 kJ/mol
# GULP energy per Si atom -12402.575431 kJ/mol
# Density = 2.129462 g / cm^3
# Si number density = 21.343193 Si / 1000 Ang^3
#
#
#
# Elastic Constant Matrix: (Units=GPa)
#
#
# Indices 1 2 3 4 5 6 
#
# 1 117.6493 20.1668 35.9709 0.0001 3.3041 0.0001
# 2 20.1668 48.8884 9.5155 0.0006 3.6982 0.0019
# 3 35.9709 9.5155 89.0207 0.0004 -2.6787 0.0003
# 4 0.0001 0.0006 0.0004 29.4817 0.0000 -4.7600
# 5 3.3041 3.6982 -2.6787 0.0000 43.2104 0.0000
# 6 0.0001 0.0019 0.0003 -4.7600 0.0000 31.2856
#
#
#
# Elastic Compliance Matrix: (Units=1/GPa)
#
#
# Indices 1 2 3 4 5 6 
#
# 1 0.010274 -0.003442 -0.003805 0.000000 -0.000727 0.000000
# 2 -0.003442 0.022205 -0.001034 -0.000001 -0.001701 -0.000001
# 3 -0.003805 -0.001034 0.012917 0.000000 0.001180 0.000000
# 4 0.000000 -0.000001 0.000000 0.034774 0.000000 0.005291
# 5 -0.000727 -0.001701 0.001180 0.000000 0.023417 0.000000
# 6 0.000000 -0.000001 0.000000 0.005291 0.000000 0.032769
#
#
# Mechanical properties :
#
#
# Convention : Reuss Voigt Hill
#
# Bulk Modulus (GPa) = 34.68283 42.98496 38.83389
# Shear Modulus (GPa) = 30.76394 33.45590 32.10992
#
# Velocity S-wave (km/s) = 3.80069 3.96349 3.88294
# Velocity P-wave (km/s) = 5.96202 6.41321 6.19172
#
# Compressibility (1/GPa) = 0.02883271
#
# Stress axis : x y z
#
# Youngs Moduli (GPa) = 97.33522 45.03558 77.41762
#
# Poissons Ratio (x) = 0.15503 0.29459
# Poissons Ratio (y) = 0.33506 0.08003
# Poissons Ratio (z) = 0.37039 0.04655
#
# Static dielectric constant tensor:
#      x y z
#    x 3.971660 0.000000 0.080840 
#    y 0.000000 3.558350 0.000000 
#    z 0.080840 0.000000 3.986730 
# 
# 
# High freq. dielectric constant tensor:
#      x y z
#    x 1.851910 0.000000 0.000650 
#    y 0.000000 1.815340 0.000000 
#    z 0.000650 0.000000 1.843040 
# 
# From -- ./inp_files/382429.got.cif
#   From: 2010.06.25/outbox.cif.g09.slc.cpg/sg12_192_cif.got.tgz:382429.got - 2010.06.28 00:19:55.
