data_PCOD8090795
_publ_section_title
;
Structure prediction by ZEFSAII (Michael W. Deem and Ramdas Pophale) SiO2 
 PCOD8090795
Probable space group: C 2/M
;
_chemical_formula_sum "Si O2"
_cell_formula_units_Z 56
_cell_length_a 20.928214
_cell_length_b 7.995882
_cell_length_c 25.817965
_cell_angle_alpha 90.000000
_cell_angle_beta 47.591814
_cell_angle_gamma 90.000000
_cell_volume 3189.981180
_symmetry_space_group_name_H-M "C 2/M"
_symmetry_group_IT_number 12
_symmetry_cell_setting 'monoclinic'
loop_
_space_group_symop_operation_xyz
x,y,z
-x,y,-z
-x,-y,-z
x,-y,z
1/2+x,1/2+y,z
1/2-x,1/2+y,-z
1/2-x,1/2-y,-z
1/2+x,1/2-y,z
loop_
_atom_site_type_symbol
_atom_site_label
_atom_site_fract_x
_atom_site_fract_y
_atom_site_fract_z
Si Si1 0.425165 0.686316 0.170907
Si Si2 0.776242 0.805593 0.325240
Si Si3 0.850396 0.810275 0.690337
Si Si4 0.480108 0.197971 0.453664
Si Si5 0.718625 0.683418 0.838690
Si Si6 0.997352 0.500000 0.916300
Si Si7 0.357358 0.000000 0.075185
Si Si8 0.292338 0.803961 0.529848
O O1 0.468407 0.500000 0.150022
O O2 0.374131 0.727569 0.252131
O O3 0.356000 0.688798 0.163059
O O4 0.495793 0.831754 0.122506
O O5 0.706177 0.704552 0.330623
O O6 0.768655 0.746400 0.388954
O O7 0.751820 0.000000 0.331896
O O8 0.810245 0.704519 0.759617
O O9 0.947858 0.752666 0.626816
O O10 0.849512 0.000000 0.709490
O O11 0.500000 0.271279 0.500000
O O12 0.388457 0.272756 0.484225
O O13 0.477078 0.000000 0.458419
O O14 0.718195 0.500000 0.866422
O O15 0.701454 0.832443 0.889106
O O16 0.072807 0.500000 0.917316
O O17 0.903795 0.500000 0.994217
O O18 0.250000 0.750000 0.500000
O O19 0.301334 0.000000 0.525260
#
# Coordination Sequence:
#
# PCOD8090795 Si02
#       8
#     8   8   8   8   8   4   4   8
#     4   8  15  25  39  58  81 113 156 197 236 280
#     4   9  17  31  47  63  87 124 162 198 245 300
#     4  11  19  27  45  70  93 114 160 216 246 285
#     4  10  19  34  51  67  92 127 167 207 251 298
#     4   9  16  27  40  57  86 120 155 194 238 291
#     4   9  16  24  38  56  87 114 155 198 233 283
#     4   9  16  26  36  58  84 121 156 189 236 295
#     4  10  21  36  51  68  96 130 166 206 255 307
#
# _framework density 17.554963999999998
#
# number of rings (size 3 to 8) (size 9 to 14) (size 15 to 20)
#    0.000    2.571    2.143    2.143    3.000    2.000 
#    0.000    2.857    0.000    0.000    0.000    0.000 
#    0.000    0.000    0.000    1.286    5.143    1.286 
#
# Total GULP energy -347042.054778 kJ/mol
# GULP energy per Si atom -12394.359099 kJ/mol
# Density = 1.751501 g / cm^3
# Si number density = 17.554964 Si / 1000 Ang^3
#
#
#
# Elastic Constant Matrix: (Units=GPa)
#
#
# Indices 1 2 3 4 5 6 
#
# 1 52.5029 21.2038 33.3223 0.0011 -0.0852 0.0057
# 2 21.2038 102.3608 68.6451 0.0037 -7.6716 0.0128
# 3 33.3223 68.6451 147.5506 -0.0005 -11.1384 0.0012
# 4 0.0011 0.0037 -0.0005 29.7811 0.0004 -2.5576
# 5 -0.0852 -7.6716 -11.1384 0.0004 10.8423 -0.0002
# 6 0.0057 0.0128 0.0012 -2.5576 -0.0002 12.8712
#
#
#
# Elastic Compliance Matrix: (Units=1/GPa)
#
#
# Indices 1 2 3 4 5 6 
#
# 1 0.022822 -0.002062 -0.004652 -0.000001 -0.006059 -0.000008
# 2 -0.002062 0.014512 -0.005975 -0.000003 0.004114 -0.000014
# 3 -0.004652 -0.005975 0.011151 0.000002 0.007191 0.000007
# 4 -0.000001 -0.000003 0.000002 0.034161 -0.000002 0.006788
# 5 -0.006059 0.004114 0.007191 -0.000002 0.102482 -0.000001
# 6 -0.000008 -0.000014 0.000007 0.006788 -0.000001 0.079042
#
#
# Mechanical properties :
#
#
# Convention : Reuss Voigt Hill
#
# Bulk Modulus (GPa) = 43.27851 60.97296 52.12574
# Shear Modulus (GPa) = 16.82086 22.64846 19.73466
#
# Velocity S-wave (km/s) = 3.09881 3.59576 3.35649
# Velocity P-wave (km/s) = 6.12455 7.21438 6.69169
#
# Compressibility (1/GPa) = 0.02310616
#
# Stress axis : x y z
#
# Youngs Moduli (GPa) = 43.81725 68.90927 89.68084
#
# Poissons Ratio (x) = 0.14207 0.41722
# Poissons Ratio (y) = 0.09034 0.53586
# Poissons Ratio (z) = 0.20385 0.41175
#
# Static dielectric constant tensor:
#      x y z
#    x 2.468270 0.000000 -0.166680 
#    y 0.000000 3.444560 0.000000 
#    z -0.166680 0.000000 3.469360 
# 
# 
# High freq. dielectric constant tensor:
#      x y z
#    x 1.594280 0.000000 -0.014090 
#    y 0.000000 1.688350 0.000000 
#    z -0.014090 0.000000 1.684880 
# 
# From -- ./inp_files/345505.got.cif
#   From: 2010.06.25/outbox.cif.g09.slc.cpg/sg12_173_cif.got.tgz:345505.got - 2010.06.28 00:19:55.
