data_PCOD8090277
_publ_section_title
;
Structure prediction by ZEFSAII (Michael W. Deem and Ramdas Pophale) SiO2 
 PCOD8090277
Probable space group: C 2/M
;
_chemical_formula_sum "Si O2"
_cell_formula_units_Z 64
_cell_length_a 12.370387
_cell_length_b 13.423150
_cell_length_c 29.401523
_cell_angle_alpha 90.000000
_cell_angle_beta 42.246677
_cell_angle_gamma 90.000000
_cell_volume 3282.359093
_symmetry_space_group_name_H-M "C 2/M"
_symmetry_group_IT_number 12
_symmetry_cell_setting 'monoclinic'
loop_
_space_group_symop_operation_xyz
x,y,z
-x,y,-z
-x,-y,-z
x,-y,z
1/2+x,1/2+y,z
1/2-x,1/2+y,-z
1/2-x,1/2-y,-z
1/2+x,1/2-y,z
loop_
_atom_site_type_symbol
_atom_site_label
_atom_site_fract_x
_atom_site_fract_y
_atom_site_fract_z
Si Si1 0.985737 0.754362 0.937819
Si Si2 0.407603 0.189980 0.722015
Si Si3 0.432658 0.385985 0.173422
Si Si4 0.746657 0.611233 0.384819
Si Si5 0.784386 0.619711 0.939182
Si Si6 0.164337 0.755941 0.155405
Si Si7 0.508037 0.716991 0.395015
Si Si8 0.276765 0.112107 0.477873
O O1 0.035216 0.828609 0.882669
O O2 0.148925 0.712050 0.909480
O O3 0.888741 0.658067 0.949682
O O4 0.885811 0.822693 0.004158
O O5 0.253702 0.125724 0.754126
O O6 0.561108 0.119067 0.679283
O O7 0.375426 0.241271 0.779838
O O8 0.437215 0.274630 0.674433
O O9 0.475216 0.500000 0.152077
O O10 0.549833 0.345084 0.175770
O O11 0.694871 0.500000 0.386394
O O12 0.659860 0.689315 0.378898
O O13 0.699409 0.631374 0.451971
O O14 0.767558 0.500000 0.945042
O O15 0.864694 0.655873 0.866356
O O16 0.434877 0.821088 0.436297
O O17 0.364990 0.635791 0.442285
O O18 0.336034 0.000000 0.465635
#
# Coordination Sequence:
#
# PCOD8090277 Si02
#       8
#     8   8   8   8   8   8   8   8
#     4   9  20  36  54  82 113 138 174 224 270 315
#     4  10  21  36  51  75 109 142 177 220 265 312
#     4  10  20  36  56  75 103 142 179 218 266 317
#     4  10  19  33  57  83 105 135 178 222 265 317
#     4  10  20  35  57  83 110 141 178 222 269 315
#     4  10  21  36  53  76 107 141 180 221 261 314
#     4  10  19  33  56  79 108 141 173 217 267 315
#     4   9  19  35  56  82 108 136 174 219 266 317
#
# _framework density 19.498170999999999
#
# number of rings (size 3 to 8) (size 9 to 14) (size 15 to 20)
#    0.000    2.250    0.000    2.625    0.000    5.500 
#    0.000    1.250    0.000   21.750    0.000    0.000 
#    0.000    0.000    0.000    0.000    0.000    0.000 
#
# Total GULP energy -396690.645697 kJ/mol
# GULP energy per Si atom -12396.582678 kJ/mol
# Density = 1.945379 g / cm^3
# Si number density = 19.498171 Si / 1000 Ang^3
#
#
#
# Elastic Constant Matrix: (Units=GPa)
#
#
# Indices 1 2 3 4 5 6 
#
# 1 100.4483 58.8821 35.3854 0.0000 -13.2851 0.0000
# 2 58.8821 98.3399 38.0028 0.0000 -8.7107 0.0000
# 3 35.3854 38.0028 93.6172 -0.0003 2.2285 0.0000
# 4 0.0000 0.0000 -0.0003 21.0430 0.0000 -2.2556
# 5 -13.2851 -8.7107 2.2285 0.0000 31.6920 0.0000
# 6 0.0000 0.0000 0.0000 -2.2556 0.0000 21.3112
#
#
#
# Elastic Compliance Matrix: (Units=1/GPa)
#
#
# Indices 1 2 3 4 5 6 
#
# 1 0.016519 -0.008307 -0.002987 0.000000 0.004851 0.000000
# 2 -0.008307 0.016678 -0.003663 0.000000 0.001360 0.000000
# 3 -0.002987 -0.003663 0.013374 0.000000 -0.003199 0.000000
# 4 0.000000 0.000000 0.000000 0.048067 0.000000 0.005088
# 5 0.004851 0.001360 -0.003199 0.000000 0.034186 0.000000
# 6 0.000000 0.000000 0.000000 0.005088 0.000000 0.047462
#
#
# Mechanical properties :
#
#
# Convention : Reuss Voigt Hill
#
# Bulk Modulus (GPa) = 60.03349 61.88290 60.95820
# Shear Modulus (GPa) = 23.61246 25.48492 24.54869
#
# Velocity S-wave (km/s) = 3.48373 3.61922 3.55212
# Velocity P-wave (km/s) = 6.85842 7.01938 6.93937
#
# Compressibility (1/GPa) = 0.01665737
#
# Stress axis : x y z
#
# Youngs Moduli (GPa) = 60.53784 59.95760 74.77168
#
# Poissons Ratio (x) = 0.49804 0.22336
# Poissons Ratio (y) = 0.50286 0.27389
# Poissons Ratio (z) = 0.18084 0.21963
#
# Static dielectric constant tensor:
#      x y z
#    x 3.686490 0.000000 -0.149640 
#    y 0.000000 3.331890 0.000000 
#    z -0.149640 0.000000 3.838820 
# 
# 
# High freq. dielectric constant tensor:
#      x y z
#    x 1.759240 0.000000 -0.006760 
#    y 0.000000 1.737310 0.000000 
#    z -0.006760 0.000000 1.771880 
# 
# From -- ./inp_files/374101.got.cif
#   From: 2010.06.25/outbox.cif.g09.slc.cpg/sg12_188_cif.got.tgz:374101.got - 2010.06.28 00:19:55.
