data_PCOD8090063
_publ_section_title
;
Structure prediction by ZEFSAII (Michael W. Deem and Ramdas Pophale) SiO2 
 PCOD8090063
Probable space group: C 2/M
;
_chemical_formula_sum "Si O2"
_cell_formula_units_Z 64
_cell_length_a 32.273552
_cell_length_b 9.195822
_cell_length_c 12.086104
_cell_angle_alpha 90.000000
_cell_angle_beta 92.024571
_cell_angle_gamma 90.000000
_cell_volume 3584.697100
_symmetry_space_group_name_H-M "C 2/M"
_symmetry_group_IT_number 12
_symmetry_cell_setting 'monoclinic'
loop_
_space_group_symop_operation_xyz
x,y,z
-x,y,-z
-x,-y,-z
x,-y,z
1/2+x,1/2+y,z
1/2-x,1/2+y,-z
1/2-x,1/2-y,-z
1/2+x,1/2-y,z
loop_
_atom_site_type_symbol
_atom_site_label
_atom_site_fract_x
_atom_site_fract_y
_atom_site_fract_z
Si Si1 0.011429 0.670156 0.877305
Si Si2 0.114054 0.333521 0.409565
Si Si3 0.848795 0.331968 0.357054
Si Si4 0.686219 0.834362 0.249420
Si Si5 0.265361 0.670147 0.392455
Si Si6 0.060857 0.170752 0.240436
Si Si7 0.393829 0.831635 0.133467
Si Si8 0.366373 0.670537 0.919863
O O1 0.003558 0.500000 0.858265
O O2 0.058397 0.716180 0.857507
O O3 0.983207 0.757527 0.788771
O O4 0.000000 0.718044 0.000000
O O5 0.100202 0.500000 0.392172
O O6 0.120742 0.294725 0.538413
O O7 0.157322 0.301591 0.352271
O O8 0.077768 0.232232 0.358163
O O9 0.834556 0.500000 0.362698
O O10 0.808872 0.230544 0.354940
O O11 0.874098 0.297546 0.249460
O O12 0.733109 0.801548 0.289922
O O13 0.674239 0.731711 0.145818
O O14 0.680699 0.000000 0.209457
O O15 0.269043 0.500000 0.420045
O O16 0.250000 0.750000 0.500000
O O17 0.092790 0.213246 0.145938
O O18 0.055118 0.000000 0.251226
O O19 0.390290 0.000000 0.100068
O O20 0.369104 0.739706 0.040762
O O21 0.361074 0.500000 0.931961
#
# Coordination Sequence:
#
# PCOD8090063 Si02
#       8
#     8   8   8   8   8   8   8   8
#     4  10  19  33  55  81 105 139 185 226 268 322
#     4   9  17  33  54  76 106 141 176 218 265 320
#     4  10  21  38  57  81 111 145 183 224 273 325
#     4   9  18  33  54  79 106 138 178 221 265 313
#     4  11  21  35  57  85 113 143 182 227 271 320
#     4  10  20  32  51  81 110 138 175 226 275 317
#     4  10  21  37  57  79 109 146 183 223 271 331
#     4  10  20  33  52  80 111 140 177 223 274 324
#
# _framework density 17.853670000000001
#
# number of rings (size 3 to 8) (size 9 to 14) (size 15 to 20)
#    0.000    2.125    2.500    1.125    0.000    3.750 
#    0.000    1.250    0.000    3.750    0.000    0.000 
#    0.000    0.000    0.000    0.000    0.000    0.000 
#
# Total GULP energy -396930.573752 kJ/mol
# GULP energy per Si atom -12404.080430 kJ/mol
# Density = 1.781303 g / cm^3
# Si number density = 17.853670 Si / 1000 Ang^3
#
#
#
# Elastic Constant Matrix: (Units=GPa)
#
#
# Indices 1 2 3 4 5 6 
#
# 1 109.2243 60.3287 65.7058 0.0000 11.3857 0.0000
# 2 60.3287 87.4013 65.1947 0.0000 13.5766 0.0000
# 3 65.7058 65.1947 131.7511 0.0000 16.2001 0.0000
# 4 0.0000 0.0000 0.0000 24.3354 0.0000 4.8127
# 5 11.3857 13.5766 16.2001 0.0000 27.9864 0.0000
# 6 0.0000 0.0000 0.0000 4.8127 0.0000 30.5243
#
#
#
# Elastic Compliance Matrix: (Units=1/GPa)
#
#
# Indices 1 2 3 4 5 6 
#
# 1 0.016022 -0.008050 -0.003968 0.000000 -0.000316 0.000000
# 2 -0.008050 0.022580 -0.006691 0.000000 -0.003806 0.000000
# 3 -0.003968 -0.006691 0.013223 0.000000 -0.002794 0.000000
# 4 0.000000 0.000000 0.000000 0.042415 0.000000 -0.006688
# 5 -0.000316 -0.003806 -0.002794 0.000000 0.039324 0.000000
# 6 0.000000 0.000000 0.000000 -0.006688 0.000000 0.033815
#
#
# Mechanical properties :
#
#
# Convention : Reuss Voigt Hill
#
# Bulk Modulus (GPa) = 69.40770 78.98169 74.19470
# Shear Modulus (GPa) = 23.85503 25.71237 24.78370
#
# Velocity S-wave (km/s) = 3.65929 3.79908 3.72984
# Velocity P-wave (km/s) = 7.53752 7.97361 7.75863
#
# Compressibility (1/GPa) = 0.01440762
#
# Stress axis : x y z
#
# Youngs Moduli (GPa) = 62.41497 44.28694 75.62438
#
# Poissons Ratio (x) = 0.35652 0.30007
# Poissons Ratio (y) = 0.50245 0.50597
# Poissons Ratio (z) = 0.24766 0.29631
#
# Static dielectric constant tensor:
#      x y z
#    x 3.258740 0.000000 0.147000 
#    y 0.000000 3.280220 0.000000 
#    z 0.147000 0.000000 3.231000 
# 
# 
# High freq. dielectric constant tensor:
#      x y z
#    x 1.681590 0.000000 0.020230 
#    y 0.000000 1.692190 0.000000 
#    z 0.020230 0.000000 1.684060 
# 
# From -- ./inp_files/187541.got.cif
#   From: 2010.06.25/outbox.cif.g09.slc.cpg/sg12_94_cif.got.tgz:187541.got - 2010.06.28 00:19:55.
