data_PCOD8090714
_publ_section_title
;
Structure prediction by ZEFSAII (Michael W. Deem and Ramdas Pophale) SiO2 
 PCOD8090714
Probable space group: C 2/M
;
_chemical_formula_sum "Si O2"
_cell_formula_units_Z 56
_cell_length_a 9.142934
_cell_length_b 14.481053
_cell_length_c 21.634775
_cell_angle_alpha 90.000000
_cell_angle_beta 71.603116
_cell_angle_gamma 90.000000
_cell_volume 2718.037438
_symmetry_space_group_name_H-M "C 2/M"
_symmetry_group_IT_number 12
_symmetry_cell_setting 'monoclinic'
loop_
_space_group_symop_operation_xyz
x,y,z
-x,y,-z
-x,-y,-z
x,-y,z
1/2+x,1/2+y,z
1/2-x,1/2+y,-z
1/2-x,1/2-y,-z
1/2+x,1/2-y,z
loop_
_atom_site_type_symbol
_atom_site_label
_atom_site_fract_x
_atom_site_fract_y
_atom_site_fract_z
Si Si1 0.839087 0.343985 0.987988
Si Si2 0.808002 0.099581 0.877193
Si Si3 0.673117 0.244631 0.313814
Si Si4 0.639724 0.208867 0.597797
Si Si5 0.651474 0.392286 0.521292
Si Si6 0.510371 0.282144 0.774486
Si Si7 0.500931 0.105182 0.847723
O O1 0.731813 0.409556 0.044773
O O2 0.750000 0.250000 0.000000
O O3 0.861124 0.383552 0.915915
O O4 0.000000 0.330286 0.000000
O O5 0.951448 0.166414 0.843744
O O6 0.658398 0.134587 0.860394
O O7 0.858487 0.000000 0.845943
O O8 0.537058 0.181398 0.361745
O O9 0.750959 0.306251 0.357222
O O10 0.591769 0.308261 0.272187
O O11 0.812732 0.188265 0.262582
O O12 0.640686 0.318621 0.578861
O O13 0.697455 0.139224 0.537415
O O14 0.500000 0.381259 0.500000
O O15 0.670295 0.500000 0.540494
O O16 0.487920 0.172328 0.790390
O O17 0.502184 0.000000 0.823685
#
# Coordination Sequence:
#
# PCOD8090714 Si02
#       7
#     8   8   8   8   8   8   8
#     4  10  19  33  59  84 108 140 185 241 305 350
#     4  10  20  36  58  83 110 147 192 240 292 352
#     4  10  22  37  60  81 120 160 192 224 288 324
#     4  10  20  41  60  91 122 154 180 242 276 332
#     4  10  20  37  66  95 118 151 189 228 280 340
#     4  11  20  38  58  82 110 157 196 238 272 343
#     4  10  20  36  58  83 110 147 192 240 292 352
#
# _framework density 20.603102
#
# number of rings (size 3 to 8) (size 9 to 14) (size 15 to 20)
#    0.000    1.857    4.286    0.429    0.000    1.714 
#    0.000   10.714    0.000    0.857    0.000    0.000 
#    0.000    0.000    0.000    0.000    0.000    0.000 
#
# Total GULP energy -346892.201562 kJ/mol
# GULP energy per Si atom -12389.007199 kJ/mol
# Density = 2.055621 g / cm^3
# Si number density = 20.603102 Si / 1000 Ang^3
#
#
#
# Elastic Constant Matrix: (Units=GPa)
#
#
# Indices 1 2 3 4 5 6 
#
# 1 82.3064 19.0433 43.8036 0.0000 -19.6546 0.0000
# 2 19.0433 103.7628 36.9381 0.0000 -9.1681 0.0000
# 3 43.8036 36.9381 125.5643 0.0000 -29.4336 0.0000
# 4 0.0000 0.0000 0.0000 13.2084 0.0000 -0.0696
# 5 -19.6546 -9.1681 -29.4336 0.0000 41.2733 0.0000
# 6 0.0000 0.0000 0.0000 -0.0696 0.0000 18.4862
#
#
#
# Elastic Compliance Matrix: (Units=1/GPa)
#
#
# Indices 1 2 3 4 5 6 
#
# 1 0.015607 -0.001011 -0.004152 0.000000 0.004247 0.000000
# 2 -0.001011 0.010831 -0.002861 0.000000 -0.000116 0.000000
# 3 -0.004152 -0.002861 0.011577 0.000000 0.005643 0.000000
# 4 0.000000 0.000000 0.000000 0.075711 0.000000 0.000285
# 5 0.004247 -0.000116 0.005643 0.000000 0.030250 0.000000
# 6 0.000000 0.000000 0.000000 0.000285 0.000000 0.054096
#
#
# Mechanical properties :
#
#
# Convention : Reuss Voigt Hill
#
# Bulk Modulus (GPa) = 45.52023 56.80039 51.16031
# Shear Modulus (GPa) = 22.57934 28.71681 25.64807
#
# Velocity S-wave (km/s) = 3.31406 3.73743 3.53209
# Velocity P-wave (km/s) = 6.06513 6.80097 6.44356
#
# Compressibility (1/GPa) = 0.02196826
#
# Stress axis : x y z
#
# Youngs Moduli (GPa) = 64.07216 92.32701 86.37986
#
# Poissons Ratio (x) = 0.09336 0.35862
# Poissons Ratio (y) = 0.06479 0.24710
# Poissons Ratio (z) = 0.26601 0.26411
#
# Static dielectric constant tensor:
#      x y z
#    x 3.752190 0.000000 -0.037060 
#    y 0.000000 3.415530 0.000000 
#    z -0.037060 0.000000 4.479790 
# 
# 
# High freq. dielectric constant tensor:
#      x y z
#    x 1.794270 0.000000 -0.015540 
#    y 0.000000 1.764790 0.000000 
#    z -0.015540 0.000000 1.826600 
# 
# From -- ./inp_files/332673.got.cif
#   From: 2010.06.25/outbox.cif.g09.slc.cpg/sg12_167_cif.got.tgz:332673.got - 2010.06.28 00:19:55.
