data_PCOD8090256
_publ_section_title
;
Structure prediction by ZEFSAII (Michael W. Deem and Ramdas Pophale) SiO2 
 PCOD8090256
Probable space group: C 2/M
;
_chemical_formula_sum "Si O2"
_cell_formula_units_Z 40
_cell_length_a 11.131341
_cell_length_b 15.030162
_cell_length_c 17.903983
_cell_angle_alpha 90.000000
_cell_angle_beta 138.127768
_cell_angle_gamma 90.000000
_cell_volume 1999.372416
_symmetry_space_group_name_H-M "C 2/M"
_symmetry_group_IT_number 12
_symmetry_cell_setting 'monoclinic'
loop_
_space_group_symop_operation_xyz
x,y,z
-x,y,-z
-x,-y,-z
x,-y,z
1/2+x,1/2+y,z
1/2-x,1/2+y,-z
1/2-x,1/2-y,-z
1/2+x,1/2-y,z
loop_
_atom_site_type_symbol
_atom_site_label
_atom_site_fract_x
_atom_site_fract_y
_atom_site_fract_z
Si Si1 0.639916 0.787680 0.729086
Si Si2 0.669569 0.295923 0.035466
Si Si3 0.958657 0.098122 0.832065
Si Si4 0.891207 0.398724 0.522980
Si Si5 0.028776 0.901196 0.699420
O O1 0.671425 0.810748 0.831368
O O2 0.801538 0.828500 0.755417
O O3 0.452830 0.834050 0.618867
O O4 0.635170 0.680843 0.710886
O O5 0.500000 0.246513 0.000000
O O6 0.750000 0.250000 0.000000
O O7 0.586880 0.387332 0.963345
O O8 0.070453 0.105733 0.807096
O O9 0.871541 0.000000 0.797669
O O10 0.938029 0.500000 0.566161
O O11 0.681141 0.386989 0.412182
O O12 0.000000 0.369541 0.500000
O O13 0.089444 0.000000 0.698161
#
# Coordination Sequence:
#
# PCOD8090256 Si02
#       5
#     8   8   8   8   8
#     4  11  20  33  59  83 113 152 199 243 299 356
#     4  10  21  36  57  88 124 155 200 253 303 355
#     4  10  20  36  59  85 114 150 196 248 298 348
#     4  10  19  33  55  86 117 146 193 250 301 356
#     4  10  20  35  55  80 113 151 190 239 299 361
#
# _framework density 20.006277000000001
#
# number of rings (size 3 to 8) (size 9 to 14) (size 15 to 20)
#    0.000    1.800    4.000    1.200    0.000    4.400 
#    0.000    0.000    0.000   13.800    0.000    0.000 
#    0.000    0.000    0.000    0.000    0.000    0.000 
#
# Total GULP energy -247781.514757 kJ/mol
# GULP energy per Si atom -12389.075738 kJ/mol
# Density = 1.996074 g / cm^3
# Si number density = 20.006277 Si / 1000 Ang^3
#
#
#
# Elastic Constant Matrix: (Units=GPa)
#
#
# Indices 1 2 3 4 5 6 
#
# 1 74.0605 39.8285 8.6729 0.0000 -5.7729 0.0000
# 2 39.8285 162.5871 40.9080 0.0000 3.6928 0.0000
# 3 8.6729 40.9080 108.3948 -0.0001 -13.1305 0.0000
# 4 0.0000 0.0000 -0.0001 31.3703 0.0000 0.7525
# 5 -5.7729 3.6928 -13.1305 0.0000 19.5084 0.0000
# 6 0.0000 0.0000 0.0000 0.7525 0.0000 31.3301
#
#
#
# Elastic Compliance Matrix: (Units=1/GPa)
#
#
# Indices 1 2 3 4 5 6 
#
# 1 0.016241 -0.004411 0.001142 0.000000 0.006409 0.000000
# 2 -0.004411 0.008192 -0.003359 0.000000 -0.005117 0.000000
# 3 0.001142 -0.003359 0.011454 0.000000 0.008683 0.000000
# 4 0.000000 0.000000 0.000000 0.031896 0.000000 -0.000766
# 5 0.006409 -0.005117 0.008683 0.000000 0.059969 0.000000
# 6 0.000000 0.000000 0.000000 -0.000766 0.000000 0.031937
#
#
# Mechanical properties :
#
#
# Convention : Reuss Voigt Hill
#
# Bulk Modulus (GPa) = 44.18860 58.20678 51.19769
# Shear Modulus (GPa) = 27.70267 33.48396 30.59332
#
# Velocity S-wave (km/s) = 3.72519 4.09549 3.91472
# Velocity P-wave (km/s) = 6.37480 7.17785 6.78821
#
# Compressibility (1/GPa) = 0.02263027
#
# Stress axis : x y z
#
# Youngs Moduli (GPa) = 61.57374 122.06358 87.30940
#
# Poissons Ratio (x) = 0.53846 -0.09969
# Poissons Ratio (y) = 0.27162 0.29324
# Poissons Ratio (z) = -0.07030 0.40997
#
# Static dielectric constant tensor:
#      x y z
#    x 3.352110 0.000000 -0.115470 
#    y 0.000000 3.856180 0.000000 
#    z -0.115470 0.000000 4.104520 
# 
# 
# High freq. dielectric constant tensor:
#      x y z
#    x 1.737810 0.000000 -0.008070 
#    y 0.000000 1.773840 0.000000 
#    z -0.008070 0.000000 1.798430 
# 
# From -- ./inp_files/129149.got.cif
#   From: 2010.06.25/outbox.cif.g09.slc.cpg/sg12_65_cif.got.tgz:129149.got - 2010.06.28 00:19:55.
