data_PCOD8090122
_publ_section_title
;
Structure prediction by ZEFSAII (Michael W. Deem and Ramdas Pophale) SiO2 
 PCOD8090122
Probable space group: C 2/M
;
_chemical_formula_sum "Si O2"
_cell_formula_units_Z 48
_cell_length_a 27.967393
_cell_length_b 9.045953
_cell_length_c 17.319457
_cell_angle_alpha 90.000000
_cell_angle_beta 143.364156
_cell_angle_gamma 90.000000
_cell_volume 2614.666310
_symmetry_space_group_name_H-M "C 2/M"
_symmetry_group_IT_number 12
_symmetry_cell_setting 'monoclinic'
loop_
_space_group_symop_operation_xyz
x,y,z
-x,y,-z
-x,-y,-z
x,-y,z
1/2+x,1/2+y,z
1/2-x,1/2+y,-z
1/2-x,1/2-y,-z
1/2+x,1/2-y,z
loop_
_atom_site_type_symbol
_atom_site_label
_atom_site_fract_x
_atom_site_fract_y
_atom_site_fract_z
Si Si1 0.059859 0.167878 0.007055
Si Si2 0.775476 0.674022 0.762316
Si Si3 0.869840 0.171409 0.149831
Si Si4 0.726877 0.171698 0.850349
Si Si5 0.300696 0.674933 0.498797
Si Si6 0.479936 0.325263 0.749071
O O1 0.014161 0.236165 0.874129
O O2 0.089967 0.000000 0.029305
O O3 0.134213 0.269832 0.123474
O O4 0.000000 0.170045 0.000000
O O5 0.774806 0.500000 0.774080
O O6 0.725695 0.747369 0.766921
O O7 0.734238 0.720451 0.629036
O O8 0.846097 0.267397 0.192920
O O9 0.959443 0.219305 0.241328
O O10 0.864693 0.000000 0.166373
O O11 0.811253 0.204028 0.001749
O O12 0.712559 0.000000 0.817963
O O13 0.298039 0.500000 0.508369
O O14 0.250000 0.750000 0.500000
O O15 0.391476 0.738199 0.619128
O O16 0.474817 0.500000 0.748699
#
# Coordination Sequence:
#
# PCOD8090122 Si02
#       6
#     8   8   8   8   8   8
#     4  10  19  33  56  81 104 137 183 230 272 318
#     4  11  22  35  53  81 114 144 178 221 274 326
#     4   9  17  32  55  81 108 137 178 228 274 318
#     4  10  19  33  55  82 110 141 180 221 272 327
#     4  10  22  39  58  79 108 147 186 224 268 321
#     4   9  17  34  56  79 105 140 185 225 264 318
#
# _framework density 18.357983000000001
#
# number of rings (size 3 to 8) (size 9 to 14) (size 15 to 20)
#    0.000    2.167    1.667    2.000    0.000    3.667 
#    0.000    2.500    0.000    5.000    0.000    0.000 
#    0.000    0.000    0.000    0.000    0.000    0.000 
#
# Total GULP energy -297643.108234 kJ/mol
# GULP energy per Si atom -12401.796176 kJ/mol
# Density = 1.831620 g / cm^3
# Si number density = 18.357983 Si / 1000 Ang^3
#
#
#
# Elastic Constant Matrix: (Units=GPa)
#
#
# Indices 1 2 3 4 5 6 
#
# 1 149.9032 58.9364 84.9476 0.0000 0.7136 0.0000
# 2 58.9364 64.9577 47.2647 0.0000 -10.0651 0.0000
# 3 84.9476 47.2647 142.6396 0.0000 3.2410 0.0000
# 4 0.0000 0.0000 0.0000 21.1510 0.0000 -8.3030
# 5 0.7136 -10.0651 3.2410 0.0000 34.7494 0.0000
# 6 0.0000 0.0000 0.0000 -8.3030 0.0000 -2.9415
#
#
#
# Elastic Compliance Matrix: (Units=1/GPa)
#
#
# Indices 1 2 3 4 5 6 
#
# 1 0.012649 -0.008410 -0.004695 0.000000 -0.002258 0.000000
# 2 -0.008410 0.027465 -0.004286 0.000000 0.008528 0.000000
# 3 -0.004695 -0.004286 0.011277 0.000000 -0.002197 0.000000
# 4 0.000000 0.000000 0.000000 0.022428 0.000000 -0.063306
# 5 -0.002258 0.008528 -0.002197 0.000000 0.031499 0.000000
# 6 0.000000 0.000000 0.000000 -0.063306 0.000000 -0.161267
#
#
# Mechanical properties :
#
#
# Convention : Reuss Voigt Hill
#
# Bulk Modulus (GPa) = 60.20896 82.19977 71.20437
# Shear Modulus (GPa) = -319.85082 21.68191 -149.08446
#
# Velocity S-wave (km/s) = -13.21393 3.44039 -9.02141
# Velocity P-wave (km/s) = 14.14010 7.78813 8.34528
#
# Compressibility (1/GPa) = 0.01660882
#
# Stress axis : x y z
#
# Youngs Moduli (GPa) = 79.05961 36.40999 88.67835
#
# Poissons Ratio (x) = 0.30621 0.41633
# Poissons Ratio (y) = 0.66489 0.38007
# Poissons Ratio (z) = 0.37117 0.15605
#
# Static dielectric constant tensor:
#      x y z
#    x 3.493590 0.000000 0.040070 
#    y 0.000000 3.242890 0.000000 
#    z 0.040070 0.000000 3.465550 
# 
# 
# High freq. dielectric constant tensor:
#      x y z
#    x 1.729780 0.000000 0.001170 
#    y 0.000000 1.694260 0.000000 
#    z 0.001170 0.000000 1.699140 
# 
# From -- ./inp_files/280520.got.cif
#   From: 2010.06.25/outbox.cif.g09.slc.cpg/sg12_141_cif.got.tgz:280520.got - 2010.06.28 00:19:55.
