data_PCOD8090766
_publ_section_title
;
Structure prediction by ZEFSAII (Michael W. Deem and Ramdas Pophale) SiO2 
 PCOD8090766
Probable space group: C 2/M
;
_chemical_formula_sum "Si O2"
_cell_formula_units_Z 56
_cell_length_a 17.702630
_cell_length_b 26.591417
_cell_length_c 10.220163
_cell_angle_alpha 90.000000
_cell_angle_beta 140.845723
_cell_angle_gamma 90.000000
_cell_volume 3037.728954
_symmetry_space_group_name_H-M "C 2/M"
_symmetry_group_IT_number 12
_symmetry_cell_setting 'monoclinic'
loop_
_space_group_symop_operation_xyz
x,y,z
-x,y,-z
-x,-y,-z
x,-y,z
1/2+x,1/2+y,z
1/2-x,1/2+y,-z
1/2-x,1/2-y,-z
1/2+x,1/2-y,z
loop_
_atom_site_type_symbol
_atom_site_label
_atom_site_fract_x
_atom_site_fract_y
_atom_site_fract_z
Si Si1 0.047119 0.252877 0.202817
Si Si2 0.596722 0.500000 0.242692
Si Si3 0.228736 0.907792 0.017291
Si Si4 0.267804 0.806574 0.399244
Si Si5 0.564808 0.500000 0.724146
Si Si6 0.473833 0.058014 0.319623
Si Si7 0.691415 0.292112 0.013244
Si Si8 0.768516 0.419342 0.373553
O O1 0.161152 0.217540 0.337766
O O2 0.099080 0.297472 0.363124
O O3 0.945469 0.222482 0.142628
O O4 0.000000 0.273714 0.000000
O O5 0.536231 0.500000 0.301550
O O6 0.680150 0.451740 0.341967
O O7 0.500000 0.500000 0.000000
O O8 0.356941 0.911343 0.113738
O O9 0.244826 0.927477 0.187600
O O10 0.188562 0.849171 0.951517
O O11 0.138886 0.947685 0.831379
O O12 0.236369 0.864014 0.371386
O O13 0.269225 0.789908 0.249937
O O14 0.500000 0.500000 0.500000
O O15 0.500000 0.077680 0.500000
O O16 0.594710 0.067918 0.400467
O O17 0.438003 0.000000 0.269056
O O18 0.750000 0.250000 0.000000
#
# Coordination Sequence:
#
# PCOD8090766 Si02
#       8
#     8   4   8   8   4   8   8   8
#     4   9  19  38  56  77 112 154 192 241 298 352
#     4  12  22  35  65  91 119 146 198 250 285 352
#     4  10  20  38  59  83 118 158 192 248 299 355
#     4   9  20  36  59  82 114 150 193 249 292 352
#     4  12  26  43  57  87 129 164 196 241 311 372
#     4   9  16  29  54  83 113 136 178 233 291 340
#     4  10  22  36  56  88 118 149 201 247 300 356
#     4  10  19  33  61  95 107 140 198 253 295 332
#
# _framework density 18.434823999999999
#
# number of rings (size 3 to 8) (size 9 to 14) (size 15 to 20)
#    0.000    2.143    2.857    0.000    4.000    1.143 
#    2.571    1.429    0.000    0.857    0.000    0.000 
#    0.000    0.000    0.000    0.000    0.000    0.000 
#
# Total GULP energy -347003.996189 kJ/mol
# GULP energy per Si atom -12392.999864 kJ/mol
# Density = 1.839287 g / cm^3
# Si number density = 18.434824 Si / 1000 Ang^3
#
#
#
# Elastic Constant Matrix: (Units=GPa)
#
#
# Indices 1 2 3 4 5 6 
#
# 1 105.2502 51.8430 57.6564 0.0000 15.8177 0.0000
# 2 51.8430 111.3259 59.1366 0.0000 3.3356 0.0000
# 3 57.6564 59.1366 116.2161 0.0000 14.4391 0.0000
# 4 0.0000 0.0000 0.0000 22.3937 0.0000 2.8055
# 5 15.8177 3.3356 14.4391 0.0000 22.9025 0.0000
# 6 0.0000 0.0000 0.0000 2.8055 0.0000 20.0292
#
#
#
# Elastic Compliance Matrix: (Units=1/GPa)
#
#
# Indices 1 2 3 4 5 6 
#
# 1 0.015186 -0.004557 -0.004334 0.000000 -0.007092 0.000000
# 2 -0.004557 0.013794 -0.005316 0.000000 0.004490 0.000000
# 3 -0.004334 -0.005316 0.014096 0.000000 -0.005120 0.000000
# 4 0.000000 0.000000 0.000000 0.045453 0.000000 -0.006367
# 5 -0.007092 0.004490 -0.005120 0.000000 0.051135 0.000000
# 6 0.000000 0.000000 0.000000 -0.006367 0.000000 0.050819
#
#
# Mechanical properties :
#
#
# Convention : Reuss Voigt Hill
#
# Bulk Modulus (GPa) = 68.20519 74.45156 71.32838
# Shear Modulus (GPa) = 22.34288 24.00883 23.17586
#
# Velocity S-wave (km/s) = 3.48515 3.61274 3.54952
# Velocity P-wave (km/s) = 7.29886 7.60767 7.45486
#
# Compressibility (1/GPa) = 0.01466164
#
# Stress axis : x y z
#
# Youngs Moduli (GPa) = 65.85083 72.49363 70.94240
#
# Poissons Ratio (x) = 0.33037 0.30745
# Poissons Ratio (y) = 0.30010 0.37714
# Poissons Ratio (z) = 0.28539 0.38539
#
# Static dielectric constant tensor:
#      x y z
#    x 3.335600 0.000000 0.262730 
#    y 0.000000 3.437330 0.000000 
#    z 0.262730 0.000000 3.463660 
# 
# 
# High freq. dielectric constant tensor:
#      x y z
#    x 1.711270 0.000000 0.030620 
#    y 0.000000 1.719810 0.000000 
#    z 0.030620 0.000000 1.696010 
# 
# From -- ./inp_files/80139.got.cif
#   From: 2010.06.25/outbox.cif.g09.slc.cpg/sg12_41_cif.got.tgz:80139.got - 2010.06.28 00:19:55.
