data_PCOD8090365
_publ_section_title
;
Structure prediction by ZEFSAII (Michael W. Deem and Ramdas Pophale) SiO2 
 PCOD8090365
Probable space group: C 2/M
;
_chemical_formula_sum "Si O2"
_cell_formula_units_Z 56
_cell_length_a 29.079430
_cell_length_b 8.904464
_cell_length_c 11.753969
_cell_angle_alpha 90.000000
_cell_angle_beta 108.700381
_cell_angle_gamma 90.000000
_cell_volume 2882.860563
_symmetry_space_group_name_H-M "C 2/M"
_symmetry_group_IT_number 12
_symmetry_cell_setting 'monoclinic'
loop_
_space_group_symop_operation_xyz
x,y,z
-x,y,-z
-x,-y,-z
x,-y,z
1/2+x,1/2+y,z
1/2-x,1/2+y,-z
1/2-x,1/2-y,-z
1/2+x,1/2-y,z
loop_
_atom_site_type_symbol
_atom_site_label
_atom_site_fract_x
_atom_site_fract_y
_atom_site_fract_z
Si Si1 0.870487 0.823755 0.814428
Si Si2 0.984249 0.670365 0.296914
Si Si3 0.608546 0.826106 0.634829
Si Si4 0.950563 0.672710 0.020913
Si Si5 0.314679 0.675866 0.141537
Si Si6 0.914738 0.176585 0.610433
Si Si7 0.294174 0.824624 0.892762
O O1 0.889772 0.769757 0.707413
O O2 0.818804 0.746480 0.800162
O O3 0.863148 0.000000 0.811110
O O4 0.908075 0.777252 0.941838
O O5 0.004827 0.500000 0.315221
O O6 0.947206 0.696915 0.370979
O O7 0.954497 0.699659 0.158183
O O8 0.028443 0.784596 0.342010
O O9 0.644015 0.733171 0.742582
O O10 0.613166 0.763869 0.511202
O O11 0.623573 0.000000 0.650947
O O12 0.938466 0.500000 0.981975
O O13 0.000000 0.723418 0.000000
O O14 0.320896 0.500000 0.125645
O O15 0.262722 0.713824 0.156699
O O16 0.319495 0.756865 0.024616
O O17 0.909161 0.000000 0.586460
O O18 0.304346 0.000000 0.902518
#
# Coordination Sequence:
#
# PCOD8090365 Si02
#       7
#     8   8   8   8   8   8   8
#     4  11  23  37  56  84 117 153 193 239 290 340
#     4  10  21  37  56  82 112 147 192 236 283 342
#     4  11  23  38  59  84 113 152 195 238 284 340
#     4  10  19  33  56  82 112 149 185 230 287 345
#     4  10  21  39  63  91 119 146 183 234 286 337
#     4  11  24  39  55  79 114 154 196 241 285 336
#     4  10  21  38  63  91 118 149 185 228 284 347
#
# _framework density 19.425152000000001
#
# number of rings (size 3 to 8) (size 9 to 14) (size 15 to 20)
#    0.000    1.571    1.429    3.429    0.000    8.286 
#    0.000    0.714    0.000    0.000    0.000    0.000 
#    0.000    0.000    0.000    0.000    0.000    0.000 
#
# Total GULP energy -347364.856675 kJ/mol
# GULP energy per Si atom -12405.887738 kJ/mol
# Density = 1.938094 g / cm^3
# Si number density = 19.425152 Si / 1000 Ang^3
#
#
#
# Elastic Constant Matrix: (Units=GPa)
#
#
# Indices 1 2 3 4 5 6 
#
# 1 86.2405 33.6987 29.8739 0.0000 -9.2413 0.0000
# 2 33.6987 64.1611 25.2563 0.0000 -6.8332 0.0000
# 3 29.8739 25.2563 64.5638 0.0000 -9.4337 0.0000
# 4 0.0000 0.0000 0.0000 33.6214 0.0000 0.3844
# 5 -9.2413 -6.8332 -9.4337 0.0000 23.7301 0.0000
# 6 0.0000 0.0000 0.0000 0.3844 0.0000 34.3976
#
#
#
# Elastic Compliance Matrix: (Units=1/GPa)
#
#
# Indices 1 2 3 4 5 6 
#
# 1 0.015897 -0.006297 -0.004515 0.000000 0.002583 0.000000
# 2 -0.006297 0.021068 -0.005096 0.000000 0.001589 0.000000
# 3 -0.004515 -0.005096 0.020278 0.000000 0.004836 0.000000
# 4 0.000000 0.000000 0.000000 0.029747 0.000000 -0.000332
# 5 0.002583 0.001589 0.004836 0.000000 0.045526 0.000000
# 6 0.000000 0.000000 0.000000 -0.000332 0.000000 0.029075
#
#
# Mechanical properties :
#
#
# Convention : Reuss Voigt Hill
#
# Bulk Modulus (GPa) = 39.32793 43.62481 41.47637
# Shear Modulus (GPa) = 24.76696 26.75891 25.76293
#
# Velocity S-wave (km/s) = 3.57458 3.71555 3.64575
# Velocity P-wave (km/s) = 6.10955 6.39638 6.25461
#
# Compressibility (1/GPa) = 0.02542722
#
# Stress axis : x y z
#
# Youngs Moduli (GPa) = 62.90581 47.46498 49.31572
#
# Poissons Ratio (x) = 0.29889 0.22265
# Poissons Ratio (y) = 0.39612 0.25130
# Poissons Ratio (z) = 0.28401 0.24187
#
# Static dielectric constant tensor:
#      x y z
#    x 3.697170 0.000000 -0.186880 
#    y 0.000000 3.542290 0.000000 
#    z -0.186880 0.000000 3.484410 
# 
# 
# High freq. dielectric constant tensor:
#      x y z
#    x 1.760810 0.000000 -0.009740 
#    y 0.000000 1.762500 0.000000 
#    z -0.009740 0.000000 1.750630 
# 
# From -- ./inp_files/187704.got.cif
#   From: 2010.06.25/outbox.cif.g09.slc.cpg/sg12_94_cif.got.tgz:187704.got - 2010.06.28 00:19:55.
