data_PCOD8090087
_publ_section_title
;
Structure prediction by ZEFSAII (Michael W. Deem and Ramdas Pophale) SiO2 
 PCOD8090087
Probable space group: C 2/M
;
_chemical_formula_sum "Si O2"
_cell_formula_units_Z 56
_cell_length_a 14.998194
_cell_length_b 9.371364
_cell_length_c 21.190168
_cell_angle_alpha 90.000000
_cell_angle_beta 88.974453
_cell_angle_gamma 90.000000
_cell_volume 2977.875936
_symmetry_space_group_name_H-M "C 2/M"
_symmetry_group_IT_number 12
_symmetry_cell_setting 'monoclinic'
loop_
_space_group_symop_operation_xyz
x,y,z
-x,y,-z
-x,-y,-z
x,-y,z
1/2+x,1/2+y,z
1/2-x,1/2+y,-z
1/2-x,1/2-y,-z
1/2+x,1/2-y,z
loop_
_atom_site_type_symbol
_atom_site_label
_atom_site_fract_x
_atom_site_fract_y
_atom_site_fract_z
Si Si1 0.352737 0.335897 0.557108
Si Si2 0.338280 0.163669 0.140168
Si Si3 0.148250 0.333236 0.567683
Si Si4 0.858402 0.835904 0.882261
Si Si5 0.489714 0.335060 0.351812
Si Si6 0.517865 0.666738 0.792569
Si Si7 0.395891 0.164952 0.002447
O O1 0.362666 0.500000 0.535270
O O2 0.252224 0.304743 0.581295
O O3 0.379439 0.237059 0.498205
O O4 0.418911 0.298232 0.613164
O O5 0.233390 0.181020 0.155461
O O6 0.390840 0.254622 0.191085
O O7 0.358590 0.220317 0.069532
O O8 0.369515 0.000000 0.145721
O O9 0.126160 0.500000 0.564622
O O10 0.091590 0.261791 0.623749
O O11 0.937802 0.775470 0.837657
O O12 0.875409 0.000000 0.899551
O O13 0.849054 0.751189 0.947357
O O14 0.463090 0.500000 0.361772
O O15 0.507474 0.298512 0.278868
O O16 0.532680 0.500000 0.802807
O O17 0.372811 0.000000 0.992304
O O18 0.500000 0.195913 0.000000
#
# Coordination Sequence:
#
# PCOD8090087 Si02
#       7
#     8   8   8   8   8   8   8
#     4   9  19  36  57  80 110 146 176 212 266 319
#     4  10  21  37  56  79 107 140 176 219 273 325
#     4  10  20  34  56  86 112 137 176 223 265 309
#     4  10  21  36  56  80 105 138 181 223 264 316
#     4  10  21  37  55  75 106 146 182 214 263 321
#     4  10  22  38  54  76 105 140 182 225 261 309
#     4  10  19  33  55  81 110 139 170 217 276 327
#
# _framework density 18.805351000000002
#
# number of rings (size 3 to 8) (size 9 to 14) (size 15 to 20)
#    0.000    2.143    1.429    1.286    0.000    6.000 
#    0.000    2.857    0.000    0.000    0.000    0.000 
#    0.000    0.000    0.000    0.000    0.000    0.000 
#
# Total GULP energy -347315.773771 kJ/mol
# GULP energy per Si atom -12404.134778 kJ/mol
# Density = 1.876255 g / cm^3
# Si number density = 18.805351 Si / 1000 Ang^3
#
#
#
# Elastic Constant Matrix: (Units=GPa)
#
#
# Indices 1 2 3 4 5 6 
#
# 1 80.0072 36.7947 40.9538 0.0000 9.1342 0.0000
# 2 36.7947 63.1068 45.6810 0.0000 5.9556 0.0000
# 3 40.9538 45.6810 100.0340 0.0000 12.4030 0.0000
# 4 0.0000 0.0000 0.0000 29.6783 0.0000 1.1209
# 5 9.1342 5.9556 12.4030 0.0000 23.2155 0.0000
# 6 0.0000 0.0000 0.0000 1.1209 0.0000 30.5076
#
#
#
# Elastic Compliance Matrix: (Units=1/GPa)
#
#
# Indices 1 2 3 4 5 6 
#
# 1 0.018255 -0.007795 -0.003503 0.000000 -0.003311 0.000000
# 2 -0.007795 0.027002 -0.009275 0.000000 0.001095 0.000000
# 3 -0.003503 -0.009275 0.016279 0.000000 -0.004939 0.000000
# 4 0.000000 0.000000 0.000000 0.033742 0.000000 -0.001240
# 5 -0.003311 0.001095 -0.004939 0.000000 0.046735 0.000000
# 6 0.000000 0.000000 0.000000 -0.001240 0.000000 0.032824
#
#
# Mechanical properties :
#
#
# Convention : Reuss Voigt Hill
#
# Bulk Modulus (GPa) = 49.04732 54.44525 51.74628
# Shear Modulus (GPa) = 22.44369 24.66150 23.55259
#
# Velocity S-wave (km/s) = 3.45842 3.62527 3.54282
# Velocity P-wave (km/s) = 6.48735 6.82190 6.65673
#
# Compressibility (1/GPa) = 0.02038847
#
# Stress axis : x y z
#
# Youngs Moduli (GPa) = 54.77895 37.03479 61.43010
#
# Poissons Ratio (x) = 0.28870 0.21521
# Poissons Ratio (y) = 0.42702 0.56975
# Poissons Ratio (z) = 0.19191 0.34349
#
# Static dielectric constant tensor:
#      x y z
#    x 3.548190 0.000000 -0.052440 
#    y 0.000000 3.396430 0.000000 
#    z -0.052440 0.000000 3.349900 
# 
# 
# High freq. dielectric constant tensor:
#      x y z
#    x 1.740590 0.000000 -0.000530 
#    y 0.000000 1.724420 0.000000 
#    z -0.000530 0.000000 1.722060 
# 
# From -- ./inp_files/308911.got.cif
#   From: 2010.06.25/outbox.cif.g09.slc.cpg/sg12_155_cif.got.tgz:308911.got - 2010.06.28 00:19:55.
