data_PCOD8090225
_publ_section_title
;
Structure prediction by ZEFSAII (Michael W. Deem and Ramdas Pophale) SiO2 
 PCOD8090225
Probable space group: C 2/M
;
_chemical_formula_sum "Si O2"
_cell_formula_units_Z 56
_cell_length_a 20.136484
_cell_length_b 8.971217
_cell_length_c 17.369269
_cell_angle_alpha 90.000000
_cell_angle_beta 71.897552
_cell_angle_gamma 90.000000
_cell_volume 2982.426764
_symmetry_space_group_name_H-M "C 2/M"
_symmetry_group_IT_number 12
_symmetry_cell_setting 'monoclinic'
loop_
_space_group_symop_operation_xyz
x,y,z
-x,y,-z
-x,-y,-z
x,-y,z
1/2+x,1/2+y,z
1/2-x,1/2+y,-z
1/2-x,1/2-y,-z
1/2+x,1/2-y,z
loop_
_atom_site_type_symbol
_atom_site_label
_atom_site_fract_x
_atom_site_fract_y
_atom_site_fract_z
Si Si1 0.931716 0.326545 0.829969
Si Si2 0.795457 0.670557 0.582826
Si Si3 0.818288 0.327395 0.170566
Si Si4 0.654915 0.826727 0.598112
Si Si5 0.822029 0.329825 0.743230
Si Si6 0.424063 0.324147 0.246954
Si Si7 0.678357 0.172048 0.005528
O O1 0.950974 0.500000 0.832126
O O2 0.892987 0.294405 0.763154
O O3 0.883577 0.269262 0.917500
O O4 0.001617 0.231666 0.808847
O O5 0.768871 0.500000 0.584234
O O6 0.728592 0.777244 0.607908
O O7 0.846135 0.709604 0.492885
O O8 0.837473 0.694879 0.646948
O O9 0.825352 0.500000 0.191355
O O10 0.737855 0.279526 0.205388
O O11 0.864449 0.228570 0.210166
O O12 0.844223 0.299903 0.074234
O O13 0.592045 0.739167 0.661924
O O14 0.644328 0.000000 0.618707
O O15 0.798242 0.500000 0.767899
O O16 0.423729 0.500000 0.250615
O O17 0.691309 0.000000 0.018377
O O18 0.750000 0.250000 0.000000
#
# Coordination Sequence:
#
# PCOD8090225 Si02
#       7
#     8   8   8   8   8   8   8
#     4  10  22  40  60  83 116 155 190 232 289 345
#     4   9  18  32  55  88 118 146 187 234 282 340
#     4  11  22  36  59  88 117 150 190 236 286 342
#     4  10  19  33  55  84 117 151 187 234 289 341
#     4  10  19  35  60  88 116 149 189 233 281 340
#     4  12  25  40  57  81 115 155 198 242 290 342
#     4  10  21  37  60  89 118 149 188 234 284 341
#
# _framework density 18.776655000000002
#
# number of rings (size 3 to 8) (size 9 to 14) (size 15 to 20)
#    0.000    1.714    2.857    2.143    0.000    2.857 
#    0.000    3.571    0.000    4.286    0.000    0.000 
#    0.000    0.000    0.000    0.000    0.000    0.000 
#
# Total GULP energy -347270.433388 kJ/mol
# GULP energy per Si atom -12402.515478 kJ/mol
# Density = 1.873392 g / cm^3
# Si number density = 18.776655 Si / 1000 Ang^3
#
#
#
# Elastic Constant Matrix: (Units=GPa)
#
#
# Indices 1 2 3 4 5 6 
#
# 1 53.5252 31.4336 24.0874 0.0000 -11.4092 0.0000
# 2 31.4336 93.6616 41.5147 0.0000 -12.0207 0.0000
# 3 24.0874 41.5147 114.5676 0.0000 -6.7020 0.0000
# 4 0.0000 0.0000 0.0000 26.7545 0.0000 -5.2018
# 5 -11.4092 -12.0207 -6.7020 0.0000 31.9763 0.0000
# 6 0.0000 0.0000 0.0000 -5.2018 0.0000 31.3366
#
#
#
# Elastic Compliance Matrix: (Units=1/GPa)
#
#
# Indices 1 2 3 4 5 6 
#
# 1 0.024885 -0.006465 -0.002543 0.000000 0.005916 0.000000
# 2 -0.006465 0.014889 -0.003891 0.000000 0.002475 0.000000
# 3 -0.002543 -0.003891 0.010665 0.000000 -0.000135 0.000000
# 4 0.000000 0.000000 0.000000 0.038623 0.000000 0.006411
# 5 0.005916 0.002475 -0.000135 0.000000 0.034286 0.000000
# 6 0.000000 0.000000 0.000000 0.006411 0.000000 0.032976
#
#
# Mechanical properties :
#
#
# Convention : Reuss Voigt Hill
#
# Bulk Modulus (GPa) = 40.58408 50.64733 45.61570
# Shear Modulus (GPa) = 26.26929 28.99475 27.63202
#
# Velocity S-wave (km/s) = 3.74443 3.93388 3.84033
# Velocity P-wave (km/s) = 6.35259 6.90406 6.63406
#
# Compressibility (1/GPa) = 0.02464020
#
# Stress axis : x y z
#
# Youngs Moduli (GPa) = 40.18488 67.16474 93.76245
#
# Poissons Ratio (x) = 0.43423 0.23846
# Poissons Ratio (y) = 0.25980 0.36484
# Poissons Ratio (z) = 0.10220 0.26134
#
# Static dielectric constant tensor:
#      x y z
#    x 3.187500 0.000000 0.100580 
#    y 0.000000 3.460880 0.000000 
#    z 0.100580 0.000000 3.890720 
# 
# 
# High freq. dielectric constant tensor:
#      x y z
#    x 1.702700 0.000000 0.008610 
#    y 0.000000 1.730110 0.000000 
#    z 0.008610 0.000000 1.749240 
# 
# From -- ./inp_files/275238.got.cif
#   From: 2010.06.25/outbox.cif.g09.slc.cpg/sg12_138_cif.got.tgz:275238.got - 2010.06.28 00:19:55.
