data_PCOD8090689
_publ_section_title
;
Structure prediction by ZEFSAII (Michael W. Deem and Ramdas Pophale) SiO2 
 PCOD8090689
Probable space group: C 2/M
;
_chemical_formula_sum "Si O2"
_cell_formula_units_Z 64
_cell_length_a 15.304633
_cell_length_b 8.879356
_cell_length_c 27.668689
_cell_angle_alpha 90.000000
_cell_angle_beta 58.316148
_cell_angle_gamma 90.000000
_cell_volume 3199.644248
_symmetry_space_group_name_H-M "C 2/M"
_symmetry_group_IT_number 12
_symmetry_cell_setting 'monoclinic'
loop_
_space_group_symop_operation_xyz
x,y,z
-x,y,-z
-x,-y,-z
x,-y,z
1/2+x,1/2+y,z
1/2-x,1/2+y,-z
1/2-x,1/2-y,-z
1/2+x,1/2-y,z
loop_
_atom_site_type_symbol
_atom_site_label
_atom_site_fract_x
_atom_site_fract_y
_atom_site_fract_z
Si Si1 0.268539 0.677432 0.387881
Si Si2 0.553544 0.175580 0.615037
Si Si3 0.683715 0.826377 0.308410
Si Si4 0.747152 0.324605 0.109218
Si Si5 0.176096 0.322331 0.810287
Si Si6 0.399369 0.323449 0.499160
Si Si7 0.095987 0.822518 0.003423
Si Si8 0.962883 0.174984 0.873591
O O1 0.287206 0.500000 0.386353
O O2 0.376580 0.765647 0.360969
O O3 0.217543 0.723137 0.352057
O O4 0.195307 0.730004 0.452404
O O5 0.436352 0.205184 0.663328
O O6 0.583983 0.274552 0.560329
O O7 0.572837 0.000000 0.598535
O O8 0.741990 0.725571 0.253064
O O9 0.711168 0.000000 0.291156
O O10 0.771142 0.500000 0.098709
O O11 0.788788 0.257205 0.147670
O O12 0.801026 0.248282 0.047843
O O13 0.624954 0.294559 0.140816
O O14 0.172648 0.500000 0.813177
O O15 0.064481 0.262187 0.828048
O O16 0.500000 0.281119 0.500000
O O17 0.374073 0.500000 0.509055
O O18 0.108895 0.000000 0.997509
O O19 0.078393 0.765386 0.062941
O O20 0.000000 0.765817 0.000000
O O21 0.991534 0.000000 0.869005
#
# Coordination Sequence:
#
# PCOD8090689 Si02
#       8
#     8   8   8   8   8   8   8   8
#     4  11  23  41  64  91 122 158 199 244 299 358
#     4  11  23  41  64  92 124 159 200 244 297 358
#     4  10  24  44  64  84 115 159 200 243 298 353
#     4  10  22  38  58  86 118 154 191 237 293 349
#     4  11  24  40  60  86 115 150 198 248 292 342
#     4  11  22  37  62  94 126 161 199 244 297 352
#     4  10  19  33  58  89 117 152 192 236 288 348
#     4  10  21  39  60  84 119 156 193 235 292 355
#
# _framework density 20.002223999999998
#
# number of rings (size 3 to 8) (size 9 to 14) (size 15 to 20)
#    0.000    1.500    2.500    2.250    0.000    5.250 
#    0.000    3.750    0.000    0.000    0.000    0.000 
#    0.000    0.000    0.000    0.000    0.000    0.000 
#
# Total GULP energy -396971.753411 kJ/mol
# GULP energy per Si atom -12405.367294 kJ/mol
# Density = 1.995670 g / cm^3
# Si number density = 20.002224 Si / 1000 Ang^3
#
#
#
# Elastic Constant Matrix: (Units=GPa)
#
#
# Indices 1 2 3 4 5 6 
#
# 1 103.2882 37.1052 25.6223 0.0000 -25.7139 0.0001
# 2 37.1052 50.9358 30.9977 0.0000 -9.7502 0.0001
# 3 25.6223 30.9977 93.5547 0.0000 -17.7580 0.0000
# 4 0.0000 0.0000 0.0000 33.1332 0.0000 -0.3178
# 5 -25.7139 -9.7502 -17.7580 0.0000 22.4586 0.0000
# 6 0.0001 0.0001 0.0000 -0.3178 0.0000 28.7457
#
#
#
# Elastic Compliance Matrix: (Units=1/GPa)
#
#
# Indices 1 2 3 4 5 6 
#
# 1 0.017072 -0.010441 0.001922 0.000000 0.016533 0.000000
# 2 -0.010441 0.031460 -0.008519 0.000000 -0.005033 0.000000
# 3 0.001922 -0.008519 0.014944 0.000000 0.010318 0.000000
# 4 0.000000 0.000000 0.000000 0.030184 0.000000 0.000334
# 5 0.016533 -0.005033 0.010318 0.000000 0.069429 0.000000
# 6 0.000000 0.000000 0.000000 0.000334 0.000000 0.034791
#
#
# Mechanical properties :
#
#
# Convention : Reuss Voigt Hill
#
# Bulk Modulus (GPa) = 34.01532 48.35877 41.18705
# Shear Modulus (GPa) = 20.68194 27.13774 23.90984
#
# Velocity S-wave (km/s) = 3.21905 3.68739 3.46115
# Velocity P-wave (km/s) = 5.55509 6.50832 6.05051
#
# Compressibility (1/GPa) = 0.02939852
#
# Stress axis : x y z
#
# Youngs Moduli (GPa) = 58.57660 31.78659 66.91744
#
# Poissons Ratio (x) = 0.33189 -0.12863
# Poissons Ratio (y) = 0.61161 0.57010
# Poissons Ratio (z) = -0.11260 0.27080
#
# Static dielectric constant tensor:
#      x y z
#    x 3.945070 0.000000 0.000740 
#    y 0.000000 3.529080 0.000000 
#    z 0.000740 0.000000 3.494830 
# 
# 
# High freq. dielectric constant tensor:
#      x y z
#    x 1.798270 0.000000 -0.005550 
#    y 0.000000 1.777250 0.000000 
#    z -0.005550 0.000000 1.773290 
# 
# From -- ./inp_files/375517.got.cif
#   From: 2010.06.25/outbox.cif.g09.slc.cpg/sg12_188_cif.got.tgz:375517.got - 2010.06.28 00:19:55.
