data_PCOD8090314
_publ_section_title
;
Structure prediction by ZEFSAII (Michael W. Deem and Ramdas Pophale) SiO2 
 PCOD8090314
Probable space group: C 2/M
;
_chemical_formula_sum "Si O2"
_cell_formula_units_Z 64
_cell_length_a 14.350219
_cell_length_b 9.143023
_cell_length_c 26.546287
_cell_angle_alpha 90.000000
_cell_angle_beta 105.966250
_cell_angle_gamma 90.000000
_cell_volume 3348.629026
_symmetry_space_group_name_H-M "C 2/M"
_symmetry_group_IT_number 12
_symmetry_cell_setting 'monoclinic'
loop_
_space_group_symop_operation_xyz
x,y,z
-x,y,-z
-x,-y,-z
x,-y,z
1/2+x,1/2+y,z
1/2-x,1/2+y,-z
1/2-x,1/2-y,-z
1/2+x,1/2-y,z
loop_
_atom_site_type_symbol
_atom_site_label
_atom_site_fract_x
_atom_site_fract_y
_atom_site_fract_z
Si Si1 0.635190 0.169905 0.284941
Si Si2 0.031410 0.330945 0.373180
Si Si3 0.717896 0.166730 0.120251
Si Si4 0.887543 0.664913 0.993758
Si Si5 0.401633 0.326206 0.821533
Si Si6 0.091881 0.835012 0.904936
Si Si7 0.293626 0.330104 0.554077
Si Si8 0.189745 0.669290 0.642235
O O1 0.560926 0.194814 0.319722
O O2 0.588381 0.254908 0.231513
O O3 0.741464 0.234231 0.312133
O O4 0.647571 0.000000 0.273716
O O5 0.044570 0.500000 0.390507
O O6 0.100478 0.235029 0.418819
O O7 0.920868 0.280128 0.365514
O O8 0.667206 0.232341 0.062526
O O9 0.694151 0.267272 0.164751
O O10 0.833078 0.172997 0.130119
O O11 0.682488 0.000000 0.124664
O O12 0.850863 0.500000 0.996370
O O13 0.863407 0.750466 0.041054
O O14 0.000000 0.674339 0.000000
O O15 0.398846 0.500000 0.815254
O O16 0.491498 0.270445 0.868990
O O17 0.075441 0.000000 0.920758
O O18 0.306535 0.500000 0.543804
O O19 0.250000 0.250000 0.500000
O O20 0.219154 0.304158 0.588783
O O21 0.203290 0.500000 0.659449
#
# Coordination Sequence:
#
# PCOD8090314 Si02
#       8
#     8   8   8   8   8   8   8   8
#     4  10  21  37  58  81 106 138 176 225 276 322
#     4   9  19  37  59  82 109 144 187 228 272 325
#     4  10  21  38  56  78 108 139 175 217 265 320
#     4  10  19  33  56  81 106 139 174 214 263 319
#     4  11  23  38  55  78 107 139 176 219 268 321
#     4  10  22  37  55  79 107 139 175 218 265 318
#     4  10  20  34  54  82 118 155 189 230 274 318
#     4   9  19  37  59  82 110 146 187 228 271 322
#
# _framework density 19.112299
#
# number of rings (size 3 to 8) (size 9 to 14) (size 15 to 20)
#    0.000    2.125    1.250    1.500    0.000    4.750 
#    0.000    5.000    0.000    0.000    0.000    0.000 
#    0.000    0.000    0.000    0.000    0.000    0.000 
#
# Total GULP energy -396882.898517 kJ/mol
# GULP energy per Si atom -12402.590579 kJ/mol
# Density = 1.906880 g / cm^3
# Si number density = 19.112299 Si / 1000 Ang^3
#
#
#
# Elastic Constant Matrix: (Units=GPa)
#
#
# Indices 1 2 3 4 5 6 
#
# 1 101.8427 33.7277 24.9539 0.0000 -2.2832 0.0000
# 2 33.7277 86.4548 49.6548 0.0000 1.5790 0.0000
# 3 24.9539 49.6548 92.8846 0.0000 0.7359 0.0000
# 4 0.0000 0.0000 0.0000 37.1926 0.0000 1.0766
# 5 -2.2832 1.5790 0.7359 0.0000 16.7659 0.0000
# 6 0.0000 0.0000 0.0000 1.0766 0.0000 27.5428
#
#
#
# Elastic Compliance Matrix: (Units=1/GPa)
#
#
# Indices 1 2 3 4 5 6 
#
# 1 0.011402 -0.003919 -0.000984 0.000000 0.001965 0.000000
# 2 -0.003919 0.018062 -0.008588 0.000000 -0.001858 0.000000
# 3 -0.000984 -0.008588 0.015622 0.000000 -0.000011 0.000000
# 4 0.000000 0.000000 0.000000 0.026918 0.000000 -0.001052
# 5 0.001965 -0.001858 -0.000011 0.000000 0.060088 0.000000
# 6 0.000000 0.000000 0.000000 -0.001052 0.000000 0.036348
#
#
# Mechanical properties :
#
#
# Convention : Reuss Voigt Hill
#
# Bulk Modulus (GPa) = 55.23696 55.31723 55.27709
# Shear Modulus (GPa) = 24.81931 27.82329 26.32130
#
# Velocity S-wave (km/s) = 3.60752 3.81961 3.71508
# Velocity P-wave (km/s) = 6.80561 6.96122 6.88386
#
# Compressibility (1/GPa) = 0.01810382
#
# Stress axis : x y z
#
# Youngs Moduli (GPa) = 87.70354 55.36444 64.01424
#
# Poissons Ratio (x) = 0.21698 0.06297
# Poissons Ratio (y) = 0.34372 0.54977
# Poissons Ratio (z) = 0.08627 0.47548
#
# Static dielectric constant tensor:
#      x y z
#    x 3.526820 0.000000 -0.001720 
#    y 0.000000 3.515900 0.000000 
#    z -0.001720 0.000000 3.411590 
# 
# 
# High freq. dielectric constant tensor:
#      x y z
#    x 1.747450 0.000000 -0.000840 
#    y 0.000000 1.742360 0.000000 
#    z -0.000840 0.000000 1.738120 
# 
# From -- ./inp_files/359765.got.cif
#   From: 2010.06.25/outbox.cif.g09.slc.cpg/sg12_180_cif.got.tgz:359765.got - 2010.06.28 00:19:55.
