data_PCOD8090649
_publ_section_title
;
Structure prediction by ZEFSAII (Michael W. Deem and Ramdas Pophale) SiO2 
 PCOD8090649
Probable space group: C 2/M
;
_chemical_formula_sum "Si O2"
_cell_formula_units_Z 64
_cell_length_a 23.318410
_cell_length_b 26.218544
_cell_length_c 18.942114
_cell_angle_alpha 90.000000
_cell_angle_beta 163.375782
_cell_angle_gamma 90.000000
_cell_volume 3313.170635
_symmetry_space_group_name_H-M "C 2/M"
_symmetry_group_IT_number 12
_symmetry_cell_setting 'monoclinic'
loop_
_space_group_symop_operation_xyz
x,y,z
-x,y,-z
-x,-y,-z
x,-y,z
1/2+x,1/2+y,z
1/2-x,1/2+y,-z
1/2-x,1/2-y,-z
1/2+x,1/2-y,z
loop_
_atom_site_type_symbol
_atom_site_label
_atom_site_fract_x
_atom_site_fract_y
_atom_site_fract_z
Si Si1 0.850526 0.596980 0.759814
Si Si2 0.884510 0.193817 0.729953
Si Si3 0.949775 0.908452 0.362306
Si Si4 0.011610 0.349377 0.707646
Si Si5 0.825373 0.310287 0.238764
Si Si6 0.166122 0.201078 0.818460
Si Si7 0.969170 0.556889 0.171674
Si Si8 0.279495 0.698613 0.451006
O O1 0.629963 0.578253 0.521690
O O2 0.842667 0.657688 0.738924
O O3 0.913650 0.570198 0.761956
O O4 0.000000 0.584173 0.000000
O O5 0.712401 0.169686 0.576175
O O6 0.873108 0.254712 0.722809
O O7 0.831813 0.175146 0.588818
O O8 0.107503 0.175214 0.014404
O O9 0.895086 0.848294 0.299222
O O10 0.000000 0.925701 0.500000
O O11 0.766638 0.942281 0.120656
O O12 0.137647 0.347721 0.784034
O O13 0.988342 0.405704 0.712585
O O14 0.123285 0.311293 0.894383
O O15 0.809914 0.250569 0.201498
O O16 0.000000 0.320292 0.500000
O O17 0.991626 0.214732 0.667908
O O18 0.032290 0.500000 0.269289
#
# Coordination Sequence:
#
# PCOD8090649 Si02
#       8
#     8   8   8   8   8   8   8   8
#     4  11  22  37  57  87 124 161 198 243 285 336
#     4  11  21  34  59  83 116 161 197 233 282 341
#     4  10  21  36  55  85 124 162 195 235 283 337
#     4  11  22  42  61  83 118 154 198 244 286 352
#     4  12  25  37  56  90 125 155 190 241 292 348
#     4  10  19  35  58  84 123 164 196 223 271 345
#     4  11  25  42  62  83 108 152 203 251 298 347
#     4  10  19  33  58  85 118 163 202 231 271 337
#
# _framework density 19.316844
#
# number of rings (size 3 to 8) (size 9 to 14) (size 15 to 20)
#    0.000    1.250    5.000    2.250    1.750    3.500 
#    0.000    0.000    0.000    0.375    0.000    0.875 
#    0.000    0.000    0.000    0.000    0.000    0.000 
#
# Total GULP energy -396768.461744 kJ/mol
# GULP energy per Si atom -12399.014429 kJ/mol
# Density = 1.927288 g / cm^3
# Si number density = 19.316844 Si / 1000 Ang^3
#
#
#
# Elastic Constant Matrix: (Units=GPa)
#
#
# Indices 1 2 3 4 5 6 
#
# 1 58.2962 31.5442 34.7048 0.0011 12.1091 0.0020
# 2 31.5442 78.3039 27.2144 -0.0010 1.2898 -0.0019
# 3 34.7048 27.2144 124.2255 -0.0011 20.2870 0.0023
# 4 0.0011 -0.0010 -0.0011 10.1465 -0.0008 1.3302
# 5 12.1091 1.2898 20.2870 -0.0008 34.3465 0.0008
# 6 0.0020 -0.0019 0.0023 1.3302 0.0008 13.8007
#
#
#
# Elastic Compliance Matrix: (Units=1/GPa)
#
#
# Indices 1 2 3 4 5 6 
#
# 1 0.025731 -0.008787 -0.004245 -0.000004 -0.006234 -0.000003
# 2 -0.008787 0.016886 -0.001822 0.000002 0.003540 0.000003
# 3 -0.004245 -0.001822 0.010381 0.000001 -0.004566 -0.000001
# 4 -0.000004 0.000002 0.000001 0.099817 0.000003 -0.009621
# 5 -0.006234 0.003540 -0.004566 0.000003 0.033877 0.000000
# 6 -0.000003 0.000003 -0.000001 -0.009621 0.000000 0.073387
#
#
# Mechanical properties :
#
#
# Convention : Reuss Voigt Hill
#
# Bulk Modulus (GPa) = 42.94193 49.75028 46.34611
# Shear Modulus (GPa) = 16.80380 22.81623 19.81002
#
# Velocity S-wave (km/s) = 2.95261 3.44053 3.20586
# Velocity P-wave (km/s) = 5.82258 6.44932 6.14395
#
# Compressibility (1/GPa) = 0.02328726
#
# Stress axis : x y z
#
# Youngs Moduli (GPa) = 38.86384 59.22147 96.33120
#
# Poissons Ratio (x) = 0.52040 0.40895
# Poissons Ratio (y) = 0.34151 0.17556
# Poissons Ratio (z) = 0.16499 0.10793
#
# Static dielectric constant tensor:
#      x y z
#    x 3.524570 -0.000010 0.276040 
#    y -0.000010 3.221110 0.000000 
#    z 0.276040 0.000000 3.700110 
# 
# 
# High freq. dielectric constant tensor:
#      x y z
#    x 1.743740 0.000000 0.028530 
#    y 0.000000 1.713480 0.000000 
#    z 0.028530 0.000000 1.758560 
# 
# From -- ./inp_files/286700.got.cif
#   From: 2010.06.25/outbox.cif.g09.slc.cpg/sg12_144_cif.got.tgz:286700.got - 2010.06.28 00:19:55.
