data_PCOD8090958
_publ_section_title
;
Structure prediction by ZEFSAII (Michael W. Deem and Ramdas Pophale) SiO2 
 PCOD8090958
Probable space group: C 2/M
;
_chemical_formula_sum "Si O2"
_cell_formula_units_Z 60
_cell_length_a 14.197891
_cell_length_b 13.767703
_cell_length_c 16.452686
_cell_angle_alpha 90.000000
_cell_angle_beta 102.736523
_cell_angle_gamma 90.000000
_cell_volume 3136.911793
_symmetry_space_group_name_H-M "C 2/M"
_symmetry_group_IT_number 12
_symmetry_cell_setting 'monoclinic'
loop_
_space_group_symop_operation_xyz
x,y,z
-x,y,-z
-x,-y,-z
x,-y,z
1/2+x,1/2+y,z
1/2-x,1/2+y,-z
1/2-x,1/2-y,-z
1/2+x,1/2-y,z
loop_
_atom_site_type_symbol
_atom_site_label
_atom_site_fract_x
_atom_site_fract_y
_atom_site_fract_z
Si Si1 0.500475 0.616300 0.709517
Si Si2 0.479132 0.676219 0.883968
Si Si3 0.203517 0.392111 0.083886
Si Si4 0.775639 0.615557 0.569626
Si Si5 0.278848 0.385286 0.264654
Si Si6 0.647506 0.606705 0.008910
Si Si7 0.406734 0.285358 0.539166
Si Si8 0.500000 0.158888 0.000000
O O1 0.487903 0.500000 0.706380
O O2 0.461209 0.662767 0.785808
O O3 0.610576 0.650095 0.718173
O O4 0.435868 0.665222 0.628855
O O5 0.554849 0.596060 0.930853
O O6 0.523395 0.779041 0.922330
O O7 0.377520 0.669552 0.915306
O O8 0.248639 0.500000 0.099974
O O9 0.220143 0.342471 0.175592
O O10 0.265593 0.340900 0.024212
O O11 0.092730 0.404897 0.037867
O O12 0.795758 0.500000 0.562135
O O13 0.773577 0.649884 0.663344
O O14 0.670562 0.640872 0.513986
O O15 0.859964 0.678246 0.542655
O O16 0.277277 0.500000 0.266406
O O17 0.677627 0.500000 0.045134
O O18 0.500000 0.273723 0.500000
#
# Coordination Sequence:
#
# PCOD8090958 Si02
#       8
#     8   8   8   8   8   8   8   4
#     4  11  20  35  59  87 116 146 190 251 303 346
#     4  10  20  31  48  77 110 141 176 229 291 347
#     4  10  19  34  54  75 104 148 196 242 286 336
#     4  10  22  41  61  89 128 164 194 238 300 364
#     4   9  18  33  58  83 107 146 194 244 295 343
#     4   9  16  30  51  71  98 137 181 223 276 336
#     4  11  23  38  64  96 121 153 201 249 298 356
#     4  10  23  34  47  74 108 150 196 240 282 340
#
# _framework density 19.127092000000001
#
# number of rings (size 3 to 8) (size 9 to 14) (size 15 to 20)
#    0.000    2.133    2.667    2.200    1.867    2.933 
#    0.000    0.000    0.000    0.000    0.000    0.000 
#    0.000    0.000    0.000    0.000    0.000    0.000 
#
# Total GULP energy -371715.246257 kJ/mol
# GULP energy per Si atom -12390.508209 kJ/mol
# Density = 1.908356 g / cm^3
# Si number density = 19.127092 Si / 1000 Ang^3
#
#
#
# Elastic Constant Matrix: (Units=GPa)
#
#
# Indices 1 2 3 4 5 6 
#
# 1 108.8739 19.5049 61.7401 0.0000 -5.4555 0.0000
# 2 19.5049 64.5479 33.6313 0.0000 -4.7838 0.0000
# 3 61.7401 33.6313 128.7876 0.0000 -9.8848 0.0000
# 4 0.0000 0.0000 0.0000 25.5117 0.0000 5.2715
# 5 -5.4555 -4.7838 -9.8848 0.0000 32.7712 0.0000
# 6 0.0000 0.0000 0.0000 5.2715 0.0000 20.7056
#
#
#
# Elastic Compliance Matrix: (Units=1/GPa)
#
#
# Indices 1 2 3 4 5 6 
#
# 1 0.012649 -0.000758 -0.005848 0.000000 0.000231 0.000000
# 2 -0.000758 0.018027 -0.004250 0.000000 0.001223 0.000000
# 3 -0.005848 -0.004250 0.011830 0.000000 0.001974 0.000000
# 4 0.000000 0.000000 0.000000 0.041374 0.000000 -0.010534
# 5 0.000231 0.001223 0.001974 0.000000 0.031327 0.000000
# 6 0.000000 0.000000 0.000000 -0.010534 0.000000 0.050978
#
#
# Mechanical properties :
#
#
# Convention : Reuss Voigt Hill
#
# Bulk Modulus (GPa) = 48.09437 59.10689 53.60063
# Shear Modulus (GPa) = 25.66380 28.28659 26.97519
#
# Velocity S-wave (km/s) = 3.66697 3.84979 3.75949
# Velocity P-wave (km/s) = 6.56720 7.12253 6.85049
#
# Compressibility (1/GPa) = 0.02079246
#
# Stress axis : x y z
#
# Youngs Moduli (GPa) = 79.06033 55.47381 84.53376
#
# Poissons Ratio (x) = 0.04205 0.49435
# Poissons Ratio (y) = 0.05993 0.35928
# Poissons Ratio (z) = 0.46234 0.23577
#
# Static dielectric constant tensor:
#      x y z
#    x 3.508520 0.000000 -0.205590 
#    y 0.000000 3.233000 0.000000 
#    z -0.205590 0.000000 3.653060 
# 
# 
# High freq. dielectric constant tensor:
#      x y z
#    x 1.740930 0.000000 -0.007990 
#    y 0.000000 1.727130 0.000000 
#    z -0.007990 0.000000 1.742740 
# 
# From -- ./inp_files/269928.got.cif
#   From: 2010.06.25/outbox.cif.g09.slc.cpg/sg12_135_cif.got.tgz:269928.got - 2010.06.28 00:19:55.
