data_PCOD8090872
_publ_section_title
;
Structure prediction by ZEFSAII (Michael W. Deem and Ramdas Pophale) SiO2 
 PCOD8090872
Probable space group: C 2/M
;
_chemical_formula_sum "Si O2"
_cell_formula_units_Z 56
_cell_length_a 16.569341
_cell_length_b 15.570123
_cell_length_c 14.652476
_cell_angle_alpha 90.000000
_cell_angle_beta 129.249900
_cell_angle_gamma 90.000000
_cell_volume 2927.319571
_symmetry_space_group_name_H-M "C 2/M"
_symmetry_group_IT_number 12
_symmetry_cell_setting 'monoclinic'
loop_
_space_group_symop_operation_xyz
x,y,z
-x,y,-z
-x,-y,-z
x,-y,z
1/2+x,1/2+y,z
1/2-x,1/2+y,-z
1/2-x,1/2-y,-z
1/2+x,1/2-y,z
loop_
_atom_site_type_symbol
_atom_site_label
_atom_site_fract_x
_atom_site_fract_y
_atom_site_fract_z
Si Si1 0.745207 0.904008 0.661723
Si Si2 0.593636 0.902938 0.392774
Si Si3 0.297362 0.596036 0.039296
Si Si4 0.854372 0.275718 0.723496
Si Si5 0.249621 0.310706 0.173517
Si Si6 0.645863 0.144446 0.775178
Si Si7 0.445178 0.715095 0.049045
O O1 0.640897 0.893055 0.527303
O O2 0.822724 0.825325 0.690840
O O3 0.714400 0.901111 0.745860
O O4 0.794398 0.000000 0.678825
O O5 0.651941 0.831604 0.372726
O O6 0.471214 0.887488 0.311589
O O7 0.612587 0.000000 0.368602
O O8 0.322783 0.500000 0.034238
O O9 0.276633 0.605375 0.133533
O O10 0.403107 0.644879 0.088782
O O11 0.196269 0.625477 0.909743
O O12 0.779352 0.326310 0.741506
O O13 0.974096 0.277820 0.841910
O O14 0.348785 0.246727 0.238209
O O15 0.150956 0.269583 0.053988
O O16 0.500000 0.670968 0.000000
#
# Coordination Sequence:
#
# PCOD8090872 Si02
#       7
#     8   8   8   8   8   8   8
#     4  10  21  35  52  75  99 126 165 209 250 292
#     4  11  21  33  52  76 100 128 165 207 247 290
#     4  11  20  30  49  75 102 131 162 197 239 295
#     4  10  20  35  53  71 100 136 163 199 247 290
#     4   9  19  34  50  71 100 133 165 196 237 294
#     4  10  19  34  53  72  99 130 161 204 253 291
#     4   9  18  32  50  71  97 128 162 201 244 290
#
# _framework density 19.130129
#
# number of rings (size 3 to 8) (size 9 to 14) (size 15 to 20)
#    0.000    2.000    0.000    6.429    0.000    2.571 
#    0.000    0.000    0.000    4.286    0.000    0.000 
#    0.000   16.000    0.000    0.000    0.000    0.000 
#
# Total GULP energy -346996.504998 kJ/mol
# GULP energy per Si atom -12392.732321 kJ/mol
# Density = 1.908659 g / cm^3
# Si number density = 19.130129 Si / 1000 Ang^3
#
#
#
# Elastic Constant Matrix: (Units=GPa)
#
#
# Indices 1 2 3 4 5 6 
#
# 1 63.6844 26.4488 8.9723 0.0000 -6.3030 0.0000
# 2 26.4488 46.9892 8.2622 0.0000 -4.7921 0.0000
# 3 8.9723 8.2622 52.3686 0.0000 -4.6123 0.0000
# 4 0.0000 0.0000 0.0000 20.9799 0.0000 -4.3792
# 5 -6.3030 -4.7921 -4.6123 0.0000 21.2608 0.0000
# 6 0.0000 0.0000 0.0000 -4.3792 0.0000 14.8202
#
#
#
# Elastic Compliance Matrix: (Units=1/GPa)
#
#
# Indices 1 2 3 4 5 6 
#
# 1 0.020875 -0.011141 -0.001524 0.000000 0.003347 0.000000
# 2 -0.011141 0.028221 -0.002319 0.000000 0.002555 0.000000
# 3 -0.001524 -0.002319 0.020019 0.000000 0.003368 0.000000
# 4 0.000000 0.000000 0.000000 0.050798 0.000000 0.015010
# 5 0.003347 0.002555 0.003368 0.000000 0.049334 0.000000
# 6 0.000000 0.000000 0.000000 0.015010 0.000000 0.071911
#
#
# Mechanical properties :
#
#
# Convention : Reuss Voigt Hill
#
# Bulk Modulus (GPa) = 25.54411 27.82320 26.68366
# Shear Modulus (GPa) = 17.59490 19.36945 18.48218
#
# Velocity S-wave (km/s) = 3.03603 3.18545 3.11163
# Velocity P-wave (km/s) = 5.06673 5.30143 5.18541
#
# Compressibility (1/GPa) = 0.03914796
#
# Stress axis : x y z
#
# Youngs Moduli (GPa) = 47.90352 35.43520 49.95257
#
# Poissons Ratio (x) = 0.39477 0.07613
# Poissons Ratio (y) = 0.53368 0.11582
# Poissons Ratio (z) = 0.07301 0.08216
#
# Static dielectric constant tensor:
#      x y z
#    x 3.645830 0.000000 -0.147060 
#    y 0.000000 3.492540 0.000000 
#    z -0.147060 0.000000 3.582950 
# 
# 
# High freq. dielectric constant tensor:
#      x y z
#    x 1.740090 0.000000 -0.007980 
#    y 0.000000 1.727270 0.000000 
#    z -0.007980 0.000000 1.738960 
# 
# From -- ./inp_files/146260.got.cif
#   From: 2010.06.25/outbox.cif.g09.slc.cpg/sg12_74_cif.got.tgz:146260.got - 2010.06.28 00:19:55.
