data_PCOD8090676
_publ_section_title
;
Structure prediction by ZEFSAII (Michael W. Deem and Ramdas Pophale) SiO2 
 PCOD8090676
Probable space group: C 2/M
;
_chemical_formula_sum "Si O2"
_cell_formula_units_Z 64
_cell_length_a 8.949484
_cell_length_b 18.711716
_cell_length_c 22.690375
_cell_angle_alpha 90.000000
_cell_angle_beta 59.929814
_cell_angle_gamma 90.000000
_cell_volume 3288.337105
_symmetry_space_group_name_H-M "C 2/M"
_symmetry_group_IT_number 12
_symmetry_cell_setting 'monoclinic'
loop_
_space_group_symop_operation_xyz
x,y,z
-x,y,-z
-x,-y,-z
x,-y,z
1/2+x,1/2+y,z
1/2-x,1/2+y,-z
1/2-x,1/2-y,-z
1/2+x,1/2-y,z
loop_
_atom_site_type_symbol
_atom_site_label
_atom_site_fract_x
_atom_site_fract_y
_atom_site_fract_z
Si Si1 0.008048 0.161701 0.839163
Si Si2 0.958231 0.653986 0.569480
Si Si3 0.104448 0.176644 0.316722
Si Si4 0.347321 0.415765 0.300885
Si Si5 0.505071 0.919661 0.065708
Si Si6 0.111280 0.920222 0.027530
Si Si7 0.194802 0.295877 0.831477
Si Si8 0.793518 0.718579 0.391505
O O1 0.125119 0.116716 0.770164
O O2 0.112864 0.218220 0.857758
O O3 0.897856 0.113709 0.905887
O O4 0.875560 0.208658 0.828579
O O5 0.838475 0.609163 0.637708
O O6 0.852325 0.722668 0.565494
O O7 0.000000 0.611454 0.500000
O O8 0.142214 0.671975 0.565148
O O9 0.270713 0.192698 0.244155
O O10 0.196671 0.168245 0.362283
O O11 0.001685 0.105989 0.315543
O O12 0.970647 0.242588 0.336174
O O13 0.347987 0.500000 0.294656
O O14 0.415279 0.863537 0.125840
O O15 0.422746 0.000000 0.088413
O O16 0.500000 0.892259 0.000000
O O17 0.705290 0.921698 0.040592
O O18 0.039885 0.000000 0.051198
O O19 0.000000 0.878889 0.000000
#
# Coordination Sequence:
#
# PCOD8090676 Si02
#       8
#     8   8   8   8   8   8   8   8
#     4  11  23  38  59  82 111 144 185 237 284 341
#     4  10  19  33  58  88 119 153 189 233 280 339
#     4   9  18  34  56  81 111 146 183 236 279 341
#     4  10  22  39  58  80 110 155 195 231 287 347
#     4  10  21  39  57  78 110 147 189 228 274 341
#     4  10  22  40  58  78 108 149 189 230 278 333
#     4  11  22  34  57  84 108 143 183 234 291 328
#     4   9  17  34  57  85 120 147 184 231 290 335
#
# _framework density 19.462724000000001
#
# number of rings (size 3 to 8) (size 9 to 14) (size 15 to 20)
#    0.000    2.000    1.250    3.750    1.750    3.250 
#    0.000    0.625    0.000    0.750    0.000    0.000 
#    0.000    0.000    0.000    0.000    0.000    0.000 
#
# Total GULP energy -396452.552204 kJ/mol
# GULP energy per Si atom -12389.142256 kJ/mol
# Density = 1.941843 g / cm^3
# Si number density = 19.462724 Si / 1000 Ang^3
#
#
#
# Elastic Constant Matrix: (Units=GPa)
#
#
# Indices 1 2 3 4 5 6 
#
# 1 91.4031 19.2054 12.9080 0.0000 11.7958 0.0000
# 2 19.2054 84.3936 18.7783 0.0000 4.2310 0.0000
# 3 12.9080 18.7783 74.5538 0.0000 1.6065 0.0000
# 4 0.0000 0.0000 0.0000 14.7341 0.0000 1.3667
# 5 11.7958 4.2310 1.6065 0.0000 26.9547 0.0000
# 6 0.0000 0.0000 0.0000 1.3667 0.0000 20.3725
#
#
#
# Elastic Compliance Matrix: (Units=1/GPa)
#
#
# Indices 1 2 3 4 5 6 
#
# 1 0.012247 -0.002216 -0.001456 0.000000 -0.004925 0.000000
# 2 -0.002216 0.013040 -0.002881 0.000000 -0.000905 0.000000
# 3 -0.001456 -0.002881 0.014386 0.000000 0.000232 0.000000
# 4 0.000000 0.000000 0.000000 0.068295 0.000000 -0.004582
# 5 -0.004925 -0.000905 0.000232 0.000000 0.039383 0.000000
# 6 0.000000 0.000000 0.000000 -0.004582 0.000000 0.049393
#
#
# Mechanical properties :
#
#
# Convention : Reuss Voigt Hill
#
# Bulk Modulus (GPa) = 37.64181 39.12600 38.38391
# Shear Modulus (GPa) = 22.86164 25.70951 24.28557
#
# Velocity S-wave (km/s) = 3.43102 3.63845 3.53625
# Velocity P-wave (km/s) = 5.92269 6.14799 6.03639
#
# Compressibility (1/GPa) = 0.02656620
#
# Stress axis : x y z
#
# Youngs Moduli (GPa) = 81.64974 76.68670 69.51219
#
# Poissons Ratio (x) = 0.16995 0.10122
# Poissons Ratio (y) = 0.18095 0.20028
# Poissons Ratio (z) = 0.11889 0.22095
#
# Static dielectric constant tensor:
#      x y z
#    x 3.757280 0.000000 0.001360 
#    y 0.000000 3.301120 0.000000 
#    z 0.001360 0.000000 3.660500 
# 
# 
# High freq. dielectric constant tensor:
#      x y z
#    x 1.767780 0.000000 -0.002030 
#    y 0.000000 1.725730 0.000000 
#    z -0.002030 0.000000 1.761080 
# 
# From -- ./inp_files/301684.got.cif
#   From: 2010.06.25/outbox.cif.g09.slc.cpg/sg12_151_cif.got.tgz:301684.got - 2010.06.28 00:19:55.
