data_PCOD8090352
_publ_section_title
;
Structure prediction by ZEFSAII (Michael W. Deem and Ramdas Pophale) SiO2 
 PCOD8090352
Probable space group: C 2/M
;
_chemical_formula_sum "Si O2"
_cell_formula_units_Z 56
_cell_length_a 21.976110
_cell_length_b 8.607300
_cell_length_c 20.254110
_cell_angle_alpha 90.000000
_cell_angle_beta 49.130137
_cell_angle_gamma 90.000000
_cell_volume 2897.118814
_symmetry_space_group_name_H-M "C 2/M"
_symmetry_group_IT_number 12
_symmetry_cell_setting 'monoclinic'
loop_
_space_group_symop_operation_xyz
x,y,z
-x,y,-z
-x,-y,-z
x,-y,z
1/2+x,1/2+y,z
1/2-x,1/2+y,-z
1/2-x,1/2-y,-z
1/2+x,1/2-y,z
loop_
_atom_site_type_symbol
_atom_site_label
_atom_site_fract_x
_atom_site_fract_y
_atom_site_fract_z
Si Si1 0.584955 0.326142 0.458653
Si Si2 0.191277 0.322998 0.129380
Si Si3 0.296538 0.674776 0.745591
Si Si4 0.730386 0.314886 0.441587
Si Si5 0.668731 0.681720 0.746467
Si Si6 0.986576 0.320721 0.083647
Si Si7 0.632103 0.675198 0.044414
O O1 0.500000 0.239120 0.500000
O O2 0.563091 0.500000 0.497894
O O3 0.634456 0.328660 0.356926
O O4 0.643131 0.252226 0.474934
O O5 0.163869 0.500000 0.137457
O O6 0.166604 0.266530 0.219113
O O7 0.145959 0.211023 0.111165
O O8 0.286663 0.304284 0.054477
O O9 0.270451 0.500000 0.783733
O O10 0.219342 0.765805 0.773874
O O11 0.727990 0.500000 0.445676
O O12 0.750000 0.250000 0.500000
O O13 0.801704 0.266250 0.341270
O O14 0.678013 0.500000 0.727873
O O15 0.577325 0.723054 0.828675
O O16 0.960071 0.500000 0.101236
O O17 0.070835 0.301158 0.060365
O O18 0.000000 0.256209 0.000000
O O19 0.598669 0.500000 0.061390
#
# Coordination Sequence:
#
# PCOD8090352 Si02
#       7
#     8   8   8   8   8   8   8
#     4   8  16  33  56  82 109 141 184 233 279 333
#     4  10  20  35  55  78 108 145 185 228 276 331
#     4  10  19  33  56  82 109 142 182 229 280 335
#     4  10  20  37  61  86 116 153 194 240 296 354
#     4  11  22  37  58  83 113 149 192 235 279 343
#     4  11  23  38  57  82 113 147 185 234 288 338
#     4  10  21  36  54  77 107 145 187 229 274 330
#
# _framework density 19.329550000000001
#
# number of rings (size 3 to 8) (size 9 to 14) (size 15 to 20)
#    0.000    2.000    0.000    5.143    0.000    5.143 
#    2.571    0.000    0.000   14.571    0.000    0.000 
#    0.000    0.000    0.000    0.000    0.000    0.000 
#
# Total GULP energy -347125.942582 kJ/mol
# GULP energy per Si atom -12397.355092 kJ/mol
# Density = 1.928556 g / cm^3
# Si number density = 19.329550 Si / 1000 Ang^3
#
#
#
# Elastic Constant Matrix: (Units=GPa)
#
#
# Indices 1 2 3 4 5 6 
#
# 1 117.1342 27.4433 57.5798 -0.0031 3.7235 -0.0008
# 2 27.4433 74.8929 26.0944 -0.0054 -1.5416 -0.0014
# 3 57.5798 26.0944 66.1302 -0.0009 12.2170 -0.0001
# 4 -0.0031 -0.0054 -0.0009 9.2336 0.0004 -8.9640
# 5 3.7235 -1.5416 12.2170 0.0004 30.2600 -0.0002
# 6 -0.0008 -0.0014 -0.0001 -8.9640 -0.0002 21.5586
#
#
#
# Elastic Compliance Matrix: (Units=1/GPa)
#
#
# Indices 1 2 3 4 5 6 
#
# 1 0.015353 -0.000766 -0.013733 0.000006 0.003616 0.000003
# 2 -0.000766 0.015873 -0.006228 0.000015 0.003417 0.000007
# 3 -0.013733 -0.006228 0.031643 -0.000009 -0.011403 -0.000005
# 4 0.000006 0.000015 -0.000009 0.181608 0.000001 0.075512
# 5 0.003616 0.003417 -0.011403 0.000001 0.037380 0.000001
# 6 0.000003 0.000007 -0.000005 0.075512 0.000001 0.077783
#
#
# Mechanical properties :
#
#
# Convention : Reuss Voigt Hill
#
# Bulk Modulus (GPa) = 46.69654 53.37692 50.03673
# Shear Modulus (GPa) = 12.24793 22.01310 17.13051
#
# Velocity S-wave (km/s) = 2.51995 3.37832 2.98020
# Velocity P-wave (km/s) = 5.71641 6.54916 6.14690
#
# Compressibility (1/GPa) = 0.02141486
#
# Stress axis : x y z
#
# Youngs Moduli (GPa) = 65.13501 62.99857 31.60224
#
# Poissons Ratio (x) = 0.04827 0.43401
# Poissons Ratio (y) = 0.04991 0.19681
# Poissons Ratio (z) = 0.89453 0.39233
#
# Static dielectric constant tensor:
#      x y z
#    x 3.695040 0.000000 0.002440 
#    y 0.000000 3.481010 0.000000 
#    z 0.002440 0.000000 3.420060 
# 
# 
# High freq. dielectric constant tensor:
#      x y z
#    x 1.756570 0.000000 0.005680 
#    y 0.000000 1.747930 0.000000 
#    z 0.005680 0.000000 1.743530 
# 
# From -- ./inp_files/319725.got.cif
#   From: 2010.06.25/outbox.cif.g09.slc.cpg/sg12_160_cif.got.tgz:319725.got - 2010.06.28 00:19:55.
