data_PCOD8090990
_publ_section_title
;
Structure prediction by ZEFSAII (Michael W. Deem and Ramdas Pophale) SiO2 
 PCOD8090990
Probable space group: C 2/M
;
_chemical_formula_sum "Si O2"
_cell_formula_units_Z 56
_cell_length_a 23.715481
_cell_length_b 8.787102
_cell_length_c 14.675128
_cell_angle_alpha 90.000000
_cell_angle_beta 70.826316
_cell_angle_gamma 90.000000
_cell_volume 2888.511008
_symmetry_space_group_name_H-M "C 2/M"
_symmetry_group_IT_number 12
_symmetry_cell_setting 'monoclinic'
loop_
_space_group_symop_operation_xyz
x,y,z
-x,y,-z
-x,-y,-z
x,-y,z
1/2+x,1/2+y,z
1/2-x,1/2+y,-z
1/2-x,1/2-y,-z
1/2+x,1/2-y,z
loop_
_atom_site_type_symbol
_atom_site_label
_atom_site_fract_x
_atom_site_fract_y
_atom_site_fract_z
Si Si1 0.360423 0.325905 0.962931
Si Si2 0.517528 0.824172 0.090819
Si Si3 0.946604 0.180215 0.418523
Si Si4 0.824466 0.824657 0.782864
Si Si5 0.190839 0.678434 0.830511
Si Si6 0.599007 0.177173 0.730712
Si Si7 0.571178 0.179762 0.381223
O O1 0.362055 0.500000 0.991114
O O2 0.426896 0.271963 0.903177
O O3 0.321369 0.299286 0.893089
O O4 0.332272 0.236509 0.061036
O O5 0.463142 0.793336 0.186421
O O6 0.536316 0.000000 0.078366
O O7 0.500000 0.767082 0.000000
O O8 0.901276 0.227324 0.362388
O O9 0.918496 0.240257 0.527269
O O10 0.010992 0.256967 0.366710
O O11 0.954214 0.000000 0.419119
O O12 0.759774 0.778255 0.777837
O O13 0.872920 0.714935 0.712450
O O14 0.840212 0.000000 0.751828
O O15 0.181035 0.500000 0.840071
O O16 0.152184 0.742041 0.766305
O O17 0.608365 0.000000 0.702892
O O18 0.564692 0.000000 0.397792
#
# Coordination Sequence:
#
# PCOD8090990 Si02
#       7
#     8   8   8   8   8   8   8
#     4  11  22  34  53  83 116 149 191 239 287 335
#     4  10  19  34  54  77 108 148 190 229 278 335
#     4  11  22  38  62  89 118 147 179 229 289 343
#     4  10  22  39  58  83 114 151 192 237 287 333
#     4  10  21  39  59  78 112 157 197 234 277 335
#     4  10  20  36  58  84 113 150 194 235 279 336
#     4  11  22  39  63  89 115 145 186 233 279 337
#
# _framework density 19.387152
#
# number of rings (size 3 to 8) (size 9 to 14) (size 15 to 20)
#    0.000    1.571    1.429    5.143    0.000    5.429 
#    0.000    0.714    0.000    0.000    0.000    0.000 
#    0.000    0.000    0.000    0.000    0.000    0.000 
#
# Total GULP energy -347305.919741 kJ/mol
# GULP energy per Si atom -12403.782848 kJ/mol
# Density = 1.934303 g / cm^3
# Si number density = 19.387152 Si / 1000 Ang^3
#
#
#
# Elastic Constant Matrix: (Units=GPa)
#
#
# Indices 1 2 3 4 5 6 
#
# 1 110.5927 40.7876 48.6811 0.0000 10.9385 0.0000
# 2 40.7876 61.6613 26.9325 0.0000 6.5794 0.0000
# 3 48.6811 26.9325 74.6848 0.0000 12.1765 0.0000
# 4 0.0000 0.0000 0.0000 29.9654 0.0000 2.8952
# 5 10.9385 6.5794 12.1765 0.0000 28.6712 0.0000
# 6 0.0000 0.0000 0.0000 2.8952 0.0000 22.7906
#
#
#
# Elastic Compliance Matrix: (Units=1/GPa)
#
#
# Indices 1 2 3 4 5 6 
#
# 1 0.014638 -0.006499 -0.007016 0.000000 -0.001113 0.000000
# 2 -0.006499 0.022202 -0.003592 0.000000 -0.001090 0.000000
# 3 -0.007016 -0.003592 0.020078 0.000000 -0.005026 0.000000
# 4 0.000000 0.000000 0.000000 0.033786 0.000000 -0.004292
# 5 -0.001113 -0.001090 -0.005026 0.000000 0.037687 0.000000
# 6 0.000000 0.000000 0.000000 -0.004292 0.000000 0.044423
#
#
# Mechanical properties :
#
#
# Convention : Reuss Voigt Hill
#
# Bulk Modulus (GPa) = 44.04850 53.30457 48.67653
# Shear Modulus (GPa) = 23.29956 24.98795 24.14376
#
# Velocity S-wave (km/s) = 3.47047 3.59401 3.53278
# Velocity P-wave (km/s) = 6.23126 6.69156 6.46551
#
# Compressibility (1/GPa) = 0.02270225
#
# Stress axis : x y z
#
# Youngs Moduli (GPa) = 68.31752 45.04083 49.80693
#
# Poissons Ratio (x) = 0.29273 0.34944
# Poissons Ratio (y) = 0.44401 0.17893
# Poissons Ratio (z) = 0.47930 0.16181
#
# Static dielectric constant tensor:
#      x y z
#    x 3.762410 0.000000 0.157760 
#    y 0.000000 3.470530 0.000000 
#    z 0.157760 0.000000 3.426360 
# 
# 
# High freq. dielectric constant tensor:
#      x y z
#    x 1.758420 0.000000 0.010850 
#    y 0.000000 1.751770 0.000000 
#    z 0.010850 0.000000 1.750050 
# 
# From -- ./inp_files/238271.got.cif
#   From: 2010.06.25/outbox.cif.g09.slc.cpg/sg12_120_cif.got.tgz:238271.got - 2010.06.28 00:19:55.
