data_PCOD8090879
_publ_section_title
;
Structure prediction by ZEFSAII (Michael W. Deem and Ramdas Pophale) SiO2 
 PCOD8090879
Probable space group: C 2/M
;
_chemical_formula_sum "Si O2"
_cell_formula_units_Z 56
_cell_length_a 28.735649
_cell_length_b 9.077544
_cell_length_c 19.105210
_cell_angle_alpha 90.000000
_cell_angle_beta 138.916501
_cell_angle_gamma 90.000000
_cell_volume 3274.998583
_symmetry_space_group_name_H-M "C 2/M"
_symmetry_group_IT_number 12
_symmetry_cell_setting 'monoclinic'
loop_
_space_group_symop_operation_xyz
x,y,z
-x,y,-z
-x,-y,-z
x,-y,z
1/2+x,1/2+y,z
1/2-x,1/2+y,-z
1/2-x,1/2-y,-z
1/2+x,1/2-y,z
loop_
_atom_site_type_symbol
_atom_site_label
_atom_site_fract_x
_atom_site_fract_y
_atom_site_fract_z
Si Si1 0.144988 0.170611 0.878663
Si Si2 0.060566 0.671935 0.012661
Si Si3 0.265021 0.827803 0.122233
Si Si4 0.243432 0.671092 0.382245
Si Si5 0.353764 0.331393 0.624395
Si Si6 0.484628 0.670288 0.178060
Si Si7 0.207564 0.174900 0.204933
O O1 0.163939 0.253731 0.828085
O O2 0.065609 0.209499 0.813141
O O3 0.154378 0.000000 0.873517
O O4 0.197258 0.222231 0.000051
O O5 0.078591 0.500000 0.027995
O O6 0.129414 0.758312 0.115984
O O7 0.034209 0.727527 0.908076
O O8 0.000000 0.704890 0.000000
O O9 0.251023 0.776111 0.185485
O O10 0.276852 0.000000 0.131975
O O11 0.232487 0.500000 0.352646
O O12 0.314493 0.701531 0.506898
O O13 0.175040 0.725977 0.347550
O O14 0.251188 0.762056 0.319761
O O15 0.340369 0.500000 0.632499
O O16 0.436128 0.298392 0.706343
O O17 0.473141 0.500000 0.142670
O O18 0.200594 0.000000 0.202081
#
# Coordination Sequence:
#
# PCOD8090879 Si02
#       7
#     8   8   8   8   8   8   8
#     4   9  17  31  50  73  99 127 163 206 247 295
#     4  11  23  34  46  72 106 135 164 204 251 297
#     4   9  18  32  49  72  99 128 165 205 246 298
#     4  10  20  34  52  77 104 131 172 216 251 292
#     4   9  19  35  55  75 100 137 173 208 250 297
#     4  10  19  34  53  74 100 133 170 203 246 305
#     4  11  21  35  53  73 100 136 172 205 249 303
#
# _framework density 17.099245
#
# number of rings (size 3 to 8) (size 9 to 14) (size 15 to 20)
#    0.000    2.143    1.429    2.143    0.000    6.286 
#    0.000    0.000    0.000    0.857    0.000    6.000 
#    0.000    0.000    0.000    0.000    0.000    0.000 
#
# Total GULP energy -347265.102726 kJ/mol
# GULP energy per Si atom -12402.325097 kJ/mol
# Density = 1.706033 g / cm^3
# Si number density = 17.099245 Si / 1000 Ang^3
#
#
#
# Elastic Constant Matrix: (Units=GPa)
#
#
# Indices 1 2 3 4 5 6 
#
# 1 123.7260 48.5808 48.7542 0.0000 -13.6102 0.0000
# 2 48.5808 63.9943 30.6474 0.0000 -13.0537 0.0000
# 3 48.7542 30.6474 74.1381 0.0000 -10.1172 0.0000
# 4 0.0000 0.0000 0.0000 26.7255 0.0000 -4.3153
# 5 -13.6102 -13.0537 -10.1172 0.0000 24.7296 0.0000
# 6 0.0000 0.0000 0.0000 -4.3153 0.0000 30.6037
#
#
#
# Elastic Compliance Matrix: (Units=1/GPa)
#
#
# Indices 1 2 3 4 5 6 
#
# 1 0.013205 -0.007100 -0.005580 0.000000 0.001237 0.000000
# 2 -0.007100 0.024670 -0.004539 0.000000 0.007258 0.000000
# 3 -0.005580 -0.004539 0.019369 0.000000 0.002457 0.000000
# 4 0.000000 0.000000 0.000000 0.038289 0.000000 0.005399
# 5 0.001237 0.007258 0.002457 0.000000 0.045955 0.000000
# 6 0.000000 0.000000 0.000000 0.005399 0.000000 0.033437
#
#
# Mechanical properties :
#
#
# Convention : Reuss Voigt Hill
#
# Bulk Modulus (GPa) = 43.84552 57.53590 50.69071
# Shear Modulus (GPa) = 23.04510 25.33683 24.19096
#
# Velocity S-wave (km/s) = 3.67512 3.85353 3.76538
# Velocity P-wave (km/s) = 6.61106 7.31579 6.97234
#
# Compressibility (1/GPa) = 0.02280735
#
# Stress axis : x y z
#
# Youngs Moduli (GPa) = 75.72901 40.53435 51.62760
#
# Poissons Ratio (x) = 0.28779 0.28808
# Poissons Ratio (y) = 0.53766 0.23433
# Poissons Ratio (z) = 0.42257 0.18398
#
# Static dielectric constant tensor:
#      x y z
#    x 3.307220 0.000000 -0.018900 
#    y 0.000000 3.259450 0.000000 
#    z -0.018900 0.000000 3.129760 
# 
# 
# High freq. dielectric constant tensor:
#      x y z
#    x 1.661730 0.000000 -0.002440 
#    y 0.000000 1.665970 0.000000 
#    z -0.002440 0.000000 1.640330 
# 
# From -- ./inp_files/291963.got.cif
#   From: 2010.06.25/outbox.cif.g09.slc.cpg/sg12_146_cif.got.tgz:291963.got - 2010.06.28 00:19:55.
