data_PCOD8090477
_publ_section_title
;
Structure prediction by ZEFSAII (Michael W. Deem and Ramdas Pophale) SiO2 
 PCOD8090477
Probable space group: C 2/M
;
_chemical_formula_sum "Si O2"
_cell_formula_units_Z 64
_cell_length_a 27.912799
_cell_length_b 13.794941
_cell_length_c 9.327916
_cell_angle_alpha 90.000000
_cell_angle_beta 117.635637
_cell_angle_gamma 90.000000
_cell_volume 3181.998991
_symmetry_space_group_name_H-M "C 2/M"
_symmetry_group_IT_number 12
_symmetry_cell_setting 'monoclinic'
loop_
_space_group_symop_operation_xyz
x,y,z
-x,y,-z
-x,-y,-z
x,-y,z
1/2+x,1/2+y,z
1/2-x,1/2+y,-z
1/2-x,1/2-y,-z
1/2+x,1/2-y,z
loop_
_atom_site_type_symbol
_atom_site_label
_atom_site_fract_x
_atom_site_fract_y
_atom_site_fract_z
Si Si1 0.373114 0.608341 0.627019
Si Si2 0.695037 0.111704 0.052360
Si Si3 0.032237 0.289035 0.825674
Si Si4 0.319196 0.390156 0.270740
Si Si5 0.013183 0.109074 0.357439
Si Si6 0.880705 0.705452 0.825476
Si Si7 0.375667 0.797349 0.268284
Si Si8 0.918963 0.611356 0.611776
O O1 0.373078 0.500000 0.695298
O O2 0.322511 0.622198 0.448734
O O3 0.423742 0.621056 0.589282
O O4 0.372179 0.685488 0.754096
O O5 0.758329 0.132772 0.140616
O O6 0.667045 0.180741 0.131497
O O7 0.681996 0.000000 0.069907
O O8 0.673241 0.138245 0.863810
O O9 0.072360 0.318791 0.755122
O O10 0.019008 0.175168 0.798801
O O11 0.979096 0.353137 0.731205
O O12 0.060539 0.304160 0.017971
O O13 0.336148 0.500000 0.250630
O O14 0.358324 0.315642 0.241862
O O15 0.000000 0.145854 0.500000
O O16 0.992499 0.000000 0.308204
O O17 0.881176 0.628173 0.697573
O O18 0.390109 0.827917 0.448330
O O19 0.920801 0.500000 0.570222
#
# Coordination Sequence:
#
# PCOD8090477 Si02
#       8
#     8   8   8   8   8   8   8   8
#     4  10  20  36  59  87 121 159 198 246 302 359
#     4  10  23  41  63  89 119 160 201 248 306 355
#     4  11  23  36  57  85 119 157 198 240 295 357
#     4  10  20  39  67  92 118 154 198 246 308 367
#     4  10  19  33  56  86 119 156 197 241 295 360
#     4  11  23  40  58  85 122 159 204 250 295 353
#     4  11  22  40  62  90 122 152 198 252 302 354
#     4  12  24  39  60  85 118 161 206 248 290 349
#
# _framework density 20.113143999999998
#
# number of rings (size 3 to 8) (size 9 to 14) (size 15 to 20)
#    0.000    1.375    2.500    3.375    0.000    6.500 
#    0.000    3.125    0.000    0.750    0.000    0.000 
#    0.000    0.000    0.000    0.000    0.000    0.000 
#
# Total GULP energy -396818.165317 kJ/mol
# GULP energy per Si atom -12400.567666 kJ/mol
# Density = 2.006737 g / cm^3
# Si number density = 20.113144 Si / 1000 Ang^3
#
#
#
# Elastic Constant Matrix: (Units=GPa)
#
#
# Indices 1 2 3 4 5 6 
#
# 1 33.9047 19.1028 20.3517 0.0000 1.6536 0.0000
# 2 19.1028 109.4911 21.8640 0.0000 2.9592 0.0000
# 3 20.3517 21.8640 97.7315 0.0000 7.6845 0.0000
# 4 0.0000 0.0000 0.0000 32.1303 0.0000 -0.5547
# 5 1.6536 2.9592 7.6845 0.0000 26.5465 0.0000
# 6 0.0000 0.0000 0.0000 -0.5547 0.0000 30.1218
#
#
#
# Elastic Compliance Matrix: (Units=1/GPa)
#
#
# Indices 1 2 3 4 5 6 
#
# 1 0.036177 -0.005034 -0.006420 0.000000 0.000166 0.000000
# 2 -0.005034 0.010266 -0.001211 0.000000 -0.000480 0.000000
# 3 -0.006420 -0.001211 0.012073 0.000000 -0.002960 0.000000
# 4 0.000000 0.000000 0.000000 0.031133 0.000000 0.000573
# 5 0.000166 -0.000480 -0.002960 0.000000 0.038570 0.000000
# 6 0.000000 0.000000 0.000000 0.000573 0.000000 0.033209
#
#
# Mechanical properties :
#
#
# Convention : Reuss Voigt Hill
#
# Bulk Modulus (GPa) = 30.13383 40.41826 35.27604
# Shear Modulus (GPa) = 25.27560 29.74698 27.51129
#
# Velocity S-wave (km/s) = 3.54880 3.84993 3.70243
# Velocity P-wave (km/s) = 5.63974 6.31677 5.98783
#
# Compressibility (1/GPa) = 0.03318530
#
# Stress axis : x y z
#
# Youngs Moduli (GPa) = 27.64222 97.40721 82.83186
#
# Poissons Ratio (x) = 0.49036 0.53181
# Poissons Ratio (y) = 0.13915 0.10028
# Poissons Ratio (z) = 0.17747 0.11792
#
# Static dielectric constant tensor:
#      x y z
#    x 3.452640 0.000000 0.157230 
#    y 0.000000 3.814360 0.000000 
#    z 0.157230 0.000000 3.811140 
# 
# 
# High freq. dielectric constant tensor:
#      x y z
#    x 1.767710 0.000000 0.009060 
#    y 0.000000 1.794750 0.000000 
#    z 0.009060 0.000000 1.791000 
# 
# From -- ./inp_files/104506.got.cif
#   From: 2010.06.25/outbox.cif.g09.slc.cpg/sg12_53_cif.got.tgz:104506.got - 2010.06.28 00:19:55.
