data_PCOD8090000
_publ_section_title
;
Structure prediction by ZEFSAII (Michael W. Deem and Ramdas Pophale) SiO2 
 PCOD8090000
Probable space group: C 2/M
;
_chemical_formula_sum "Si O2"
_cell_formula_units_Z 56
_cell_length_a 18.263161
_cell_length_b 8.949812
_cell_length_c 25.533559
_cell_angle_alpha 90.000000
_cell_angle_beta 44.335470
_cell_angle_gamma 90.000000
_cell_volume 2916.690101
_symmetry_space_group_name_H-M "C 2/M"
_symmetry_group_IT_number 12
_symmetry_cell_setting 'monoclinic'
loop_
_space_group_symop_operation_xyz
x,y,z
-x,y,-z
-x,-y,-z
x,-y,z
1/2+x,1/2+y,z
1/2-x,1/2+y,-z
1/2-x,1/2-y,-z
1/2+x,1/2-y,z
loop_
_atom_site_type_symbol
_atom_site_label
_atom_site_fract_x
_atom_site_fract_y
_atom_site_fract_z
Si Si1 0.002410 0.172121 0.413562
Si Si2 0.328991 0.322351 0.999999
Si Si3 0.384809 0.323650 0.287111
Si Si4 0.226013 0.177443 0.856034
Si Si5 0.959030 0.323650 0.712890
Si Si6 0.061921 0.822557 0.856032
Si Si7 0.170465 0.827879 0.413563
O O1 0.897056 0.201676 0.499999
O O2 0.998187 0.277070 0.365502
O O3 0.102831 0.214415 0.397169
O O4 0.008470 0.000000 0.392895
O O5 0.320679 0.500000 1.000000
O O6 0.300085 0.264290 0.072628
O O7 0.250000 0.250000 0.000000
O O8 0.445342 0.264291 0.927370
O O9 0.396099 0.500000 0.285661
O O10 0.473478 0.250000 0.276522
O O11 0.401021 0.266033 0.219651
O O12 0.270809 0.277069 0.365504
O O13 0.340322 0.233966 0.780350
O O14 0.141115 0.244251 0.858885
O O15 0.220932 0.000000 0.857531
O O16 0.967419 0.500000 0.714340
O O17 0.064008 0.000000 0.857528
O O18 0.205739 0.000000 0.392896
#
# Coordination Sequence:
#
# PCOD8090000 Si02
#       7
#     8   8   8   8   8   8   8
#     4   9  19  37  59  81 106 137 174 217 266 320
#     4  10  19  33  55  79 107 140 172 212 260 310
#     4  11  22  35  53  78 109 142 178 221 266 315
#     4   9  18  33  54  79 104 135 178 221 260 308
#     4  11  22  35  53  78 109 142 178 221 266 315
#     4   9  18  33  54  79 104 135 178 221 260 308
#     4   9  19  37  59  81 106 137 174 217 266 320
#
# _framework density 19.199845
#
# number of rings (size 3 to 8) (size 9 to 14) (size 15 to 20)
#    0.000    2.286    0.000    3.857    0.000    4.571 
#    0.000    2.857    0.000    5.143    0.000    0.000 
#    0.000    0.000    0.000    0.000    0.000    0.000 
#
# Total GULP energy -347275.378518 kJ/mol
# GULP energy per Si atom -12402.692090 kJ/mol
# Density = 1.915615 g / cm^3
# Si number density = 19.199845 Si / 1000 Ang^3
#
#
#
# Elastic Constant Matrix: (Units=GPa)
#
#
# Indices 1 2 3 4 5 6 
#
# 1 179.5501 45.9225 88.0566 0.0000 -1.9170 -0.0002
# 2 45.9225 51.0710 38.9627 0.0000 -0.5383 -0.0006
# 3 88.0566 38.9627 134.2264 0.0000 -1.5883 0.0001
# 4 0.0000 0.0000 0.0000 19.6140 0.0000 0.3784
# 5 -1.9170 -0.5383 -1.5883 0.0000 33.3797 0.0001
# 6 -0.0002 -0.0006 0.0001 0.3784 0.0001 14.7168
#
#
#
# Elastic Compliance Matrix: (Units=1/GPa)
#
#
# Indices 1 2 3 4 5 6 
#
# 1 0.008982 -0.004599 -0.004555 0.000000 0.000225 0.000000
# 2 -0.004599 0.027505 -0.004968 0.000000 -0.000057 0.000001
# 3 -0.004555 -0.004968 0.011883 0.000000 0.000224 0.000000
# 4 0.000000 0.000000 0.000000 0.051009 0.000000 -0.001311
# 5 0.000225 -0.000057 0.000224 0.000000 0.029981 0.000000
# 6 0.000000 0.000001 0.000000 -0.001311 0.000000 0.067983
#
#
# Mechanical properties :
#
#
# Convention : Reuss Voigt Hill
#
# Bulk Modulus (GPa) = 49.68450 78.97015 64.32732
# Shear Modulus (GPa) = 21.52424 26.33580 23.93002
#
# Velocity S-wave (km/s) = 3.35186 3.70762 3.53422
# Velocity P-wave (km/s) = 6.39638 7.71677 7.08739
#
# Compressibility (1/GPa) = 0.02012700
#
# Stress axis : x y z
#
# Youngs Moduli (GPa) = 111.33405 36.35645 84.15546
#
# Poissons Ratio (x) = 0.16721 0.38331
# Poissons Ratio (y) = 0.51205 0.41805
# Poissons Ratio (z) = 0.50710 0.18060
#
# Static dielectric constant tensor:
#      x y z
#    x 3.626110 0.000000 0.003270 
#    y 0.000000 3.169860 0.000000 
#    z 0.003270 0.000000 3.668360 
# 
# 
# High freq. dielectric constant tensor:
#      x y z
#    x 1.759670 0.000000 0.000180 
#    y 0.000000 1.715540 0.000000 
#    z 0.000180 0.000000 1.762030 
# 
# From -- ./inp_files/300676.got.cif
#   From: 2010.06.25/outbox.cif.g09.slc.cpg/sg12_151_cif.got.tgz:300676.got - 2010.06.28 00:19:55.
