data_PCOD8090853
_publ_section_title
;
Structure prediction by ZEFSAII (Michael W. Deem and Ramdas Pophale) SiO2 
 PCOD8090853
Probable space group: C 2/M
;
_chemical_formula_sum "Si O2"
_cell_formula_units_Z 64
_cell_length_a 14.283674
_cell_length_b 24.490420
_cell_length_c 9.506662
_cell_angle_alpha 90.000000
_cell_angle_beta 90.971208
_cell_angle_gamma 90.000000
_cell_volume 3325.077869
_symmetry_space_group_name_H-M "C 2/M"
_symmetry_group_IT_number 12
_symmetry_cell_setting 'monoclinic'
loop_
_space_group_symop_operation_xyz
x,y,z
-x,y,-z
-x,-y,-z
x,-y,z
1/2+x,1/2+y,z
1/2-x,1/2+y,-z
1/2-x,1/2-y,-z
1/2+x,1/2-y,z
loop_
_atom_site_type_symbol
_atom_site_label
_atom_site_fract_x
_atom_site_fract_y
_atom_site_fract_z
Si Si1 0.757171 0.437880 0.176530
Si Si2 0.101731 0.563416 0.061826
Si Si3 0.040834 0.940873 0.152782
Si Si4 0.077577 0.633533 0.318387
Si Si5 0.127887 0.631526 0.625887
Si Si6 0.865407 0.249133 0.665999
Si Si7 0.650448 0.743947 0.658423
Si Si8 0.001088 0.177140 0.830071
O O1 0.779045 0.500000 0.215708
O O2 0.650105 0.427575 0.137888
O O3 0.786633 0.402723 0.311257
O O4 0.819729 0.419629 0.046799
O O5 0.106769 0.500000 0.104549
O O6 0.127085 0.600433 0.196045
O O7 0.000000 0.578998 0.000000
O O8 0.992967 0.886942 0.218656
O O9 0.026239 0.000000 0.233828
O O10 0.000000 0.950094 0.000000
O O11 0.140618 0.626837 0.459003
O O12 0.070106 0.698681 0.293924
O O13 0.973722 0.608298 0.333402
O O14 0.132930 0.692601 0.683988
O O15 0.759126 0.266768 0.695360
O O16 0.875772 0.229595 0.503969
O O17 0.903540 0.201097 0.767006
O O18 0.589508 0.707704 0.763772
O O19 0.000000 0.182330 0.000000
#
# Coordination Sequence:
#
# PCOD8090853 Si02
#       8
#     8   8   8   8   8   8   8   8
#     4  10  20  35  58  82 109 149 192 234 286 343
#     4  10  20  34  51  78 111 146 187 230 280 337
#     4   9  20  39  60  83 112 148 190 237 288 339
#     4  10  20  32  52  77 112 149 187 225 279 331
#     4  10  19  34  52  78 112 150 186 229 273 340
#     4  10  21  38  58  82 113 156 191 233 279 343
#     4  10  21  38  59  80 114 155 195 227 284 343
#     4  11  22  35  58  89 115 146 188 242 287 335
#
# _framework density 19.247669999999999
#
# number of rings (size 3 to 8) (size 9 to 14) (size 15 to 20)
#    0.000    2.000    2.500    1.125    0.000    4.500 
#    0.000    1.250    0.000    1.500    0.000    7.000 
#    0.000    0.000    0.000    0.000    0.000    0.000 
#
# Total GULP energy -396653.230503 kJ/mol
# GULP energy per Si atom -12395.413453 kJ/mol
# Density = 1.920386 g / cm^3
# Si number density = 19.247670 Si / 1000 Ang^3
#
#
#
# Elastic Constant Matrix: (Units=GPa)
#
#
# Indices 1 2 3 4 5 6 
#
# 1 92.3933 33.2983 34.3089 0.0000 9.6512 0.0000
# 2 33.2983 107.5507 67.0150 0.0000 6.9388 0.0000
# 3 34.3089 67.0150 91.6008 0.0000 1.9501 0.0000
# 4 0.0000 0.0000 0.0000 30.3042 0.0000 4.3359
# 5 9.6512 6.9388 1.9501 0.0000 28.1689 0.0000
# 6 0.0000 0.0000 0.0000 4.3359 0.0000 20.1028
#
#
#
# Elastic Compliance Matrix: (Units=1/GPa)
#
#
# Indices 1 2 3 4 5 6 
#
# 1 0.013160 -0.001478 -0.003765 0.000000 -0.003884 0.000000
# 2 -0.001478 0.017575 -0.012241 0.000000 -0.002975 0.000000
# 3 -0.003765 -0.012241 0.021222 0.000000 0.002836 0.000000
# 4 0.000000 0.000000 0.000000 0.034049 0.000000 -0.007344
# 5 -0.003884 -0.002975 0.002836 0.000000 0.037367 0.000000
# 6 0.000000 0.000000 0.000000 -0.007344 0.000000 0.051328
#
#
# Mechanical properties :
#
#
# Convention : Reuss Voigt Hill
#
# Bulk Modulus (GPa) = 58.86080 62.30991 60.58535
# Shear Modulus (GPa) = 23.21993 26.17670 24.69832
#
# Velocity S-wave (km/s) = 3.47706 3.69181 3.58604
# Velocity P-wave (km/s) = 6.83864 7.11446 6.97792
#
# Compressibility (1/GPa) = 0.01698924
#
# Stress axis : x y z
#
# Youngs Moduli (GPa) = 75.98953 56.90009 47.12045
#
# Poissons Ratio (x) = 0.08408 0.17742
# Poissons Ratio (y) = 0.11228 0.57679
# Poissons Ratio (z) = 0.28612 0.69650
#
# Static dielectric constant tensor:
#      x y z
#    x 3.621610 0.000000 0.092110 
#    y 0.000000 3.714560 0.000000 
#    z 0.092110 0.000000 3.342900 
# 
# 
# High freq. dielectric constant tensor:
#      x y z
#    x 1.751310 0.000000 0.013690 
#    y 0.000000 1.754120 0.000000 
#    z 0.013690 0.000000 1.728560 
# 
# From -- ./inp_files/65905.got.cif
#   From: 2010.06.25/outbox.cif.g09.slc.cpg/sg12_33_cif.got.tgz:65905.got - 2010.06.28 00:19:55.
