data_PCOD8090152
_publ_section_title
;
Structure prediction by ZEFSAII (Michael W. Deem and Ramdas Pophale) SiO2 
 PCOD8090152
Probable space group: C 2/M
;
_chemical_formula_sum "Si O2"
_cell_formula_units_Z 56
_cell_length_a 26.903702
_cell_length_b 8.722403
_cell_length_c 13.365526
_cell_angle_alpha 90.000000
_cell_angle_beta 64.066925
_cell_angle_gamma 90.000000
_cell_volume 2820.599899
_symmetry_space_group_name_H-M "C 2/M"
_symmetry_group_IT_number 12
_symmetry_cell_setting 'monoclinic'
loop_
_space_group_symop_operation_xyz
x,y,z
-x,y,-z
-x,-y,-z
x,-y,z
1/2+x,1/2+y,z
1/2-x,1/2+y,-z
1/2-x,1/2-y,-z
1/2+x,1/2-y,z
loop_
_atom_site_type_symbol
_atom_site_label
_atom_site_fract_x
_atom_site_fract_y
_atom_site_fract_z
Si Si1 0.163421 0.676154 0.104930
Si Si2 0.559197 0.824881 0.328143
Si Si3 0.946173 0.321481 0.323229
Si Si4 0.880993 0.822162 0.546283
Si Si5 0.777220 0.179764 0.764433
Si Si6 0.833688 0.180203 0.110315
Si Si7 0.947101 0.181426 0.105917
O O1 0.175857 0.500000 0.065837
O O2 0.101580 0.697324 0.199990
O O3 0.207366 0.730274 0.148320
O O4 0.169525 0.782004 0.003538
O O5 0.499503 0.776133 0.341312
O O6 0.574549 0.717463 0.407225
O O7 0.559770 0.000000 0.366424
O O8 0.943886 0.500000 0.300385
O O9 0.892704 0.272081 0.434692
O O10 0.948685 0.230121 0.218789
O O11 0.819690 0.777352 0.638279
O O12 0.885672 0.000000 0.516531
O O13 0.716070 0.234638 0.786890
O O14 0.779213 0.000000 0.785069
O O15 0.891151 0.244140 0.104121
O O16 0.827715 0.000000 0.132467
O O17 0.948385 0.000000 0.098572
O O18 0.000000 0.250029 0.000000
#
# Coordination Sequence:
#
# PCOD8090152 Si02
#       7
#     8   8   8   8   8   8   8
#     4  10  19  33  55  82 114 148 181 221 270 325
#     4   9  19  34  53  82 116 147 180 221 271 324
#     4  11  22  36  57  83 112 146 183 225 272 323
#     4  10  21  36  56  82 111 145 184 225 270 323
#     4  10  21  37  56  80 111 145 183 226 271 322
#     4  11  22  36  56  81 109 143 183 226 273 323
#     4  10  23  42  61  82 110 143 180 224 270 320
#
# _framework density 19.853932
#
# number of rings (size 3 to 8) (size 9 to 14) (size 15 to 20)
#    0.000    1.857    0.000    3.857    0.000    6.571 
#    0.000    0.714    0.000    0.000    0.000    0.000 
#    0.000    0.000    0.000    0.000    0.000    0.000 
#
# Total GULP energy -347317.598713 kJ/mol
# GULP energy per Si atom -12404.199954 kJ/mol
# Density = 1.980874 g / cm^3
# Si number density = 19.853932 Si / 1000 Ang^3
#
#
#
# Elastic Constant Matrix: (Units=GPa)
#
#
# Indices 1 2 3 4 5 6 
#
# 1 110.4779 24.7828 48.1416 0.0000 -29.3193 0.0000
# 2 24.7828 27.6451 9.0834 0.0000 -8.4362 0.0000
# 3 48.1416 9.0834 109.9809 0.0000 -19.4633 0.0000
# 4 0.0000 0.0000 0.0000 22.8348 0.0000 2.5198
# 5 -29.3193 -8.4362 -19.4633 0.0000 18.1191 0.0000
# 6 0.0000 0.0000 0.0000 2.5198 0.0000 26.8097
#
#
#
# Elastic Compliance Matrix: (Units=1/GPa)
#
#
# Indices 1 2 3 4 5 6 
#
# 1 0.018281 -0.008577 -0.003414 0.000000 0.021920 0.000000
# 2 -0.008577 0.046188 0.001592 0.000000 0.009336 0.000000
# 3 -0.003414 0.001592 0.011864 0.000000 0.007961 0.000000
# 4 0.000000 0.000000 0.000000 0.044252 0.000000 -0.004159
# 5 0.021920 0.009336 0.007961 0.000000 0.103558 0.000000
# 6 0.000000 0.000000 0.000000 -0.004159 0.000000 0.037691
#
#
# Mechanical properties :
#
#
# Convention : Reuss Voigt Hill
#
# Bulk Modulus (GPa) = 18.00708 45.79105 31.89906
# Shear Modulus (GPa) = 16.60339 24.62579 20.61459
#
# Velocity S-wave (km/s) = 2.89498 3.52568 3.22578
# Velocity P-wave (km/s) = 4.50156 6.29984 5.47503
#
# Compressibility (1/GPa) = 0.05553372
#
# Stress axis : x y z
#
# Youngs Moduli (GPa) = 54.70270 21.65079 84.28566
#
# Poissons Ratio (x) = 0.18570 0.28779
# Poissons Ratio (y) = 0.46918 -0.13417
# Poissons Ratio (z) = 0.18678 -0.03447
#
# Static dielectric constant tensor:
#      x y z
#    x 3.786070 0.000000 -0.327410 
#    y 0.000000 3.538160 0.000000 
#    z -0.327410 0.000000 3.608810 
# 
# 
# High freq. dielectric constant tensor:
#      x y z
#    x 1.768240 0.000000 -0.022500 
#    y 0.000000 1.775230 0.000000 
#    z -0.022500 0.000000 1.776720 
# 
# From -- ./inp_files/180659.got.cif
#   From: 2010.06.25/outbox.cif.g09.slc.cpg/sg12_91_cif.got.tgz:180659.got - 2010.06.28 00:19:55.
