data_PCOD8090642
_publ_section_title
;
Structure prediction by ZEFSAII (Michael W. Deem and Ramdas Pophale) SiO2 
 PCOD8090642
Probable space group: C 2/M
;
_chemical_formula_sum "Si O2"
_cell_formula_units_Z 48
_cell_length_a 22.907907
_cell_length_b 16.646223
_cell_length_c 8.796610
_cell_angle_alpha 90.000000
_cell_angle_beta 128.922772
_cell_angle_gamma 90.000000
_cell_volume 2609.711078
_symmetry_space_group_name_H-M "C 2/M"
_symmetry_group_IT_number 12
_symmetry_cell_setting 'monoclinic'
loop_
_space_group_symop_operation_xyz
x,y,z
-x,y,-z
-x,-y,-z
x,-y,z
1/2+x,1/2+y,z
1/2-x,1/2+y,-z
1/2-x,1/2-y,-z
1/2+x,1/2-y,z
loop_
_atom_site_type_symbol
_atom_site_label
_atom_site_fract_x
_atom_site_fract_y
_atom_site_fract_z
Si Si1 0.829379 0.756378 0.206395
Si Si2 0.082470 0.088704 0.576069
Si Si3 0.444753 0.092668 0.768287
Si Si4 0.456926 0.341326 0.787108
Si Si5 0.468672 0.790183 0.287726
Si Si6 0.170202 0.274583 0.437744
O O1 0.859086 0.848226 0.256979
O O2 0.880016 0.700882 0.176407
O O3 0.828580 0.724688 0.377237
O O4 0.750000 0.750000 0.000000
O O5 0.075097 0.092557 0.380743
O O6 0.000000 0.106091 0.500000
O O7 0.111301 0.000000 0.668404
O O8 0.490565 0.128027 0.698694
O O9 0.364968 0.138470 0.666730
O O10 0.425587 0.000000 0.705446
O O11 0.500000 0.103624 0.000000
O O12 0.515592 0.279959 0.806447
O O13 0.385480 0.290583 0.725606
O O14 0.500000 0.382074 0.000000
O O15 0.500000 0.760169 0.500000
O O16 0.250000 0.250000 0.500000
#
# Coordination Sequence:
#
# PCOD8090642 Si02
#       6
#     8   8   8   8   8   8
#     4  11  22  35  57  86 114 151 199 237 279 352
#     4  10  19  37  59  81 113 145 184 241 290 330
#     4  10  22  39  61  88 117 153 195 246 299 347
#     4  10  19  33  58  83 112 146 196 237 272 349
#     4  11  17  37  58  85 110 148 203 242 282 341
#     4  10  21  36  55  84 115 154 190 232 287 345
#
# _framework density 18.392842000000002
#
# number of rings (size 3 to 8) (size 9 to 14) (size 15 to 20)
#    0.000    1.667    6.667    2.000    4.667    0.667 
#    0.000    5.000    0.000    0.000    0.000    0.000 
#    0.000    0.000    0.000    0.000    0.000    0.000 
#
# Total GULP energy -297352.140056 kJ/mol
# GULP energy per Si atom -12389.672502 kJ/mol
# Density = 1.835098 g / cm^3
# Si number density = 18.392842 Si / 1000 Ang^3
#
#
#
# Elastic Constant Matrix: (Units=GPa)
#
#
# Indices 1 2 3 4 5 6 
#
# 1 135.2102 45.6338 30.9789 0.0000 20.8845 0.0000
# 2 45.6338 115.7445 37.1150 0.0000 12.9204 0.0000
# 3 30.9789 37.1150 95.0978 0.0000 18.5320 0.0000
# 4 0.0000 0.0000 0.0000 17.6066 0.0000 5.9738
# 5 20.8845 12.9204 18.5320 0.0000 30.1710 0.0000
# 6 0.0000 0.0000 0.0000 5.9738 0.0000 15.3013
#
#
#
# Elastic Compliance Matrix: (Units=1/GPa)
#
#
# Indices 1 2 3 4 5 6 
#
# 1 0.009293 -0.002821 -0.001032 0.000000 -0.004591 0.000000
# 2 -0.002821 0.010852 -0.003171 0.000000 -0.000747 0.000000
# 3 -0.001032 -0.003171 0.013274 0.000000 -0.006081 0.000000
# 4 0.000000 0.000000 0.000000 0.065469 0.000000 -0.025560
# 5 -0.004591 -0.000747 -0.006081 0.000000 0.040378 0.000000
# 6 0.000000 0.000000 0.000000 -0.025560 0.000000 0.075333
#
#
# Mechanical properties :
#
#
# Convention : Reuss Voigt Hill
#
# Bulk Modulus (GPa) = 51.61863 63.72310 57.67086
# Shear Modulus (GPa) = 21.26720 28.10410 24.68565
#
# Velocity S-wave (km/s) = 3.40409 3.91319 3.66749
# Velocity P-wave (km/s) = 6.60121 7.42551 7.02546
#
# Compressibility (1/GPa) = 0.01937285
#
# Stress axis : x y z
#
# Youngs Moduli (GPa) = 107.60256 92.14890 75.33387
#
# Poissons Ratio (x) = 0.25992 0.07773
# Poissons Ratio (y) = 0.30351 0.23888
# Poissons Ratio (z) = 0.11103 0.29219
#
# Static dielectric constant tensor:
#      x y z
#    x 3.166360 0.000000 0.235660 
#    y 0.000000 3.285550 0.000000 
#    z 0.235660 0.000000 3.405050 
# 
# 
# High freq. dielectric constant tensor:
#      x y z
#    x 1.713260 0.000000 -0.005700 
#    y 0.000000 1.692360 0.000000 
#    z -0.005700 0.000000 1.712150 
# 
# From -- ./inp_files/97881.got.cif
#   From: 2010.06.25/outbox.cif.g09.slc.cpg/sg12_49_cif.got.tgz:97881.got - 2010.06.28 00:19:55.
