data_PCOD8090806
_publ_section_title
;
Structure prediction by ZEFSAII (Michael W. Deem and Ramdas Pophale) SiO2 
 PCOD8090806
Probable space group: C 2/M
;
_chemical_formula_sum "Si O2"
_cell_formula_units_Z 56
_cell_length_a 24.925946
_cell_length_b 9.418893
_cell_length_c 25.206394
_cell_angle_alpha 90.000000
_cell_angle_beta 145.288095
_cell_angle_gamma 90.000000
_cell_volume 3369.908338
_symmetry_space_group_name_H-M "C 2/M"
_symmetry_group_IT_number 12
_symmetry_cell_setting 'monoclinic'
loop_
_space_group_symop_operation_xyz
x,y,z
-x,y,-z
-x,-y,-z
x,-y,z
1/2+x,1/2+y,z
1/2-x,1/2+y,-z
1/2-x,1/2-y,-z
1/2+x,1/2-y,z
loop_
_atom_site_type_symbol
_atom_site_label
_atom_site_fract_x
_atom_site_fract_y
_atom_site_fract_z
Si Si1 0.889321 0.164020 0.602223
Si Si2 0.714045 0.837727 0.395520
Si Si3 0.404716 0.664386 0.211960
Si Si4 0.106021 0.334195 0.205551
Si Si5 0.106329 0.164987 0.102167
Si Si6 0.227460 0.163778 0.098952
Si Si7 0.932541 0.834391 0.112910
O O1 0.822595 0.203258 0.497802
O O2 0.858228 0.246147 0.629318
O O3 0.998003 0.200098 0.677836
O O4 0.880847 0.000000 0.610835
O O5 0.693810 0.812248 0.317118
O O6 0.694708 0.000000 0.395521
O O7 0.378205 0.500000 0.194058
O O8 0.323433 0.749686 0.174851
O O9 0.416107 0.710284 0.160092
O O10 0.084651 0.500000 0.178804
O O11 0.137630 0.260909 0.176892
O O12 0.013545 0.261075 0.153754
O O13 0.172499 0.207563 0.107263
O O14 0.115892 0.000000 0.125386
O O15 0.000000 0.201520 0.000000
O O16 0.255110 0.000000 0.122657
O O17 0.163731 0.198706 0.996257
O O18 0.960885 0.000000 0.129863
#
# Coordination Sequence:
#
# PCOD8090806 Si02
#       7
#     8   8   8   8   8   8   8
#     4   9  17  31  51  73 101 135 167 200 246 302
#     4   9  18  31  48  75 105 131 163 205 252 296
#     4  10  20  32  51  76 103 135 168 205 246 299
#     4  11  21  31  50  79 107 131 162 212 257 291
#     4  10  20  37  56  71  95 134 175 210 250 301
#     4  10  21  35  52  71  98 136 171 208 249 296
#     4  10  19  34  51  72 103 139 171 196 243 308
#
# _framework density 16.617663
#
# number of rings (size 3 to 8) (size 9 to 14) (size 15 to 20)
#    0.000    2.143    2.857    0.857    0.000    3.143 
#    0.000    0.000    0.000    0.857    0.000    6.000 
#    0.000    0.000    0.000    0.000    0.000    0.000 
#
# Total GULP energy -347203.393736 kJ/mol
# GULP energy per Si atom -12400.121205 kJ/mol
# Density = 1.657984 g / cm^3
# Si number density = 16.617663 Si / 1000 Ang^3
#
#
#
# Elastic Constant Matrix: (Units=GPa)
#
#
# Indices 1 2 3 4 5 6 
#
# 1 101.7717 49.2521 58.1359 0.0000 8.7423 0.0000
# 2 49.2521 62.1645 48.6879 0.0000 2.1037 0.0000
# 3 58.1359 48.6879 105.0412 0.0000 4.7423 0.0000
# 4 0.0000 0.0000 0.0000 24.1721 0.0000 2.6754
# 5 8.7423 2.1037 4.7423 0.0000 22.7184 0.0000
# 6 0.0000 0.0000 0.0000 2.6754 0.0000 31.1811
#
#
#
# Elastic Compliance Matrix: (Units=1/GPa)
#
#
# Indices 1 2 3 4 5 6 
#
# 1 0.018070 -0.010191 -0.005054 0.000000 -0.004955 0.000000
# 2 -0.010191 0.031002 -0.008860 0.000000 0.002900 0.000000
# 3 -0.005054 -0.008860 0.016454 0.000000 -0.000669 0.000000
# 4 0.000000 0.000000 0.000000 0.041767 0.000000 -0.003584
# 5 -0.004955 0.002900 -0.000669 0.000000 0.045795 0.000000
# 6 0.000000 0.000000 0.000000 -0.003584 0.000000 0.032378
#
#
# Mechanical properties :
#
#
# Convention : Reuss Voigt Hill
#
# Bulk Modulus (GPa) = 57.74979 64.56992 61.15985
# Shear Modulus (GPa) = 20.88123 23.14109 22.01116
#
# Velocity S-wave (km/s) = 3.54866 3.73575 3.64340
# Velocity P-wave (km/s) = 7.18457 7.58606 7.38805
#
# Compressibility (1/GPa) = 0.01731608
#
# Stress axis : x y z
#
# Youngs Moduli (GPa) = 55.33899 32.25593 60.77439
#
# Poissons Ratio (x) = 0.32872 0.30714
# Poissons Ratio (y) = 0.56396 0.53849
# Poissons Ratio (z) = 0.27967 0.28580
#
# Static dielectric constant tensor:
#      x y z
#    x 2.955630 0.000000 -0.072780 
#    y 0.000000 3.148770 0.000000 
#    z -0.072780 0.000000 3.405430 
# 
# 
# High freq. dielectric constant tensor:
#      x y z
#    x 1.616240 0.000000 -0.001290 
#    y 0.000000 1.642800 0.000000 
#    z -0.001290 0.000000 1.647360 
# 
# From -- ./inp_files/243037.got.cif
#   From: 2010.06.25/outbox.cif.g09.slc.cpg/sg12_122_cif.got.tgz:243037.got - 2010.06.28 00:19:55.
