data_PCOD8090537
_publ_section_title
;
Structure prediction by ZEFSAII (Michael W. Deem and Ramdas Pophale) SiO2 
 PCOD8090537
Probable space group: C 2/M
;
_chemical_formula_sum "Si O2"
_cell_formula_units_Z 56
_cell_length_a 16.167813
_cell_length_b 17.500853
_cell_length_c 13.093387
_cell_angle_alpha 90.000000
_cell_angle_beta 129.299995
_cell_angle_gamma 90.000000
_cell_volume 2866.908434
_symmetry_space_group_name_H-M "C 2/M"
_symmetry_group_IT_number 12
_symmetry_cell_setting 'monoclinic'
loop_
_space_group_symop_operation_xyz
x,y,z
-x,y,-z
-x,-y,-z
x,-y,z
1/2+x,1/2+y,z
1/2-x,1/2+y,-z
1/2-x,1/2-y,-z
1/2+x,1/2-y,z
loop_
_atom_site_type_symbol
_atom_site_label
_atom_site_fract_x
_atom_site_fract_y
_atom_site_fract_z
Si Si1 0.910309 0.706481 0.631516
Si Si2 0.727433 0.711354 0.640354
Si Si3 0.171895 0.086752 0.742937
Si Si4 0.583100 0.909707 0.764335
Si Si5 0.240859 0.195641 0.142040
Si Si6 0.411078 0.086710 0.002145
Si Si7 0.598453 0.306686 0.846252
O O1 0.820390 0.677816 0.640669
O O2 0.857448 0.740528 0.489632
O O3 0.977847 0.633978 0.641933
O O4 0.981041 0.771045 0.743826
O O5 0.657114 0.642380 0.634159
O O6 0.783758 0.767481 0.767318
O O7 0.103665 0.112480 0.788927
O O8 0.139031 0.000000 0.690028
O O9 0.297507 0.093859 0.861999
O O10 0.692109 0.883582 0.792857
O O11 0.593153 0.877422 0.888668
O O12 0.569419 0.000000 0.740885
O O13 0.316071 0.254286 0.142623
O O14 0.131874 0.182070 0.991653
O O15 0.447576 0.000000 0.047322
O O16 0.500000 0.128004 0.000000
#
# Coordination Sequence:
#
# PCOD8090537 Si02
#       7
#     8   8   8   8   8   8   8
#     4  10  22  38  54  76 112 152 190 232 276 329
#     4  10  22  38  54  76 112 152 190 232 276 329
#     4  10  19  33  57  84 109 139 177 231 288 330
#     4  10  19  33  57  84 109 139 177 231 288 330
#     4   9  18  33  53  78 110 144 179 220 273 339
#     4   9  16  26  45  80 115 135 159 211 282 335
#     4   9  18  33  53  78 110 144 179 220 273 339
#
# _framework density 19.533235999999999
#
# number of rings (size 3 to 8) (size 9 to 14) (size 15 to 20)
#    0.000    2.429    1.429    0.857    2.000    7.429 
#    0.000    2.857    0.000    2.571    0.000    2.000 
#    0.000    0.000    0.000    0.000    0.000    0.000 
#
# Total GULP energy -347049.918357 kJ/mol
# GULP energy per Si atom -12394.639941 kJ/mol
# Density = 1.948878 g / cm^3
# Si number density = 19.533236 Si / 1000 Ang^3
#
#
#
# Elastic Constant Matrix: (Units=GPa)
#
#
# Indices 1 2 3 4 5 6 
#
# 1 27.9036 27.7761 16.8747 0.0000 -2.2659 0.0000
# 2 27.7761 110.2678 38.3979 0.0000 -5.9672 0.0000
# 3 16.8747 38.3979 94.6857 0.0000 -8.2771 0.0000
# 4 0.0000 0.0000 0.0000 21.4670 0.0000 0.3877
# 5 -2.2659 -5.9672 -8.2771 0.0000 22.8393 0.0000
# 6 0.0000 0.0000 0.0000 0.3877 0.0000 21.4866
#
#
#
# Elastic Compliance Matrix: (Units=1/GPa)
#
#
# Indices 1 2 3 4 5 6 
#
# 1 0.049342 -0.010894 -0.004334 0.000000 0.000478 0.000000
# 2 -0.010894 0.013000 -0.003230 0.000000 0.001145 0.000000
# 3 -0.004334 -0.003230 0.012942 0.000000 0.003416 0.000000
# 4 0.000000 0.000000 0.000000 0.046598 0.000000 -0.000841
# 5 0.000478 0.001145 0.003416 0.000000 0.045369 0.000000
# 6 0.000000 0.000000 0.000000 -0.000841 0.000000 0.046556
#
#
# Mechanical properties :
#
#
# Convention : Reuss Voigt Hill
#
# Bulk Modulus (GPa) = 26.06372 44.32828 35.19600
# Shear Modulus (GPa) = 18.97445 23.14579 21.06012
#
# Velocity S-wave (km/s) = 3.12010 3.44604 3.28711
# Velocity P-wave (km/s) = 5.13345 6.21101 5.69776
#
# Compressibility (1/GPa) = 0.03836750
#
# Stress axis : x y z
#
# Youngs Moduli (GPa) = 20.26683 76.92442 77.26633
#
# Poissons Ratio (x) = 0.83801 0.33487
# Poissons Ratio (y) = 0.22079 0.24959
# Poissons Ratio (z) = 0.08784 0.24848
#
# Static dielectric constant tensor:
#      x y z
#    x 3.525460 0.000000 -0.092660 
#    y 0.000000 3.726530 0.000000 
#    z -0.092660 0.000000 3.625070 
# 
# 
# High freq. dielectric constant tensor:
#      x y z
#    x 1.738240 0.000000 -0.000660 
#    y 0.000000 1.746590 0.000000 
#    z -0.000660 0.000000 1.756670 
# 
# From -- ./inp_files/158316.got.cif
#   From: 2010.06.25/outbox.cif.g09.slc.cpg/sg12_80_cif.got.tgz:158316.got - 2010.06.28 00:19:55.
