data_PCOD8090039
_publ_section_title
;
Structure prediction by ZEFSAII (Michael W. Deem and Ramdas Pophale) SiO2 
 PCOD8090039
Probable space group: C 2/M
;
_chemical_formula_sum "Si O2"
_cell_formula_units_Z 48
_cell_length_a 18.341329
_cell_length_b 8.848518
_cell_length_c 24.338608
_cell_angle_alpha 90.000000
_cell_angle_beta 43.160115
_cell_angle_gamma 90.000000
_cell_volume 2701.955851
_symmetry_space_group_name_H-M "C 2/M"
_symmetry_group_IT_number 12
_symmetry_cell_setting 'monoclinic'
loop_
_space_group_symop_operation_xyz
x,y,z
-x,y,-z
-x,-y,-z
x,-y,z
1/2+x,1/2+y,z
1/2-x,1/2+y,-z
1/2-x,1/2-y,-z
1/2+x,1/2-y,z
loop_
_atom_site_type_symbol
_atom_site_label
_atom_site_fract_x
_atom_site_fract_y
_atom_site_fract_z
Si Si1 0.812461 0.824105 0.515413
Si Si2 0.557891 0.177503 0.784135
Si Si3 0.350827 0.670659 0.918748
Si Si4 0.557758 0.329165 0.241785
Si Si5 0.561268 0.674100 0.362020
Si Si6 0.271683 0.178075 0.653844
O O1 0.750000 0.750000 0.500000
O O2 0.777012 0.745364 0.590510
O O3 0.937126 0.797665 0.438179
O O4 0.783883 0.000000 0.534734
O O5 0.461042 0.243894 0.874922
O O6 0.535307 0.222345 0.732360
O O7 0.668950 0.252442 0.741502
O O8 0.564540 0.000000 0.788332
O O9 0.355974 0.500000 0.938158
O O10 0.342705 0.674040 0.856097
O O11 0.250000 0.750000 0.000000
O O12 0.511144 0.500000 0.272033
O O13 0.593529 0.275282 0.282314
O O14 0.592062 0.500000 0.356487
O O15 0.623181 0.779537 0.370158
O O16 0.260445 0.000000 0.656653
#
# Coordination Sequence:
#
# PCOD8090039 Si02
#       6
#     8   8   8   8   8   8
#     4  11  23  38  59  82 108 142 184 230 273 320
#     4  10  19  33  55  80 107 140 182 225 270 320
#     4   9  17  31  54  84 113 141 176 221 271 322
#     4   8  17  33  54  79 109 139 175 223 272 321
#     4  10  21  38  56  77 107 144 183 225 274 322
#     4  12  24  37  53  77 111 147 184 226 272 323
#
# _framework density 17.764907999999998
#
# number of rings (size 3 to 8) (size 9 to 14) (size 15 to 20)
#    1.000    1.000    0.000    5.000    0.000    5.333 
#    0.000    0.000    0.000    1.000    0.000    7.000 
#    0.000    0.000    0.000    0.000    0.000    0.000 
#
# Total GULP energy -297458.144069 kJ/mol
# GULP energy per Si atom -12394.089336 kJ/mol
# Density = 1.772447 g / cm^3
# Si number density = 17.764908 Si / 1000 Ang^3
#
#
#
# Elastic Constant Matrix: (Units=GPa)
#
#
# Indices 1 2 3 4 5 6 
#
# 1 88.6042 53.8736 32.6148 0.0000 -13.4722 0.0001
# 2 53.8736 152.2536 50.7272 0.0000 -18.3642 0.0002
# 3 32.6148 50.7272 88.7853 0.0000 -20.0589 0.0000
# 4 0.0000 0.0000 0.0000 30.6752 0.0000 -4.1251
# 5 -13.4722 -18.3642 -20.0589 0.0000 17.8210 0.0000
# 6 0.0001 0.0002 0.0000 -4.1251 0.0000 30.7207
#
#
#
# Elastic Compliance Matrix: (Units=1/GPa)
#
#
# Indices 1 2 3 4 5 6 
#
# 1 0.015331 -0.004108 -0.002176 0.000000 0.004907 0.000000
# 2 -0.004108 0.009456 -0.003210 0.000000 0.003026 0.000000
# 3 -0.002176 -0.003210 0.017135 0.000000 0.014334 0.000000
# 4 0.000000 0.000000 0.000000 0.033199 0.000000 0.004458
# 5 0.004907 0.003026 0.014334 0.000000 0.079075 0.000000
# 6 0.000000 0.000000 0.000000 0.004458 0.000000 0.033150
#
#
# Mechanical properties :
#
#
# Convention : Reuss Voigt Hill
#
# Bulk Modulus (GPa) = 43.60342 67.11938 55.36140
# Shear Modulus (GPa) = 23.36682 28.67188 26.01935
#
# Velocity S-wave (km/s) = 3.63069 4.02177 3.83122
# Velocity P-wave (km/s) = 6.49414 7.70910 7.12756
#
# Compressibility (1/GPa) = 0.02293398
#
# Stress axis : x y z
#
# Youngs Moduli (GPa) = 65.22751 105.75340 58.36028
#
# Poissons Ratio (x) = 0.43441 0.12699
# Poissons Ratio (y) = 0.26794 0.18734
# Poissons Ratio (z) = 0.14194 0.33948
#
# Static dielectric constant tensor:
#      x y z
#    x 3.127750 0.000000 -0.035480 
#    y 0.000000 3.429560 0.000000 
#    z -0.035480 0.000000 3.286790 
# 
# 
# High freq. dielectric constant tensor:
#      x y z
#    x 1.665800 0.000000 -0.008880 
#    y 0.000000 1.698190 0.000000 
#    z -0.008880 0.000000 1.681520 
# 
# From -- ./inp_files/341896.got.cif
#   From: 2010.06.25/outbox.cif.g09.slc.cpg/sg12_171_cif.got.tgz:341896.got - 2010.06.28 00:19:55.
