data_PCOD8090133
_publ_section_title
;
Structure prediction by ZEFSAII (Michael W. Deem and Ramdas Pophale) SiO2 
 PCOD8090133
Probable space group: C 2/M
;
_chemical_formula_sum "Si O2"
_cell_formula_units_Z 64
_cell_length_a 15.230872
_cell_length_b 8.863769
_cell_length_c 30.560581
_cell_angle_alpha 90.000000
_cell_angle_beta 127.471318
_cell_angle_gamma 90.000000
_cell_volume 3274.448722
_symmetry_space_group_name_H-M "C 2/M"
_symmetry_group_IT_number 12
_symmetry_cell_setting 'monoclinic'
loop_
_space_group_symop_operation_xyz
x,y,z
-x,y,-z
-x,-y,-z
x,-y,z
1/2+x,1/2+y,z
1/2-x,1/2+y,-z
1/2-x,1/2-y,-z
1/2+x,1/2-y,z
loop_
_atom_site_type_symbol
_atom_site_label
_atom_site_fract_x
_atom_site_fract_y
_atom_site_fract_z
Si Si1 0.790547 0.178943 0.634951
Si Si2 0.446380 0.679385 0.758598
Si Si3 0.350210 0.678906 0.556778
Si Si4 0.179822 0.674908 0.827778
Si Si5 0.115503 0.823767 0.165636
Si Si6 0.919498 0.828883 0.048904
Si Si7 0.460106 0.822553 0.439431
Si Si8 0.774007 0.329765 0.939561
O O1 0.866564 0.245544 0.696762
O O2 0.839842 0.234263 0.603726
O O3 0.665260 0.236159 0.603679
O O4 0.789962 0.000000 0.635853
O O5 0.441735 0.500000 0.757160
O O6 0.570911 0.728522 0.786830
O O7 0.405756 0.746756 0.792848
O O8 0.341588 0.500000 0.550346
O O9 0.250000 0.750000 0.500000
O O10 0.467197 0.734812 0.574000
O O11 0.148441 0.500000 0.822265
O O12 0.258432 0.706350 0.809901
O O13 0.246432 0.722667 0.890861
O O14 0.030713 0.756801 0.103734
O O15 0.087703 0.000000 0.159736
O O16 0.826881 0.822311 0.057808
O O17 0.937691 0.000000 0.038202
O O18 0.885267 0.729792 0.996661
O O19 0.500000 0.781310 0.500000
O O20 0.471919 0.000000 0.434167
O O21 0.793474 0.500000 0.928960
#
# Coordination Sequence:
#
# PCOD8090133 Si02
#       8
#     8   8   8   8   8   8   8   8
#     4   9  20  37  60  84 113 152 190 232 286 341
#     4  10  20  41  63  79 107 151 195 232 278 340
#     4  11  21  36  57  88 120 155 192 233 284 340
#     4  11  22  36  57  85 113 144 185 238 285 329
#     4   9  19  36  58  80 106 146 189 226 277 343
#     4   9  17  33  55  79 106 142 186 229 277 336
#     4  10  19  36  59  86 118 153 192 233 281 342
#     4  10  19  33  55  82 111 146 185 226 280 343
#
# _framework density 19.545276000000001
#
# number of rings (size 3 to 8) (size 9 to 14) (size 15 to 20)
#    0.000    2.125    2.500    1.125    0.000    2.250 
#    0.000    8.125    0.000    0.000    0.000    0.000 
#    0.000    0.000    0.000    0.000    0.000    0.000 
#
# Total GULP energy -396825.084573 kJ/mol
# GULP energy per Si atom -12400.783893 kJ/mol
# Density = 1.950079 g / cm^3
# Si number density = 19.545276 Si / 1000 Ang^3
#
#
#
# Elastic Constant Matrix: (Units=GPa)
#
#
# Indices 1 2 3 4 5 6 
#
# 1 122.8957 24.5735 71.0873 0.0000 10.7202 0.0000
# 2 24.5735 35.0213 19.0602 0.0000 -2.6823 0.0000
# 3 71.0873 19.0602 157.8986 0.0000 4.5429 0.0000
# 4 0.0000 0.0000 0.0000 19.9584 0.0000 3.3938
# 5 10.7202 -2.6823 4.5429 0.0000 12.9477 0.0000
# 6 0.0000 0.0000 0.0000 3.3938 0.0000 29.5130
#
#
#
# Elastic Compliance Matrix: (Units=1/GPa)
#
#
# Indices 1 2 3 4 5 6 
#
# 1 0.013394 -0.007631 -0.004793 0.000000 -0.010989 0.000000
# 2 -0.007631 0.035690 -0.001280 0.000000 0.014161 0.000000
# 3 -0.004793 -0.001280 0.008626 0.000000 0.000676 0.000000
# 4 0.000000 0.000000 0.000000 0.051104 0.000000 -0.005877
# 5 -0.010989 0.014161 0.000676 0.000000 0.089029 0.000000
# 6 0.000000 0.000000 0.000000 -0.005877 0.000000 0.034559
#
#
# Mechanical properties :
#
#
# Convention : Reuss Voigt Hill
#
# Bulk Modulus (GPa) = 33.00130 60.58418 46.79274
# Shear Modulus (GPa) = 18.52474 25.89010 22.20742
#
# Velocity S-wave (km/s) = 3.08195 3.64348 3.37442
# Velocity P-wave (km/s) = 5.43928 6.98313 6.25899
#
# Compressibility (1/GPa) = 0.03030184
#
# Stress axis : x y z
#
# Youngs Moduli (GPa) = 74.66231 28.01912 115.93000
#
# Poissons Ratio (x) = 0.21382 0.55561
# Poissons Ratio (y) = 0.56977 0.14839
# Poissons Ratio (z) = 0.35783 0.03586
#
# Static dielectric constant tensor:
#      x y z
#    x 3.701580 0.000000 -0.023620 
#    y 0.000000 3.332900 0.000000 
#    z -0.023620 0.000000 3.790980 
# 
# 
# High freq. dielectric constant tensor:
#      x y z
#    x 1.768690 0.000000 0.002200 
#    y 0.000000 1.732570 0.000000 
#    z 0.002200 0.000000 1.764360 
# 
# From -- ./inp_files/375607.got.cif
#   From: 2010.06.25/outbox.cif.g09.slc.cpg/sg12_188_cif.got.tgz:375607.got - 2010.06.28 00:19:55.
