data_PCOD8090534
_publ_section_title
;
Structure prediction by ZEFSAII (Michael W. Deem and Ramdas Pophale) SiO2 
 PCOD8090534
Probable space group: C 2/M
;
_chemical_formula_sum "Si O2"
_cell_formula_units_Z 56
_cell_length_a 18.907218
_cell_length_b 9.077542
_cell_length_c 19.931324
_cell_angle_alpha 90.000000
_cell_angle_beta 63.544052
_cell_angle_gamma 90.000000
_cell_volume 3062.594875
_symmetry_space_group_name_H-M "C 2/M"
_symmetry_group_IT_number 12
_symmetry_cell_setting 'monoclinic'
loop_
_space_group_symop_operation_xyz
x,y,z
-x,y,-z
-x,-y,-z
x,-y,z
1/2+x,1/2+y,z
1/2-x,1/2+y,-z
1/2-x,1/2-y,-z
1/2+x,1/2-y,z
loop_
_atom_site_type_symbol
_atom_site_label
_atom_site_fract_x
_atom_site_fract_y
_atom_site_fract_z
Si Si1 0.537812 0.671801 0.413705
Si Si2 0.423123 0.324589 0.073663
Si Si3 0.519350 0.830592 0.693175
Si Si4 0.221884 0.160785 0.949928
Si Si5 0.288135 0.330254 0.695730
Si Si6 0.124866 0.175288 0.757030
Si Si7 0.845709 0.341286 0.788341
O O1 0.500000 0.717048 0.500000
O O2 0.525925 0.500000 0.402040
O O3 0.491995 0.764249 0.376422
O O4 0.631755 0.708334 0.379444
O O5 0.422898 0.500000 0.075793
O O6 0.347587 0.263911 0.064353
O O7 0.413623 0.269055 0.155346
O O8 0.500000 0.266039 0.000000
O O9 0.579610 0.738066 0.712136
O O10 0.436896 0.815932 0.767031
O O11 0.547989 0.000000 0.674979
O O12 0.302003 0.146424 0.875969
O O13 0.191664 0.000000 0.986082
O O14 0.250000 0.250000 0.000000
O O15 0.263714 0.500000 0.698035
O O16 0.214435 0.229043 0.707410
O O17 0.309926 0.295468 0.763234
O O18 0.123716 0.000000 0.755258
O O19 0.836066 0.500000 0.753485
#
# Coordination Sequence:
#
# PCOD8090534 Si02
#       7
#     8   8   8   8   8   8   8
#     4   9  19  38  62  87 114 143 177 218 267 326
#     4   9  19  35  53  74 103 142 186 230 274 323
#     4  10  21  35  55  83 113 142 182 227 270 321
#     4  10  20  34  51  73 103 136 178 226 275 325
#     4  10  19  33  57  84 108 137 178 222 265 319
#     4  11  21  36  57  78 110 150 187 226 275 328
#     4   9  18  35  53  72 104 143 179 222 273 323
#
# _framework density 18.285148
#
# number of rings (size 3 to 8) (size 9 to 14) (size 15 to 20)
#    0.000    2.286    1.429    1.286    2.000    2.000 
#    0.000    0.714    0.000    2.143    0.000    0.000 
#    0.000    0.000    0.000    0.000    0.000    0.000 
#
# Total GULP energy -346931.755991 kJ/mol
# GULP energy per Si atom -12390.419857 kJ/mol
# Density = 1.824353 g / cm^3
# Si number density = 18.285148 Si / 1000 Ang^3
#
#
#
# Elastic Constant Matrix: (Units=GPa)
#
#
# Indices 1 2 3 4 5 6 
#
# 1 122.9037 53.2025 68.7817 0.0000 2.3332 0.0000
# 2 53.2025 76.7077 46.0871 0.0000 2.4953 0.0001
# 3 68.7817 46.0871 116.2061 0.0000 -2.7122 0.0000
# 4 0.0000 0.0000 0.0000 23.4826 0.0000 2.3078
# 5 2.3332 2.4953 -2.7122 0.0000 22.0140 0.0000
# 6 0.0000 0.0001 0.0000 2.3078 0.0000 33.6167
#
#
#
# Elastic Compliance Matrix: (Units=1/GPa)
#
#
# Indices 1 2 3 4 5 6 
#
# 1 0.014197 -0.006205 -0.005978 0.000000 -0.001538 0.000000
# 2 -0.006205 0.019998 -0.004309 0.000000 -0.002140 0.000000
# 3 -0.005978 -0.004309 0.013919 0.000000 0.002837 0.000000
# 4 0.000000 0.000000 0.000000 0.042874 0.000000 -0.002943
# 5 -0.001538 -0.002140 0.002837 0.000000 0.046181 0.000000
# 6 0.000000 0.000000 0.000000 -0.002943 0.000000 0.029949
#
#
# Mechanical properties :
#
#
# Convention : Reuss Voigt Hill
#
# Bulk Modulus (GPa) = 66.09011 72.44003 69.26507
# Shear Modulus (GPa) = 24.37287 25.67241 25.02264
#
# Velocity S-wave (km/s) = 3.65490 3.75107 3.70329
# Velocity P-wave (km/s) = 7.35076 7.64615 7.49991
#
# Compressibility (1/GPa) = 0.01513086
#
# Stress axis : x y z
#
# Youngs Moduli (GPa) = 70.43543 50.00392 71.84463
#
# Poissons Ratio (x) = 0.31028 0.42951
# Poissons Ratio (y) = 0.43706 0.30955
# Poissons Ratio (z) = 0.42109 0.21544
#
# Static dielectric constant tensor:
#      x y z
#    x 3.360360 0.000000 -0.161530 
#    y 0.000000 2.933050 0.000000 
#    z -0.161530 0.000000 3.332360 
# 
# 
# High freq. dielectric constant tensor:
#      x y z
#    x 1.710200 0.000000 -0.011880 
#    y 0.000000 1.700490 0.000000 
#    z -0.011880 0.000000 1.699130 
# 
# From -- ./inp_files/313800.got.cif
#   From: 2010.06.25/outbox.cif.g09.slc.cpg/sg12_157_cif.got.tgz:313800.got - 2010.06.28 00:19:55.
