data_PCOD8090705
_publ_section_title
;
Structure prediction by ZEFSAII (Michael W. Deem and Ramdas Pophale) SiO2 
 PCOD8090705
Probable space group: C 2/M
;
_chemical_formula_sum "Si O2"
_cell_formula_units_Z 32
_cell_length_a 17.473403
_cell_length_b 19.227517
_cell_length_c 8.420864
_cell_angle_alpha 90.000000
_cell_angle_beta 155.475432
_cell_angle_gamma 90.000000
_cell_volume 1174.336893
_symmetry_space_group_name_H-M "C 2/M"
_symmetry_group_IT_number 12
_symmetry_cell_setting 'monoclinic'
loop_
_space_group_symop_operation_xyz
x,y,z
-x,y,-z
-x,-y,-z
x,-y,z
1/2+x,1/2+y,z
1/2-x,1/2+y,-z
1/2-x,1/2-y,-z
1/2+x,1/2-y,z
loop_
_atom_site_type_symbol
_atom_site_label
_atom_site_fract_x
_atom_site_fract_y
_atom_site_fract_z
Si Si1 0.165761 0.000000 0.523383
Si Si2 0.868457 0.643201 0.412392
Si Si3 0.735867 0.000000 0.648015
Si Si4 0.182932 0.862595 0.740592
Si Si5 0.530179 0.264453 0.871954
O O1 0.269661 0.000000 0.552019
O O2 0.231598 0.068018 0.738890
O O3 0.945957 0.000000 0.100056
O O4 0.872839 0.565647 0.487387
O O5 0.045085 0.687041 0.820061
O O6 0.852564 0.646211 0.189287
O O7 0.691083 0.681059 0.150623
O O8 0.152125 0.797307 0.561237
O O9 0.000000 0.872473 0.500000
O O10 0.500000 0.256175 0.000000
#
# Coordination Sequence:
#
# PCOD8090705 Si02
#       5
#     4   8   4   8   8
#     4  11  18  33  60  88 120 148 208 249 289 339
#     4  11  23  39  62  90 123 155 200 246 299 353
#     4  11  21  36  62  89 118 155 205 250 289 349
#     4  10  19  33  58  90 120 150 196 250 294 342
#     4  11  22  38  59  89 123 160 195 245 298 356
#
# _framework density 27.249421000000002
#
# number of rings (size 3 to 8) (size 9 to 14) (size 15 to 20)
#    0.000    1.250    5.000    4.125    0.000    0.000 
#    0.000    0.625    0.000    3.000    0.000   13.125 
#    0.000    0.000    0.000    0.000    0.000    0.000 
#
# Total GULP energy -198503.622317 kJ/mol
# GULP energy per Si atom -12406.476395 kJ/mol
# Density = 2.718740 g / cm^3
# Si number density = 27.249421 Si / 1000 Ang^3
#
#
#
# Elastic Constant Matrix: (Units=GPa)
#
#
# Indices 1 2 3 4 5 6 
#
# 1 150.7555 85.5583 95.2434 0.0000 -58.4863 0.0000
# 2 85.5583 242.0585 56.6406 0.0000 -38.9165 0.0000
# 3 95.2434 56.6406 163.5846 0.0000 -17.1910 0.0000
# 4 0.0000 0.0000 0.0000 44.4412 0.0000 -17.8376
# 5 -58.4863 -38.9165 -17.1910 0.0000 69.3618 0.0000
# 6 0.0000 0.0000 0.0000 -17.8376 0.0000 52.1346
#
#
#
# Elastic Compliance Matrix: (Units=1/GPa)
#
#
# Indices 1 2 3 4 5 6 
#
# 1 0.017711 -0.002483 -0.008244 0.000000 0.011498 0.000000
# 2 -0.002483 0.005194 -0.000274 0.000000 0.000753 0.000000
# 3 -0.008244 -0.000274 0.010536 0.000000 -0.004494 0.000000
# 4 0.000000 0.000000 0.000000 0.026084 0.000000 0.008924
# 5 0.011498 0.000753 -0.004494 0.000000 0.023421 0.000000
# 6 0.000000 0.000000 0.000000 0.008924 0.000000 0.022235
#
#
# Mechanical properties :
#
#
# Convention : Reuss Voigt Hill
#
# Bulk Modulus (GPa) = 87.41456 114.58702 101.00079
# Shear Modulus (GPa) = 38.16952 54.45127 46.31039
#
# Velocity S-wave (km/s) = 3.74671 4.47503 4.12697
# Velocity P-wave (km/s) = 7.13206 8.29721 7.73660
#
# Compressibility (1/GPa) = 0.01143974
#
# Stress axis : x y z
#
# Youngs Moduli (GPa) = 56.46065 192.53548 94.91677
#
# Poissons Ratio (x) = 0.47799 0.78251
# Poissons Ratio (y) = 0.14017 0.02599
# Poissons Ratio (z) = 0.46547 0.05271
#
# Static dielectric constant tensor:
#      x y z
#    x 5.158300 0.000000 0.254910 
#    y 0.000000 5.097280 0.000000 
#    z 0.254910 0.000000 6.040540 
# 
# 
# High freq. dielectric constant tensor:
#      x y z
#    x 2.145570 0.000000 0.022150 
#    y 0.000000 2.109970 0.000000 
#    z 0.022150 0.000000 2.143320 
# 
# From -- ./inp_files/46155.got.cif
#   From: 2010.06.25/outbox.cif.g09.slc.cpg/sg12_24_cif.got.tgz:46155.got - 2010.06.28 00:19:55.
