data_PCOD8090109
_publ_section_title
;
Structure prediction by ZEFSAII (Michael W. Deem and Ramdas Pophale) SiO2 
 PCOD8090109
Probable space group: C 2/M
;
_chemical_formula_sum "Si O2"
_cell_formula_units_Z 56
_cell_length_a 24.216256
_cell_length_b 9.192596
_cell_length_c 14.040015
_cell_angle_alpha 90.000000
_cell_angle_beta 82.767015
_cell_angle_gamma 90.000000
_cell_volume 3100.580217
_symmetry_space_group_name_H-M "C 2/M"
_symmetry_group_IT_number 12
_symmetry_cell_setting 'monoclinic'
loop_
_space_group_symop_operation_xyz
x,y,z
-x,y,-z
-x,-y,-z
x,-y,z
1/2+x,1/2+y,z
1/2-x,1/2+y,-z
1/2-x,1/2-y,-z
1/2+x,1/2-y,z
loop_
_atom_site_type_symbol
_atom_site_label
_atom_site_fract_x
_atom_site_fract_y
_atom_site_fract_z
Si Si1 0.801871 0.832342 0.032697
Si Si2 0.469425 0.327764 0.697768
Si Si3 0.199653 0.333525 0.298636
Si Si4 0.634976 0.666282 0.161917
Si Si5 0.917892 0.328396 0.333323
Si Si6 0.822752 0.830612 0.242519
Si Si7 0.597454 0.169471 0.444835
O O1 0.855915 0.808439 0.952795
O O2 0.784418 0.000000 0.041569
O O3 0.750000 0.750000 0.000000
O O4 0.817863 0.778089 0.134209
O O5 0.477834 0.500000 0.685979
O O6 0.426458 0.284093 0.791483
O O7 0.526848 0.252335 0.714021
O O8 0.447578 0.264125 0.602420
O O9 0.191483 0.500000 0.272770
O O10 0.183303 0.248944 0.207311
O O11 0.264040 0.302384 0.309273
O O12 0.159956 0.291622 0.395947
O O13 0.642842 0.500000 0.189108
O O14 0.924693 0.500000 0.317823
O O15 0.867358 0.271956 0.281507
O O16 0.905876 0.286439 0.444909
O O17 0.840423 0.000000 0.245639
O O18 0.583090 0.000000 0.432065
#
# Coordination Sequence:
#
# PCOD8090109 Si02
#       7
#     8   8   8   8   8   8   8
#     4  10  19  33  55  82 108 135 169 209 257 311
#     4  10  20  35  56  80 104 135 175 218 260 305
#     4   9  17  32  53  78 106 136 170 211 259 309
#     4   9  18  32  53  81 108 132 167 214 260 306
#     4  11  23  37  52  73 104 144 180 216 261 306
#     4  10  21  35  52  77 108 140 173 210 257 312
#     4   9  19  35  55  78 105 136 174 217 261 308
#
# _framework density 18.061135
#
# number of rings (size 3 to 8) (size 9 to 14) (size 15 to 20)
#    0.000    2.286    1.429    1.286    0.000    5.143 
#    0.000    0.714    0.000    4.286    0.000    0.000 
#    0.000    0.000    0.000    0.000    0.000    0.000 
#
# Total GULP energy -347187.940553 kJ/mol
# GULP energy per Si atom -12399.569305 kJ/mol
# Density = 1.802003 g / cm^3
# Si number density = 18.061135 Si / 1000 Ang^3
#
#
#
# Elastic Constant Matrix: (Units=GPa)
#
#
# Indices 1 2 3 4 5 6 
#
# 1 116.7494 45.1005 41.8246 0.0000 0.1950 0.0000
# 2 45.1005 59.3173 25.2159 0.0000 1.2644 0.0000
# 3 41.8246 25.2159 58.9439 0.0000 -9.8061 0.0000
# 4 0.0000 0.0000 0.0000 24.8563 0.0000 4.8618
# 5 0.1950 1.2644 -9.8061 0.0000 20.3860 0.0000
# 6 0.0000 0.0000 0.0000 4.8618 0.0000 33.6641
#
#
#
# Elastic Compliance Matrix: (Units=1/GPa)
#
#
# Indices 1 2 3 4 5 6 
#
# 1 0.014105 -0.007550 -0.007308 0.000000 -0.003182 0.000000
# 2 -0.007550 0.025345 -0.006233 0.000000 -0.004498 0.000000
# 3 -0.007308 -0.006233 0.027059 0.000000 0.013472 0.000000
# 4 0.000000 0.000000 0.000000 0.041401 0.000000 -0.005979
# 5 -0.003182 -0.004498 0.013472 0.000000 0.055843 0.000000
# 6 0.000000 0.000000 0.000000 -0.005979 0.000000 0.030569
#
#
# Mechanical properties :
#
#
# Convention : Reuss Voigt Hill
#
# Bulk Modulus (GPa) = 41.10893 51.03252 46.07072
# Shear Modulus (GPa) = 20.44039 23.97259 22.20649
#
# Velocity S-wave (km/s) = 3.36777 3.64717 3.51025
# Velocity P-wave (km/s) = 6.15897 6.78620 6.48018
#
# Compressibility (1/GPa) = 0.02432561
#
# Stress axis : x y z
#
# Youngs Moduli (GPa) = 70.89484 39.45588 36.95654
#
# Poissons Ratio (x) = 0.29790 0.27008
# Poissons Ratio (y) = 0.53527 0.23036
# Poissons Ratio (z) = 0.51811 0.24594
#
# Static dielectric constant tensor:
#      x y z
#    x 3.433920 0.000000 -0.363180 
#    y 0.000000 3.341160 0.000000 
#    z -0.363180 0.000000 3.497770 
# 
# 
# High freq. dielectric constant tensor:
#      x y z
#    x 1.697820 0.000000 -0.022380 
#    y 0.000000 1.700640 0.000000 
#    z -0.022380 0.000000 1.693540 
# 
# From -- ./inp_files/230903.got.cif
#   From: 2010.06.25/outbox.cif.g09.slc.cpg/sg12_116_cif.got.tgz:230903.got - 2010.06.28 00:19:55.
