data_PCOD8090891
_publ_section_title
;
Structure prediction by ZEFSAII (Michael W. Deem and Ramdas Pophale) SiO2 
 PCOD8090891
Probable space group: C 2/M
;
_chemical_formula_sum "Si O2"
_cell_formula_units_Z 40
_cell_length_a 27.842529
_cell_length_b 8.518790
_cell_length_c 25.772555
_cell_angle_alpha 90.000000
_cell_angle_beta 159.743942
_cell_angle_gamma 90.000000
_cell_volume 2116.369620
_symmetry_space_group_name_H-M "C 2/M"
_symmetry_group_IT_number 12
_symmetry_cell_setting 'monoclinic'
loop_
_space_group_symop_operation_xyz
x,y,z
-x,y,-z
-x,-y,-z
x,-y,z
1/2+x,1/2+y,z
1/2-x,1/2+y,-z
1/2-x,1/2-y,-z
1/2+x,1/2-y,z
loop_
_atom_site_type_symbol
_atom_site_label
_atom_site_fract_x
_atom_site_fract_y
_atom_site_fract_z
Si Si1 0.801441 0.183096 0.157336
Si Si2 0.262446 0.816782 0.392151
Si Si3 0.539587 0.682750 0.323313
Si Si4 0.501020 0.814875 0.172185
Si Si5 0.517169 0.686720 0.458701
O O1 0.886980 0.220123 0.191581
O O2 0.885748 0.250895 0.292320
O O3 0.784297 0.000000 0.148820
O O4 0.647667 0.255775 0.996752
O O5 0.346926 0.780103 0.530030
O O6 0.114477 0.728034 0.243829
O O7 0.342047 0.758028 0.421726
O O8 0.234677 0.000000 0.359801
O O9 0.576063 0.500000 0.366968
O O10 0.546145 0.730945 0.270658
O O11 0.492736 0.000000 0.173307
O O12 0.500000 0.745270 0.500000
O O13 0.528258 0.500000 0.466013
#
# Coordination Sequence:
#
# PCOD8090891 Si02
#       5
#     8   8   8   8   8
#     4   8  17  32  52  78 104 132 169 210 252 303
#     4  11  22  35  51  75 105 137 174 210 250 300
#     4  10  19  34  53  75 104 138 176 211 250 300
#     4  11  20  32  50  75 108 140 170 207 253 300
#     4   9  18  37  62  81  98 126 167 214 261 307
#
# _framework density 18.900289999999998
#
# number of rings (size 3 to 8) (size 9 to 14) (size 15 to 20)
#    0.000    2.200    0.000    5.400    0.000    0.400 
#    0.000   10.000    0.000    6.000    0.000    0.000 
#    0.000    0.000    0.000    0.000    0.000    0.000 
#
# Total GULP energy -248002.278812 kJ/mol
# GULP energy per Si atom -12400.113941 kJ/mol
# Density = 1.885727 g / cm^3
# Si number density = 18.900290 Si / 1000 Ang^3
#
#
#
# Elastic Constant Matrix: (Units=GPa)
#
#
# Indices 1 2 3 4 5 6 
#
# 1 114.5618 14.9228 39.0720 -0.0001 8.9276 -0.0001
# 2 14.9228 40.5713 14.5139 0.0040 2.7490 0.0010
# 3 39.0720 14.5139 92.4410 0.0053 30.5739 0.0017
# 4 -0.0001 0.0040 0.0053 15.7239 0.0015 4.2033
# 5 8.9276 2.7490 30.5739 0.0015 24.0839 0.0003
# 6 -0.0001 0.0010 0.0017 4.2033 0.0003 23.7731
#
#
#
# Elastic Compliance Matrix: (Units=1/GPa)
#
#
# Indices 1 2 3 4 5 6 
#
# 1 0.010511 -0.002269 -0.004970 0.000002 0.002672 0.000000
# 2 -0.002269 0.026812 -0.004338 -0.000006 0.003288 0.000000
# 3 -0.004970 -0.004338 0.022109 -0.000004 -0.025730 0.000000
# 4 0.000002 -0.000006 -0.000004 0.066752 0.000001 -0.011802
# 5 0.002672 0.003288 -0.025730 0.000001 0.072819 0.000001
# 6 0.000000 0.000000 0.000000 -0.011802 0.000001 0.044151
#
#
# Mechanical properties :
#
#
# Convention : Reuss Voigt Hill
#
# Bulk Modulus (GPa) = 27.56527 42.73239 35.14883
# Shear Modulus (GPa) = 17.95961 24.65389 21.30675
#
# Velocity S-wave (km/s) = 3.08592 3.61559 3.36121
# Velocity P-wave (km/s) = 5.22623 6.33155 5.80525
#
# Compressibility (1/GPa) = 0.03627754
#
# Stress axis : x y z
#
# Youngs Moduli (GPa) = 95.13441 37.29723 45.22944
#
# Poissons Ratio (x) = 0.08464 0.22481
# Poissons Ratio (y) = 0.21588 0.19620
# Poissons Ratio (z) = 0.47286 0.16179
#
# Static dielectric constant tensor:
#      x y z
#    x 3.429360 0.000000 0.094910 
#    y 0.000000 3.240090 0.000000 
#    z 0.094910 0.000000 3.794990 
# 
# 
# High freq. dielectric constant tensor:
#      x y z
#    x 1.721940 0.000000 0.016180 
#    y 0.000000 1.719820 0.000000 
#    z 0.016180 0.000000 1.737700 
# 
# From -- ./inp_files/92708.got.cif
#   From: 2010.06.25/outbox.cif.g09.slc.cpg/sg12_47_cif.got.tgz:92708.got - 2010.06.28 00:19:55.
