data_PCOD8090015
_publ_section_title
;
Structure prediction by ZEFSAII (Michael W. Deem and Ramdas Pophale) SiO2 
 PCOD8090015
Probable space group: C 2/M
;
_chemical_formula_sum "Si O2"
_cell_formula_units_Z 56
_cell_length_a 21.681308
_cell_length_b 8.764169
_cell_length_c 19.221285
_cell_angle_alpha 90.000000
_cell_angle_beta 53.359654
_cell_angle_gamma 90.000000
_cell_volume 2930.678450
_symmetry_space_group_name_H-M "C 2/M"
_symmetry_group_IT_number 12
_symmetry_cell_setting 'monoclinic'
loop_
_space_group_symop_operation_xyz
x,y,z
-x,y,-z
-x,-y,-z
x,-y,z
1/2+x,1/2+y,z
1/2-x,1/2+y,-z
1/2-x,1/2-y,-z
1/2+x,1/2-y,z
loop_
_atom_site_type_symbol
_atom_site_label
_atom_site_fract_x
_atom_site_fract_y
_atom_site_fract_z
Si Si1 0.200578 0.820081 0.939146
Si Si2 0.447770 0.681136 0.472078
Si Si3 0.135392 0.181229 0.725034
Si Si4 0.494257 0.319043 0.291684
Si Si5 0.577296 0.318985 0.913049
Si Si6 0.774536 0.181380 0.558127
Si Si7 0.850769 0.819557 0.875998
O O1 0.148493 0.763712 0.911162
O O2 0.282820 0.742228 0.873121
O O3 0.211529 0.000000 0.932497
O O4 0.161086 0.763456 0.037105
O O5 0.500000 0.749341 0.500000
O O6 0.447624 0.500000 0.477532
O O7 0.489311 0.738341 0.373973
O O8 0.358951 0.737326 0.527735
O O9 0.080869 0.234788 0.699028
O O10 0.094165 0.238791 0.823651
O O11 0.216637 0.263621 0.657630
O O12 0.148837 0.000000 0.717959
O O13 0.498577 0.500000 0.285126
O O14 0.569977 0.248278 0.205303
O O15 0.569317 0.500000 0.918116
O O16 0.500000 0.249261 0.000000
O O17 0.750000 0.250000 0.500000
O O18 0.773396 0.000000 0.550772
O O19 0.852235 0.000000 0.870533
#
# Coordination Sequence:
#
# PCOD8090015 Si02
#       7
#     8   8   8   8   8   8   8
#     4   9  17  30  46  70 100 129 163 209 263 309
#     4   9  18  32  51  76 104 133 169 218 264 305
#     4  10  19  33  55  80 104 137 179 222 266 315
#     4   9  16  29  49  72  95 127 174 213 248 302
#     4   9  17  30  51  77 104 134 173 219 261 309
#     4  11  21  36  58  82 109 141 179 224 272 324
#     4   9  17  29  49  70  93 130 172 211 251 308
#
# _framework density 19.108204000000001
#
# number of rings (size 3 to 8) (size 9 to 14) (size 15 to 20)
#    0.000    2.571    1.429    1.286    0.000    4.571 
#    0.000    2.857    0.000    5.143    0.000    0.000 
#    0.000    0.000    0.000    0.000    0.000    0.000 
#
# Total GULP energy -347074.142778 kJ/mol
# GULP energy per Si atom -12395.505099 kJ/mol
# Density = 1.906471 g / cm^3
# Si number density = 19.108204 Si / 1000 Ang^3
#
#
#
# Elastic Constant Matrix: (Units=GPa)
#
#
# Indices 1 2 3 4 5 6 
#
# 1 149.7168 16.9294 71.7279 -0.0001 0.9708 0.0002
# 2 16.9294 18.7458 17.8584 -0.0010 -3.1355 0.0010
# 3 71.7279 17.8584 136.7294 0.0000 -12.4083 -0.0002
# 4 -0.0001 -0.0010 0.0000 21.7403 0.0002 -5.1707
# 5 0.9708 -3.1355 -12.4083 0.0002 37.8699 -0.0002
# 6 0.0002 0.0010 -0.0002 -5.1707 -0.0002 22.1257
#
#
#
# Elastic Compliance Matrix: (Units=1/GPa)
#
#
# Indices 1 2 3 4 5 6 
#
# 1 0.009365 -0.004507 -0.004514 0.000000 -0.002092 0.000000
# 2 -0.004507 0.063328 -0.005587 0.000002 0.003528 -0.000002
# 3 -0.004514 -0.005587 0.010698 0.000000 0.003158 0.000000
# 4 0.000000 0.000002 0.000000 0.048704 0.000000 0.011382
# 5 -0.002092 0.003528 0.003158 0.000000 0.027787 0.000000
# 6 0.000000 -0.000002 0.000000 0.011382 0.000000 0.047856
#
#
# Mechanical properties :
#
#
# Convention : Reuss Voigt Hill
#
# Bulk Modulus (GPa) = 18.45857 57.58039 38.01948
# Shear Modulus (GPa) = 19.60679 29.59229 24.59954
#
# Velocity S-wave (km/s) = 3.20674 3.93958 3.59190
# Velocity P-wave (km/s) = 4.83652 7.13393 6.09446
#
# Compressibility (1/GPa) = 0.05417538
#
# Stress axis : x y z
#
# Youngs Moduli (GPa) = 106.77846 15.79074 93.47428
#
# Poissons Ratio (x) = 0.07117 0.42195
# Poissons Ratio (y) = 0.48128 0.52221
# Poissons Ratio (z) = 0.48201 0.08822
#
# Static dielectric constant tensor:
#      x y z
#    x 3.745350 0.000000 -0.070520 
#    y 0.000000 2.990610 0.000000 
#    z -0.070520 0.000000 3.777710 
# 
# 
# High freq. dielectric constant tensor:
#      x y z
#    x 1.751570 0.000000 -0.006770 
#    y 0.000000 1.688120 0.000000 
#    z -0.006770 0.000000 1.754590 
# 
# From -- ./inp_files/319697.got.cif
#   From: 2010.06.25/outbox.cif.g09.slc.cpg/sg12_160_cif.got.tgz:319697.got - 2010.06.28 00:19:55.
