data_PCOD8090330
_publ_section_title
;
Structure prediction by ZEFSAII (Michael W. Deem and Ramdas Pophale) SiO2 
 PCOD8090330
Probable space group: C 2/M
;
_chemical_formula_sum "Si O2"
_cell_formula_units_Z 64
_cell_length_a 20.765230
_cell_length_b 8.923565
_cell_length_c 21.534410
_cell_angle_alpha 90.000000
_cell_angle_beta 118.733069
_cell_angle_gamma 90.000000
_cell_volume 3498.990451
_symmetry_space_group_name_H-M "C 2/M"
_symmetry_group_IT_number 12
_symmetry_cell_setting 'monoclinic'
loop_
_space_group_symop_operation_xyz
x,y,z
-x,y,-z
-x,-y,-z
x,-y,z
1/2+x,1/2+y,z
1/2-x,1/2+y,-z
1/2-x,1/2-y,-z
1/2+x,1/2-y,z
loop_
_atom_site_type_symbol
_atom_site_label
_atom_site_fract_x
_atom_site_fract_y
_atom_site_fract_z
Si Si1 0.083284 0.327845 0.793779
Si Si2 0.535776 0.324905 0.952600
Si Si3 0.091978 0.321974 0.425862
Si Si4 0.329313 0.822653 0.661982
Si Si5 0.328077 0.174750 0.045542
Si Si6 0.427874 0.825371 0.348927
Si Si7 0.827987 0.321557 0.412746
Si Si8 0.450223 0.673868 0.790595
O O1 0.056674 0.500000 0.788624
O O2 0.148229 0.292409 0.872274
O O3 0.110054 0.296621 0.735862
O O4 0.014102 0.221968 0.773178
O O5 0.555062 0.500000 0.964501
O O6 0.611818 0.239642 0.974314
O O7 0.475685 0.289556 0.872197
O O8 0.500000 0.267560 0.000000
O O9 0.088494 0.500000 0.422069
O O10 0.133396 0.262363 0.384006
O O11 0.135752 0.266042 0.506444
O O12 0.009575 0.254563 0.389182
O O13 0.250345 0.751361 0.631162
O O14 0.377060 0.767793 0.742770
O O15 0.322737 0.000000 0.660090
O O16 0.320499 0.000000 0.028580
O O17 0.250000 0.250000 0.000000
O O18 0.377229 0.756541 0.379192
O O19 0.435691 0.000000 0.366410
O O20 0.820228 0.500000 0.406951
O O21 0.433090 0.500000 0.773306
#
# Coordination Sequence:
#
# PCOD8090330 Si02
#       8
#     8   8   8   8   8   8   8   8
#     4   9  17  33  56  79 103 138 177 211 257 313
#     4   9  19  37  59  82 108 137 173 221 272 321
#     4   9  17  31  55  79  98 133 178 218 259 310
#     4  11  21  35  53  73 107 144 174 211 262 316
#     4  10  20  34  55  81 111 145 180 217 259 312
#     4   9  16  31  55  79 102 131 172 217 259 306
#     4  10  20  33  52  79 106 132 174 224 263 305
#     4  10  19  33  56  82 104 133 176 219 257 306
#
# _framework density 18.290991000000002
#
# number of rings (size 3 to 8) (size 9 to 14) (size 15 to 20)
#    0.000    2.375    1.250    1.875    0.000    2.750 
#    2.250    1.250    0.000    0.750    0.000    0.000 
#    0.000    0.000    0.000    0.000    0.000    0.000 
#
# Total GULP energy -396795.274263 kJ/mol
# GULP energy per Si atom -12399.852321 kJ/mol
# Density = 1.824936 g / cm^3
# Si number density = 18.290991 Si / 1000 Ang^3
#
#
#
# Elastic Constant Matrix: (Units=GPa)
#
#
# Indices 1 2 3 4 5 6 
#
# 1 139.3793 35.9054 72.5816 0.0000 9.6676 0.0000
# 2 35.9054 44.1055 33.9522 0.0000 6.1891 0.0000
# 3 72.5816 33.9522 117.3975 0.0000 9.6751 0.0000
# 4 0.0000 0.0000 0.0000 19.1232 0.0000 4.1264
# 5 9.6676 6.1891 9.6751 0.0000 32.7377 0.0000
# 6 0.0000 0.0000 0.0000 4.1264 0.0000 29.2348
#
#
#
# Elastic Compliance Matrix: (Units=1/GPa)
#
#
# Indices 1 2 3 4 5 6 
#
# 1 0.011381 -0.004872 -0.005562 0.000000 -0.000796 0.000000
# 2 -0.004872 0.031561 -0.005886 0.000000 -0.002788 0.000000
# 3 -0.005562 -0.005886 0.013767 0.000000 -0.001314 0.000000
# 4 0.000000 0.000000 0.000000 0.053935 0.000000 -0.007613
# 5 -0.000796 -0.002788 -0.001314 0.000000 0.031696 0.000000
# 6 0.000000 0.000000 0.000000 -0.007613 0.000000 0.035280
#
#
# Mechanical properties :
#
#
# Convention : Reuss Voigt Hill
#
# Bulk Modulus (GPa) = 41.54494 65.08453 53.31474
# Shear Modulus (GPa) = 22.90589 26.78201 24.84395
#
# Velocity S-wave (km/s) = 3.54263 3.83066 3.68946
# Velocity P-wave (km/s) = 6.28461 7.43138 6.88192
#
# Compressibility (1/GPa) = 0.02407032
#
# Stress axis : x y z
#
# Youngs Moduli (GPa) = 87.86305 31.68445 72.63633
#
# Poissons Ratio (x) = 0.15437 0.40400
# Poissons Ratio (y) = 0.42807 0.42752
# Poissons Ratio (z) = 0.48869 0.18649
#
# Static dielectric constant tensor:
#      x y z
#    x 3.397990 0.000000 -0.092200 
#    y 0.000000 3.161950 0.000000 
#    z -0.092200 0.000000 3.623040 
# 
# 
# High freq. dielectric constant tensor:
#      x y z
#    x 1.703030 0.000000 0.000450 
#    y 0.000000 1.685240 0.000000 
#    z 0.000450 0.000000 1.721070 
# 
# From -- ./inp_files/320179.got.cif
#   From: 2010.06.25/outbox.cif.g09.slc.cpg/sg12_161_cif.got.tgz:320179.got - 2010.06.28 00:19:55.
