data_PCOD8090609
_publ_section_title
;
Structure prediction by ZEFSAII (Michael W. Deem and Ramdas Pophale) SiO2 
 PCOD8090609
Probable space group: C 2/M
;
_chemical_formula_sum "Si O2"
_cell_formula_units_Z 52
_cell_length_a 19.934974
_cell_length_b 12.137169
_cell_length_c 15.014549
_cell_angle_alpha 90.000000
_cell_angle_beta 49.592827
_cell_angle_gamma 90.000000
_cell_volume 2766.246262
_symmetry_space_group_name_H-M "C 2/M"
_symmetry_group_IT_number 12
_symmetry_cell_setting 'monoclinic'
loop_
_space_group_symop_operation_xyz
x,y,z
-x,y,-z
-x,-y,-z
x,-y,z
1/2+x,1/2+y,z
1/2-x,1/2+y,-z
1/2-x,1/2-y,-z
1/2+x,1/2-y,z
loop_
_atom_site_type_symbol
_atom_site_label
_atom_site_fract_x
_atom_site_fract_y
_atom_site_fract_z
Si Si1 0.508564 0.000000 0.370596
Si Si2 0.249007 0.128054 0.265595
Si Si3 0.200203 0.262904 0.134712
Si Si4 0.500652 0.217106 0.271397
Si Si5 0.671320 0.000000 0.419200
Si Si6 0.952877 0.373196 0.129978
Si Si7 0.323663 0.238363 0.509814
Si Si8 0.204642 0.500000 0.206590
O O1 0.495206 0.902616 0.314136
O O2 0.434963 0.000000 0.511496
O O3 0.604781 0.000000 0.327657
O O4 0.237117 0.182751 0.178880
O O5 0.348945 0.140254 0.209941
O O6 0.189322 0.190083 0.389658
O O7 0.221187 0.000000 0.283560
O O8 0.224144 0.389933 0.135914
O O9 0.096759 0.232866 0.211994
O O10 0.250000 0.250000 0.000000
O O11 0.487759 0.208869 0.176249
O O12 0.418219 0.280086 0.388958
O O13 0.685939 0.109109 0.463258
O O14 0.742134 0.000000 0.275576
O O15 0.978666 0.500000 0.127959
O O16 0.000000 0.332508 0.000000
O O17 0.250000 0.250000 0.500000
#
# Coordination Sequence:
#
# PCOD8090609 Si02
#       8
#     4   8   8   8   4   8   8   4
#     4   8  17  28  55  84 112 133 183 252 317 328
#     4  11  24  40  61  89 125 161 200 244 302 364
#     4  11  24  40  60  88 122 161 197 244 301 353
#     4  10  19  35  58  85 116 152 198 245 301 349
#     4  10  19  34  58  83 118 143 190 250 299 354
#     4  10  19  33  57  88 117 149 197 258 310 346
#     4  11  22  37  61  89 119 154 194 249 308 351
#     4  10  19  36  58  85 112 148 198 244 293 348
#
# _framework density 18.798037999999998
#
# number of rings (size 3 to 8) (size 9 to 14) (size 15 to 20)
#    0.000    1.692    3.846    1.154    2.154    0.615 
#    0.000    1.538    0.000    0.000    0.000    3.231 
#    0.000    0.000    0.000    0.000    0.000    0.000 
#
# Total GULP energy -322100.032336 kJ/mol
# GULP energy per Si atom -12388.462782 kJ/mol
# Density = 1.875525 g / cm^3
# Si number density = 18.798038 Si / 1000 Ang^3
#
#
#
# Elastic Constant Matrix: (Units=GPa)
#
#
# Indices 1 2 3 4 5 6 
#
# 1 48.6081 17.6097 8.0386 0.0000 8.1114 0.0000
# 2 17.6097 94.3249 27.7676 0.0000 8.1006 0.0000
# 3 8.0386 27.7676 119.4041 0.0000 16.0341 0.0000
# 4 0.0000 0.0000 0.0000 88.0946 0.0000 97.6280
# 5 8.1114 8.1006 16.0341 0.0000 35.9146 0.0000
# 6 0.0000 0.0000 0.0000 97.6280 0.0000 180.8783
#
#
#
# Elastic Compliance Matrix: (Units=1/GPa)
#
#
# Indices 1 2 3 4 5 6 
#
# 1 0.022684 -0.003853 -0.000064 0.000000 -0.004226 0.000000
# 2 -0.003853 0.012109 -0.002454 0.000000 -0.000765 0.000000
# 3 -0.000064 -0.002454 0.009439 0.000000 -0.003646 0.000000
# 4 0.000000 0.000000 0.000000 0.028248 0.000000 -0.015247
# 5 -0.004226 -0.000765 -0.003646 0.000000 0.030599 0.000000
# 6 0.000000 0.000000 0.000000 -0.015247 0.000000 0.013758
#
#
# Mechanical properties :
#
#
# Convention : Reuss Voigt Hill
#
# Bulk Modulus (GPa) = 31.75461 41.01877 36.38669
# Shear Modulus (GPa) = 35.69469 74.90557 55.30013
#
# Velocity S-wave (km/s) = 4.36231 6.31934 5.42972
# Velocity P-wave (km/s) = 6.50401 8.66681 7.66211
#
# Compressibility (1/GPa) = 0.03149149
#
# Stress axis : x y z
#
# Youngs Moduli (GPa) = 44.08314 82.58225 105.93788
#
# Poissons Ratio (x) = 0.31822 0.00674
# Poissons Ratio (y) = 0.16987 0.25995
# Poissons Ratio (z) = 0.00280 0.20264
#
# Static dielectric constant tensor:
#      x y z
#    x 3.593160 0.000000 -0.060570 
#    y 0.000000 3.286820 0.000000 
#    z -0.060570 0.000000 3.727080 
# 
# 
# High freq. dielectric constant tensor:
#      x y z
#    x 1.734260 0.000000 0.013160 
#    y 0.000000 1.704530 0.000000 
#    z 0.013160 0.000000 1.750320 
# 
# From -- ./inp_files/232360.got.cif
#   From: 2010.06.25/outbox.cif.g09.slc.cpg/sg12_117_cif.got.tgz:232360.got - 2010.06.28 00:19:55.
