data_PCOD8090272
_publ_section_title
;
Structure prediction by ZEFSAII (Michael W. Deem and Ramdas Pophale) SiO2 
 PCOD8090272
Probable space group: C 2/M
;
_chemical_formula_sum "Si O2"
_cell_formula_units_Z 64
_cell_length_a 18.221875
_cell_length_b 9.114698
_cell_length_c 21.190066
_cell_angle_alpha 90.000000
_cell_angle_beta 102.684704
_cell_angle_gamma 90.000000
_cell_volume 3433.495013
_symmetry_space_group_name_H-M "C 2/M"
_symmetry_group_IT_number 12
_symmetry_cell_setting 'monoclinic'
loop_
_space_group_symop_operation_xyz
x,y,z
-x,y,-z
-x,-y,-z
x,-y,z
1/2+x,1/2+y,z
1/2-x,1/2+y,-z
1/2-x,1/2-y,-z
1/2+x,1/2-y,z
loop_
_atom_site_type_symbol
_atom_site_label
_atom_site_fract_x
_atom_site_fract_y
_atom_site_fract_z
Si Si1 0.436141 0.673761 0.570236
Si Si2 0.621309 0.674550 0.308970
Si Si3 0.499288 0.325481 0.814348
Si Si4 0.775936 0.172518 0.941704
Si Si5 0.441148 0.325568 0.937755
Si Si6 0.102647 0.826414 0.574171
Si Si7 0.345920 0.171897 0.186155
Si Si8 0.287334 0.173589 0.311213
O O1 0.437978 0.500000 0.572702
O O2 0.394279 0.738265 0.623801
O O3 0.392628 0.722089 0.498507
O O4 0.522478 0.727774 0.586198
O O5 0.619776 0.500000 0.309415
O O6 0.556423 0.733043 0.250395
O O7 0.701683 0.730602 0.299624
O O8 0.506321 0.500000 0.814814
O O9 0.466189 0.267760 0.874163
O O10 0.580982 0.259839 0.819801
O O11 0.858108 0.233161 0.938290
O O12 0.720154 0.212620 0.874518
O O13 0.778268 0.000000 0.954918
O O14 0.750000 0.250000 0.000000
O O15 0.440735 0.500000 0.937988
O O16 0.500000 0.263402 0.000000
O O17 0.167917 0.744867 0.623187
O O18 0.112704 0.000000 0.584033
O O19 0.320542 0.224356 0.250617
O O20 0.363784 0.000000 0.188484
O O21 0.291140 0.000000 0.319413
#
# Coordination Sequence:
#
# PCOD8090272 Si02
#       8
#     8   8   8   8   8   8   8   8
#     4   8  15  29  49  71  96 126 161 205 250 288
#     4   9  17  30  49  72  96 126 166 205 241 289
#     4  10  19  33  56  78  94 125 174 212 237 284
#     4  10  20  35  54  76 104 135 166 202 245 291
#     4   9  17  30  50  76 102 126 159 204 243 276
#     4   9  17  31  51  73  96 125 163 205 248 291
#     4  10  21  35  50  72 104 134 157 196 256 301
#     4  10  20  33  49  71 101 133 162 197 246 299
#
# _framework density 18.639899
#
# number of rings (size 3 to 8) (size 9 to 14) (size 15 to 20)
#    0.000    2.625    0.000    3.000    0.000    6.500 
#    0.000    2.500    0.000    5.250    0.000    0.000 
#    0.000    0.000    0.000    0.000    0.000    0.000 
#
# Total GULP energy -396779.840106 kJ/mol
# GULP energy per Si atom -12399.370003 kJ/mol
# Density = 1.859747 g / cm^3
# Si number density = 18.639899 Si / 1000 Ang^3
#
#
#
# Elastic Constant Matrix: (Units=GPa)
#
#
# Indices 1 2 3 4 5 6 
#
# 1 175.7254 31.7638 96.0748 0.0000 -3.6663 0.0000
# 2 31.7638 18.5095 29.4634 0.0000 1.9319 0.0000
# 3 96.0748 29.4634 167.3234 0.0000 -2.9370 0.0000
# 4 0.0000 0.0000 0.0000 21.1719 0.0000 4.9532
# 5 -3.6663 1.9319 -2.9370 0.0000 42.3871 0.0000
# 6 0.0000 0.0000 0.0000 4.9532 0.0000 23.5281
#
#
#
# Elastic Compliance Matrix: (Units=1/GPa)
#
#
# Indices 1 2 3 4 5 6 
#
# 1 0.009663 -0.010969 -0.003598 0.000000 0.001086 0.000000
# 2 -0.010969 0.088325 -0.009353 0.000000 -0.005623 0.000000
# 3 -0.003598 -0.009353 0.009703 0.000000 0.000787 0.000000
# 4 0.000000 0.000000 0.000000 0.049679 0.000000 -0.010459
# 5 0.001086 -0.005623 0.000787 0.000000 0.023997 0.000000
# 6 0.000000 0.000000 0.000000 -0.010459 0.000000 0.044704
#
#
# Mechanical properties :
#
#
# Convention : Reuss Voigt Hill
#
# Bulk Modulus (GPa) = 16.70811 75.12914 45.91863
# Shear Modulus (GPa) = 17.01472 31.03451 24.02462
#
# Velocity S-wave (km/s) = 3.02456 4.08481 3.59399
# Velocity P-wave (km/s) = 4.60221 7.91458 6.47383
#
# Compressibility (1/GPa) = 0.05985118
#
# Stress axis : x y z
#
# Youngs Moduli (GPa) = 103.48533 11.32176 103.05956
#
# Poissons Ratio (x) = 0.12419 0.37080
# Poissons Ratio (y) = 1.13514 0.96395
# Poissons Ratio (z) = 0.37233 0.10590
#
# Static dielectric constant tensor:
#      x y z
#    x 3.643290 0.000000 -0.135690 
#    y 0.000000 2.934470 0.000000 
#    z -0.135690 0.000000 3.753140 
# 
# 
# High freq. dielectric constant tensor:
#      x y z
#    x 1.735820 0.000000 -0.002170 
#    y 0.000000 1.671900 0.000000 
#    z -0.002170 0.000000 1.743640 
# 
# From -- ./inp_files/309960.got.cif
#   From: 2010.06.25/outbox.cif.g09.slc.cpg/sg12_155_cif.got.tgz:309960.got - 2010.06.28 00:19:55.
