data_PCOD8090296
_publ_section_title
;
Structure prediction by ZEFSAII (Michael W. Deem and Ramdas Pophale) SiO2 
 PCOD8090296
Probable space group: C 2/M
;
_chemical_formula_sum "Si O2"
_cell_formula_units_Z 40
_cell_length_a 13.995046
_cell_length_b 14.012887
_cell_length_c 12.754080
_cell_angle_alpha 90.000000
_cell_angle_beta 125.387021
_cell_angle_gamma 90.000000
_cell_volume 2039.138326
_symmetry_space_group_name_H-M "C 2/M"
_symmetry_group_IT_number 12
_symmetry_cell_setting 'monoclinic'
loop_
_space_group_symop_operation_xyz
x,y,z
-x,y,-z
-x,-y,-z
x,-y,z
1/2+x,1/2+y,z
1/2-x,1/2+y,-z
1/2-x,1/2-y,-z
1/2+x,1/2-y,z
loop_
_atom_site_type_symbol
_atom_site_label
_atom_site_fract_x
_atom_site_fract_y
_atom_site_fract_z
Si Si1 0.077826 0.250286 0.951424
Si Si2 0.442730 0.263459 0.658684
Si Si3 0.268669 0.886687 0.483073
Si Si4 0.277660 0.104943 0.082959
Si Si5 0.398303 0.144917 0.366606
O O1 0.152635 0.342489 0.965420
O O2 0.998001 0.213071 0.805812
O O3 0.162342 0.164187 0.040116
O O4 0.000000 0.281296 0.000000
O O5 0.364946 0.165667 0.617478
O O6 0.362265 0.352059 0.570422
O O7 0.545686 0.246322 0.637327
O O8 0.288535 0.847891 0.376001
O O9 0.278817 0.000000 0.501578
O O10 0.358611 0.090226 0.237182
O O11 0.242073 0.000000 0.019843
O O12 0.500000 0.090539 0.500000
#
# Coordination Sequence:
#
# PCOD8090296 Si02
#       5
#     8   8   8   8   8
#     4  10  21  36  53  73 104 142 172 206 254 301
#     4   9  20  34  51  78 108 132 167 214 256 301
#     4  10  19  33  56  81 102 130 170 213 257 305
#     4  10  21  35  52  78 105 132 174 215 248 301
#     4   9  18  32  54  78 103 130 163 210 261 300
#
# _framework density 19.616128
#
# number of rings (size 3 to 8) (size 9 to 14) (size 15 to 20)
#    0.000    2.400    0.000    1.800    0.000   12.800 
#    0.000    0.000    0.000   15.000    0.000    0.000 
#    0.000    0.000    0.000    0.000    0.000    0.000 
#
# Total GULP energy -247797.719833 kJ/mol
# GULP energy per Si atom -12389.885992 kJ/mol
# Density = 1.957148 g / cm^3
# Si number density = 19.616128 Si / 1000 Ang^3
#
#
#
# Elastic Constant Matrix: (Units=GPa)
#
#
# Indices 1 2 3 4 5 6 
#
# 1 88.1181 46.1656 19.1090 0.0000 -4.0603 0.0000
# 2 46.1656 120.7118 38.5465 0.0000 3.5274 0.0000
# 3 19.1090 38.5465 95.8952 0.0000 3.0524 0.0000
# 4 0.0000 0.0000 0.0000 9.4655 0.0000 1.3875
# 5 -4.0603 3.5274 3.0524 0.0000 22.5236 0.0000
# 6 0.0000 0.0000 0.0000 1.3875 0.0000 8.9244
#
#
#
# Elastic Compliance Matrix: (Units=1/GPa)
#
#
# Indices 1 2 3 4 5 6 
#
# 1 0.014519 -0.005388 -0.000841 0.000000 0.003575 0.000000
# 2 -0.005388 0.011525 -0.003486 0.000000 -0.002304 0.000000
# 3 -0.000841 -0.003486 0.012036 0.000000 -0.001237 0.000000
# 4 0.000000 0.000000 0.000000 0.108111 0.000000 -0.016808
# 5 0.003575 -0.002304 -0.001237 0.000000 0.045571 0.000000
# 6 0.000000 0.000000 0.000000 -0.016808 0.000000 0.114665
#
#
# Mechanical properties :
#
#
# Convention : Reuss Voigt Hill
#
# Bulk Modulus (GPa) = 53.61977 56.92971 55.27474
# Shear Modulus (GPa) = 15.05689 21.57631 18.31660
#
# Velocity S-wave (km/s) = 2.77352 3.32011 3.05905
# Velocity P-wave (km/s) = 6.13600 6.61683 6.38094
#
# Compressibility (1/GPa) = 0.01864984
#
# Stress axis : x y z
#
# Youngs Moduli (GPa) = 68.87739 86.76495 83.08327
#
# Poissons Ratio (x) = 0.46753 0.06987
# Poissons Ratio (y) = 0.37114 0.28960
# Poissons Ratio (z) = 0.05792 0.30244
#
# Static dielectric constant tensor:
#      x y z
#    x 3.702950 0.000000 0.068210 
#    y 0.000000 3.257860 0.000000 
#    z 0.068210 0.000000 3.634070 
# 
# 
# High freq. dielectric constant tensor:
#      x y z
#    x 1.764730 0.000000 0.011060 
#    y 0.000000 1.734450 0.000000 
#    z 0.011060 0.000000 1.764710 
# 
# From -- ./inp_files/141840.got.cif
#   From: 2010.06.25/outbox.cif.g09.slc.cpg/sg12_71_cif.got.tgz:141840.got - 2010.06.28 00:19:55.
