data_PCOD8090089
_publ_section_title
;
Structure prediction by ZEFSAII (Michael W. Deem and Ramdas Pophale) SiO2 
 PCOD8090089
Probable space group: C 2/M
;
_chemical_formula_sum "Si O2"
_cell_formula_units_Z 56
_cell_length_a 20.467980
_cell_length_b 10.954733
_cell_length_c 25.070548
_cell_angle_alpha 90.000000
_cell_angle_beta 28.928489
_cell_angle_gamma 90.000000
_cell_volume 2719.145972
_symmetry_space_group_name_H-M "C 2/M"
_symmetry_group_IT_number 12
_symmetry_cell_setting 'monoclinic'
loop_
_space_group_symop_operation_xyz
x,y,z
-x,y,-z
-x,-y,-z
x,-y,z
1/2+x,1/2+y,z
1/2-x,1/2+y,-z
1/2-x,1/2-y,-z
1/2+x,1/2-y,z
loop_
_atom_site_type_symbol
_atom_site_label
_atom_site_fract_x
_atom_site_fract_y
_atom_site_fract_z
Si Si1 0.383477 0.272389 0.978807
Si Si2 0.956539 0.266070 0.320560
Si Si3 0.152364 0.869687 0.104932
Si Si4 0.880771 0.360270 0.543616
Si Si5 0.667019 0.360900 0.783922
Si Si6 0.322227 0.361805 0.507365
Si Si7 0.706014 0.861496 0.198352
O O1 0.361350 0.375693 0.949367
O O2 0.543773 0.264183 0.874366
O O3 0.310633 0.153792 0.005538
O O4 0.311586 0.290430 0.086496
O O5 0.840056 0.353466 0.380797
O O6 0.886869 0.153672 0.402118
O O7 0.048978 0.225841 0.204896
O O8 0.050673 0.337161 0.295306
O O9 0.112966 0.000000 0.156885
O O10 0.894200 0.500000 0.509639
O O11 0.738787 0.350628 0.675773
O O12 0.881368 0.249565 0.500833
O O13 0.000000 0.338094 0.500000
O O14 0.614509 0.500000 0.830430
O O15 0.772103 0.324515 0.755552
O O16 0.357378 0.500000 0.503029
O O17 0.741890 0.000000 0.162968
#
# Coordination Sequence:
#
# PCOD8090089 Si02
#       7
#     8   8   8   8   8   8   8
#     4  10  20  32  52  82 108 137 178 226 278 331
#     4  10  22  37  56  81 113 151 189 229 282 346
#     4  10  20  36  55  76 109 148 184 225 278 338
#     4  10  22  40  61  85 115 154 196 237 286 344
#     4  10  19  33  55  81 110 144 183 229 283 337
#     4  11  23  38  59  87 117 150 192 242 292 341
#     4  10  19  33  55  81 110 142 181 232 280 329
#
# _framework density 20.594701000000001
#
# number of rings (size 3 to 8) (size 9 to 14) (size 15 to 20)
#    0.000    1.857    0.000    4.286    0.000    7.143 
#    0.000    5.714    0.000    8.571    0.000    0.000 
#    0.000    0.000    0.000    0.000    0.000    0.000 
#
# Total GULP energy -346926.358299 kJ/mol
# GULP energy per Si atom -12390.227082 kJ/mol
# Density = 2.054783 g / cm^3
# Si number density = 20.594701 Si / 1000 Ang^3
#
#
#
# Elastic Constant Matrix: (Units=GPa)
#
#
# Indices 1 2 3 4 5 6 
#
# 1 77.5867 33.6407 5.6538 -0.0010 -5.3149 0.0005
# 2 33.6407 95.8336 15.0177 -0.0006 6.5153 0.0010
# 3 5.6538 15.0177 68.7085 -0.0027 0.2343 0.0023
# 4 -0.0010 -0.0006 -0.0027 18.5290 0.0006 1.4839
# 5 -5.3149 6.5153 0.2343 0.0006 34.8571 -0.0006
# 6 0.0005 0.0010 0.0023 1.4839 -0.0006 16.7702
#
#
#
# Elastic Compliance Matrix: (Units=1/GPa)
#
#
# Indices 1 2 3 4 5 6 
#
# 1 0.015601 -0.005703 -0.000049 0.000001 0.003445 0.000000
# 2 -0.005703 0.013031 -0.002368 0.000000 -0.003289 0.000000
# 3 -0.000049 -0.002368 0.015075 0.000002 0.000334 -0.000002
# 4 0.000001 0.000000 0.000002 0.054354 -0.000001 -0.004809
# 5 0.003445 -0.003289 0.000334 -0.000001 0.029826 0.000001
# 6 0.000000 0.000000 -0.000002 -0.004809 0.000001 0.060055
#
#
# Mechanical properties :
#
#
# Convention : Reuss Voigt Hill
#
# Bulk Modulus (GPa) = 36.40658 38.97256 37.68957
# Shear Modulus (GPa) = 23.43691 26.55238 24.99464
#
# Velocity S-wave (km/s) = 3.37710 3.59455 3.48752
# Velocity P-wave (km/s) = 5.73780 6.01601 5.87855
#
# Compressibility (1/GPa) = 0.02746756
#
# Stress axis : x y z
#
# Youngs Moduli (GPa) = 64.09782 76.73777 66.33643
#
# Poissons Ratio (x) = 0.43764 0.00325
# Poissons Ratio (y) = 0.36555 0.15707
# Poissons Ratio (z) = 0.00314 0.18170
#
# Static dielectric constant tensor:
#      x y z
#    x 3.832340 0.000000 -0.081130 
#    y 0.000000 3.435770 0.000010 
#    z -0.081130 0.000010 3.763590 
# 
# 
# High freq. dielectric constant tensor:
#      x y z
#    x 1.808290 0.000000 -0.001850 
#    y 0.000000 1.768620 0.000000 
#    z -0.001850 0.000000 1.820560 
# 
# From -- ./inp_files/346982.got.cif
#   From: 2010.06.25/outbox.cif.g09.slc.cpg/sg12_174_cif.got.tgz:346982.got - 2010.06.28 00:19:55.
