data_PCOD8090180
_publ_section_title
;
Structure prediction by ZEFSAII (Michael W. Deem and Ramdas Pophale) SiO2 
 PCOD8090180
Probable space group: C 2/M
;
_chemical_formula_sum "Si O2"
_cell_formula_units_Z 56
_cell_length_a 15.185310
_cell_length_b 9.100186
_cell_length_c 21.822844
_cell_angle_alpha 90.000000
_cell_angle_beta 101.515410
_cell_angle_gamma 90.000000
_cell_volume 2954.977683
_symmetry_space_group_name_H-M "C 2/M"
_symmetry_group_IT_number 12
_symmetry_cell_setting 'monoclinic'
loop_
_space_group_symop_operation_xyz
x,y,z
-x,y,-z
-x,-y,-z
x,-y,z
1/2+x,1/2+y,z
1/2-x,1/2+y,-z
1/2-x,1/2-y,-z
1/2+x,1/2-y,z
loop_
_atom_site_type_symbol
_atom_site_label
_atom_site_fract_x
_atom_site_fract_y
_atom_site_fract_z
Si Si1 0.897906 0.827836 0.496948
Si Si2 0.911080 0.326623 0.149800
Si Si3 0.113324 0.329761 0.381012
Si Si4 0.432996 0.827137 0.292673
Si Si5 0.047424 0.673220 0.066644
Si Si6 0.697160 0.330379 0.638871
Si Si7 0.254131 0.174892 0.934778
O O1 0.861931 0.750267 0.552688
O O2 0.841289 0.771572 0.431045
O O3 0.000000 0.781201 0.500000
O O4 0.886412 0.000000 0.505334
O O5 0.892111 0.500000 0.139347
O O6 0.936556 0.283644 0.222222
O O7 0.822827 0.237135 0.119413
O O8 0.994663 0.273168 0.119712
O O9 0.101202 0.500000 0.394914
O O10 0.195589 0.306436 0.345187
O O11 0.023183 0.265004 0.337530
O O12 0.344925 0.757555 0.310682
O O13 0.427059 0.000000 0.300205
O O14 0.039781 0.500000 0.060824
O O15 0.151574 0.719596 0.083973
O O16 0.000000 0.743499 0.000000
O O17 0.670706 0.500000 0.643461
O O18 0.244783 0.000000 0.941183
O O19 0.250000 0.250000 0.000000
#
# Coordination Sequence:
#
# PCOD8090180 Si02
#       7
#     8   8   8   8   8   8   8
#     4  10  19  33  55  83 112 145 180 228 291 334
#     4  10  21  39  58  79 112 147 184 228 273 329
#     4  10  21  36  56  82 109 144 191 234 272 325
#     4  10  22  38  56  79 109 147 186 229 277 323
#     4   9  17  33  58  83 108 144 180 214 268 329
#     4  10  21  37  57  81 112 146 185 231 278 332
#     4  11  21  35  59  88 113 143 181 223 273 326
#
# _framework density 18.951073999999998
#
# number of rings (size 3 to 8) (size 9 to 14) (size 15 to 20)
#    0.000    2.000    2.857    0.857    0.000    3.143 
#    0.000    5.000    0.000    0.000    0.000    0.000 
#    0.000    0.000    0.000    0.000    0.000    0.000 
#
# Total GULP energy -347244.550836 kJ/mol
# GULP energy per Si atom -12401.591101 kJ/mol
# Density = 1.890794 g / cm^3
# Si number density = 18.951074 Si / 1000 Ang^3
#
#
#
# Elastic Constant Matrix: (Units=GPa)
#
#
# Indices 1 2 3 4 5 6 
#
# 1 122.8140 33.8995 54.3102 0.0000 -16.9192 0.0000
# 2 33.8995 39.5648 38.8506 0.0000 -4.7348 0.0000
# 3 54.3102 38.8506 129.1352 0.0000 -20.9344 0.0000
# 4 0.0000 0.0000 0.0000 27.6555 0.0000 -1.5014
# 5 -16.9192 -4.7348 -20.9344 0.0000 28.8182 0.0000
# 6 0.0000 0.0000 0.0000 -1.5014 0.0000 29.0542
#
#
#
# Elastic Compliance Matrix: (Units=1/GPa)
#
#
# Indices 1 2 3 4 5 6 
#
# 1 0.011676 -0.007590 -0.001947 0.000000 0.004194 0.000000
# 2 -0.007590 0.040931 -0.009923 0.000000 -0.004940 0.000000
# 3 -0.001947 -0.009923 0.012580 0.000000 0.006365 0.000000
# 4 0.000000 0.000000 0.000000 0.036261 0.000000 0.001874
# 5 0.004194 -0.004940 0.006365 0.000000 0.040974 0.000000
# 6 0.000000 0.000000 0.000000 0.001874 0.000000 0.034515
#
#
# Mechanical properties :
#
#
# Convention : Reuss Voigt Hill
#
# Bulk Modulus (GPa) = 38.07135 60.62604 49.34869
# Shear Modulus (GPa) = 22.26041 28.06915 25.16478
#
# Velocity S-wave (km/s) = 3.43100 3.85273 3.64796
# Velocity P-wave (km/s) = 5.98570 7.20081 6.62119
#
# Compressibility (1/GPa) = 0.02626647
#
# Stress axis : x y z
#
# Youngs Moduli (GPa) = 85.64309 24.43138 79.49213
#
# Poissons Ratio (x) = 0.18544 0.15479
# Poissons Ratio (y) = 0.65007 0.78877
# Poissons Ratio (z) = 0.16677 0.24242
#
# Static dielectric constant tensor:
#      x y z
#    x 3.778150 0.000000 0.040370 
#    y 0.000000 3.265360 0.000000 
#    z 0.040370 0.000000 3.524500 
# 
# 
# High freq. dielectric constant tensor:
#      x y z
#    x 1.751170 0.000000 -0.003550 
#    y 0.000000 1.713140 0.000000 
#    z -0.003550 0.000000 1.734290 
# 
# From -- ./inp_files/309073.got.cif
#   From: 2010.06.25/outbox.cif.g09.slc.cpg/sg12_155_cif.got.tgz:309073.got - 2010.06.28 00:19:55.
