data_PCOD8090546
_publ_section_title
;
Structure prediction by ZEFSAII (Michael W. Deem and Ramdas Pophale) SiO2 
 PCOD8090546
Probable space group: C 2/M
;
_chemical_formula_sum "Si O2"
_cell_formula_units_Z 64
_cell_length_a 20.203716
_cell_length_b 9.088901
_cell_length_c 19.237727
_cell_angle_alpha 90.000000
_cell_angle_beta 82.313706
_cell_angle_gamma 90.000000
_cell_volume 3500.875860
_symmetry_space_group_name_H-M "C 2/M"
_symmetry_group_IT_number 12
_symmetry_cell_setting 'monoclinic'
loop_
_space_group_symop_operation_xyz
x,y,z
-x,y,-z
-x,-y,-z
x,-y,z
1/2+x,1/2+y,z
1/2-x,1/2+y,-z
1/2-x,1/2-y,-z
1/2+x,1/2-y,z
loop_
_atom_site_type_symbol
_atom_site_label
_atom_site_fract_x
_atom_site_fract_y
_atom_site_fract_z
Si Si1 0.397454 0.167739 0.672892
Si Si2 0.396286 0.167657 0.829487
Si Si3 0.831463 0.828924 0.421325
Si Si4 0.300726 0.329579 0.584930
Si Si5 0.448278 0.172251 0.327993
Si Si6 0.929344 0.168008 0.040428
Si Si7 0.529979 0.331481 0.812655
Si Si8 0.817513 0.330520 0.974472
O O1 0.370488 0.194783 0.754822
O O2 0.358508 0.276400 0.628048
O O3 0.476126 0.204872 0.658533
O O4 0.384661 0.000000 0.651114
O O5 0.455606 0.277408 0.840552
O O6 0.336140 0.196855 0.891171
O O7 0.423429 0.000000 0.831760
O O8 0.767582 0.758953 0.391488
O O9 0.826561 0.801084 0.503854
O O10 0.899220 0.751267 0.388264
O O11 0.834044 0.000000 0.401664
O O12 0.285966 0.500000 0.600671
O O13 0.436193 0.235234 0.252491
O O14 0.432809 0.000000 0.329182
O O15 0.926402 0.184253 0.124047
O O16 0.915024 0.000000 0.019964
O O17 0.874240 0.273963 0.017521
O O18 0.000000 0.219827 0.000000
O O19 0.526320 0.500000 0.788315
O O20 0.806733 0.500000 0.991899
O O21 0.750000 0.250000 0.000000
#
# Coordination Sequence:
#
# PCOD8090546 Si02
#       8
#     8   8   8   8   8   8   8   8
#     4   9  19  36  57  81 110 146 184 224 275 331
#     4   9  19  36  56  79 109 147 185 227 276 329
#     4  10  21  38  59  82 112 148 184 225 277 327
#     4  10  21  37  58  84 112 145 186 229 271 326
#     4  10  21  37  57  83 116 147 183 229 273 323
#     4  10  20  36  58  84 111 143 185 229 276 333
#     4  10  19  33  57  84 111 145 182 227 278 329
#     4  11  23  38  57  80 111 148 188 235 282 329
#
# _framework density 18.281137999999999
#
# number of rings (size 3 to 8) (size 9 to 14) (size 15 to 20)
#    0.000    2.125    1.250    2.625    0.000    6.250 
#    2.250    2.500    0.000    0.000    0.000    0.000 
#    0.000    0.000    0.000    0.000    0.000    0.000 
#
# Total GULP energy -396900.315349 kJ/mol
# GULP energy per Si atom -12403.134855 kJ/mol
# Density = 1.823953 g / cm^3
# Si number density = 18.281138 Si / 1000 Ang^3
#
#
#
# Elastic Constant Matrix: (Units=GPa)
#
#
# Indices 1 2 3 4 5 6 
#
# 1 108.2229 70.9225 61.7741 0.0000 -4.6032 0.0000
# 2 70.9225 124.8587 63.7900 0.0000 -2.5043 0.0000
# 3 61.7741 63.7900 87.0977 0.0000 -0.9264 0.0000
# 4 0.0000 0.0000 0.0000 33.0891 0.0000 -0.2582
# 5 -4.6032 -2.5043 -0.9264 0.0000 25.6798 0.0000
# 6 0.0000 0.0000 0.0000 -0.2582 0.0000 38.4524
#
#
#
# Elastic Compliance Matrix: (Units=1/GPa)
#
#
# Indices 1 2 3 4 5 6 
#
# 1 0.018007 -0.005863 -0.008453 0.000000 0.002351 0.000000
# 2 -0.005863 0.014728 -0.006627 0.000000 0.000146 0.000000
# 3 -0.008453 -0.006627 0.022315 0.000000 -0.001356 0.000000
# 4 0.000000 0.000000 0.000000 0.030223 0.000000 0.000203
# 5 0.002351 0.000146 -0.001356 0.000000 0.039328 0.000000
# 6 0.000000 0.000000 0.000000 0.000203 0.000000 0.026008
#
#
# Mechanical properties :
#
#
# Convention : Reuss Voigt Hill
#
# Bulk Modulus (GPa) = 75.95447 79.23915 77.59681
# Shear Modulus (GPa) = 25.39591 27.69043 26.54317
#
# Velocity S-wave (km/s) = 3.73122 3.89614 3.81457
# Velocity P-wave (km/s) = 7.75892 7.97989 7.87018
#
# Compressibility (1/GPa) = 0.01316578
#
# Stress axis : x y z
#
# Youngs Moduli (GPa) = 55.53352 67.89856 44.81213
#
# Poissons Ratio (x) = 0.39808 0.37878
# Poissons Ratio (y) = 0.32559 0.29696
# Poissons Ratio (z) = 0.46940 0.44995
#
# Static dielectric constant tensor:
#      x y z
#    x 3.039480 0.000000 -0.029030 
#    y 0.000000 3.488400 0.000000 
#    z -0.029030 0.000000 3.445810 
# 
# 
# High freq. dielectric constant tensor:
#      x y z
#    x 1.694610 0.000000 -0.001960 
#    y 0.000000 1.721460 0.000000 
#    z -0.001960 0.000000 1.713160 
# 
# From -- ./inp_files/319095.got.cif
#   From: 2010.06.25/outbox.cif.g09.slc.cpg/sg12_160_cif.got.tgz:319095.got - 2010.06.28 00:19:55.
