data_PCOD8090574
_publ_section_title
;
Structure prediction by ZEFSAII (Michael W. Deem and Ramdas Pophale) SiO2 
 PCOD8090574
Probable space group: C 2/M
;
_chemical_formula_sum "Si O2"
_cell_formula_units_Z 48
_cell_length_a 11.389726
_cell_length_b 14.209723
_cell_length_c 14.309501
_cell_angle_alpha 90.000000
_cell_angle_beta 113.128532
_cell_angle_gamma 90.000000
_cell_volume 2129.779405
_symmetry_space_group_name_H-M "C 2/M"
_symmetry_group_IT_number 12
_symmetry_cell_setting 'monoclinic'
loop_
_space_group_symop_operation_xyz
x,y,z
-x,y,-z
-x,-y,-z
x,-y,z
1/2+x,1/2+y,z
1/2-x,1/2+y,-z
1/2-x,1/2-y,-z
1/2+x,1/2-y,z
loop_
_atom_site_type_symbol
_atom_site_label
_atom_site_fract_x
_atom_site_fract_y
_atom_site_fract_z
Si Si1 0.994053 0.392151 0.891158
Si Si2 0.029646 0.605978 0.409727
Si Si3 0.298496 0.341155 0.421110
Si Si4 0.363482 0.276518 0.748850
Si Si5 0.984037 0.108126 0.636193
Si Si6 0.822020 0.607125 0.203811
O O1 0.943052 0.500000 0.865264
O O2 0.136669 0.384988 0.891993
O O3 0.904163 0.323180 0.804394
O O4 0.000000 0.360217 0.000000
O O5 0.982053 0.500000 0.406114
O O6 0.175792 0.604047 0.422320
O O7 0.000000 0.657937 0.500000
O O8 0.939892 0.651410 0.301545
O O9 0.246778 0.241920 0.363876
O O10 0.371521 0.394155 0.358568
O O11 0.396018 0.330320 0.537991
O O12 0.474382 0.339139 0.733612
O O13 0.306579 0.335694 0.817184
O O14 0.935419 0.000000 0.628624
O O15 0.793960 0.500000 0.222615
#
# Coordination Sequence:
#
# PCOD8090574 Si02
#       6
#     8   8   8   8   8   8
#     4  10  23  44  68  93 121 158 208 264 319 371
#     4  10  19  33  57  85 117 161 209 251 297 355
#     4  11  22  37  60  85 128 171 218 255 298 359
#     4  12  23  40  64  92 125 161 208 258 316 374
#     4  11  24  40  59  89 130 173 210 253 309 369
#     4  10  21  39  62  91 125 163 205 256 312 370
#
# _framework density 22.537545000000001
#
# number of rings (size 3 to 8) (size 9 to 14) (size 15 to 20)
#    0.000    1.333    1.667    5.000    0.000    3.333 
#    0.000    0.000    0.000    2.000    0.000    0.000 
#    0.000    0.000    0.000    0.000    0.000    0.000 
#
# Total GULP energy -297387.416010 kJ/mol
# GULP energy per Si atom -12391.142334 kJ/mol
# Density = 2.248625 g / cm^3
# Si number density = 22.537545 Si / 1000 Ang^3
#
#
#
# Elastic Constant Matrix: (Units=GPa)
#
#
# Indices 1 2 3 4 5 6 
#
# 1 159.0209 54.5329 53.3863 0.0000 -34.4704 0.0000
# 2 54.5329 86.8056 39.7030 0.0000 -16.7984 0.0000
# 3 53.3863 39.7030 71.7238 0.0000 -32.4159 0.0000
# 4 0.0000 0.0000 0.0000 20.7304 0.0000 -5.5771
# 5 -34.4704 -16.7984 -32.4159 0.0000 35.9473 0.0000
# 6 0.0000 0.0000 0.0000 -5.5771 0.0000 37.1359
#
#
#
# Elastic Compliance Matrix: (Units=1/GPa)
#
#
# Indices 1 2 3 4 5 6 
#
# 1 0.009598 -0.003784 -0.002851 0.000000 0.004864 0.000000
# 2 -0.003784 0.016932 -0.007798 0.000000 -0.002749 0.000000
# 3 -0.002851 -0.007798 0.029536 0.000000 0.020257 0.000000
# 4 0.000000 0.000000 0.000000 0.050269 0.000000 0.007549
# 5 0.004864 -0.002749 0.020257 0.000000 0.049466 0.000000
# 6 0.000000 0.000000 0.000000 0.007549 0.000000 0.028062
#
#
# Mechanical properties :
#
#
# Convention : Reuss Voigt Hill
#
# Bulk Modulus (GPa) = 36.76516 68.08832 52.42674
# Shear Modulus (GPa) = 22.54326 30.09126 26.31726
#
# Velocity S-wave (km/s) = 3.16611 3.65795 3.42088
# Velocity P-wave (km/s) = 5.45105 6.93667 6.23824
#
# Compressibility (1/GPa) = 0.02719966
#
# Stress axis : x y z
#
# Youngs Moduli (GPa) = 104.19229 59.05886 33.85682
#
# Poissons Ratio (x) = 0.22350 0.09651
# Poissons Ratio (y) = 0.39429 0.26403
# Poissons Ratio (z) = 0.29700 0.46056
#
# Static dielectric constant tensor:
#      x y z
#    x 4.284590 0.000000 -0.390110 
#    y 0.000000 3.879390 0.000000 
#    z -0.390110 0.000000 3.688300 
# 
# 
# High freq. dielectric constant tensor:
#      x y z
#    x 1.905580 0.000000 -0.035360 
#    y 0.000000 1.891650 0.000000 
#    z -0.035360 0.000000 1.833450 
# 
# From -- ./inp_files/205115.got.cif
#   From: 2010.06.25/outbox.cif.g09.slc.cpg/sg12_103_cif.got.tgz:205115.got - 2010.06.28 00:19:55.
