data_PCOD8090520
_publ_section_title
;
Structure prediction by ZEFSAII (Michael W. Deem and Ramdas Pophale) SiO2 
 PCOD8090520
Probable space group: C 2/M
;
_chemical_formula_sum "Si O2"
_cell_formula_units_Z 48
_cell_length_a 13.126190
_cell_length_b 23.141596
_cell_length_c 13.131627
_cell_angle_alpha 90.000000
_cell_angle_beta 135.281373
_cell_angle_gamma 90.000000
_cell_volume 2806.675836
_symmetry_space_group_name_H-M "C 2/M"
_symmetry_group_IT_number 12
_symmetry_cell_setting 'monoclinic'
loop_
_space_group_symop_operation_xyz
x,y,z
-x,y,-z
-x,-y,-z
x,-y,z
1/2+x,1/2+y,z
1/2-x,1/2+y,-z
1/2-x,1/2-y,-z
1/2+x,1/2-y,z
loop_
_atom_site_type_symbol
_atom_site_label
_atom_site_fract_x
_atom_site_fract_y
_atom_site_fract_z
Si Si1 0.837479 0.270478 0.914003
Si Si2 0.344329 0.276242 0.416785
Si Si3 0.864723 0.329679 0.572741
Si Si4 0.338667 0.063915 0.425156
Si Si5 0.667255 0.567602 0.105702
Si Si6 0.677818 0.164887 0.898598
O O1 0.749099 0.281748 0.750053
O O2 0.781156 0.213326 0.927278
O O3 0.828456 0.325787 0.983682
O O4 0.000000 0.257468 0.000000
O O5 0.500000 0.303345 0.500000
O O6 0.267619 0.312825 0.449459
O O7 0.368006 0.210956 0.474968
O O8 0.825679 0.394294 0.511759
O O9 0.017576 0.327926 0.738759
O O10 0.500000 0.063727 0.500000
O O11 0.237234 0.085673 0.262234
O O12 0.291753 0.000000 0.428209
O O13 0.689726 0.500000 0.096341
O O14 0.748440 0.603142 0.073923
O O15 0.500000 0.583965 0.000000
#
# Coordination Sequence:
#
# PCOD8090520 Si02
#       6
#     8   8   8   8   8   8
#     4  11  22  35  51  78 111 142 178 219 266 314
#     4  11  22  36  53  77 109 142 177 222 268 314
#     4  11  21  34  57  80 107 142 181 220 266 321
#     4  10  19  33  57  83 106 135 176 222 266 315
#     4  10  21  36  55  83 113 139 172 222 274 316
#     4  11  21  34  56  80 107 145 179 218 266 323
#
# _framework density 17.102081999999999
#
# number of rings (size 3 to 8) (size 9 to 14) (size 15 to 20)
#    0.000    1.333    5.000    2.000    0.000    1.333 
#    0.000    0.000    0.000    2.000    0.000    0.000 
#    0.000    0.000    0.000    0.000    0.000    0.000 
#
# Total GULP energy -297594.954570 kJ/mol
# GULP energy per Si atom -12399.789774 kJ/mol
# Density = 1.706316 g / cm^3
# Si number density = 17.102082 Si / 1000 Ang^3
#
#
#
# Elastic Constant Matrix: (Units=GPa)
#
#
# Indices 1 2 3 4 5 6 
#
# 1 101.8145 38.7448 43.2977 0.0000 10.6828 0.0000
# 2 38.7448 79.4769 32.5435 0.0000 -7.8374 0.0000
# 3 43.2977 32.5435 135.1396 0.0000 3.1389 0.0000
# 4 0.0000 0.0000 0.0000 23.0200 0.0000 -0.2636
# 5 10.6828 -7.8374 3.1389 0.0000 35.9486 0.0000
# 6 0.0000 0.0000 0.0000 -0.2636 0.0000 28.5512
#
#
#
# Elastic Compliance Matrix: (Units=1/GPa)
#
#
# Indices 1 2 3 4 5 6 
#
# 1 0.013919 -0.006128 -0.002862 0.000000 -0.005222 0.000000
# 2 -0.006128 0.017070 -0.002281 0.000000 0.005742 0.000000
# 3 -0.002862 -0.002281 0.008876 0.000000 -0.000422 0.000000
# 4 0.000000 0.000000 0.000000 0.043445 0.000000 0.000401
# 5 -0.005222 0.005742 -0.000422 0.000000 0.030658 0.000000
# 6 0.000000 0.000000 0.000000 0.000401 0.000000 0.035029
#
#
# Mechanical properties :
#
#
# Convention : Reuss Voigt Hill
#
# Bulk Modulus (GPa) = 57.73005 60.62255 59.17630
# Shear Modulus (GPa) = 28.19862 30.96028 29.57945
#
# Velocity S-wave (km/s) = 4.06500 4.25940 4.16334
# Velocity P-wave (km/s) = 7.47407 7.72751 7.60185
#
# Compressibility (1/GPa) = 0.01732200
#
# Stress axis : x y z
#
# Youngs Moduli (GPa) = 71.84323 58.58260 112.66528
#
# Poissons Ratio (x) = 0.35902 0.32250
# Poissons Ratio (y) = 0.44029 0.25694
# Poissons Ratio (z) = 0.20565 0.13360
#
# Static dielectric constant tensor:
#      x y z
#    x 3.241570 0.000000 -0.035590 
#    y 0.000000 3.275100 0.000000 
#    z -0.035590 0.000000 3.380230 
# 
# 
# High freq. dielectric constant tensor:
#      x y z
#    x 1.659080 0.000000 0.012920 
#    y 0.000000 1.644310 0.000000 
#    z 0.012920 0.000000 1.676820 
# 
# From -- ./inp_files/50639.got.cif
#   From: 2010.06.25/outbox.cif.g09.slc.cpg/sg12_26_cif.got.tgz:50639.got - 2010.06.28 00:19:55.
