data_PCOD8090247
_publ_section_title
;
Structure prediction by ZEFSAII (Michael W. Deem and Ramdas Pophale) SiO2 
 PCOD8090247
Probable space group: C 2/M
;
_chemical_formula_sum "Si O2"
_cell_formula_units_Z 56
_cell_length_a 32.514855
_cell_length_b 8.684654
_cell_length_c 11.225639
_cell_angle_alpha 90.000000
_cell_angle_beta 119.297465
_cell_angle_gamma 90.000000
_cell_volume 2764.440079
_symmetry_space_group_name_H-M "C 2/M"
_symmetry_group_IT_number 12
_symmetry_cell_setting 'monoclinic'
loop_
_space_group_symop_operation_xyz
x,y,z
-x,y,-z
-x,-y,-z
x,-y,z
1/2+x,1/2+y,z
1/2-x,1/2+y,-z
1/2-x,1/2-y,-z
1/2+x,1/2-y,z
loop_
_atom_site_type_symbol
_atom_site_label
_atom_site_fract_x
_atom_site_fract_y
_atom_site_fract_z
Si Si1 0.809556 0.821249 0.816806
Si Si2 0.112275 0.317156 0.658442
Si Si3 0.294605 0.179415 0.328164
Si Si4 0.151266 0.321108 0.362958
Si Si5 0.435117 0.681406 0.633093
Si Si6 0.104270 0.821900 0.901096
Si Si7 0.517458 0.817639 0.895167
O O1 0.757449 0.753704 0.773325
O O2 0.830563 0.722516 0.740108
O O3 0.807051 0.000000 0.773927
O O4 0.842111 0.799343 0.978503
O O5 0.110836 0.500000 0.647149
O O6 0.164799 0.251933 0.700852
O O7 0.075351 0.251007 0.511332
O O8 0.097361 0.264140 0.767208
O O9 0.307848 0.216607 0.483652
O O10 0.292836 0.000000 0.301564
O O11 0.137183 0.500000 0.347053
O O12 0.104609 0.225452 0.327125
O O13 0.438908 0.500000 0.627718
O O14 0.484714 0.748629 0.745993
O O15 0.069889 0.747790 0.950380
O O16 0.091768 0.000000 0.866731
O O17 0.518095 0.000000 0.886186
O O18 0.500000 0.762931 0.000000
#
# Coordination Sequence:
#
# PCOD8090247 Si02
#       7
#     8   8   8   8   8   8   8
#     4  10  20  35  55  81 116 155 194 238 288 336
#     4  10  21  40  62  84 114 151 194 238 282 335
#     4   8  17  34  56  82 113 151 192 237 285 335
#     4  10  19  33  55  85 119 152 192 236 282 340
#     4  11  22  38  62  88 116 149 187 234 288 341
#     4  11  24  39  57  84 117 152 192 237 284 337
#     4  11  24  42  64  89 117 149 187 230 280 339
#
# _framework density 20.257265
#
# number of rings (size 3 to 8) (size 9 to 14) (size 15 to 20)
#    0.000    1.857    0.000    5.143    0.000    5.714 
#    0.000    6.429    0.000    0.000    0.000    0.000 
#    0.000    0.000    0.000    0.000    0.000    0.000 
#
# Total GULP energy -347268.582148 kJ/mol
# GULP energy per Si atom -12402.449362 kJ/mol
# Density = 2.021116 g / cm^3
# Si number density = 20.257265 Si / 1000 Ang^3
#
#
#
# Elastic Constant Matrix: (Units=GPa)
#
#
# Indices 1 2 3 4 5 6 
#
# 1 79.0208 33.6500 46.7530 0.0000 -6.3027 0.0000
# 2 33.6500 97.7176 42.0914 0.0000 -5.3477 0.0000
# 3 46.7530 42.0914 100.4835 0.0000 0.4509 0.0000
# 4 0.0000 0.0000 0.0000 27.8292 0.0000 -2.4856
# 5 -6.3027 -5.3477 0.4509 0.0000 41.2982 0.0000
# 6 0.0000 0.0000 0.0000 -2.4856 0.0000 28.9816
#
#
#
# Elastic Compliance Matrix: (Units=1/GPa)
#
#
# Indices 1 2 3 4 5 6 
#
# 1 0.018502 -0.003076 -0.007331 0.000000 0.002505 0.000000
# 2 -0.003076 0.013115 -0.004068 0.000000 0.001273 0.000000
# 3 -0.007331 -0.004068 0.015075 0.000000 -0.001810 0.000000
# 4 0.000000 0.000000 0.000000 0.036211 0.000000 0.003106
# 5 0.002505 0.001273 -0.001810 0.000000 0.024781 0.000000
# 6 0.000000 0.000000 0.000000 0.003106 0.000000 0.034771
#
#
# Mechanical properties :
#
#
# Convention : Reuss Voigt Hill
#
# Bulk Modulus (GPa) = 56.36685 58.02340 57.19513
# Shear Modulus (GPa) = 28.19750 29.93697 29.06724
#
# Velocity S-wave (km/s) = 3.73496 3.84844 3.79212
# Velocity P-wave (km/s) = 6.81805 6.96080 6.88979
#
# Compressibility (1/GPa) = 0.01774092
#
# Stress axis : x y z
#
# Youngs Moduli (GPa) = 54.04701 76.24906 66.33415
#
# Poissons Ratio (x) = 0.23457 0.48632
# Poissons Ratio (y) = 0.16627 0.26985
# Poissons Ratio (z) = 0.39624 0.31018
#
# Static dielectric constant tensor:
#      x y z
#    x 3.924230 0.000000 0.212670 
#    y 0.000000 3.565730 0.000000 
#    z 0.212670 0.000000 3.700030 
# 
# 
# High freq. dielectric constant tensor:
#      x y z
#    x 1.793520 0.000000 0.008310 
#    y 0.000000 1.784920 0.000000 
#    z 0.008310 0.000000 1.794940 
# 
# From -- ./inp_files/187739.got.cif
#   From: 2010.06.25/outbox.cif.g09.slc.cpg/sg12_94_cif.got.tgz:187739.got - 2010.06.28 00:19:55.
