data_PCOD8090911
_publ_section_title
;
Structure prediction by ZEFSAII (Michael W. Deem and Ramdas Pophale) SiO2 
 PCOD8090911
Probable space group: C 2/M
;
_chemical_formula_sum "Si O2"
_cell_formula_units_Z 64
_cell_length_a 21.947091
_cell_length_b 22.572880
_cell_length_c 11.851500
_cell_angle_alpha 90.000000
_cell_angle_beta 40.672061
_cell_angle_gamma 90.000000
_cell_volume 3826.520672
_symmetry_space_group_name_H-M "C 2/M"
_symmetry_group_IT_number 12
_symmetry_cell_setting 'monoclinic'
loop_
_space_group_symop_operation_xyz
x,y,z
-x,y,-z
-x,-y,-z
x,-y,z
1/2+x,1/2+y,z
1/2-x,1/2+y,-z
1/2-x,1/2-y,-z
1/2+x,1/2-y,z
loop_
_atom_site_type_symbol
_atom_site_label
_atom_site_fract_x
_atom_site_fract_y
_atom_site_fract_z
Si Si1 0.605334 0.838857 0.338165
Si Si2 0.179783 0.653076 0.772945
Si Si3 0.413225 0.220414 0.289966
Si Si4 0.399638 0.339500 0.189377
Si Si5 0.900172 0.433101 0.463421
Si Si6 0.066397 0.359537 0.148188
Si Si7 0.765133 0.724284 0.687505
Si Si8 0.267091 0.431733 0.475616
O O1 0.500000 0.813205 0.500000
O O2 0.615041 0.897675 0.399747
O O3 0.626738 0.854032 0.177940
O O4 0.681783 0.791088 0.271062
O O5 0.100991 0.681873 0.803239
O O6 0.251148 0.705280 0.707006
O O7 0.233319 0.599305 0.638077
O O8 0.133585 0.625608 0.949783
O O9 0.412438 0.290103 0.268129
O O10 0.512846 0.202982 0.203064
O O11 0.328834 0.203767 0.492483
O O12 0.331789 0.312113 0.187881
O O13 0.359473 0.399097 0.300615
O O14 0.500000 0.356618 0.000000
O O15 0.918493 0.500000 0.474035
O O16 0.810537 0.426565 0.511219
O O17 0.989495 0.410933 0.267339
O O18 0.291278 0.500000 0.468399
#
# Coordination Sequence:
#
# PCOD8090911 Si02
#       8
#     8   8   8   8   8   8   8   8
#     4  10  19  34  53  78 108 140 175 211 249 308
#     4  11  20  33  51  75 110 141 167 210 265 316
#     4  11  17  33  55  80 106 136 168 205 268 325
#     4  11  20  33  55  81 102 134 175 218 267 312
#     4  10  20  35  54  74 105 143 177 214 255 303
#     4  11  21  31  52  83 109 137 174 210 252 315
#     4  11  18  35  57  76 108 141 170 210 265 317
#     4  11  21  35  54  76 104 139 175 218 265 304
#
# _framework density 16.725377000000002
#
# number of rings (size 3 to 8) (size 9 to 14) (size 15 to 20)
#    0.000    1.250    7.500    2.625    0.000    3.500 
#    0.000    1.250    0.000    0.000    0.000    0.000 
#    0.000    4.750    0.000    0.000    0.000    0.000 
#
# Total GULP energy -396822.835545 kJ/mol
# GULP energy per Si atom -12400.713611 kJ/mol
# Density = 1.668731 g / cm^3
# Si number density = 16.725377 Si / 1000 Ang^3
#
#
#
# Elastic Constant Matrix: (Units=GPa)
#
#
# Indices 1 2 3 4 5 6 
#
# 1 85.7197 49.1933 49.4584 0.0000 2.6224 0.0000
# 2 49.1933 124.3051 41.6631 0.0000 -1.1357 0.0000
# 3 49.4584 41.6631 114.0807 0.0000 6.6751 0.0000
# 4 0.0000 0.0000 0.0000 14.3943 0.0000 -0.3939
# 5 2.6224 -1.1357 6.6751 0.0000 24.0387 0.0000
# 6 0.0000 0.0000 0.0000 -0.3939 0.0000 23.1259
#
#
#
# Elastic Compliance Matrix: (Units=1/GPa)
#
#
# Indices 1 2 3 4 5 6 
#
# 1 0.018060 -0.005173 -0.005907 0.000000 -0.000574 0.000000
# 2 -0.005173 0.010694 -0.001754 0.000000 0.001557 0.000000
# 3 -0.005907 -0.001754 0.012132 0.000000 -0.002807 0.000000
# 4 0.000000 0.000000 0.000000 0.069504 0.000000 0.001184
# 5 -0.000574 0.001557 -0.002807 0.000000 0.042515 0.000000
# 6 0.000000 0.000000 0.000000 0.001184 0.000000 0.043262
#
#
# Mechanical properties :
#
#
# Convention : Reuss Voigt Hill
#
# Bulk Modulus (GPa) = 65.71130 67.19280 66.45205
# Shear Modulus (GPa) = 22.03545 24.56451 23.29998
#
# Velocity S-wave (km/s) = 3.63366 3.83652 3.73646
# Velocity P-wave (km/s) = 7.54840 7.73864 7.64411
#
# Compressibility (1/GPa) = 0.01521808
#
# Stress axis : x y z
#
# Youngs Moduli (GPa) = 55.37001 93.51122 82.42973
#
# Poissons Ratio (x) = 0.48370 0.48693
# Poissons Ratio (y) = 0.28641 0.14458
# Poissons Ratio (z) = 0.32708 0.16402
#
# Static dielectric constant tensor:
#      x y z
#    x 3.195250 0.000000 0.028670 
#    y 0.000000 3.201990 0.000000 
#    z 0.028670 0.000000 3.090310 
# 
# 
# High freq. dielectric constant tensor:
#      x y z
#    x 1.632500 0.000000 0.003020 
#    y 0.000000 1.634410 0.000000 
#    z 0.003020 0.000000 1.635880 
# 
# From -- ./inp_files/177721.got.cif
#   From: 2010.06.25/outbox.cif.g09.slc.cpg/sg12_89_cif.got.tgz:177721.got - 2010.06.28 00:19:55.
