data_PCOD8090954
_publ_section_title
;
Structure prediction by ZEFSAII (Michael W. Deem and Ramdas Pophale) SiO2 
 PCOD8090954
Probable space group: C 2/M
;
_chemical_formula_sum "Si O2"
_cell_formula_units_Z 56
_cell_length_a 29.626742
_cell_length_b 8.874941
_cell_length_c 15.804885
_cell_angle_alpha 90.000000
_cell_angle_beta 133.910376
_cell_angle_gamma 90.000000
_cell_volume 2993.848390
_symmetry_space_group_name_H-M "C 2/M"
_symmetry_group_IT_number 12
_symmetry_cell_setting 'monoclinic'
loop_
_space_group_symop_operation_xyz
x,y,z
-x,y,-z
-x,-y,-z
x,-y,z
1/2+x,1/2+y,z
1/2-x,1/2+y,-z
1/2-x,1/2-y,-z
1/2+x,1/2-y,z
loop_
_atom_site_type_symbol
_atom_site_label
_atom_site_fract_x
_atom_site_fract_y
_atom_site_fract_z
Si Si1 0.893261 0.677590 0.620725
Si Si2 0.339994 0.173708 0.093063
Si Si3 0.760324 0.677951 0.145449
Si Si4 0.561658 0.675941 0.029060
Si Si5 0.717967 0.179242 0.637698
Si Si6 0.661063 0.821262 0.273193
Si Si7 0.032605 0.674658 0.818040
O O1 0.889147 0.500000 0.621109
O O2 0.848989 0.733589 0.486770
O O3 0.869879 0.742151 0.680577
O O4 0.964850 0.728052 0.695213
O O5 0.314732 0.231575 0.151016
O O6 0.414993 0.198375 0.186626
O O7 0.322159 0.000000 0.058056
O O8 0.306628 0.260964 0.972734
O O9 0.755837 0.500000 0.144089
O O10 0.776541 0.741806 0.259407
O O11 0.576934 0.500000 0.056029
O O12 0.620023 0.768295 0.140615
O O13 0.500000 0.721771 0.000000
O O14 0.551844 0.720477 0.920023
O O15 0.770298 0.251067 0.645770
O O16 0.725042 0.000000 0.643922
O O17 0.666242 0.000000 0.279494
O O18 0.030076 0.500000 0.844021
#
# Coordination Sequence:
#
# PCOD8090954 Si02
#       7
#     8   8   8   8   8   8   8
#     4   9  19  34  51  72 101 138 171 208 252 298
#     4   9  18  32  53  78 100 127 164 207 253 303
#     4   9  18  33  52  75 102 129 162 208 257 300
#     4  11  22  34  50  75 105 133 165 207 253 299
#     4  10  20  35  53  73 102 136 172 211 254 298
#     4  11  21  34  53  75 101 135 175 211 251 299
#     4  10  19  34  54  75 103 136 171 206 250 305
#
# _framework density 18.705020999999999
#
# number of rings (size 3 to 8) (size 9 to 14) (size 15 to 20)
#    0.000    2.143    1.429    2.143    0.000    4.000 
#    0.000    2.143    0.000    4.286    0.000    0.000 
#    0.000    6.857    0.000    0.000    0.000    0.000 
#
# Total GULP energy -347197.746540 kJ/mol
# GULP energy per Si atom -12399.919519 kJ/mol
# Density = 1.866245 g / cm^3
# Si number density = 18.705021 Si / 1000 Ang^3
#
#
#
# Elastic Constant Matrix: (Units=GPa)
#
#
# Indices 1 2 3 4 5 6 
#
# 1 126.3376 20.0801 64.9648 0.0000 19.2340 0.0000
# 2 20.0801 25.6779 17.2647 0.0000 2.6506 0.0000
# 3 64.9648 17.2647 128.0935 0.0000 17.0485 0.0000
# 4 0.0000 0.0000 0.0000 14.8364 0.0000 -1.7789
# 5 19.2340 2.6506 17.0485 0.0000 28.0920 0.0000
# 6 0.0000 0.0000 0.0000 -1.7789 0.0000 21.6098
#
#
#
# Elastic Compliance Matrix: (Units=1/GPa)
#
#
# Indices 1 2 3 4 5 6 
#
# 1 0.011948 -0.005721 -0.004647 0.000000 -0.004821 0.000000
# 2 -0.005721 0.045574 -0.003470 0.000000 0.001723 0.000000
# 3 -0.004647 -0.003470 0.011057 0.000000 -0.003201 0.000000
# 4 0.000000 0.000000 0.000000 0.068074 0.000000 0.005604
# 5 -0.004821 0.001723 -0.003201 0.000000 0.040678 0.000000
# 6 0.000000 0.000000 0.000000 0.005604 0.000000 0.046737
#
#
# Mechanical properties :
#
#
# Convention : Reuss Voigt Hill
#
# Bulk Modulus (GPa) = 24.44867 53.85869 39.15368
# Shear Modulus (GPa) = 18.84102 24.76092 21.80097
#
# Velocity S-wave (km/s) = 3.17720 3.64230 3.41767
# Velocity P-wave (km/s) = 5.15349 6.82236 6.04579
#
# Compressibility (1/GPa) = 0.04090202
#
# Stress axis : x y z
#
# Youngs Moduli (GPa) = 83.69535 21.94257 90.43742
#
# Poissons Ratio (x) = 0.12554 0.42026
# Poissons Ratio (y) = 0.47886 0.31383
# Poissons Ratio (z) = 0.38893 0.07614
#
# Static dielectric constant tensor:
#      x y z
#    x 3.715710 0.000000 0.088430 
#    y 0.000000 3.223120 0.000000 
#    z 0.088430 0.000000 3.606520 
# 
# 
# High freq. dielectric constant tensor:
#      x y z
#    x 1.732560 0.000000 0.008570 
#    y 0.000000 1.706250 0.000000 
#    z 0.008570 0.000000 1.719190 
# 
# From -- ./inp_files/243595.got.cif
#   From: 2010.06.25/outbox.cif.g09.slc.cpg/sg12_122_cif.got.tgz:243595.got - 2010.06.28 00:19:55.
