data_PCOD8090634
_publ_section_title
;
Structure prediction by ZEFSAII (Michael W. Deem and Ramdas Pophale) SiO2 
 PCOD8090634
Probable space group: C 2/M
;
_chemical_formula_sum "Si O2"
_cell_formula_units_Z 56
_cell_length_a 21.812148
_cell_length_b 21.746676
_cell_length_c 10.027810
_cell_angle_alpha 90.000000
_cell_angle_beta 33.353901
_cell_angle_gamma 90.000000
_cell_volume 2615.225553
_symmetry_space_group_name_H-M "C 2/M"
_symmetry_group_IT_number 12
_symmetry_cell_setting 'monoclinic'
loop_
_space_group_symop_operation_xyz
x,y,z
-x,y,-z
-x,-y,-z
x,-y,z
1/2+x,1/2+y,z
1/2-x,1/2+y,-z
1/2-x,1/2-y,-z
1/2+x,1/2-y,z
loop_
_atom_site_type_symbol
_atom_site_label
_atom_site_fract_x
_atom_site_fract_y
_atom_site_fract_z
Si Si1 0.559594 0.072591 0.026939
Si Si2 0.300902 0.747544 0.120153
Si Si3 0.514552 0.342890 0.122592
Si Si4 0.766682 0.145479 0.593284
Si Si5 0.122424 0.686916 0.273744
Si Si6 0.605134 0.068123 0.443662
Si Si7 0.307676 0.568700 0.264653
O O1 0.683228 0.100121 0.823227
O O2 0.570288 0.000000 0.999027
O O3 0.500000 0.097289 0.000000
O O4 0.484381 0.093791 0.287272
O O5 0.278103 0.784727 0.299696
O O6 0.192850 0.707863 0.275770
O O7 0.409442 0.704698 0.933612
O O8 0.316983 0.797428 0.973748
O O9 0.395305 0.354746 0.411259
O O10 0.500000 0.315398 0.000000
O O11 0.572385 0.410040 0.008496
O O12 0.765700 0.122082 0.442237
O O13 0.109083 0.612788 0.308804
O O14 0.000000 0.718100 0.500000
O O15 0.725593 0.066046 0.290958
O O16 0.572998 0.000000 0.451668
O O17 0.316020 0.500000 0.314836
#
# Coordination Sequence:
#
# PCOD8090634 Si02
#       7
#     8   8   8   8   8   8   8
#     4  10  19  33  57  93 130 163 201 253 315 370
#     4  11  24  42  60  90 126 169 213 267 308 367
#     4  10  23  40  61  96 129 164 211 253 317 381
#     4  11  22  36  61  91 127 163 206 254 311 379
#     4  11  23  42  65  85 121 169 218 260 314 367
#     4  10  20  38  65  92 123 161 207 259 318 379
#     4  10  20  38  63  92 127 164 200 252 319 383
#
# _framework density 21.413067000000002
#
# number of rings (size 3 to 8) (size 9 to 14) (size 15 to 20)
#    0.000    1.571    2.857    2.143    0.000    6.286 
#    2.571    1.429    0.000    0.000    0.000    2.000 
#    0.000    0.000    0.000    0.000    0.000    0.000 
#
# Total GULP energy -347017.781762 kJ/mol
# GULP energy per Si atom -12393.492206 kJ/mol
# Density = 2.136433 g / cm^3
# Si number density = 21.413067 Si / 1000 Ang^3
#
#
#
# Elastic Constant Matrix: (Units=GPa)
#
#
# Indices 1 2 3 4 5 6 
#
# 1 86.2893 40.9165 29.5432 0.0000 -16.7234 0.0000
# 2 40.9165 102.9947 49.4208 0.0000 2.2915 0.0000
# 3 29.5432 49.4208 120.3414 -0.0001 -31.6339 0.0000
# 4 0.0000 0.0000 -0.0001 27.1831 0.0000 3.6009
# 5 -16.7234 2.2915 -31.6339 0.0000 33.7184 0.0000
# 6 0.0000 0.0000 0.0000 3.6009 0.0000 29.6610
#
#
#
# Elastic Compliance Matrix: (Units=1/GPa)
#
#
# Indices 1 2 3 4 5 6 
#
# 1 0.016669 -0.007750 0.001861 0.000000 0.010540 0.000000
# 2 -0.007750 0.017207 -0.008604 0.000000 -0.013085 0.000000
# 3 0.001861 -0.008604 0.015639 0.000000 0.016180 0.000000
# 4 0.000000 0.000000 0.000000 0.037389 0.000000 -0.004539
# 5 0.010540 -0.013085 0.016180 0.000000 0.050954 0.000000
# 6 0.000000 0.000000 0.000000 -0.004539 0.000000 0.034265
#
#
# Mechanical properties :
#
#
# Convention : Reuss Voigt Hill
#
# Bulk Modulus (GPa) = 48.70590 61.04291 54.87441
# Shear Modulus (GPa) = 24.04391 30.76216 27.40303
#
# Velocity S-wave (km/s) = 3.35455 3.79437 3.58122
# Velocity P-wave (km/s) = 6.14811 6.91126 6.54083
#
# Compressibility (1/GPa) = 0.02053139
#
# Stress axis : x y z
#
# Youngs Moduli (GPa) = 59.99083 58.11446 63.94109
#
# Poissons Ratio (x) = 0.45037 -0.11899
# Poissons Ratio (y) = 0.46491 0.55013
# Poissons Ratio (z) = -0.11164 0.50000
#
# Static dielectric constant tensor:
#      x y z
#    x 3.758740 0.000000 -0.284440 
#    y 0.000000 4.004070 0.000000 
#    z -0.284440 0.000000 4.091880 
# 
# 
# High freq. dielectric constant tensor:
#      x y z
#    x 1.827940 0.000000 -0.023310 
#    y 0.000000 1.838550 0.000000 
#    z -0.023310 0.000000 1.843770 
# 
# From -- ./inp_files/177894.got.cif
#   From: 2010.06.25/outbox.cif.g09.slc.cpg/sg12_89_cif.got.tgz:177894.got - 2010.06.28 00:19:55.
