data_PCOD8090755
_publ_section_title
;
Structure prediction by ZEFSAII (Michael W. Deem and Ramdas Pophale) SiO2 
 PCOD8090755
Probable space group: C 2/M
;
_chemical_formula_sum "Si O2"
_cell_formula_units_Z 56
_cell_length_a 14.547322
_cell_length_b 23.466396
_cell_length_c 9.694548
_cell_angle_alpha 90.000000
_cell_angle_beta 120.250636
_cell_angle_gamma 90.000000
_cell_volume 2858.809728
_symmetry_space_group_name_H-M "C 2/M"
_symmetry_group_IT_number 12
_symmetry_cell_setting 'monoclinic'
loop_
_space_group_symop_operation_xyz
x,y,z
-x,y,-z
-x,-y,-z
x,-y,z
1/2+x,1/2+y,z
1/2-x,1/2+y,-z
1/2-x,1/2-y,-z
1/2+x,1/2-y,z
loop_
_atom_site_type_symbol
_atom_site_label
_atom_site_fract_x
_atom_site_fract_y
_atom_site_fract_z
Si Si1 0.229196 0.384087 0.117202
Si Si2 0.389036 0.000000 0.991776
Si Si3 0.666645 0.325219 0.335272
Si Si4 0.548858 0.334502 0.686113
Si Si5 0.600279 0.000000 0.679505
Si Si6 0.339608 0.192854 0.690398
Si Si7 0.042901 0.287849 0.673116
Si Si8 0.297320 0.881820 0.221966
O O1 0.183656 0.446969 0.108996
O O2 0.356687 0.380773 0.232101
O O3 0.166151 0.339929 0.167905
O O4 0.208622 0.369186 0.943696
O O5 0.500000 0.000000 0.000000
O O6 0.427795 0.000000 0.179974
O O7 0.548358 0.345192 0.282852
O O8 0.677990 0.259641 0.296981
O O9 0.748146 0.334322 0.524389
O O10 0.691180 0.365739 0.223926
O O11 0.500000 0.341512 0.500000
O O12 0.595944 0.271430 0.767148
O O13 0.500000 0.000000 0.500000
O O14 0.671858 0.055191 0.706071
O O15 0.456146 0.184871 0.711141
O O16 0.114899 0.337014 0.664715
O O17 0.000000 0.260499 0.500000
#
# Coordination Sequence:
#
# PCOD8090755 Si02
#       8
#     8   4   8   8   4   8   8   8
#     4  11  24  40  61  85 124 160 198 257 308 352
#     4  10  26  46  64  90 122 154 200 255 311 359
#     4  10  20  36  60  90 121 158 207 241 292 366
#     4  10  20  38  60  88 120 162 201 244 297 364
#     4  10  24  42  63  86 115 155 204 247 297 360
#     4  10  20  34  60  91 121 162 197 242 303 362
#     4  10  19  33  60  89 122 159 201 248 301 359
#     4  11  23  38  58  89 121 157 200 256 303 354
#
# _framework density 19.588571999999999
#
# number of rings (size 3 to 8) (size 9 to 14) (size 15 to 20)
#    0.000    1.714    2.857    1.286    4.000    2.857 
#    0.000    3.929    0.000    2.571    0.000    0.000 
#    0.000    0.000    0.000    0.000    0.000    0.000 
#
# Total GULP energy -346890.244706 kJ/mol
# GULP energy per Si atom -12388.937311 kJ/mol
# Density = 1.954399 g / cm^3
# Si number density = 19.588572 Si / 1000 Ang^3
#
#
#
# Elastic Constant Matrix: (Units=GPa)
#
#
# Indices 1 2 3 4 5 6 
#
# 1 147.8431 73.7029 33.6474 0.0000 -10.3639 0.0000
# 2 73.7029 113.7355 42.6762 0.0000 -4.3250 0.0000
# 3 33.6474 42.6762 69.7996 0.0000 -8.2413 0.0000
# 4 0.0000 0.0000 0.0000 27.5044 0.0000 1.7887
# 5 -10.3639 -4.3250 -8.2413 0.0000 33.3055 0.0000
# 6 0.0000 0.0000 0.0000 1.7887 0.0000 26.5069
#
#
#
# Elastic Compliance Matrix: (Units=1/GPa)
#
#
# Indices 1 2 3 4 5 6 
#
# 1 0.010207 -0.006205 -0.000872 0.000000 0.002155 0.000000
# 2 -0.006205 0.015184 -0.006477 0.000000 -0.001562 0.000000
# 3 -0.000872 -0.006477 0.019135 0.000000 0.003622 0.000000
# 4 0.000000 0.000000 0.000000 0.036518 0.000000 -0.002464
# 5 0.002155 -0.001562 0.003622 0.000000 0.031389 0.000000
# 6 0.000000 0.000000 0.000000 -0.002464 0.000000 0.037892
#
#
# Mechanical properties :
#
#
# Convention : Reuss Voigt Hill
#
# Bulk Modulus (GPa) = 57.41272 70.15903 63.78587
# Shear Modulus (GPa) = 27.28670 29.55349 28.42010
#
# Velocity S-wave (km/s) = 3.73633 3.88843 3.81314
# Velocity P-wave (km/s) = 6.92723 7.48691 7.21250
#
# Compressibility (1/GPa) = 0.01741774
#
# Stress axis : x y z
#
# Youngs Moduli (GPa) = 97.97407 65.85761 52.26056
#
# Poissons Ratio (x) = 0.40865 0.04557
# Poissons Ratio (y) = 0.60794 0.33849
# Poissons Ratio (z) = 0.08543 0.42656
#
# Static dielectric constant tensor:
#      x y z
#    x 4.757450 0.000000 0.685380 
#    y 0.000000 3.485150 0.000000 
#    z 0.685380 0.000000 4.066190 
# 
# 
# High freq. dielectric constant tensor:
#      x y z
#    x 1.775020 0.000000 -0.014480 
#    y 0.000000 1.748900 0.000000 
#    z -0.014480 0.000000 1.753160 
# 
# From -- ./inp_files/65998.got.cif
#   From: 2010.06.25/outbox.cif.g09.slc.cpg/sg12_33_cif.got.tgz:65998.got - 2010.06.28 00:19:55.
