data_PCOD8090603
_publ_section_title
;
Structure prediction by ZEFSAII (Michael W. Deem and Ramdas Pophale) SiO2 
 PCOD8090603
Probable space group: C 2/M
;
_chemical_formula_sum "Si O2"
_cell_formula_units_Z 52
_cell_length_a 21.362703
_cell_length_b 19.469739
_cell_length_c 8.965558
_cell_angle_alpha 90.000000
_cell_angle_beta 134.560581
_cell_angle_gamma 90.000000
_cell_volume 2656.953675
_symmetry_space_group_name_H-M "C 2/M"
_symmetry_group_IT_number 12
_symmetry_cell_setting 'monoclinic'
loop_
_space_group_symop_operation_xyz
x,y,z
-x,y,-z
-x,-y,-z
x,-y,z
1/2+x,1/2+y,z
1/2-x,1/2+y,-z
1/2-x,1/2-y,-z
1/2+x,1/2-y,z
loop_
_atom_site_type_symbol
_atom_site_label
_atom_site_fract_x
_atom_site_fract_y
_atom_site_fract_z
Si Si1 0.000000 0.248280 0.000000
Si Si2 0.674843 0.179252 0.244613
Si Si3 0.228633 0.683369 0.655140
Si Si4 0.289941 0.420427 0.272763
Si Si5 0.094176 0.735184 0.646319
Si Si6 0.946862 0.849727 0.653087
Si Si7 0.637459 0.355064 0.901979
O O1 0.074283 0.296307 0.048278
O O2 0.052035 0.199473 0.201237
O O3 0.745758 0.238421 0.335409
O O4 0.686141 0.151801 0.434468
O O5 0.700408 0.118477 0.173202
O O6 0.159451 0.682700 0.676596
O O7 0.309294 0.638404 0.853003
O O8 0.267564 0.500000 0.236046
O O9 0.368497 0.405862 0.525284
O O10 0.316469 0.398909 0.149717
O O11 0.077547 0.804388 0.527967
O O12 0.132266 0.771124 0.861386
O O13 0.000000 0.696484 0.500000
O O14 0.041020 0.885250 0.779557
#
# Coordination Sequence:
#
# PCOD8090603 Si02
#       7
#     4   8   8   8   8   8   8
#     4  12  20  36  60  94 122 140 192 250 320 348
#     4  11  22  35  57  86 117 154 186 248 301 350
#     4  11  18  34  56  87 119 142 189 248 313 348
#     4  11  24  42  57  80 121 169 206 229 275 351
#     4   9  17  28  47  83 116 142 176 230 298 352
#     4  10  19  33  57  87 120 150 184 240 295 352
#     4  10  20  32  57  85 113 151 189 241 292 350
#
# _framework density 19.571287000000002
#
# number of rings (size 3 to 8) (size 9 to 14) (size 15 to 20)
#    0.000    1.538    6.154    2.769    0.000    1.231 
#    0.000    1.538    0.000    0.000    0.000    1.077 
#    0.000    0.000    0.000    0.000    0.000    0.000 
#
# Total GULP energy -322219.363408 kJ/mol
# GULP energy per Si atom -12393.052439 kJ/mol
# Density = 1.952674 g / cm^3
# Si number density = 19.571287 Si / 1000 Ang^3
#
#
#
# Elastic Constant Matrix: (Units=GPa)
#
#
# Indices 1 2 3 4 5 6 
#
# 1 92.3411 29.0644 4.3731 0.0000 13.5540 0.0000
# 2 29.0644 65.2486 12.1765 0.0000 -0.4101 0.0000
# 3 4.3731 12.1765 66.8957 0.0000 -2.4753 0.0000
# 4 0.0000 0.0000 0.0000 6.0827 0.0000 3.6145
# 5 13.5540 -0.4101 -2.4753 0.0000 22.3740 0.0000
# 6 0.0000 0.0000 0.0000 3.6145 0.0000 13.8146
#
#
#
# Elastic Compliance Matrix: (Units=1/GPa)
#
#
# Indices 1 2 3 4 5 6 
#
# 1 0.014093 -0.006315 -0.000092 0.000000 -0.008663 0.000000
# 2 -0.006315 0.018694 -0.002847 0.000000 0.003853 0.000000
# 3 -0.000092 -0.002847 0.015537 0.000000 0.001723 0.000000
# 4 0.000000 0.000000 0.000000 0.194669 0.000000 -0.050934
# 5 -0.008663 0.003853 0.001723 0.000000 0.050204 0.000000
# 6 0.000000 0.000000 0.000000 -0.050934 0.000000 0.085714
#
#
# Mechanical properties :
#
#
# Convention : Reuss Voigt Hill
#
# Bulk Modulus (GPa) = 33.54025 35.07924 34.30974
# Shear Modulus (GPa) = 12.27421 20.37902 16.32661
#
# Velocity S-wave (km/s) = 2.50702 3.23037 2.89141
# Velocity P-wave (km/s) = 5.05518 5.64593 5.35870
#
# Compressibility (1/GPa) = 0.02981493
#
# Stress axis : x y z
#
# Youngs Moduli (GPa) = 70.95725 53.49177 64.36364
#
# Poissons Ratio (x) = 0.33779 0.00595
# Poissons Ratio (y) = 0.44808 0.18327
# Poissons Ratio (z) = 0.00656 0.15231
#
# Static dielectric constant tensor:
#      x y z
#    x 4.494640 0.000000 -0.329490 
#    y 0.000000 2.856470 0.000000 
#    z -0.329490 0.000000 4.102340 
# 
# 
# High freq. dielectric constant tensor:
#      x y z
#    x 1.780120 0.000000 -0.000410 
#    y 0.000000 1.671920 0.000000 
#    z -0.000410 0.000000 1.770130 
# 
# From -- ./inp_files/99160.got.cif
#   From: 2010.06.25/outbox.cif.g09.slc.cpg/sg12_50_cif.got.tgz:99160.got - 2010.06.28 00:19:55.
