data_PCOD8090658
_publ_section_title
;
Structure prediction by ZEFSAII (Michael W. Deem and Ramdas Pophale) SiO2 
 PCOD8090658
Probable space group: C 2/M
;
_chemical_formula_sum "Si O2"
_cell_formula_units_Z 56
_cell_length_a 21.105678
_cell_length_b 8.818538
_cell_length_c 29.631139
_cell_angle_alpha 90.000000
_cell_angle_beta 30.841857
_cell_angle_gamma 90.000000
_cell_volume 2827.368062
_symmetry_space_group_name_H-M "C 2/M"
_symmetry_group_IT_number 12
_symmetry_cell_setting 'monoclinic'
loop_
_space_group_symop_operation_xyz
x,y,z
-x,y,-z
-x,-y,-z
x,-y,z
1/2+x,1/2+y,z
1/2-x,1/2+y,-z
1/2-x,1/2-y,-z
1/2+x,1/2-y,z
loop_
_atom_site_type_symbol
_atom_site_label
_atom_site_fract_x
_atom_site_fract_y
_atom_site_fract_z
Si Si1 0.747794 0.180311 0.051124
Si Si2 0.402706 0.321693 0.616943
Si Si3 0.102460 0.821629 0.216993
Si Si4 0.761718 0.678461 0.203330
Si Si5 0.826917 0.178686 0.567070
Si Si6 0.990094 0.820750 0.955450
Si Si7 0.329972 0.322041 0.410666
O O1 0.629888 0.237085 0.152690
O O2 0.742172 0.000000 0.050628
O O3 0.750000 0.250000 0.000000
O O4 0.871160 0.239058 0.001172
O O5 0.420330 0.500000 0.607733
O O6 0.340609 0.258163 0.699766
O O7 0.540766 0.256599 0.530195
O O8 0.317672 0.282129 0.625763
O O9 0.215030 0.778575 0.181835
O O10 0.974022 0.770305 0.319563
O O11 0.097689 0.000000 0.210007
O O12 0.780312 0.500000 0.197333
O O13 0.886128 0.760241 0.143460
O O14 0.723691 0.273938 0.604677
O O15 0.809172 0.000000 0.568194
O O16 0.988727 0.000000 0.957027
O O17 0.000000 0.753641 0.000000
O O18 0.322507 0.500000 0.422756
O O19 0.250000 0.250000 0.500000
#
# Coordination Sequence:
#
# PCOD8090658 Si02
#       7
#     8   8   8   8   8   8   8
#     4  11  24  42  64  88 121 160 198 244 299 359
#     4   8  16  32  55  82 111 147 186 231 283 335
#     4  10  22  39  59  85 119 155 195 244 294 346
#     4  10  19  33  58  87 112 144 193 239 278 337
#     4   9  17  34  57  78 110 151 191 232 280 338
#     4  10  21  39  59  82 114 147 183 233 294 345
#     4  11  23  38  57  83 117 154 193 240 292 347
#
# _framework density 19.806405999999999
#
# number of rings (size 3 to 8) (size 9 to 14) (size 15 to 20)
#    0.000    2.143    1.429    2.571    0.000    6.000 
#    0.000    7.143    0.000    0.000    0.000    0.000 
#    0.000    0.000    0.000    0.000    0.000    0.000 
#
# Total GULP energy -347071.087699 kJ/mol
# GULP energy per Si atom -12395.395989 kJ/mol
# Density = 1.976133 g / cm^3
# Si number density = 19.806406 Si / 1000 Ang^3
#
#
#
# Elastic Constant Matrix: (Units=GPa)
#
#
# Indices 1 2 3 4 5 6 
#
# 1 114.1506 33.7332 51.6372 0.0050 0.7968 0.0046
# 2 33.7332 33.0034 31.5977 0.0063 -0.4630 0.0079
# 3 51.6372 31.5977 114.1101 -0.0006 6.4387 -0.0023
# 4 0.0050 0.0063 -0.0006 29.7297 -0.0021 -1.9218
# 5 0.7968 -0.4630 6.4387 -0.0021 38.5779 0.0040
# 6 0.0046 0.0079 -0.0023 -1.9218 0.0040 30.6477
#
#
#
# Elastic Compliance Matrix: (Units=1/GPa)
#
#
# Indices 1 2 3 4 5 6 
#
# 1 0.013296 -0.010644 -0.003076 0.000000 0.000111 0.000000
# 2 -0.010644 0.049977 -0.009155 -0.000010 0.002348 -0.000013
# 3 -0.003076 -0.009155 0.012814 0.000003 -0.002185 0.000004
# 4 0.000000 -0.000010 0.000003 0.033773 0.000001 0.002118
# 5 0.000111 0.002348 -0.002185 0.000001 0.026312 -0.000004
# 6 0.000000 -0.000013 0.000004 0.002118 -0.000004 0.032762
#
#
# Mechanical properties :
#
#
# Convention : Reuss Voigt Hill
#
# Bulk Modulus (GPa) = 32.96201 55.02224 43.99212
# Shear Modulus (GPa) = 22.24238 29.41079 25.82659
#
# Velocity S-wave (km/s) = 3.35474 3.85764 3.61494
# Velocity P-wave (km/s) = 5.62885 6.90523 6.29945
#
# Compressibility (1/GPa) = 0.03033796
#
# Stress axis : x y z
#
# Youngs Moduli (GPa) = 75.20816 20.00915 78.04222
#
# Poissons Ratio (x) = 0.21298 0.24004
# Poissons Ratio (y) = 0.80053 0.71445
# Poissons Ratio (z) = 0.23132 0.18318
#
# Static dielectric constant tensor:
#      x y z
#    x 3.736310 -0.000010 0.056240 
#    y -0.000010 3.282610 0.000000 
#    z 0.056240 0.000000 4.001770 
# 
# 
# High freq. dielectric constant tensor:
#      x y z
#    x 1.776870 0.000000 0.001760 
#    y 0.000000 1.745960 0.000000 
#    z 0.001760 0.000000 1.780590 
# 
# From -- ./inp_files/380639.got.cif
#   From: 2010.06.25/outbox.cif.g09.slc.cpg/sg12_191_cif.got.tgz:380639.got - 2010.06.28 00:19:55.
