data_PCOD8090124
_publ_section_title
;
Structure prediction by ZEFSAII (Michael W. Deem and Ramdas Pophale) SiO2 
 PCOD8090124
Probable space group: C 2/M
;
_chemical_formula_sum "Si O2"
_cell_formula_units_Z 56
_cell_length_a 17.606119
_cell_length_b 13.257097
_cell_length_c 16.844036
_cell_angle_alpha 90.000000
_cell_angle_beta 132.528715
_cell_angle_gamma 90.000000
_cell_volume 2897.273985
_symmetry_space_group_name_H-M "C 2/M"
_symmetry_group_IT_number 12
_symmetry_cell_setting 'monoclinic'
loop_
_space_group_symop_operation_xyz
x,y,z
-x,y,-z
-x,-y,-z
x,-y,z
1/2+x,1/2+y,z
1/2-x,1/2+y,-z
1/2-x,1/2-y,-z
1/2+x,1/2-y,z
loop_
_atom_site_type_symbol
_atom_site_label
_atom_site_fract_x
_atom_site_fract_y
_atom_site_fract_z
Si Si1 0.625928 0.118773 0.281234
Si Si2 0.112422 0.116898 0.085750
Si Si3 0.924435 0.615262 0.337570
Si Si4 0.190199 0.115505 0.968299
Si Si5 0.343367 0.886101 0.516489
Si Si6 0.246407 0.715441 0.689135
Si Si7 0.094391 0.311545 0.853615
O O1 0.651239 0.150814 0.389335
O O2 0.714344 0.168670 0.288076
O O3 0.513058 0.162594 0.178342
O O4 0.627899 0.000000 0.268723
O O5 0.178012 0.140000 0.053260
O O6 0.167525 0.154985 0.203109
O O7 0.097117 0.000000 0.087990
O O8 0.000000 0.168807 0.000000
O O9 0.884002 0.500000 0.324621
O O10 0.862494 0.698868 0.344063
O O11 0.910213 0.639075 0.235630
O O12 0.044174 0.622567 0.445334
O O13 0.309721 0.137674 0.031094
O O14 0.160668 0.000000 0.926689
O O15 0.114436 0.190202 0.865540
O O16 0.262348 0.822433 0.407938
O O17 0.304052 0.000000 0.486801
#
# Coordination Sequence:
#
# PCOD8090124 Si02
#       7
#     8   8   8   8   8   8   8
#     4  10  22  38  54  76 112 149 184 224 272 333
#     4  10  20  32  49  79 116 142 169 220 279 325
#     4  10  19  34  58  88 113 138 179 234 284 324
#     4  10  19  33  55  82 110 144 187 228 272 323
#     4   9  19  35  58  86 109 135 179 229 277 331
#     4  12  20  32  56  81 110 142 178 224 278 325
#     4  10  19  35  59  78 107 150 186 222 274 326
#
# _framework density 19.328513999999998
#
# number of rings (size 3 to 8) (size 9 to 14) (size 15 to 20)
#    0.000    1.857    1.429    5.143    0.000    1.143 
#    0.000    2.143    0.000    6.429    0.000    0.000 
#    0.000    0.000    0.000    0.000    0.000    0.000 
#
# Total GULP energy -347060.259350 kJ/mol
# GULP energy per Si atom -12395.009263 kJ/mol
# Density = 1.928452 g / cm^3
# Si number density = 19.328514 Si / 1000 Ang^3
#
#
#
# Elastic Constant Matrix: (Units=GPa)
#
#
# Indices 1 2 3 4 5 6 
#
# 1 72.3291 46.6599 9.9705 0.0000 8.2971 0.0000
# 2 46.6599 94.3598 27.1357 0.0000 9.1336 0.0000
# 3 9.9705 27.1357 81.6815 0.0000 12.8706 0.0000
# 4 0.0000 0.0000 0.0000 18.8237 0.0000 2.2569
# 5 8.2971 9.1336 12.8706 0.0000 12.6218 0.0000
# 6 0.0000 0.0000 0.0000 2.2569 0.0000 33.2417
#
#
#
# Elastic Compliance Matrix: (Units=1/GPa)
#
#
# Indices 1 2 3 4 5 6 
#
# 1 0.021125 -0.010233 0.002195 0.000000 -0.008720 0.000000
# 2 -0.010233 0.016988 -0.004191 0.000000 -0.001293 0.000000
# 3 0.002195 -0.004191 0.015627 0.000000 -0.014346 0.000000
# 4 0.000000 0.000000 0.000000 0.053561 0.000000 -0.003636
# 5 -0.008720 -0.001293 -0.014346 0.000000 0.100524 0.000000
# 6 0.000000 0.000000 0.000000 -0.003636 0.000000 0.030330
#
#
# Mechanical properties :
#
#
# Convention : Reuss Voigt Hill
#
# Bulk Modulus (GPa) = 34.15017 46.21139 40.18078
# Shear Modulus (GPa) = 18.35713 23.91108 21.13410
#
# Velocity S-wave (km/s) = 3.08513 3.52104 3.31027
# Velocity P-wave (km/s) = 5.51338 6.36322 5.95349
#
# Compressibility (1/GPa) = 0.02928243
#
# Stress axis : x y z
#
# Youngs Moduli (GPa) = 47.33749 58.86409 63.98981
#
# Poissons Ratio (x) = 0.60237 -0.14046
# Poissons Ratio (y) = 0.48441 0.26818
# Poissons Ratio (z) = -0.10391 0.24669
#
# Static dielectric constant tensor:
#      x y z
#    x 3.502040 0.000000 0.158550 
#    y 0.000000 3.419680 0.000000 
#    z 0.158550 0.000000 3.618010 
# 
# 
# High freq. dielectric constant tensor:
#      x y z
#    x 1.738260 0.000000 0.012610 
#    y 0.000000 1.736860 0.000000 
#    z 0.012610 0.000000 1.754690 
# 
# From -- ./inp_files/277082.got.cif
#   From: 2010.06.25/outbox.cif.g09.slc.cpg/sg12_139_cif.got.tgz:277082.got - 2010.06.28 00:19:55.
