data_PCOD8090563
_publ_section_title
;
Structure prediction by ZEFSAII (Michael W. Deem and Ramdas Pophale) SiO2 
 PCOD8090563
Probable space group: C 2/M
;
_chemical_formula_sum "Si O2"
_cell_formula_units_Z 48
_cell_length_a 17.917912
_cell_length_b 19.783237
_cell_length_c 9.493713
_cell_angle_alpha 90.000000
_cell_angle_beta 45.892072
_cell_angle_gamma 90.000000
_cell_volume 2416.370028
_symmetry_space_group_name_H-M "C 2/M"
_symmetry_group_IT_number 12
_symmetry_cell_setting 'monoclinic'
loop_
_space_group_symop_operation_xyz
x,y,z
-x,y,-z
-x,-y,-z
x,-y,z
1/2+x,1/2+y,z
1/2-x,1/2+y,-z
1/2-x,1/2-y,-z
1/2+x,1/2-y,z
loop_
_atom_site_type_symbol
_atom_site_label
_atom_site_fract_x
_atom_site_fract_y
_atom_site_fract_z
Si Si1 0.937109 0.324986 0.446040
Si Si2 0.386389 0.577592 0.457544
Si Si3 0.748295 0.077035 0.369032
Si Si4 0.325662 0.300220 0.719896
Si Si5 0.934422 0.885882 0.958993
Si Si6 0.106390 0.745742 0.070833
O O1 0.857026 0.380643 0.499125
O O2 0.878918 0.254699 0.550141
O O3 0.000000 0.351213 0.500000
O O4 0.019575 0.310886 0.213632
O O5 0.367814 0.500000 0.526738
O O6 0.314688 0.598990 0.418740
O O7 0.357857 0.625080 0.626940
O O8 0.508715 0.588294 0.257965
O O9 0.713438 0.000000 0.425780
O O10 0.815647 0.088407 0.136725
O O11 0.361135 0.287921 0.832482
O O12 0.201623 0.292824 0.873072
O O13 0.936412 0.804529 0.973108
O O14 0.000000 0.918312 0.000000
#
# Coordination Sequence:
#
# PCOD8090563 Si02
#       6
#     8   8   8   8   8   8
#     4  10  20  35  58  82 108 146 188 229 277 329
#     4  10  21  37  57  83 115 149 185 228 280 336
#     4  10  21  37  56  82 116 149 185 231 278 328
#     4  10  20  36  58  78 115 149 184 232 279 328
#     4  10  19  33  57  85 113 143 182 232 279 327
#     4  10  20  35  56  84 112 141 186 235 277 324
#
# _framework density 19.864508000000001
#
# number of rings (size 3 to 8) (size 9 to 14) (size 15 to 20)
#    0.000    2.000    3.333    0.500    0.000    4.333 
#    0.000    3.333    0.000    2.000    0.000    0.000 
#    0.000    0.000    0.000    0.000    0.000    0.000 
#
# Total GULP energy -297547.068303 kJ/mol
# GULP energy per Si atom -12397.794513 kJ/mol
# Density = 1.981930 g / cm^3
# Si number density = 19.864508 Si / 1000 Ang^3
#
#
#
# Elastic Constant Matrix: (Units=GPa)
#
#
# Indices 1 2 3 4 5 6 
#
# 1 59.2020 29.6592 24.3254 0.0000 -20.4448 0.0000
# 2 29.6592 93.9576 27.5159 0.0000 -6.2042 0.0000
# 3 24.3254 27.5159 82.3744 0.0000 -18.8677 0.0000
# 4 0.0000 0.0000 0.0000 22.2950 0.0000 -0.9039
# 5 -20.4448 -6.2042 -18.8677 0.0000 28.1865 0.0000
# 6 0.0000 0.0000 0.0000 -0.9039 0.0000 29.0817
#
#
#
# Elastic Compliance Matrix: (Units=1/GPa)
#
#
# Indices 1 2 3 4 5 6 
#
# 1 0.026847 -0.006840 -0.001805 0.000000 0.016760 0.000000
# 2 -0.006840 0.013540 -0.003492 0.000000 -0.004318 0.000000
# 3 -0.001805 -0.003492 0.015783 0.000000 0.008487 0.000000
# 4 0.000000 0.000000 0.000000 0.044910 0.000000 0.001396
# 5 0.016760 -0.004318 0.008487 0.000000 0.052365 0.000000
# 6 0.000000 0.000000 0.000000 0.001396 0.000000 0.034429
#
#
# Mechanical properties :
#
#
# Convention : Reuss Voigt Hill
#
# Bulk Modulus (GPa) = 31.35046 44.28169 37.81608
# Shear Modulus (GPa) = 22.44374 26.18153 24.31263
#
# Velocity S-wave (km/s) = 3.36496 3.63437 3.50226
# Velocity P-wave (km/s) = 5.56001 6.32074 5.95254
#
# Compressibility (1/GPa) = 0.03189746
#
# Stress axis : x y z
#
# Youngs Moduli (GPa) = 37.24788 73.85722 63.35893
#
# Poissons Ratio (x) = 0.50515 0.11434
# Poissons Ratio (y) = 0.25476 0.22125
# Poissons Ratio (z) = 0.06722 0.25791
#
# Static dielectric constant tensor:
#      x y z
#    x 3.509350 0.000000 -0.193540 
#    y 0.000000 3.390050 0.000000 
#    z -0.193540 0.000000 3.720010 
# 
# 
# High freq. dielectric constant tensor:
#      x y z
#    x 1.758490 0.000000 -0.014860 
#    y 0.000000 1.761180 0.000000 
#    z -0.014860 0.000000 1.776570 
# 
# From -- ./inp_files/77289.got.cif
#   From: 2010.06.25/outbox.cif.g09.slc.cpg/sg12_39_cif.got.tgz:77289.got - 2010.06.28 00:19:55.
