data_PCOD8090239
_publ_section_title
;
Structure prediction by ZEFSAII (Michael W. Deem and Ramdas Pophale) SiO2 
 PCOD8090239
Probable space group: C 2/M
;
_chemical_formula_sum "Si O2"
_cell_formula_units_Z 56
_cell_length_a 19.083416
_cell_length_b 13.767334
_cell_length_c 13.955528
_cell_angle_alpha 90.000000
_cell_angle_beta 129.839122
_cell_angle_gamma 90.000000
_cell_volume 2815.311920
_symmetry_space_group_name_H-M "C 2/M"
_symmetry_group_IT_number 12
_symmetry_cell_setting 'monoclinic'
loop_
_space_group_symop_operation_xyz
x,y,z
-x,y,-z
-x,-y,-z
x,-y,z
1/2+x,1/2+y,z
1/2-x,1/2+y,-z
1/2-x,1/2-y,-z
1/2+x,1/2-y,z
loop_
_atom_site_type_symbol
_atom_site_label
_atom_site_fract_x
_atom_site_fract_y
_atom_site_fract_z
Si Si1 0.885611 0.888077 0.135999
Si Si2 0.441668 0.703799 0.645115
Si Si3 0.823322 0.888920 0.705103
Si Si4 0.102106 0.787428 0.051475
Si Si5 0.339276 0.889535 0.574985
Si Si6 0.805941 0.888388 0.396720
Si Si7 0.279150 0.110077 0.879550
O O1 0.782112 0.870286 0.080345
O O2 0.951324 0.820172 0.258478
O O3 0.913261 0.000000 0.175726
O O4 0.893733 0.862714 0.031757
O O5 0.397090 0.643814 0.692394
O O6 0.426926 0.819568 0.645420
O O7 0.396162 0.671435 0.504926
O O8 0.830260 0.825011 0.806796
O O9 0.721625 0.877607 0.573846
O O10 0.844436 0.000000 0.750259
O O11 0.134763 0.681654 0.044593
O O12 0.000000 0.777895 0.000000
O O13 0.280650 0.854005 0.615466
O O14 0.373944 0.000000 0.617716
O O15 0.785983 0.871659 0.268490
O O16 0.825179 0.000000 0.439198
O O17 0.317397 0.000000 0.911509
#
# Coordination Sequence:
#
# PCOD8090239 Si02
#       7
#     8   8   8   8   8   8   8
#     4  11  24  39  57  83 117 149 186 234 283 334
#     4  11  18  31  54  84 115 144 182 228 282 335
#     4  10  19  33  55  85 116 143 184 237 286 324
#     4  12  23  37  61  85 110 147 193 238 281 327
#     4   9  18  31  52  83 116 147 181 230 280 333
#     4   9  17  31  55  81 110 144 181 224 279 336
#     4  10  23  42  58  80 115 153 188 228 280 340
#
# _framework density 19.891223
#
# number of rings (size 3 to 8) (size 9 to 14) (size 15 to 20)
#    0.000    1.714    1.429    6.429    0.000    1.429 
#    0.000    2.857    0.000    1.714    0.000    3.000 
#    0.000    0.000    0.000    0.000    0.000    0.000 
#
# Total GULP energy -347281.676063 kJ/mol
# GULP energy per Si atom -12402.917002 kJ/mol
# Density = 1.984595 g / cm^3
# Si number density = 19.891223 Si / 1000 Ang^3
#
#
#
# Elastic Constant Matrix: (Units=GPa)
#
#
# Indices 1 2 3 4 5 6 
#
# 1 81.3988 48.7987 29.1971 0.0000 -7.4638 0.0000
# 2 48.7987 104.9827 22.4140 0.0000 7.9689 0.0000
# 3 29.1971 22.4140 52.7168 0.0000 -5.8610 0.0000
# 4 0.0000 0.0000 0.0000 26.4472 0.0000 2.2974
# 5 -7.4638 7.9689 -5.8610 0.0000 12.3155 0.0000
# 6 0.0000 0.0000 0.0000 2.2974 0.0000 29.3380
#
#
#
# Elastic Compliance Matrix: (Units=1/GPa)
#
#
# Indices 1 2 3 4 5 6 
#
# 1 0.022243 -0.010380 -0.005977 0.000000 0.017353 0.000000
# 2 -0.010380 0.016463 -0.003309 0.000000 -0.018518 0.000000
# 3 -0.005977 -0.003309 0.024836 0.000000 0.010339 0.000000
# 4 0.000000 0.000000 0.000000 0.038070 0.000000 -0.002981
# 5 0.017353 -0.018518 0.010339 0.000000 0.108618 0.000000
# 6 0.000000 0.000000 0.000000 -0.002981 0.000000 0.034319
#
#
# Mechanical properties :
#
#
# Convention : Reuss Voigt Hill
#
# Bulk Modulus (GPa) = 41.30638 48.87975 45.09307
# Shear Modulus (GPa) = 17.12619 22.86605 19.99612
#
# Velocity S-wave (km/s) = 2.93745 3.39419 3.17404
# Velocity P-wave (km/s) = 5.68472 6.32357 6.01264
#
# Compressibility (1/GPa) = 0.02420933
#
# Stress axis : x y z
#
# Youngs Moduli (GPa) = 44.95778 60.74371 40.26437
#
# Poissons Ratio (x) = 0.63054 0.24064
# Poissons Ratio (y) = 0.46668 0.13324
# Poissons Ratio (z) = 0.26869 0.20101
#
# Static dielectric constant tensor:
#      x y z
#    x 3.281490 0.000000 -0.104010 
#    y 0.000000 3.734950 0.000000 
#    z -0.104010 0.000000 3.632940 
# 
# 
# High freq. dielectric constant tensor:
#      x y z
#    x 1.739680 0.000000 -0.009880 
#    y 0.000000 1.787520 0.000000 
#    z -0.009880 0.000000 1.771970 
# 
# From -- ./inp_files/156698.got.cif
#   From: 2010.06.25/outbox.cif.g09.slc.cpg/sg12_79_cif.got.tgz:156698.got - 2010.06.28 00:19:55.
