data_PCOD8090185
_publ_section_title
;
Structure prediction by ZEFSAII (Michael W. Deem and Ramdas Pophale) SiO2 
 PCOD8090185
Probable space group: C 2/M
;
_chemical_formula_sum "Si O2"
_cell_formula_units_Z 56
_cell_length_a 28.468702
_cell_length_b 9.400127
_cell_length_c 21.116893
_cell_angle_alpha 90.000000
_cell_angle_beta 30.863919
_cell_angle_gamma 90.000000
_cell_volume 2899.008232
_symmetry_space_group_name_H-M "C 2/M"
_symmetry_group_IT_number 12
_symmetry_cell_setting 'monoclinic'
loop_
_space_group_symop_operation_xyz
x,y,z
-x,y,-z
-x,-y,-z
x,-y,z
1/2+x,1/2+y,z
1/2-x,1/2+y,-z
1/2-x,1/2-y,-z
1/2+x,1/2-y,z
loop_
_atom_site_type_symbol
_atom_site_label
_atom_site_fract_x
_atom_site_fract_y
_atom_site_fract_z
Si Si1 0.459838 0.165871 0.114460
Si Si2 0.940030 0.664726 0.665569
Si Si3 0.014375 0.835384 0.168619
Si Si4 0.673395 0.662674 0.553685
Si Si5 0.756299 0.662684 0.327030
Si Si6 0.634258 0.837168 0.383981
Si Si7 0.655032 0.667772 0.113719
O O1 0.519297 0.247551 0.098086
O O2 0.354638 0.219163 0.237410
O O3 0.467184 0.000000 0.121740
O O4 0.500000 0.203699 0.000000
O O5 0.936017 0.500000 0.692469
O O6 0.874608 0.686601 0.680717
O O7 0.907121 0.769028 0.758588
O O8 0.042217 0.709210 0.527106
O O9 0.104777 0.806691 0.105059
O O10 0.926936 0.783913 0.310670
O O11 0.005635 0.000000 0.160853
O O12 0.689196 0.500000 0.554619
O O13 0.750000 0.750000 0.500000
O O14 0.682366 0.683273 0.468098
O O15 0.767328 0.500000 0.292935
O O16 0.721060 0.747369 0.306879
O O17 0.655054 0.000000 0.375294
O O18 0.670496 0.500000 0.108129
O O19 0.750000 0.750000 0.000000
#
# Coordination Sequence:
#
# PCOD8090185 Si02
#       7
#     8   8   8   8   8   8   8
#     4  10  22  39  57  79 111 150 190 231 277 335
#     4   9  19  38  59  84 116 149 190 238 288 342
#     4  10  22  39  59  84 114 146 186 237 287 338
#     4  10  19  33  55  83 113 144 182 229 280 335
#     4  10  20  34  53  82 116 147 186 236 284 338
#     4   9  19  35  58  85 115 150 188 235 288 344
#     4  11  24  41  61  86 116 152 195 242 288 340
#
# _framework density 19.316949999999999
#
# number of rings (size 3 to 8) (size 9 to 14) (size 15 to 20)
#    0.000    2.143    1.429    2.143    0.000    6.000 
#    0.000    4.286    0.000    0.000    0.000    0.000 
#    0.000    0.000    0.000    0.000    0.000    0.000 
#
# Total GULP energy -347256.071028 kJ/mol
# GULP energy per Si atom -12402.002537 kJ/mol
# Density = 1.927298 g / cm^3
# Si number density = 19.316950 Si / 1000 Ang^3
#
#
#
# Elastic Constant Matrix: (Units=GPa)
#
#
# Indices 1 2 3 4 5 6 
#
# 1 124.7209 66.5842 39.9454 -0.0058 -3.3723 0.0032
# 2 66.5842 82.1586 39.3747 -0.0250 1.1157 0.0140
# 3 39.9454 39.3747 77.8687 -0.0145 5.1597 0.0094
# 4 -0.0058 -0.0250 -0.0145 29.6558 0.0080 0.6192
# 5 -3.3723 1.1157 5.1597 0.0080 27.4611 -0.0038
# 6 0.0032 0.0140 0.0094 0.6192 -0.0038 39.1836
#
#
#
# Elastic Compliance Matrix: (Units=1/GPa)
#
#
# Indices 1 2 3 4 5 6 
#
# 1 0.014540 -0.010772 -0.002187 -0.000008 0.002634 0.000004
# 2 -0.010772 0.024066 -0.006573 0.000015 -0.001066 -0.000007
# 3 -0.002187 -0.006573 0.017505 0.000004 -0.003291 -0.000002
# 4 -0.000008 0.000015 0.000004 0.033731 -0.000012 -0.000533
# 5 0.002634 -0.001066 -0.003291 -0.000012 0.037400 0.000005
# 6 0.000004 -0.000007 -0.000002 -0.000533 0.000005 0.025529
#
#
# Mechanical properties :
#
#
# Convention : Reuss Voigt Hill
#
# Bulk Modulus (GPa) = 58.65336 64.06187 61.35762
# Shear Modulus (GPa) = 25.31428 28.51635 26.91531
#
# Velocity S-wave (km/s) = 3.62397 3.84635 3.73681
# Velocity P-wave (km/s) = 6.92390 7.27746 7.10288
#
# Compressibility (1/GPa) = 0.01704932
#
# Stress axis : x y z
#
# Youngs Moduli (GPa) = 68.77567 41.55292 57.12521
#
# Poissons Ratio (x) = 0.44759 0.12491
# Poissons Ratio (y) = 0.74082 0.37547
# Poissons Ratio (z) = 0.15039 0.27311
#
# Static dielectric constant tensor:
#      x y z
#    x 3.485870 -0.000010 -0.043870 
#    y -0.000010 3.449780 0.000000 
#    z -0.043870 0.000000 3.559700 
# 
# 
# High freq. dielectric constant tensor:
#      x y z
#    x 1.756630 0.000000 -0.001090 
#    y 0.000000 1.746290 0.000000 
#    z -0.001090 0.000000 1.748410 
# 
# From -- ./inp_files/295092.got.cif
#   From: 2010.06.25/outbox.cif.g09.slc.cpg/sg12_148_cif.got.tgz:295092.got - 2010.06.28 00:19:55.
