data_PCOD8090471
_publ_section_title
;
Structure prediction by ZEFSAII (Michael W. Deem and Ramdas Pophale) SiO2 
 PCOD8090471
Probable space group: C 2/M
;
_chemical_formula_sum "Si O2"
_cell_formula_units_Z 64
_cell_length_a 32.387208
_cell_length_b 8.819070
_cell_length_c 12.110995
_cell_angle_alpha 90.000000
_cell_angle_beta 91.079878
_cell_angle_gamma 90.000000
_cell_volume 3458.589226
_symmetry_space_group_name_H-M "C 2/M"
_symmetry_group_IT_number 12
_symmetry_cell_setting 'monoclinic'
loop_
_space_group_symop_operation_xyz
x,y,z
-x,y,-z
-x,-y,-z
x,-y,z
1/2+x,1/2+y,z
1/2-x,1/2+y,-z
1/2-x,1/2-y,-z
1/2+x,1/2-y,z
loop_
_atom_site_type_symbol
_atom_site_label
_atom_site_fract_x
_atom_site_fract_y
_atom_site_fract_z
Si Si1 0.015904 0.676587 0.878344
Si Si2 0.114760 0.324155 0.404135
Si Si3 0.852483 0.322746 0.358644
Si Si4 0.688450 0.824308 0.247104
Si Si5 0.265025 0.679063 0.387390
Si Si6 0.060125 0.178826 0.232822
Si Si7 0.397186 0.678006 0.158027
Si Si8 0.366811 0.676855 0.920249
O O1 0.026057 0.500000 0.860628
O O2 0.055809 0.778034 0.860414
O O3 0.981965 0.730507 0.788734
O O4 0.000000 0.710106 0.000000
O O5 0.103440 0.500000 0.387898
O O6 0.120930 0.281328 0.532029
O O7 0.157072 0.282391 0.343890
O O8 0.077347 0.222922 0.354679
O O9 0.842007 0.500000 0.355735
O O10 0.810020 0.231769 0.354428
O O11 0.879634 0.276434 0.256223
O O12 0.733739 0.770752 0.288075
O O13 0.675314 0.744179 0.132364
O O14 0.687903 0.000000 0.220780
O O15 0.264110 0.500000 0.402858
O O16 0.250000 0.750000 0.500000
O O17 0.093156 0.238349 0.143736
O O18 0.051888 0.000000 0.224575
O O19 0.394325 0.500000 0.184735
O O20 0.370380 0.720362 0.048564
O O21 0.364988 0.500000 0.902009
#
# Coordination Sequence:
#
# PCOD8090471 Si02
#       8
#     8   8   8   8   8   8   8   8
#     4  11  22  36  58  87 115 149 192 234 280 336
#     4   9  18  35  55  80 115 149 184 231 283 335
#     4  11  23  40  59  84 117 154 193 234 285 343
#     4   9  18  33  55  83 113 144 185 234 282 331
#     4  11  21  36  58  87 117 150 192 239 286 335
#     4  10  19  33  56  86 115 145 185 235 284 333
#     4  11  23  40  59  83 117 153 189 234 286 340
#     4   9  19  34  54  82 114 147 185 230 284 336
#
# _framework density 18.504655
#
# number of rings (size 3 to 8) (size 9 to 14) (size 15 to 20)
#    0.000    1.875    2.500    1.875    0.000    4.000 
#    0.000    1.250    0.000    3.750    0.000    0.000 
#    0.000    0.000    0.000    0.000    0.000    0.000 
#
# Total GULP energy -396882.887184 kJ/mol
# GULP energy per Si atom -12402.590224 kJ/mol
# Density = 1.846254 g / cm^3
# Si number density = 18.504655 Si / 1000 Ang^3
#
#
#
# Elastic Constant Matrix: (Units=GPa)
#
#
# Indices 1 2 3 4 5 6 
#
# 1 82.1448 26.4704 42.4205 0.0000 21.0693 0.0000
# 2 26.4704 45.4100 32.6442 0.0000 14.8741 0.0000
# 3 42.4205 32.6442 103.9392 0.0000 19.2531 0.0000
# 4 0.0000 0.0000 0.0000 30.4994 0.0000 2.8442
# 5 21.0693 14.8741 19.2531 0.0000 31.8432 0.0000
# 6 0.0000 0.0000 0.0000 2.8442 0.0000 33.7215
#
#
#
# Elastic Compliance Matrix: (Units=1/GPa)
#
#
# Indices 1 2 3 4 5 6 
#
# 1 0.017811 -0.004960 -0.004457 0.000000 -0.006773 0.000000
# 2 -0.004960 0.032244 -0.006667 0.000000 -0.007748 0.000000
# 3 -0.004457 -0.006667 0.013976 0.000000 -0.002387 0.000000
# 4 0.000000 0.000000 0.000000 0.033047 0.000000 -0.002787
# 5 -0.006773 -0.007748 -0.002387 0.000000 0.040948 0.000000
# 6 0.000000 0.000000 0.000000 -0.002787 0.000000 0.029890
#
#
# Mechanical properties :
#
#
# Convention : Reuss Voigt Hill
#
# Bulk Modulus (GPa) = 31.38452 48.28491 39.83471
# Shear Modulus (GPa) = 23.72997 27.87675 25.80336
#
# Velocity S-wave (km/s) = 3.58492 3.88554 3.73825
# Velocity P-wave (km/s) = 5.84232 6.80294 6.34084
#
# Compressibility (1/GPa) = 0.03186284
#
# Stress axis : x y z
#
# Youngs Moduli (GPa) = 56.14630 31.01383 71.55088
#
# Poissons Ratio (x) = 0.15382 0.31888
# Poissons Ratio (y) = 0.27848 0.47705
# Poissons Ratio (z) = 0.25022 0.20678
#
# Static dielectric constant tensor:
#      x y z
#    x 3.718050 0.000000 0.116680 
#    y 0.000000 3.401280 0.000000 
#    z 0.116680 0.000000 3.501670 
# 
# 
# High freq. dielectric constant tensor:
#      x y z
#    x 1.710520 0.000000 0.024090 
#    y 0.000000 1.723580 0.000000 
#    z 0.024090 0.000000 1.711830 
# 
# From -- ./inp_files/187540.got.cif
#   From: 2010.06.25/outbox.cif.g09.slc.cpg/sg12_94_cif.got.tgz:187540.got - 2010.06.28 00:19:55.
