data_PCOD8090980
_publ_section_title
;
Structure prediction by ZEFSAII (Michael W. Deem and Ramdas Pophale) SiO2 
 PCOD8090980
Probable space group: C 2/M
;
_chemical_formula_sum "Si O2"
_cell_formula_units_Z 64
_cell_length_a 19.329257
_cell_length_b 19.271707
_cell_length_c 19.378215
_cell_angle_alpha 90.000000
_cell_angle_beta 30.952643
_cell_angle_gamma 90.000000
_cell_volume 3712.705330
_symmetry_space_group_name_H-M "C 2/M"
_symmetry_group_IT_number 12
_symmetry_cell_setting 'monoclinic'
loop_
_space_group_symop_operation_xyz
x,y,z
-x,y,-z
-x,-y,-z
x,-y,z
1/2+x,1/2+y,z
1/2-x,1/2+y,-z
1/2-x,1/2-y,-z
1/2+x,1/2-y,z
loop_
_atom_site_type_symbol
_atom_site_label
_atom_site_fract_x
_atom_site_fract_y
_atom_site_fract_z
Si Si1 0.648655 0.167805 0.144318
Si Si2 0.148651 0.332194 0.644321
Si Si3 0.811285 0.920152 0.105600
Si Si4 0.389592 0.419879 0.191137
Si Si5 0.353730 0.670685 0.348621
Si Si6 0.389591 0.419879 0.691138
Si Si7 0.353730 0.329315 0.848620
Si Si8 0.311286 0.420152 0.605599
O O1 0.500002 0.144762 0.249997
O O2 0.693662 0.125226 0.172805
O O3 0.653944 0.248050 0.161243
O O4 0.745037 0.149632 0.998342
O O5 0.245030 0.350365 0.498346
O O6 0.153938 0.251950 0.661250
O O7 0.193662 0.374774 0.672804
O O8 0.807802 0.908049 0.190592
O O9 0.783887 0.000000 0.111411
O O10 0.955654 0.897536 0.951889
O O11 0.381102 0.500000 0.221290
O O12 0.321065 0.371814 0.307343
O O13 0.499998 0.648576 0.250004
O O14 0.381100 0.500000 0.721292
O O15 0.321062 0.371814 0.807344
O O16 0.307803 0.408050 0.690591
O O17 0.544345 0.397536 0.548112
O O18 0.283888 0.500000 0.611409
#
# Coordination Sequence:
#
# PCOD8090980 Si02
#       8
#     8   8   8   8   8   8   8   8
#     4  10  21  34  51  77 109 138 167 210 263 308
#     4  10  21  34  51  77 109 138 167 210 263 308
#     4   9  18  34  54  78 106 134 170 216 259 301
#     4   9  18  33  56  80 100 132 179 219 249 295
#     4  10  19  34  54  77 103 137 178 213 246 302
#     4   9  18  33  56  80 100 132 179 219 249 295
#     4  10  19  34  54  77 103 137 178 213 246 302
#     4   9  18  34  54  78 106 134 170 216 259 301
#
# _framework density 17.238104
#
# number of rings (size 3 to 8) (size 9 to 14) (size 15 to 20)
#    0.000    2.500    2.500    1.500    0.000    3.000 
#    0.000    1.250    0.000    3.000    0.000    0.000 
#    0.000    0.000    0.000    0.000    0.000    0.000 
#
# Total GULP energy -396875.825654 kJ/mol
# GULP energy per Si atom -12402.369552 kJ/mol
# Density = 1.719887 g / cm^3
# Si number density = 17.238104 Si / 1000 Ang^3
#
#
#
# Elastic Constant Matrix: (Units=GPa)
#
#
# Indices 1 2 3 4 5 6 
#
# 1 120.8054 66.0194 54.2867 0.0151 -1.4852 -0.0014
# 2 66.0194 67.7685 40.5943 0.0226 7.7634 -0.0122
# 3 54.2867 40.5943 97.2806 0.0257 0.2936 -0.0110
# 4 0.0151 0.0226 0.0257 22.4953 -0.0163 6.1751
# 5 -1.4852 7.7634 0.2936 -0.0163 30.2482 0.0048
# 6 -0.0014 -0.0122 -0.0110 6.1751 0.0048 35.9002
#
#
#
# Elastic Compliance Matrix: (Units=1/GPa)
#
#
# Indices 1 2 3 4 5 6 
#
# 1 0.019524 -0.017481 -0.003617 0.000015 0.005480 -0.000010
# 2 -0.017481 0.036103 -0.005280 -0.000030 -0.010073 0.000017
# 3 -0.003617 -0.005280 0.014498 -0.000009 0.001037 0.000004
# 4 0.000015 -0.000030 -0.000009 0.046657 0.000035 -0.008025
# 5 0.005480 -0.010073 0.001037 0.000035 0.035904 -0.000014
# 6 -0.000010 0.000017 0.000004 -0.008025 -0.000014 0.029235
#
#
# Mechanical properties :
#
#
# Convention : Reuss Voigt Hill
#
# Bulk Modulus (GPa) = 57.57408 67.51725 62.54567
# Shear Modulus (GPa) = 20.79295 26.05900 23.42598
#
# Velocity S-wave (km/s) = 3.47684 3.89229 3.69041
# Velocity P-wave (km/s) = 7.04199 7.71054 7.38383
#
# Compressibility (1/GPa) = 0.01736893
#
# Stress axis : x y z
#
# Youngs Moduli (GPa) = 51.21945 27.69883 68.97504
#
# Poissons Ratio (x) = 0.48421 0.24948
# Poissons Ratio (y) = 0.89537 0.36416
# Poissons Ratio (z) = 0.18526 0.14624
#
# Static dielectric constant tensor:
#      x y z
#    x 3.138960 0.000000 0.022780 
#    y 0.000000 3.089400 0.000000 
#    z 0.022780 0.000000 3.093930 
# 
# 
# High freq. dielectric constant tensor:
#      x y z
#    x 1.667330 0.000000 0.006890 
#    y 0.000000 1.662070 0.000000 
#    z 0.006890 0.000000 1.650970 
# 
# From -- ./inp_files/89620.got.cif
#   From: 2010.06.25/outbox.cif.g09.slc.cpg/sg12_45_cif.got.tgz:89620.got - 2010.06.28 00:19:55.
