data_PCOD8090030
_publ_section_title
;
Structure prediction by ZEFSAII (Michael W. Deem and Ramdas Pophale) SiO2 
 PCOD8090030
Probable space group: C 2/M
;
_chemical_formula_sum "Si O2"
_cell_formula_units_Z 40
_cell_length_a 27.350749
_cell_length_b 8.890049
_cell_length_c 18.671664
_cell_angle_alpha 90.000000
_cell_angle_beta 152.450085
_cell_angle_gamma 90.000000
_cell_volume 2099.848836
_symmetry_space_group_name_H-M "C 2/M"
_symmetry_group_IT_number 12
_symmetry_cell_setting 'monoclinic'
loop_
_space_group_symop_operation_xyz
x,y,z
-x,y,-z
-x,-y,-z
x,-y,z
1/2+x,1/2+y,z
1/2-x,1/2+y,-z
1/2-x,1/2-y,-z
1/2+x,1/2-y,z
loop_
_atom_site_type_symbol
_atom_site_label
_atom_site_fract_x
_atom_site_fract_y
_atom_site_fract_z
Si Si1 0.469495 0.321200 0.538070
Si Si2 0.583068 0.669035 0.171705
Si Si3 0.425613 0.825282 0.063460
Si Si4 0.638846 0.678109 0.873961
Si Si5 0.262309 0.175041 0.725318
O O1 0.500000 0.254853 0.500000
O O2 0.465650 0.500000 0.529226
O O3 0.555167 0.264906 0.706432
O O4 0.354353 0.260592 0.411187
O O5 0.603449 0.500000 0.225889
O O6 0.537552 0.769626 0.177171
O O7 0.692365 0.738688 0.285020
O O8 0.500000 0.670441 0.000000
O O9 0.401070 0.728883 0.101010
O O10 0.434251 0.000000 0.094576
O O11 0.331826 0.794777 0.885860
O O12 0.650614 0.500000 0.887502
O O13 0.750000 0.750000 0.000000
O O14 0.261403 0.000000 0.704648
#
# Coordination Sequence:
#
# PCOD8090030 Si02
#       5
#     8   8   8   8   8
#     4   9  18  34  55  77 101 133 174 216 257 304
#     4   9  17  30  50  78 110 139 170 211 258 306
#     4  10  19  33  55  80 106 137 174 214 255 304
#     4  11  22  36  55  78 105 136 171 213 261 311
#     4   9  17  32  55  79 103 136 178 217 254 301
#
# _framework density 19.048991000000001
#
# number of rings (size 3 to 8) (size 9 to 14) (size 15 to 20)
#    0.000    2.400    0.000    3.000    0.000    6.400 
#    0.000    3.000    0.000    4.200    0.000    0.000 
#    0.000    0.000    0.000    0.000    0.000    0.000 
#
# Total GULP energy -248029.481884 kJ/mol
# GULP energy per Si atom -12401.474094 kJ/mol
# Density = 1.900564 g / cm^3
# Si number density = 19.048991 Si / 1000 Ang^3
#
#
#
# Elastic Constant Matrix: (Units=GPa)
#
#
# Indices 1 2 3 4 5 6 
#
# 1 155.0112 42.5419 71.9982 0.0000 27.2338 0.0000
# 2 42.5419 68.5873 40.5350 0.0000 3.3514 0.0000
# 3 71.9982 40.5350 103.8498 0.0000 23.0948 0.0000
# 4 0.0000 0.0000 0.0000 17.8902 0.0000 2.1090
# 5 27.2338 3.3514 23.0948 0.0000 33.3414 0.0000
# 6 0.0000 0.0000 0.0000 2.1090 0.0000 38.5810
#
#
#
# Elastic Compliance Matrix: (Units=1/GPa)
#
#
# Indices 1 2 3 4 5 6 
#
# 1 0.010501 -0.003395 -0.004874 0.000000 -0.004860 0.000000
# 2 -0.003395 0.020467 -0.006849 0.000000 0.005460 0.000000
# 3 -0.004874 -0.006849 0.017310 0.000000 -0.007320 0.000000
# 4 0.000000 0.000000 0.000000 0.056259 0.000000 -0.003075
# 5 -0.004860 0.005460 -0.007320 0.000000 0.038484 0.000000
# 6 0.000000 0.000000 0.000000 -0.003075 0.000000 0.026088
#
#
# Mechanical properties :
#
#
# Convention : Reuss Voigt Hill
#
# Bulk Modulus (GPa) = 55.43054 70.84429 63.13741
# Shear Modulus (GPa) = 24.34774 29.45406 26.90090
#
# Velocity S-wave (km/s) = 3.57902 3.93648 3.76200
# Velocity P-wave (km/s) = 6.80010 7.61134 7.21712
#
# Compressibility (1/GPa) = 0.01804060
#
# Stress axis : x y z
#
# Youngs Moduli (GPa) = 95.23334 48.85951 57.77080
#
# Poissons Ratio (x) = 0.16588 0.28158
# Poissons Ratio (y) = 0.32332 0.39568
# Poissons Ratio (z) = 0.46417 0.33465
#
# Static dielectric constant tensor:
#      x y z
#    x 3.837290 0.000000 0.184430 
#    y 0.000000 3.387600 0.000000 
#    z 0.184430 0.000000 3.441160 
# 
# 
# High freq. dielectric constant tensor:
#      x y z
#    x 1.757360 0.000000 0.013740 
#    y 0.000000 1.727500 0.000000 
#    z 0.013740 0.000000 1.721320 
# 
# From -- ./inp_files/151955.got.cif
#   From: 2010.06.25/outbox.cif.g09.slc.cpg/sg12_76_cif.got.tgz:151955.got - 2010.06.28 00:19:55.
