data_PCOD8090589
_publ_section_title
;
Structure prediction by ZEFSAII (Michael W. Deem and Ramdas Pophale) SiO2 
 PCOD8090589
Probable space group: C 2/M
;
_chemical_formula_sum "Si O2"
_cell_formula_units_Z 48
_cell_length_a 18.979236
_cell_length_b 8.746469
_cell_length_c 15.762368
_cell_angle_alpha 90.000000
_cell_angle_beta 120.691601
_cell_angle_gamma 90.000000
_cell_volume 2250.062528
_symmetry_space_group_name_H-M "C 2/M"
_symmetry_group_IT_number 12
_symmetry_cell_setting 'monoclinic'
loop_
_space_group_symop_operation_xyz
x,y,z
-x,y,-z
-x,-y,-z
x,-y,z
1/2+x,1/2+y,z
1/2-x,1/2+y,-z
1/2-x,1/2-y,-z
1/2+x,1/2-y,z
loop_
_atom_site_type_symbol
_atom_site_label
_atom_site_fract_x
_atom_site_fract_y
_atom_site_fract_z
Si Si1 0.301533 0.179004 0.451007
Si Si2 0.192918 0.320395 0.894039
Si Si3 0.358922 0.170326 0.691684
Si Si4 0.722986 0.326958 0.732602
Si Si5 0.472300 0.327740 0.222467
Si Si6 0.462959 0.673882 0.562965
O O1 0.214748 0.270503 0.419628
O O2 0.326120 0.230746 0.369418
O O3 0.385768 0.227211 0.551862
O O4 0.283390 0.000000 0.444644
O O5 0.204026 0.500000 0.899975
O O6 0.219230 0.252968 0.820439
O O7 0.098777 0.278909 0.858667
O O8 0.250000 0.250000 0.000000
O O9 0.318099 0.169029 0.760112
O O10 0.437480 0.276810 0.750418
O O11 0.383443 0.000000 0.676901
O O12 0.687874 0.500000 0.717373
O O13 0.458463 0.500000 0.181395
O O14 0.467015 0.319529 0.321889
O O15 0.500000 0.744578 0.500000
O O16 0.432606 0.500000 0.529389
#
# Coordination Sequence:
#
# PCOD8090589 Si02
#       6
#     8   8   8   8   8   8
#     4  10  19  33  57  86 118 158 203 243 291 353
#     4  12  25  42  66  92 121 155 198 248 303 363
#     4   9  20  38  61  86 122 164 201 246 302 357
#     4   9  19  38  62  87 120 159 199 243 297 354
#     4  11  23  39  62  90 123 157 203 256 303 358
#     4  10  21  36  55  83 121 164 203 246 300 355
#
# _framework density 21.332740000000001
#
# number of rings (size 3 to 8) (size 9 to 14) (size 15 to 20)
#    1.000    0.833    0.000    5.000    0.000    3.667 
#    0.000    0.833    0.000    5.000    0.000    0.000 
#    0.000    0.000    0.000    0.000    0.000    0.000 
#
# Total GULP energy -297568.272550 kJ/mol
# GULP energy per Si atom -12398.678023 kJ/mol
# Density = 2.128419 g / cm^3
# Si number density = 21.332740 Si / 1000 Ang^3
#
#
#
# Elastic Constant Matrix: (Units=GPa)
#
#
# Indices 1 2 3 4 5 6 
#
# 1 85.4742 30.8474 34.1010 0.0000 18.8730 0.0000
# 2 30.8474 148.3452 30.6039 0.0000 11.1673 0.0000
# 3 34.1010 30.6039 87.4037 0.0000 22.7973 0.0000
# 4 0.0000 0.0000 0.0000 33.2738 0.0000 3.6035
# 5 18.8730 11.1673 22.7973 0.0000 24.2970 0.0000
# 6 0.0000 0.0000 0.0000 3.6035 0.0000 40.0336
#
#
#
# Elastic Compliance Matrix: (Units=1/GPa)
#
#
# Indices 1 2 3 4 5 6 
#
# 1 0.015482 -0.001940 -0.003253 0.000000 -0.008082 0.000000
# 2 -0.001940 0.007538 -0.001817 0.000000 -0.000254 0.000000
# 3 -0.003253 -0.001817 0.016510 0.000000 -0.012129 0.000000
# 4 0.000000 0.000000 0.000000 0.030350 0.000000 -0.002732
# 5 -0.008082 -0.000254 -0.012129 0.000000 0.058932 0.000000
# 6 0.000000 0.000000 0.000000 -0.002732 0.000000 0.025225
#
#
# Mechanical properties :
#
#
# Convention : Reuss Voigt Hill
#
# Bulk Modulus (GPa) = 39.19845 56.92529 48.06187
# Shear Modulus (GPa) = 28.31907 34.56559 31.44233
#
# Velocity S-wave (km/s) = 3.64743 4.02967 3.84331
# Velocity P-wave (km/s) = 6.01274 6.95654 6.50178
#
# Compressibility (1/GPa) = 0.02551121
#
# Stress axis : x y z
#
# Youngs Moduli (GPa) = 64.59156 132.65694 60.56905
#
# Poissons Ratio (x) = 0.25733 0.19704
# Poissons Ratio (y) = 0.12530 0.11002
# Poissons Ratio (z) = 0.21013 0.24097
#
# Static dielectric constant tensor:
#      x y z
#    x 3.889130 0.000000 -0.059140 
#    y 0.000000 3.794440 0.000000 
#    z -0.059140 0.000000 3.655250 
# 
# 
# High freq. dielectric constant tensor:
#      x y z
#    x 1.858670 0.000000 -0.002850 
#    y 0.000000 1.838110 0.000000 
#    z -0.002850 0.000000 1.813400 
# 
# From -- ./inp_files/280529.got.cif
#   From: 2010.06.25/outbox.cif.g09.slc.cpg/sg12_141_cif.got.tgz:280529.got - 2010.06.28 00:19:55.
