data_PCOD8090836
_publ_section_title
;
Structure prediction by ZEFSAII (Michael W. Deem and Ramdas Pophale) SiO2 
 PCOD8090836
Probable space group: C 2/M
;
_chemical_formula_sum "Si O2"
_cell_formula_units_Z 48
_cell_length_a 24.678406
_cell_length_b 13.072929
_cell_length_c 16.996336
_cell_angle_alpha 90.000000
_cell_angle_beta 149.296870
_cell_angle_gamma 90.000000
_cell_volume 2799.738868
_symmetry_space_group_name_H-M "C 2/M"
_symmetry_group_IT_number 12
_symmetry_cell_setting 'monoclinic'
loop_
_space_group_symop_operation_xyz
x,y,z
-x,y,-z
-x,-y,-z
x,-y,z
1/2+x,1/2+y,z
1/2-x,1/2+y,-z
1/2-x,1/2-y,-z
1/2+x,1/2-y,z
loop_
_atom_site_type_symbol
_atom_site_label
_atom_site_fract_x
_atom_site_fract_y
_atom_site_fract_z
Si Si1 0.890897 0.000000 0.459732
Si Si2 0.403030 0.619256 0.733323
Si Si3 0.859925 0.000000 0.248153
Si Si4 0.088359 0.798419 0.420944
Si Si5 0.364804 0.615185 0.960271
Si Si6 0.270129 0.119268 0.349318
Si Si7 0.341907 0.670046 0.107539
O O1 0.824155 0.000000 0.294734
O O2 0.864296 0.895583 0.472607
O O3 0.014524 0.000000 0.598179
O O4 0.414619 0.500000 0.722701
O O5 0.370748 0.685113 0.616862
O O6 0.517691 0.662225 0.905215
O O7 0.318254 0.635498 0.694846
O O8 0.814205 0.903428 0.145129
O O9 0.130176 0.690857 0.506648
O O10 0.961070 0.787743 0.266278
O O11 0.371363 0.500000 0.937933
O O12 0.329774 0.617795 0.007268
O O13 0.277590 0.663541 0.792546
O O14 0.307064 0.000000 0.391693
O O15 0.250000 0.750000 0.000000
#
# Coordination Sequence:
#
# PCOD8090836 Si02
#       7
#     4   8   4   8   8   8   8
#     4   9  18  32  54  75  91 122 169 221 243 268
#     4   9  16  31  54  76  98 129 168 207 246 286
#     4   9  18  34  52  73  93 119 172 216 242 282
#     4  10  19  34  52  74 103 128 166 209 248 292
#     4   9  17  32  51  73  99 127 167 209 240 286
#     4  10  20  31  49  78 107 132 158 198 253 308
#     4  10  20  34  52  73  96 133 166 204 252 291
#
# _framework density 17.144456000000002
#
# number of rings (size 3 to 8) (size 9 to 14) (size 15 to 20)
#    0.000    2.500    1.667    1.000    2.333    2.000 
#    1.500    0.000    0.000    2.000    0.000    1.167 
#    0.000    0.000    0.000    0.000    0.000    0.000 
#
# Total GULP energy -297402.513008 kJ/mol
# GULP energy per Si atom -12391.771375 kJ/mol
# Density = 1.710543 g / cm^3
# Si number density = 17.144456 Si / 1000 Ang^3
#
#
#
# Elastic Constant Matrix: (Units=GPa)
#
#
# Indices 1 2 3 4 5 6 
#
# 1 63.0694 29.4466 46.7935 0.0000 -15.0693 0.0000
# 2 29.4466 88.9820 60.4593 0.0000 -6.2312 0.0000
# 3 46.7935 60.4593 112.5422 0.0000 -24.3987 0.0000
# 4 0.0000 0.0000 0.0000 28.9629 0.0000 1.1612
# 5 -15.0693 -6.2312 -24.3987 0.0000 27.2413 0.0000
# 6 0.0000 0.0000 0.0000 1.1612 0.0000 18.2507
#
#
#
# Elastic Compliance Matrix: (Units=1/GPa)
#
#
# Indices 1 2 3 4 5 6 
#
# 1 0.023878 -0.002571 -0.007211 0.000000 0.006162 0.000000
# 2 -0.002571 0.018677 -0.010358 0.000000 -0.006427 0.000000
# 3 -0.007211 -0.010358 0.019942 0.000000 0.011503 0.000000
# 4 0.000000 0.000000 0.000000 0.034615 0.000000 -0.002202
# 5 0.006162 -0.006427 0.011503 0.000000 0.048950 0.000000
# 6 0.000000 0.000000 0.000000 -0.002202 0.000000 0.054932
#
#
# Mechanical properties :
#
#
# Convention : Reuss Voigt Hill
#
# Bulk Modulus (GPa) = 45.00996 59.77693 52.39344
# Shear Modulus (GPa) = 20.10613 23.41726 21.76169
#
# Velocity S-wave (km/s) = 3.42826 3.69979 3.56661
# Velocity P-wave (km/s) = 6.47927 7.29339 6.89835
#
# Compressibility (1/GPa) = 0.02221731
#
# Stress axis : x y z
#
# Youngs Moduli (GPa) = 41.87868 53.54313 50.14533
#
# Poissons Ratio (x) = 0.13764 0.36162
# Poissons Ratio (y) = 0.10766 0.51939
# Poissons Ratio (z) = 0.30200 0.55459
#
# Static dielectric constant tensor:
#      x y z
#    x 3.326770 0.000000 -0.380060 
#    y 0.000000 3.027320 0.000000 
#    z -0.380060 0.000000 3.343220 
# 
# 
# High freq. dielectric constant tensor:
#      x y z
#    x 1.657590 0.000000 -0.024490 
#    y 0.000000 1.638720 0.000000 
#    z -0.024490 0.000000 1.661840 
# 
# From -- ./inp_files/189396.got.cif
#   From: 2010.06.25/outbox.cif.g09.slc.cpg/sg12_95_cif.got.tgz:189396.got - 2010.06.28 00:19:55.
