data_PCOD8090334
_publ_section_title
;
Structure prediction by ZEFSAII (Michael W. Deem and Ramdas Pophale) SiO2 
 PCOD8090334
Probable space group: C 2/M
;
_chemical_formula_sum "Si O2"
_cell_formula_units_Z 56
_cell_length_a 19.141110
_cell_length_b 8.421855
_cell_length_c 20.825640
_cell_angle_alpha 90.000000
_cell_angle_beta 120.820597
_cell_angle_gamma 90.000000
_cell_volume 2883.055600
_symmetry_space_group_name_H-M "C 2/M"
_symmetry_group_IT_number 12
_symmetry_cell_setting 'monoclinic'
loop_
_space_group_symop_operation_xyz
x,y,z
-x,y,-z
-x,-y,-z
x,-y,z
1/2+x,1/2+y,z
1/2-x,1/2+y,-z
1/2-x,1/2-y,-z
1/2+x,1/2-y,z
loop_
_atom_site_type_symbol
_atom_site_label
_atom_site_fract_x
_atom_site_fract_y
_atom_site_fract_z
Si Si1 0.011200 0.682496 0.305522
Si Si2 0.038777 0.683258 0.581450
Si Si3 0.349607 0.678866 0.190677
Si Si4 0.290349 0.813706 0.285583
Si Si5 0.889445 0.186729 0.760193
Si Si6 0.836932 0.319773 0.053921
Si Si7 0.995345 0.184836 0.069923
O O1 0.985430 0.500000 0.280115
O O2 0.085966 0.727195 0.294663
O O3 0.024855 0.704182 0.388858
O O4 0.940697 0.808330 0.259038
O O5 0.052278 0.500000 0.571808
O O6 0.130032 0.751145 0.638688
O O7 0.000000 0.767548 0.500000
O O8 0.332729 0.500000 0.157918
O O9 0.285050 0.724017 0.214985
O O10 0.345772 0.809912 0.133917
O O11 0.206110 0.773975 0.280943
O O12 0.299688 0.000000 0.276315
O O13 0.939690 0.253299 0.846513
O O14 0.905945 0.000000 0.761794
O O15 0.845241 0.500000 0.033947
O O16 0.904529 0.213943 0.051293
O O17 0.750000 0.250000 0.000000
O O18 0.013609 0.000000 0.072518
O O19 0.000000 0.261108 0.000000
#
# Coordination Sequence:
#
# PCOD8090334 Si02
#       7
#     8   8   8   8   8   8   8
#     4  10  19  33  56  82 107 143 186 227 273 330
#     4   8  15  31  55  81 110 145 187 229 271 326
#     4  11  21  36  56  80 108 142 183 230 280 327
#     4   9  19  34  55  83 110 145 188 227 276 331
#     4  10  20  35  55  79 112 147 182 229 281 334
#     4  12  25  40  58  81 110 143 186 233 279 331
#     4  10  22  39  57  80 110 148 187 229 283 334
#
# _framework density 19.423835
#
# number of rings (size 3 to 8) (size 9 to 14) (size 15 to 20)
#    0.000    2.000    1.429    3.857    2.000    0.857 
#    0.000    0.714    0.000   10.714    0.000    0.000 
#    0.000    0.000    0.000    0.000    0.000    0.000 
#
# Total GULP energy -346936.820671 kJ/mol
# GULP energy per Si atom -12390.600738 kJ/mol
# Density = 1.937963 g / cm^3
# Si number density = 19.423835 Si / 1000 Ang^3
#
#
#
# Elastic Constant Matrix: (Units=GPa)
#
#
# Indices 1 2 3 4 5 6 
#
# 1 147.9960 17.9708 72.1848 0.0000 -7.6759 0.0000
# 2 17.9708 40.2824 12.3574 0.0000 -4.8764 0.0000
# 3 72.1848 12.3574 120.4276 0.0000 -17.8976 0.0000
# 4 0.0000 0.0000 0.0000 14.7080 0.0000 -5.1496
# 5 -7.6759 -4.8764 -17.8976 0.0000 27.5957 0.0000
# 6 0.0000 0.0000 0.0000 -5.1496 0.0000 28.0236
#
#
#
# Elastic Compliance Matrix: (Units=1/GPa)
#
#
# Indices 1 2 3 4 5 6 
#
# 1 0.009876 -0.002795 -0.005863 0.000000 -0.001549 0.000000
# 2 -0.002795 0.026668 -0.000527 0.000000 0.003593 0.000000
# 3 -0.005863 -0.000527 0.012855 0.000000 0.006613 0.000000
# 4 0.000000 0.000000 0.000000 0.072665 0.000000 0.013353
# 5 -0.001549 0.003593 0.006613 0.000000 0.040731 0.000000
# 6 0.000000 0.000000 0.000000 0.013353 0.000000 0.038138
#
#
# Mechanical properties :
#
#
# Convention : Reuss Voigt Hill
#
# Bulk Modulus (GPa) = 32.22811 57.08136 44.65474
# Shear Modulus (GPa) = 21.77266 27.81165 24.79215
#
# Velocity S-wave (km/s) = 3.35165 3.78806 3.57652
# Velocity P-wave (km/s) = 5.62194 6.97019 6.33205
#
# Compressibility (1/GPa) = 0.03102881
#
# Stress axis : x y z
#
# Youngs Moduli (GPa) = 101.25981 37.49774 77.79074
#
# Poissons Ratio (x) = 0.10479 0.45608
# Poissons Ratio (y) = 0.28299 0.04102
# Poissons Ratio (z) = 0.59368 0.01977
#
# Static dielectric constant tensor:
#      x y z
#    x 3.888870 0.000000 -0.430460 
#    y 0.000000 3.317130 0.000000 
#    z -0.430460 0.000000 4.014750 
# 
# 
# High freq. dielectric constant tensor:
#      x y z
#    x 1.758670 0.000000 -0.012080 
#    y 0.000000 1.735250 0.000000 
#    z -0.012080 0.000000 1.745910 
# 
# From -- ./inp_files/314401.got.cif
#   From: 2010.06.25/outbox.cif.g09.slc.cpg/sg12_158_cif.got.tgz:314401.got - 2010.06.28 00:19:55.
