data_PCOD8090788
_publ_section_title
;
Structure prediction by ZEFSAII (Michael W. Deem and Ramdas Pophale) SiO2 
 PCOD8090788
Probable space group: C 2/M
;
_chemical_formula_sum "Si O2"
_cell_formula_units_Z 56
_cell_length_a 17.743792
_cell_length_b 12.294142
_cell_length_c 17.798677
_cell_angle_alpha 90.000000
_cell_angle_beta 53.972413
_cell_angle_gamma 90.000000
_cell_volume 3140.060589
_symmetry_space_group_name_H-M "C 2/M"
_symmetry_group_IT_number 12
_symmetry_cell_setting 'monoclinic'
loop_
_space_group_symop_operation_xyz
x,y,z
-x,y,-z
-x,-y,-z
x,-y,z
1/2+x,1/2+y,z
1/2-x,1/2+y,-z
1/2-x,1/2-y,-z
1/2+x,1/2-y,z
loop_
_atom_site_type_symbol
_atom_site_label
_atom_site_fract_x
_atom_site_fract_y
_atom_site_fract_z
Si Si1 0.515348 0.116780 0.905023
Si Si2 0.561765 0.628110 0.568182
Si Si3 0.924581 0.127463 0.274728
Si Si4 0.261616 0.372895 0.090435
Si Si5 0.188836 0.230753 0.783709
Si Si6 0.611675 0.732083 0.103602
Si Si7 0.139194 0.870709 0.368083
O O1 0.606508 0.184750 0.837734
O O2 0.421741 0.171715 0.930445
O O3 0.527856 0.000000 0.857143
O O4 0.500000 0.097100 0.000000
O O5 0.558230 0.500000 0.567889
O O6 0.598056 0.670960 0.627633
O O7 0.456052 0.666855 0.616108
O O8 0.631423 0.664120 0.460570
O O9 0.837695 0.155970 0.272109
O O10 0.023545 0.176247 0.193101
O O11 0.938681 0.000000 0.266956
O O12 0.231635 0.500000 0.108370
O O13 0.306105 0.344148 0.145179
O O14 0.176190 0.289153 0.128573
O O15 0.334225 0.355763 0.979447
O O16 0.282085 0.298297 0.716270
O O17 0.159663 0.000000 0.346116
#
# Coordination Sequence:
#
# PCOD8090788 Si02
#       7
#     8   8   8   8   8   8   8
#     4  10  19  34  50  70 101 133 170 215 249 286
#     4   8  16  32  53  76 102 131 167 214 262 296
#     4  10  20  34  52  75 104 137 170 209 252 306
#     4  11  22  36  51  74 104 133 169 215 253 300
#     4  11  21  32  50  78 104 139 173 201 255 313
#     4  10  21  36  53  73  96 136 178 205 254 305
#     4   9  17  32  54  79 104 130 169 219 256 294
#
# _framework density 17.834052
#
# number of rings (size 3 to 8) (size 9 to 14) (size 15 to 20)
#    0.000    2.143    1.429    3.429    0.000    0.571 
#    0.000    3.571    0.000    0.000    0.000   20.000 
#    0.000    0.000    0.000    0.000    0.000    0.000 
#
# Total GULP energy -347026.762103 kJ/mol
# GULP energy per Si atom -12393.812932 kJ/mol
# Density = 1.779346 g / cm^3
# Si number density = 17.834052 Si / 1000 Ang^3
#
#
#
# Elastic Constant Matrix: (Units=GPa)
#
#
# Indices 1 2 3 4 5 6 
#
# 1 70.5915 18.6794 13.4981 0.0000 15.8529 0.0000
# 2 18.6794 68.3772 14.1128 0.0000 8.6313 0.0000
# 3 13.4981 14.1128 48.2554 0.0000 10.0428 0.0000
# 4 0.0000 0.0000 0.0000 17.9465 0.0000 -2.1969
# 5 15.8529 8.6313 10.0428 0.0000 33.6355 0.0000
# 6 0.0000 0.0000 0.0000 -2.1969 0.0000 23.7003
#
#
#
# Elastic Compliance Matrix: (Units=1/GPa)
#
#
# Indices 1 2 3 4 5 6 
#
# 1 0.016949 -0.003318 -0.002437 0.000000 -0.006409 0.000000
# 2 -0.003318 0.016467 -0.003555 0.000000 -0.001600 0.000000
# 3 -0.002437 -0.003555 0.023474 0.000000 -0.004948 0.000000
# 4 0.000000 0.000000 0.000000 0.056361 0.000000 0.005224
# 5 -0.006409 -0.001600 -0.004948 0.000000 0.034639 0.000000
# 6 0.000000 0.000000 0.000000 0.005224 0.000000 0.042678
#
#
# Mechanical properties :
#
#
# Convention : Reuss Voigt Hill
#
# Bulk Modulus (GPa) = 26.12943 31.08941 28.60942
# Shear Modulus (GPa) = 22.52813 24.45205 23.49009
#
# Velocity S-wave (km/s) = 3.55802 3.70684 3.63319
# Velocity P-wave (km/s) = 5.61806 5.98258 5.80318
#
# Compressibility (1/GPa) = 0.03827103
#
# Stress axis : x y z
#
# Youngs Moduli (GPa) = 58.99925 60.72778 42.60015
#
# Poissons Ratio (x) = 0.20151 0.10381
# Poissons Ratio (y) = 0.19577 0.15143
# Poissons Ratio (z) = 0.14377 0.21587
#
# Static dielectric constant tensor:
#      x y z
#    x 3.655110 0.000000 0.278220 
#    y 0.000000 3.364270 0.000000 
#    z 0.278220 0.000000 3.339410 
# 
# 
# High freq. dielectric constant tensor:
#      x y z
#    x 1.697030 0.000000 0.010000 
#    y 0.000000 1.678150 0.000000 
#    z 0.010000 0.000000 1.687220 
# 
# From -- ./inp_files/223136.got.cif
#   From: 2010.06.25/outbox.cif.g09.slc.cpg/sg12_112_cif.got.tgz:223136.got - 2010.06.28 00:19:55.
