data_PCOD8090258
_publ_section_title
;
Structure prediction by ZEFSAII (Michael W. Deem and Ramdas Pophale) SiO2 
 PCOD8090258
Probable space group: C 2/M
;
_chemical_formula_sum "Si O2"
_cell_formula_units_Z 64
_cell_length_a 16.657289
_cell_length_b 21.444616
_cell_length_c 12.274619
_cell_angle_alpha 90.000000
_cell_angle_beta 48.683819
_cell_angle_gamma 90.000000
_cell_volume 3293.180154
_symmetry_space_group_name_H-M "C 2/M"
_symmetry_group_IT_number 12
_symmetry_cell_setting 'monoclinic'
loop_
_space_group_symop_operation_xyz
x,y,z
-x,y,-z
-x,-y,-z
x,-y,z
1/2+x,1/2+y,z
1/2-x,1/2+y,-z
1/2-x,1/2-y,-z
1/2+x,1/2-y,z
loop_
_atom_site_type_symbol
_atom_site_label
_atom_site_fract_x
_atom_site_fract_y
_atom_site_fract_z
Si Si1 0.971025 0.724715 0.826863
Si Si2 0.666778 0.298257 0.629561
Si Si3 0.388195 0.071994 0.631798
Si Si4 0.205910 0.355282 0.095463
Si Si5 0.387724 0.306312 0.078146
Si Si6 0.920223 0.599732 0.217464
Si Si7 0.652104 0.930642 0.946405
Si Si8 0.242920 0.569971 0.459967
O O1 0.870204 0.706274 0.841280
O O2 0.043980 0.779729 0.708379
O O3 0.056156 0.670015 0.768829
O O4 0.924421 0.742024 0.987472
O O5 0.750000 0.250000 0.500000
O O6 0.677760 0.293675 0.752152
O O7 0.682604 0.370416 0.575405
O O8 0.500000 0.105546 0.500000
O O9 0.355134 0.093996 0.779621
O O10 0.296510 0.086281 0.626162
O O11 0.409883 0.000000 0.623344
O O12 0.319078 0.341854 0.048620
O O13 0.221644 0.384832 0.961264
O O14 0.500000 0.343911 0.000000
O O15 0.845753 0.597640 0.176857
O O16 0.858218 0.565623 0.370015
O O17 0.030796 0.564150 0.098116
O O18 0.702188 0.000000 0.901398
O O19 0.297791 0.500000 0.413048
#
# Coordination Sequence:
#
# PCOD8090258 Si02
#       8
#     8   8   8   8   8   8   8   8
#     4  10  22  36  59  85 122 156 203 253 309 357
#     4  11  22  37  59  86 120 161 202 253 294 356
#     4  10  20  33  52  82 123 162 197 248 312 366
#     4  11  21  35  58  85 117 157 199 249 307 367
#     4  10  23  40  59  83 120 157 198 255 309 364
#     4  10  19  33  55  86 120 160 197 245 305 362
#     4  10  20  31  52  84 122 156 198 247 296 363
#     4  11  21  36  58  84 121 164 203 245 298 362
#
# _framework density 19.434101999999999
#
# number of rings (size 3 to 8) (size 9 to 14) (size 15 to 20)
#    0.000    1.625    2.500    3.750   10.500    1.000 
#    0.000    0.000    0.000   12.375    0.000    0.000 
#    0.000    9.000    0.000    0.000    0.000    0.000 
#
# Total GULP energy -396485.371234 kJ/mol
# GULP energy per Si atom -12390.167851 kJ/mol
# Density = 1.938987 g / cm^3
# Si number density = 19.434102 Si / 1000 Ang^3
#
#
#
# Elastic Constant Matrix: (Units=GPa)
#
#
# Indices 1 2 3 4 5 6 
#
# 1 115.8477 40.8503 15.9534 -0.0002 0.0959 0.0000
# 2 40.8503 98.7894 21.5587 0.0000 -9.5296 0.0000
# 3 15.9534 21.5587 70.6431 -0.0002 7.0372 0.0000
# 4 -0.0002 0.0000 -0.0002 18.7202 0.0002 -1.3810
# 5 0.0959 -9.5296 7.0372 0.0002 23.5884 0.0000
# 6 0.0000 0.0000 0.0000 -1.3810 0.0000 19.3924
#
#
#
# Elastic Compliance Matrix: (Units=1/GPa)
#
#
# Indices 1 2 3 4 5 6 
#
# 1 0.010228 -0.004177 -0.000889 0.000000 -0.001464 0.000000
# 2 -0.004177 0.013299 -0.003764 0.000000 0.006513 0.000000
# 3 -0.000889 -0.003764 0.016136 0.000000 -0.006331 0.000000
# 4 0.000000 0.000000 0.000000 0.053700 -0.000001 0.003824
# 5 -0.001464 0.006513 -0.006331 -0.000001 0.046920 0.000000
# 6 0.000000 0.000000 0.000000 0.003824 0.000000 0.051839
#
#
# Mechanical properties :
#
#
# Convention : Reuss Voigt Hill
#
# Bulk Modulus (GPa) = 45.44820 49.11165 47.27992
# Shear Modulus (GPa) = 23.02896 26.13471 24.58184
#
# Velocity S-wave (km/s) = 3.44608 3.67111 3.56038
# Velocity P-wave (km/s) = 6.26662 6.57990 6.42517
#
# Compressibility (1/GPa) = 0.02200307
#
# Stress axis : x y z
#
# Youngs Moduli (GPa) = 97.76605 75.19166 61.97331
#
# Poissons Ratio (x) = 0.31405 0.05512
# Poissons Ratio (y) = 0.40833 0.23328
# Poissons Ratio (z) = 0.08696 0.28304
#
# Static dielectric constant tensor:
#      x y z
#    x 3.622860 0.000000 0.183860 
#    y 0.000000 3.585200 0.000000 
#    z 0.183860 0.000000 3.617850 
# 
# 
# High freq. dielectric constant tensor:
#      x y z
#    x 1.730790 0.000000 0.020130 
#    y 0.000000 1.753540 0.000000 
#    z 0.020130 0.000000 1.749470 
# 
# From -- ./inp_files/159514.got.cif
#   From: 2010.06.25/outbox.cif.g09.slc.cpg/sg12_80_cif.got.tgz:159514.got - 2010.06.28 00:19:55.
