data_PCOD8090745
_publ_section_title
;
Structure prediction by ZEFSAII (Michael W. Deem and Ramdas Pophale) SiO2 
 PCOD8090745
Probable space group: C 2/M
;
_chemical_formula_sum "Si O2"
_cell_formula_units_Z 48
_cell_length_a 13.561336
_cell_length_b 19.681608
_cell_length_c 13.919252
_cell_angle_alpha 90.000000
_cell_angle_beta 40.807847
_cell_angle_gamma 90.000000
_cell_volume 2427.955229
_symmetry_space_group_name_H-M "C 2/M"
_symmetry_group_IT_number 12
_symmetry_cell_setting 'monoclinic'
loop_
_space_group_symop_operation_xyz
x,y,z
-x,y,-z
-x,-y,-z
x,-y,z
1/2+x,1/2+y,z
1/2-x,1/2+y,-z
1/2-x,1/2-y,-z
1/2+x,1/2-y,z
loop_
_atom_site_type_symbol
_atom_site_label
_atom_site_fract_x
_atom_site_fract_y
_atom_site_fract_z
Si Si1 0.061553 0.577229 0.057839
Si Si2 0.145539 0.843705 0.150758
Si Si3 0.238177 0.423439 0.611796
Si Si4 0.341064 0.297372 0.648699
Si Si5 0.567919 0.301134 0.844258
Si Si6 0.370160 0.576679 0.316715
O O1 0.119914 0.500000 0.002959
O O2 0.935848 0.583121 0.231700
O O3 0.192973 0.626412 0.997668
O O4 0.000000 0.603417 0.000000
O O5 0.159682 0.801377 0.236830
O O6 0.076928 0.792917 0.120023
O O7 0.032302 0.907857 0.246879
O O8 0.297353 0.500000 0.590278
O O9 0.336358 0.370884 0.601268
O O10 0.247275 0.408855 0.490804
O O11 0.500000 0.262551 0.500000
O O12 0.192416 0.255552 0.728235
O O13 0.650342 0.373572 0.760341
O O14 0.500000 0.297997 0.000000
O O15 0.361477 0.500000 0.284673
#
# Coordination Sequence:
#
# PCOD8090745 Si02
#       6
#     8   8   8   8   8   8
#     4  10  19  33  59  99 135 160 196 256 325 385
#     4  10  22  39  63  92 121 170 211 261 316 380
#     4  10  21  36  62  99 135 164 201 261 328 385
#     4  12  23  41  64  95 133 170 208 264 325 388
#     4  10  26  46  62  94 124 172 223 266 320 375
#     4   9  20  42  67  91 123 165 218 263 315 378
#
# _framework density 19.769722000000002
#
# number of rings (size 3 to 8) (size 9 to 14) (size 15 to 20)
#    1.000    0.833    3.333    0.500    2.333    4.667 
#    3.000    0.000    0.000    0.500    0.000    0.000 
#    0.000    0.000    0.000    0.000    0.000    0.000 
#
# Total GULP energy -297430.128985 kJ/mol
# GULP energy per Si atom -12392.922041 kJ/mol
# Density = 1.972473 g / cm^3
# Si number density = 19.769722 Si / 1000 Ang^3
#
#
#
# Elastic Constant Matrix: (Units=GPa)
#
#
# Indices 1 2 3 4 5 6 
#
# 1 82.8323 45.5071 35.7436 0.0026 -14.6667 -0.0022
# 2 45.5071 87.0579 35.8908 0.0001 -2.1279 -0.0013
# 3 35.7436 35.8908 117.1152 0.0103 -12.3067 -0.0073
# 4 0.0026 0.0001 0.0103 25.5299 -0.0054 -4.3176
# 5 -14.6667 -2.1279 -12.3067 -0.0054 25.9061 0.0033
# 6 -0.0022 -0.0013 -0.0073 -4.3176 0.0033 31.1041
#
#
#
# Elastic Compliance Matrix: (Units=1/GPa)
#
#
# Indices 1 2 3 4 5 6 
#
# 1 0.019725 -0.009163 -0.002229 0.000001 0.009356 0.000000
# 2 -0.009163 0.017423 -0.003092 0.000001 -0.005225 0.000000
# 3 -0.002229 -0.003092 0.010533 -0.000003 0.003488 0.000001
# 4 0.000001 0.000001 -0.000003 0.040111 0.000007 0.005568
# 5 0.009356 -0.005225 0.003488 0.000007 0.045125 -0.000003
# 6 0.000000 0.000000 0.000001 0.005568 -0.000003 0.032923
#
#
# Mechanical properties :
#
#
# Convention : Reuss Voigt Hill
#
# Bulk Modulus (GPa) = 53.43790 57.92094 55.67942
# Shear Modulus (GPa) = 24.86978 27.83227 26.35103
#
# Velocity S-wave (km/s) = 3.55064 3.75617 3.65485
# Velocity P-wave (km/s) = 6.62557 6.94069 6.78496
#
# Compressibility (1/GPa) = 0.01871331
#
# Stress axis : x y z
#
# Youngs Moduli (GPa) = 50.69680 57.39398 94.94030
#
# Poissons Ratio (x) = 0.52591 0.21161
# Poissons Ratio (y) = 0.46455 0.29356
# Poissons Ratio (z) = 0.11300 0.17746
#
# Static dielectric constant tensor:
#      x y z
#    x 3.260050 0.000000 -0.102520 
#    y 0.000000 3.526330 0.000000 
#    z -0.102520 0.000000 3.712830 
# 
# 
# High freq. dielectric constant tensor:
#      x y z
#    x 1.737710 0.000000 -0.004170 
#    y 0.000000 1.763180 0.000000 
#    z -0.004170 0.000000 1.788030 
# 
# From -- ./inp_files/216215.got.cif
#   From: 2010.06.25/outbox.cif.g09.slc.cpg/sg12_109_cif.got.tgz:216215.got - 2010.06.28 00:19:55.
