data_PCOD8090880
_publ_section_title
;
Structure prediction by ZEFSAII (Michael W. Deem and Ramdas Pophale) SiO2 
 PCOD8090880
Probable space group: C 2/M
;
_chemical_formula_sum "Si O2"
_cell_formula_units_Z 40
_cell_length_a 12.013036
_cell_length_b 13.833637
_cell_length_c 24.772913
_cell_angle_alpha 90.000000
_cell_angle_beta 30.222204
_cell_angle_gamma 90.000000
_cell_volume 2072.242057
_symmetry_space_group_name_H-M "C 2/M"
_symmetry_group_IT_number 12
_symmetry_cell_setting 'monoclinic'
loop_
_space_group_symop_operation_xyz
x,y,z
-x,y,-z
-x,-y,-z
x,-y,z
1/2+x,1/2+y,z
1/2-x,1/2+y,-z
1/2-x,1/2-y,-z
1/2+x,1/2-y,z
loop_
_atom_site_type_symbol
_atom_site_label
_atom_site_fract_x
_atom_site_fract_y
_atom_site_fract_z
Si Si1 0.000000 0.815459 0.500000
Si Si2 0.052931 0.227914 0.167589
Si Si3 0.500000 0.315472 0.000000
Si Si4 0.799630 0.110165 0.190310
Si Si5 0.947088 0.227910 0.332400
Si Si6 0.299635 0.610166 0.690307
O O1 0.186397 0.747044 0.448559
O O2 0.108743 0.881992 0.408772
O O3 0.313616 0.247057 0.051428
O O4 0.986747 0.144048 0.153904
O O5 0.000028 0.191209 0.249988
O O6 0.920503 0.326512 0.210034
O O7 0.391240 0.382000 0.091234
O O8 0.579496 0.173489 0.289968
O O9 0.735379 0.000000 0.229162
O O10 0.013252 0.144044 0.346095
O O11 0.235380 0.500000 0.729157
#
# Coordination Sequence:
#
# PCOD8090880 Si02
#       6
#     4   8   4   8   8   8
#     4  10  19  34  53  74 102 132 165 208 249 292
#     4   9  20  36  52  73 103 134 165 205 249 295
#     4  10  19  34  53  74 102 132 165 208 249 292
#     4  10  20  34  53  76 101 132 168 205 248 296
#     4   9  20  36  52  73 103 134 165 205 249 295
#     4  10  20  34  53  76 101 132 168 205 248 296
#
# _framework density 19.302765000000001
#
# number of rings (size 3 to 8) (size 9 to 14) (size 15 to 20)
#    0.000    2.400    0.000    1.800    0.000    9.600 
#    0.000    1.000    0.000    0.000    0.000    0.000 
#    0.000    0.000    0.000    0.000    0.000    0.000 
#
# Total GULP energy -248074.935382 kJ/mol
# GULP energy per Si atom -12403.746769 kJ/mol
# Density = 1.925883 g / cm^3
# Si number density = 19.302765 Si / 1000 Ang^3
#
#
#
# Elastic Constant Matrix: (Units=GPa)
#
#
# Indices 1 2 3 4 5 6 
#
# 1 115.6568 40.4561 15.1261 -0.0037 -14.8253 -0.0041
# 2 40.4561 73.4029 16.3391 -0.0017 7.3775 -0.0021
# 3 15.1261 16.3391 59.6842 0.0104 -23.6270 -0.0072
# 4 -0.0037 -0.0017 0.0104 12.1666 0.0040 4.4494
# 5 -14.8253 7.3775 -23.6270 0.0040 34.6115 0.0053
# 6 -0.0041 -0.0021 -0.0072 4.4494 0.0053 9.8107
#
#
#
# Elastic Compliance Matrix: (Units=1/GPa)
#
#
# Indices 1 2 3 4 5 6 
#
# 1 0.012328 -0.008272 0.002643 -0.000003 0.008848 0.000002
# 2 -0.008272 0.021853 -0.009774 0.000016 -0.014873 -0.000005
# 3 0.002643 -0.009774 0.027452 -0.000041 0.021955 0.000026
# 4 -0.000003 0.000016 -0.000041 0.098536 -0.000037 -0.044689
# 5 0.008848 -0.014873 0.021955 -0.000037 0.050840 0.000006
# 6 0.000002 -0.000005 0.000026 -0.044689 0.000006 0.122197
#
#
# Mechanical properties :
#
#
# Convention : Reuss Voigt Hill
#
# Bulk Modulus (GPa) = 32.43929 43.62072 38.03001
# Shear Modulus (GPa) = 13.35866 23.10592 18.23229
#
# Velocity S-wave (km/s) = 2.63356 3.46356 3.07668
# Velocity P-wave (km/s) = 5.10779 6.21629 5.68910
#
# Compressibility (1/GPa) = 0.03082682
#
# Stress axis : x y z
#
# Youngs Moduli (GPa) = 81.11319 45.75975 36.42719
#
# Poissons Ratio (x) = 0.37854 -0.09627
# Poissons Ratio (y) = 0.67100 0.35603
# Poissons Ratio (z) = -0.21437 0.44725
#
# Static dielectric constant tensor:
#      x y z
#    x 3.873120 0.000000 -0.079640 
#    y 0.000000 3.160560 0.000010 
#    z -0.079640 0.000010 3.403240 
# 
# 
# High freq. dielectric constant tensor:
#      x y z
#    x 1.774800 0.000000 -0.003920 
#    y 0.000000 1.718350 0.000000 
#    z -0.003920 0.000000 1.746370 
# 
# From -- ./inp_files/335996.got.cif
#   From: 2010.06.25/outbox.cif.g09.slc.cpg/sg12_168_cif.got.tgz:335996.got - 2010.06.28 00:19:55.
