data_PCOD8090855
_publ_section_title
;
Structure prediction by ZEFSAII (Michael W. Deem and Ramdas Pophale) SiO2 
 PCOD8090855
Probable space group: C 2/M
;
_chemical_formula_sum "Si O2"
_cell_formula_units_Z 56
_cell_length_a 8.856533
_cell_length_b 19.622729
_cell_length_c 27.496652
_cell_angle_alpha 90.000000
_cell_angle_beta 40.105692
_cell_angle_gamma 90.000000
_cell_volume 3078.388520
_symmetry_space_group_name_H-M "C 2/M"
_symmetry_group_IT_number 12
_symmetry_cell_setting 'monoclinic'
loop_
_space_group_symop_operation_xyz
x,y,z
-x,y,-z
-x,-y,-z
x,-y,z
1/2+x,1/2+y,z
1/2-x,1/2+y,-z
1/2-x,1/2-y,-z
1/2+x,1/2-y,z
loop_
_atom_site_type_symbol
_atom_site_label
_atom_site_fract_x
_atom_site_fract_y
_atom_site_fract_z
Si Si1 0.257631 0.422666 0.685706
Si Si2 0.610210 0.799108 0.403986
Si Si3 0.446593 0.310884 0.233689
Si Si4 0.728465 0.923453 0.806191
Si Si5 0.830113 0.668550 0.794450
Si Si6 0.206778 0.078667 0.913170
Si Si7 0.646274 0.332967 0.559042
O O1 0.195490 0.500000 0.688074
O O2 0.295909 0.411780 0.733550
O O3 0.498267 0.402410 0.599427
O O4 0.044076 0.375827 0.720240
O O5 0.731389 0.820128 0.323999
O O6 0.517002 0.721966 0.427417
O O7 0.384339 0.847756 0.470070
O O8 0.797354 0.804395 0.401110
O O9 0.632951 0.371090 0.194405
O O10 0.351946 0.314785 0.202734
O O11 0.569988 0.238485 0.208905
O O12 0.451411 0.910880 0.881168
O O13 0.796060 0.000000 0.805782
O O14 0.692944 0.626733 0.869578
O O15 0.182926 0.000000 0.901979
O O16 0.000000 0.100396 0.000000
#
# Coordination Sequence:
#
# PCOD8090855 Si02
#       7
#     8   8   8   8   8   8   8
#     4  10  19  35  54  76 109 146 188 235 282 335
#     4  10  20  32  53  79 106 143 189 237 283 323
#     4  12  21  36  56  84 117 147 187 236 279 331
#     4   9  19  35  57  82 112 147 184 227 280 336
#     4  11  22  34  58  85 110 147 188 229 276 336
#     4   9  19  40  65  87 114 148 183 220 273 339
#     4  10  19  34  52  79 104 142 194 238 283 332
#
# _framework density 18.191336
#
# number of rings (size 3 to 8) (size 9 to 14) (size 15 to 20)
#    0.000    1.857    2.857    3.857    0.000    1.143 
#    0.000    5.714    0.000    3.429    0.000    0.000 
#    0.000    0.000    0.000    0.000    0.000    0.000 
#
# Total GULP energy -347225.251083 kJ/mol
# GULP energy per Si atom -12400.901824 kJ/mol
# Density = 1.814993 g / cm^3
# Si number density = 18.191336 Si / 1000 Ang^3
#
#
#
# Elastic Constant Matrix: (Units=GPa)
#
#
# Indices 1 2 3 4 5 6 
#
# 1 104.3466 61.4999 36.4734 0.0160 0.0483 0.0023
# 2 61.4999 118.7146 49.6068 0.0188 -7.2566 -0.0047
# 3 36.4734 49.6068 133.8942 0.0671 -5.8876 0.0065
# 4 0.0160 0.0188 0.0671 27.9695 -0.0142 -2.0999
# 5 0.0483 -7.2566 -5.8876 -0.0142 18.3909 0.0019
# 6 0.0023 -0.0047 0.0065 -2.0999 0.0019 30.9941
#
#
#
# Elastic Compliance Matrix: (Units=1/GPa)
#
#
# Indices 1 2 3 4 5 6 
#
# 1 0.014178 -0.006945 -0.001432 -0.000002 -0.003236 -0.000002
# 2 -0.006945 0.013511 -0.002920 0.000004 0.004415 0.000003
# 3 -0.001432 -0.002920 0.009017 -0.000018 0.001738 -0.000004
# 4 -0.000002 0.000004 -0.000018 0.035936 0.000023 0.002435
# 5 -0.003236 0.004415 0.001738 0.000023 0.056682 -0.000001
# 6 -0.000002 0.000003 -0.000004 0.002435 -0.000001 0.032429
#
#
# Mechanical properties :
#
#
# Convention : Reuss Voigt Hill
#
# Bulk Modulus (GPa) = 70.85138 72.45730 71.65434
# Shear Modulus (GPa) = 26.44798 29.42926 27.93862
#
# Velocity S-wave (km/s) = 3.81711 4.02651 3.92321
# Velocity P-wave (km/s) = 7.64588 7.84437 7.74576
#
# Compressibility (1/GPa) = 0.01411405
#
# Stress axis : x y z
#
# Youngs Moduli (GPa) = 70.52984 74.01252 110.90392
#
# Poissons Ratio (x) = 0.51399 0.15877
# Poissons Ratio (y) = 0.48981 0.32383
# Poissons Ratio (z) = 0.10097 0.21611
#
# Static dielectric constant tensor:
#      x y z
#    x 3.238120 -0.000020 -0.162020 
#    y -0.000020 3.337650 0.000060 
#    z -0.162020 0.000060 3.430490 
# 
# 
# High freq. dielectric constant tensor:
#      x y z
#    x 1.695970 0.000000 -0.013880 
#    y 0.000000 1.700160 0.000000 
#    z -0.013880 0.000000 1.699110 
# 
# From -- ./inp_files/300467.got.cif
#   From: 2010.06.25/outbox.cif.g09.slc.cpg/sg12_151_cif.got.tgz:300467.got - 2010.06.28 00:19:55.
