data_PCOD8090561
_publ_section_title
;
Structure prediction by ZEFSAII (Michael W. Deem and Ramdas Pophale) SiO2 
 PCOD8090561
Probable space group: C 2/M
;
_chemical_formula_sum "Si O2"
_cell_formula_units_Z 40
_cell_length_a 18.559540
_cell_length_b 12.553153
_cell_length_c 21.297940
_cell_angle_alpha 90.000000
_cell_angle_beta 158.101303
_cell_angle_gamma 90.000000
_cell_volume 1850.664381
_symmetry_space_group_name_H-M "C 2/M"
_symmetry_group_IT_number 12
_symmetry_cell_setting 'monoclinic'
loop_
_space_group_symop_operation_xyz
x,y,z
-x,y,-z
-x,-y,-z
x,-y,z
1/2+x,1/2+y,z
1/2-x,1/2+y,-z
1/2-x,1/2-y,-z
1/2+x,1/2-y,z
loop_
_atom_site_type_symbol
_atom_site_label
_atom_site_fract_x
_atom_site_fract_y
_atom_site_fract_z
Si Si1 0.887113 0.371810 0.113484
Si Si2 0.931762 0.195292 0.350589
Si Si3 0.027286 0.877090 0.750474
Si Si4 0.714508 0.878245 0.285808
Si Si5 0.411969 0.874039 0.596527
O O1 0.892806 0.500000 0.122497
O O2 0.026425 0.334952 0.169495
O O3 0.967862 0.328107 0.245727
O O4 0.669791 0.328686 0.920312
O O5 0.879241 0.139876 0.242398
O O6 0.750590 0.192290 0.252033
O O7 0.105570 0.128780 0.521479
O O8 0.994556 0.318281 0.388939
O O9 0.808590 0.833745 0.575945
O O10 0.019725 0.000000 0.759856
O O11 0.688571 0.000000 0.243742
O O12 0.432086 0.000000 0.606019
#
# Coordination Sequence:
#
# PCOD8090561 Si02
#       5
#     8   8   8   8   8
#     4   9  19  35  57  83 112 144 177 224 281 325
#     4  11  20  33  55  83 110 150 182 220 278 329
#     4  10  19  33  57  85 112 142 180 225 276 330
#     4  10  20  36  57  83 116 143 177 230 278 329
#     4  10  21  38  55  80 113 145 184 231 269 319
#
# _framework density 21.613859000000001
#
# number of rings (size 3 to 8) (size 9 to 14) (size 15 to 20)
#    0.000    2.000    2.000    3.000    0.000    1.600 
#    0.000    5.000    0.000    0.000    0.000    2.800 
#    0.000    0.000    0.000    0.000    0.000    0.000 
#
# Total GULP energy -247968.332051 kJ/mol
# GULP energy per Si atom -12398.416603 kJ/mol
# Density = 2.156467 g / cm^3
# Si number density = 21.613859 Si / 1000 Ang^3
#
#
#
# Elastic Constant Matrix: (Units=GPa)
#
#
# Indices 1 2 3 4 5 6 
#
# 1 137.5595 46.8570 46.8574 -0.0029 3.5621 -0.0018
# 2 46.8570 57.2936 47.9343 -0.0123 -2.3654 -0.0024
# 3 46.8574 47.9343 121.1682 -0.0059 -10.2028 -0.0016
# 4 -0.0029 -0.0123 -0.0059 29.8472 0.0009 -4.2469
# 5 3.5621 -2.3654 -10.2028 0.0009 28.0406 -0.0001
# 6 -0.0018 -0.0024 -0.0016 -4.2469 -0.0001 40.1375
#
#
#
# Elastic Compliance Matrix: (Units=1/GPa)
#
#
# Indices 1 2 3 4 5 6 
#
# 1 0.010303 -0.007508 -0.001215 -0.000002 -0.002384 0.000000
# 2 -0.007508 0.031630 -0.009599 0.000011 0.000129 0.000002
# 3 -0.001215 -0.009599 0.012859 -0.000002 0.004023 0.000000
# 4 -0.000002 0.000011 -0.000002 0.034016 0.000000 0.003599
# 5 -0.002384 0.000129 0.004023 0.000000 0.037440 0.000000
# 6 0.000000 0.000002 0.000000 0.003599 0.000000 0.025295
#
#
# Mechanical properties :
#
#
# Convention : Reuss Voigt Hill
#
# Bulk Modulus (GPa) = 55.09977 66.59096 60.84537
# Shear Modulus (GPa) = 25.74194 31.22990 28.48592
#
# Velocity S-wave (km/s) = 3.45482 3.80531 3.63429
# Velocity P-wave (km/s) = 6.43914 7.08403 6.76927
#
# Compressibility (1/GPa) = 0.01814890
#
# Stress axis : x y z
#
# Youngs Moduli (GPa) = 97.06344 31.61526 77.76795
#
# Poissons Ratio (x) = 0.23737 0.09447
# Poissons Ratio (y) = 0.72875 0.74647
# Poissons Ratio (z) = 0.11790 0.30346
#
# Static dielectric constant tensor:
#      x y z
#    x 3.842030 -0.000010 -0.106050 
#    y -0.000010 3.927680 -0.000030 
#    z -0.106050 -0.000030 4.294340 
# 
# 
# High freq. dielectric constant tensor:
#      x y z
#    x 1.826290 0.000000 -0.012250 
#    y 0.000000 1.870400 0.000000 
#    z -0.012250 0.000000 1.851930 
# 
# From -- ./inp_files/72345.got.cif
#   From: 2010.06.25/outbox.cif.g09.slc.cpg/sg12_37_cif.got.tgz:72345.got - 2010.06.28 00:19:55.
