data_PCOD8090356
_publ_section_title
;
Structure prediction by ZEFSAII (Michael W. Deem and Ramdas Pophale) SiO2 
 PCOD8090356
Probable space group: C 2/M
;
_chemical_formula_sum "Si O2"
_cell_formula_units_Z 56
_cell_length_a 19.065781
_cell_length_b 17.691422
_cell_length_c 10.278133
_cell_angle_alpha 90.000000
_cell_angle_beta 56.327155
_cell_angle_gamma 90.000000
_cell_volume 2885.148393
_symmetry_space_group_name_H-M "C 2/M"
_symmetry_group_IT_number 12
_symmetry_cell_setting 'monoclinic'
loop_
_space_group_symop_operation_xyz
x,y,z
-x,y,-z
-x,-y,-z
x,-y,z
1/2+x,1/2+y,z
1/2-x,1/2+y,-z
1/2-x,1/2-y,-z
1/2+x,1/2-y,z
loop_
_atom_site_type_symbol
_atom_site_label
_atom_site_fract_x
_atom_site_fract_y
_atom_site_fract_z
Si Si1 0.997371 0.914621 0.322514
Si Si2 0.883335 0.154909 0.632803
Si Si3 0.070144 0.676987 0.820903
Si Si4 0.231664 0.586467 0.671118
Si Si5 0.585271 0.652532 0.835227
Si Si6 0.242856 0.586769 0.359363
Si Si7 0.425437 0.179201 0.486288
O O1 0.080799 0.859749 0.256725
O O2 0.934341 0.913142 0.510385
O O3 0.934568 0.878705 0.284457
O O4 0.024057 0.000000 0.258819
O O5 0.784648 0.138976 0.716291
O O6 0.909037 0.235298 0.548213
O O7 0.136048 0.611601 0.782469
O O8 0.108342 0.759300 0.808644
O O9 0.042980 0.673634 0.696290
O O10 0.000000 0.659929 0.000000
O O11 0.239263 0.500000 0.706309
O O12 0.261135 0.599653 0.493029
O O13 0.670778 0.612846 0.802475
O O14 0.500000 0.633683 0.000000
O O15 0.223872 0.500000 0.345720
O O16 0.161053 0.633834 0.399281
O O17 0.500000 0.145098 0.500000
#
# Coordination Sequence:
#
# PCOD8090356 Si02
#       7
#     8   8   8   8   8   8   8
#     4  11  20  31  51  82 113 139 170 221 275 325
#     4  11  18  32  55  82 108 135 175 223 273 327
#     4  10  21  37  56  82 111 145 188 230 275 330
#     4  10  19  33  56  82 110 142 183 233 277 319
#     4  11  21  36  56  80 114 152 181 219 275 338
#     4  10  21  35  54  82 110 143 191 233 266 321
#     4  11  20  37  61  82 108 147 190 231 278 323
#
# _framework density 19.409746999999999
#
# number of rings (size 3 to 8) (size 9 to 14) (size 15 to 20)
#    0.000    1.429    4.286    3.000    0.000    4.000 
#    0.000    1.429    0.000    6.857    0.000    0.000 
#    0.000    0.000    0.000    0.000    0.000    0.000 
#
# Total GULP energy -346904.416289 kJ/mol
# GULP energy per Si atom -12389.443439 kJ/mol
# Density = 1.936557 g / cm^3
# Si number density = 19.409747 Si / 1000 Ang^3
#
#
#
# Elastic Constant Matrix: (Units=GPa)
#
#
# Indices 1 2 3 4 5 6 
#
# 1 126.2333 43.0575 40.5134 0.0000 -25.9313 0.0000
# 2 43.0575 71.1702 33.8095 0.0000 -18.7478 0.0000
# 3 40.5134 33.8095 79.8209 0.0000 -18.0731 0.0000
# 4 0.0000 0.0000 0.0000 18.2159 0.0000 -11.8957
# 5 -25.9313 -18.7478 -18.0731 0.0000 16.4407 0.0000
# 6 0.0000 0.0000 0.0000 -11.8957 0.0000 13.7922
#
#
#
# Elastic Compliance Matrix: (Units=1/GPa)
#
#
# Indices 1 2 3 4 5 6 
#
# 1 0.012435 -0.002876 -0.001857 0.000000 0.014292 0.000000
# 2 -0.002876 0.021994 -0.004267 0.000000 0.015854 0.000000
# 3 -0.001857 -0.004267 0.017991 0.000000 0.011983 0.000000
# 4 0.000000 0.000000 0.000000 0.125692 0.000000 0.108408
# 5 0.014292 0.015854 0.011983 0.000000 0.114618 0.000000
# 6 0.000000 0.000000 0.000000 0.108408 0.000000 0.166006
#
#
# Mechanical properties :
#
#
# Convention : Reuss Voigt Hill
#
# Bulk Modulus (GPa) = 29.05257 56.88724 42.96991
# Shear Modulus (GPa) = 10.24153 20.34602 15.29378
#
# Velocity S-wave (km/s) = 2.29955 3.24116 2.81008
# Velocity P-wave (km/s) = 4.69586 6.58628 5.71971
#
# Compressibility (1/GPa) = 0.03442036
#
# Stress axis : x y z
#
# Youngs Moduli (GPa) = 80.42010 45.46721 55.58338
#
# Poissons Ratio (x) = 0.13076 0.10323
# Poissons Ratio (y) = 0.23128 0.23715
# Poissons Ratio (z) = 0.14936 0.19399
#
# Static dielectric constant tensor:
#      x y z
#    x 4.286850 0.000000 0.204730 
#    y 0.000000 3.531950 0.000000 
#    z 0.204730 0.000000 3.418130 
# 
# 
# High freq. dielectric constant tensor:
#      x y z
#    x 1.765140 0.000000 -0.014930 
#    y 0.000000 1.757940 0.000000 
#    z -0.014930 0.000000 1.718610 
# 
# From -- ./inp_files/158215.got.cif
#   From: 2010.06.25/outbox.cif.g09.slc.cpg/sg12_80_cif.got.tgz:158215.got - 2010.06.28 00:19:55.
