data_PCOD8090284
_publ_section_title
;
Structure prediction by ZEFSAII (Michael W. Deem and Ramdas Pophale) SiO2 
 PCOD8090284
Probable space group: C 2/M
;
_chemical_formula_sum "Si O2"
_cell_formula_units_Z 48
_cell_length_a 19.813028
_cell_length_b 9.047362
_cell_length_c 26.630981
_cell_angle_alpha 90.000000
_cell_angle_beta 32.850968
_cell_angle_gamma 90.000000
_cell_volume 2589.549913
_symmetry_space_group_name_H-M "C 2/M"
_symmetry_group_IT_number 12
_symmetry_cell_setting 'monoclinic'
loop_
_space_group_symop_operation_xyz
x,y,z
-x,y,-z
-x,-y,-z
x,-y,z
1/2+x,1/2+y,z
1/2-x,1/2+y,-z
1/2-x,1/2-y,-z
1/2+x,1/2-y,z
loop_
_atom_site_type_symbol
_atom_site_label
_atom_site_fract_x
_atom_site_fract_y
_atom_site_fract_z
Si Si1 0.068333 0.327421 0.584216
Si Si2 0.864811 0.674297 0.073309
Si Si3 0.620510 0.825194 0.763493
Si Si4 0.855141 0.325744 0.966028
Si Si5 0.690410 0.324321 0.270330
Si Si6 0.197186 0.327288 0.605761
O O1 0.056073 0.500000 0.581411
O O2 0.095884 0.294746 0.625714
O O3 0.178701 0.264743 0.481221
O O4 0.943647 0.248784 0.644623
O O5 0.874379 0.500000 0.075145
O O6 0.762923 0.735722 0.175857
O O7 0.825778 0.717030 0.041668
O O8 0.000000 0.744497 0.000000
O O9 0.489697 0.761767 0.865637
O O10 0.733317 0.770722 0.728305
O O11 0.640738 0.771978 0.693777
O O12 0.614251 0.000000 0.770476
O O13 0.850154 0.500000 0.960527
O O14 0.750000 0.250000 0.000000
O O15 0.673771 0.500000 0.279745
O O16 0.232360 0.500000 0.585156
#
# Coordination Sequence:
#
# PCOD8090284 Si02
#       6
#     8   8   8   8   8   8
#     4  10  21  36  54  78 106 135 168 213 267 313
#     4   9  16  31  54  78 104 137 176 214 247 293
#     4   9  18  34  56  78 101 136 179 217 250 298
#     4  10  20  34  53  79 109 139 173 212 256 303
#     4  10  19  33  56  80 103 136 177 214 252 303
#     4   9  19  37  57  75 100 136 177 214 253 308
#
# _framework density 18.536041000000001
#
# number of rings (size 3 to 8) (size 9 to 14) (size 15 to 20)
#    0.000    2.500    1.667    0.500    2.333    1.333 
#    0.000    5.833    0.000    1.000    0.000    0.000 
#    0.000    0.000    0.000    0.000    0.000    0.000 
#
# Total GULP energy -297588.040117 kJ/mol
# GULP energy per Si atom -12399.501672 kJ/mol
# Density = 1.849385 g / cm^3
# Si number density = 18.536041 Si / 1000 Ang^3
#
#
#
# Elastic Constant Matrix: (Units=GPa)
#
#
# Indices 1 2 3 4 5 6 
#
# 1 131.9176 34.7539 60.8873 -0.0001 -8.5967 0.0005
# 2 34.7539 34.6872 26.8014 -0.0003 -4.3348 0.0010
# 3 60.8873 26.8014 95.8213 0.0000 -0.6937 0.0001
# 4 -0.0001 -0.0003 0.0000 15.5958 0.0000 -2.4129
# 5 -8.5967 -4.3348 -0.6937 0.0000 42.2652 0.0001
# 6 0.0005 0.0010 0.0001 -2.4129 0.0001 26.3319
#
#
#
# Elastic Compliance Matrix: (Units=1/GPa)
#
#
# Indices 1 2 3 4 5 6 
#
# 1 0.012352 -0.007805 -0.005654 0.000000 0.001619 0.000000
# 2 -0.007805 0.042266 -0.006843 0.000000 0.002635 -0.000001
# 3 -0.005654 -0.006843 0.015931 0.000000 -0.001590 0.000000
# 4 0.000000 0.000000 0.000000 0.065042 0.000000 0.005960
# 5 0.001619 0.002635 -0.001590 0.000000 0.024234 0.000000
# 6 0.000000 -0.000001 0.000000 0.005960 0.000000 0.038523
#
#
# Mechanical properties :
#
#
# Convention : Reuss Voigt Hill
#
# Bulk Modulus (GPa) = 33.39482 56.36791 44.88136
# Shear Modulus (GPa) = 20.08573 26.17079 23.12826
#
# Velocity S-wave (km/s) = 3.29539 3.76158 3.53618
# Velocity P-wave (km/s) = 5.70392 7.02438 6.39831
#
# Compressibility (1/GPa) = 0.02994477
#
# Stress axis : x y z
#
# Youngs Moduli (GPa) = 80.96031 23.65989 62.76928
#
# Poissons Ratio (x) = 0.18466 0.35489
# Poissons Ratio (y) = 0.63186 0.42956
# Poissons Ratio (z) = 0.45774 0.16192
#
# Static dielectric constant tensor:
#      x y z
#    x 3.548660 0.000000 0.170360 
#    y 0.000000 3.018060 0.000000 
#    z 0.170360 0.000000 3.688630 
# 
# 
# High freq. dielectric constant tensor:
#      x y z
#    x 1.730730 0.000000 0.002150 
#    y 0.000000 1.677770 0.000000 
#    z 0.002150 0.000000 1.728520 
# 
# From -- ./inp_files/365354.got.cif
#   From: 2010.06.25/outbox.cif.g09.slc.cpg/sg12_183_cif.got.tgz:365354.got - 2010.06.28 00:19:55.
