data_PCOD8090275
_publ_section_title
;
Structure prediction by ZEFSAII (Michael W. Deem and Ramdas Pophale) SiO2 
 PCOD8090275
Probable space group: C 2/M
;
_chemical_formula_sum "Si O2"
_cell_formula_units_Z 56
_cell_length_a 32.950076
_cell_length_b 9.136888
_cell_length_c 14.788002
_cell_angle_alpha 90.000000
_cell_angle_beta 46.327655
_cell_angle_gamma 90.000000
_cell_volume 3220.201191
_symmetry_space_group_name_H-M "C 2/M"
_symmetry_group_IT_number 12
_symmetry_cell_setting 'monoclinic'
loop_
_space_group_symop_operation_xyz
x,y,z
-x,y,-z
-x,-y,-z
x,-y,z
1/2+x,1/2+y,z
1/2-x,1/2+y,-z
1/2-x,1/2-y,-z
1/2+x,1/2-y,z
loop_
_atom_site_type_symbol
_atom_site_label
_atom_site_fract_x
_atom_site_fract_y
_atom_site_fract_z
Si Si1 0.394321 0.667436 0.982864
Si Si2 0.172055 0.670926 0.061606
Si Si3 0.124595 0.331201 0.662703
Si Si4 0.513749 0.331556 0.878591
Si Si5 0.702965 0.671052 0.188971
Si Si6 0.802660 0.331812 0.621297
Si Si7 0.817112 0.828587 0.268160
O O1 0.378818 0.500000 0.983230
O O2 0.361991 0.715900 0.122966
O O3 0.377197 0.769660 0.926177
O O4 0.460336 0.687436 0.896264
O O5 0.163497 0.500000 0.091082
O O6 0.167826 0.751299 0.164105
O O7 0.231228 0.706467 0.923101
O O8 0.120109 0.500000 0.696585
O O9 0.063393 0.260968 0.759093
O O10 0.147525 0.310938 0.526390
O O11 0.167913 0.256088 0.664038
O O12 0.533160 0.500000 0.855467
O O13 0.500000 0.272823 0.000000
O O14 0.690341 0.500000 0.204002
O O15 0.681982 0.733897 0.316268
O O16 0.796473 0.500000 0.661880
O O17 0.744323 0.277446 0.667908
O O18 0.819131 0.000000 0.286461
#
# Coordination Sequence:
#
# PCOD8090275 Si02
#       7
#     8   8   8   8   8   8   8
#     4  10  19  33  56  79 104 139 179 219 261 312
#     4  10  20  33  52  80 111 139 170 215 269 316
#     4  11  23  35  51  78 109 142 180 221 264 312
#     4  10  20  37  56  75 101 141 185 220 261 310
#     4  10  20  33  53  80 108 140 177 213 257 317
#     4  10  21  36  53  76 109 145 177 214 266 317
#     4  10  19  34  54  75 106 146 178 213 260 314
#
# _framework density 17.390218999999998
#
# number of rings (size 3 to 8) (size 9 to 14) (size 15 to 20)
#    0.000    1.857    2.857    1.714    0.000    4.286 
#    0.000    0.000    0.000    0.857    0.000    6.000 
#    0.000    0.000    0.000    0.000    0.000    0.000 
#
# Total GULP energy -347357.292108 kJ/mol
# GULP energy per Si atom -12405.617575 kJ/mol
# Density = 1.735064 g / cm^3
# Si number density = 17.390219 Si / 1000 Ang^3
#
#
#
# Elastic Constant Matrix: (Units=GPa)
#
#
# Indices 1 2 3 4 5 6 
#
# 1 84.3172 50.9380 35.6474 0.0000 18.6340 0.0000
# 2 50.9380 89.5518 46.4557 0.0000 14.2494 0.0001
# 3 35.6474 46.4557 84.8097 0.0000 5.3518 0.0000
# 4 0.0000 0.0000 0.0000 29.1176 0.0000 3.7640
# 5 18.6340 14.2494 5.3518 0.0000 25.9836 0.0000
# 6 0.0000 0.0001 0.0000 3.7640 0.0000 34.5798
#
#
#
# Elastic Compliance Matrix: (Units=1/GPa)
#
#
# Indices 1 2 3 4 5 6 
#
# 1 0.020419 -0.008353 -0.003416 0.000000 -0.009359 0.000000
# 2 -0.008353 0.020335 -0.007398 0.000000 -0.003637 0.000000
# 3 -0.003416 -0.007398 0.017091 0.000000 0.002987 0.000000
# 4 0.000000 0.000000 0.000000 0.034834 0.000000 -0.003792
# 5 -0.009359 -0.003637 0.002987 0.000000 0.046577 0.000000
# 6 0.000000 0.000000 0.000000 -0.003792 0.000000 0.029331
#
#
# Mechanical properties :
#
#
# Convention : Reuss Voigt Hill
#
# Bulk Modulus (GPa) = 51.25725 58.30678 54.78202
# Shear Modulus (GPa) = 23.42747 26.31204 24.86975
#
# Velocity S-wave (km/s) = 3.67435 3.89400 3.78577
# Velocity P-wave (km/s) = 6.89492 7.33614 7.11895
#
# Compressibility (1/GPa) = 0.01950943
#
# Stress axis : x y z
#
# Youngs Moduli (GPa) = 48.97424 49.17727 58.51018
#
# Poissons Ratio (x) = 0.41078 0.19990
# Poissons Ratio (y) = 0.40908 0.43286
# Poissons Ratio (z) = 0.16732 0.36382
#
# Static dielectric constant tensor:
#      x y z
#    x 3.150190 0.000000 0.034960 
#    y 0.000000 3.223440 0.000000 
#    z 0.034960 0.000000 3.076460 
# 
# 
# High freq. dielectric constant tensor:
#      x y z
#    x 1.669430 0.000000 0.006930 
#    y 0.000000 1.675770 0.000000 
#    z 0.006930 0.000000 1.655150 
# 
# From -- ./inp_files/248921.got.cif
#   From: 2010.06.25/outbox.cif.g09.slc.cpg/sg12_125_cif.got.tgz:248921.got - 2010.06.28 00:19:55.
