data_PCOD8090790
_publ_section_title
;
Structure prediction by ZEFSAII (Michael W. Deem and Ramdas Pophale) SiO2 
 PCOD8090790
Probable space group: C 2/M
;
_chemical_formula_sum "Si O2"
_cell_formula_units_Z 56
_cell_length_a 21.864215
_cell_length_b 13.354144
_cell_length_c 17.319876
_cell_angle_alpha 90.000000
_cell_angle_beta 38.144084
_cell_angle_gamma 90.000000
_cell_volume 3123.424114
_symmetry_space_group_name_H-M "C 2/M"
_symmetry_group_IT_number 12
_symmetry_cell_setting 'monoclinic'
loop_
_space_group_symop_operation_xyz
x,y,z
-x,y,-z
-x,-y,-z
x,-y,z
1/2+x,1/2+y,z
1/2-x,1/2+y,-z
1/2-x,1/2-y,-z
1/2+x,1/2-y,z
loop_
_atom_site_type_symbol
_atom_site_label
_atom_site_fract_x
_atom_site_fract_y
_atom_site_fract_z
Si Si1 0.909488 0.781764 0.695596
Si Si2 0.715983 0.385111 0.735743
Si Si3 0.754663 0.385645 0.868964
Si Si4 0.384878 0.698578 0.300709
Si Si5 0.912993 0.884325 0.845975
Si Si6 0.242231 0.385805 0.567144
Si Si7 0.631988 0.281222 0.434573
O O1 0.853675 0.679958 0.774219
O O2 0.886999 0.865999 0.782047
O O3 0.873522 0.821459 0.647895
O O4 0.025950 0.760203 0.577454
O O5 0.733955 0.500000 0.696635
O O6 0.695494 0.370792 0.847154
O O7 0.623292 0.340419 0.779665
O O8 0.814549 0.325771 0.613311
O O9 0.789199 0.500000 0.844463
O O10 0.681398 0.353042 0.009877
O O11 0.496249 0.686008 0.219128
O O12 0.308188 0.632325 0.426086
O O13 0.355046 0.815451 0.336963
O O14 0.941556 0.000000 0.830523
O O15 0.205752 0.500000 0.605719
O O16 0.309331 0.364587 0.575722
#
# Coordination Sequence:
#
# PCOD8090790 Si02
#       7
#     8   8   8   8   8   8   8
#     4  10  19  34  50  74 103 133 169 212 246 296
#     4   9  17  32  51  75 103 130 163 209 254 302
#     4   9  20  35  52  73 100 136 175 209 249 293
#     4  10  20  32  50  77 102 130 166 203 253 302
#     4  11  21  34  52  74 101 136 172 210 250 296
#     4  10  19  34  52  74 105 133 162 204 252 304
#     4   9  19  31  51  77 102 130 169 203 254 303
#
# _framework density 17.929041999999999
#
# number of rings (size 3 to 8) (size 9 to 14) (size 15 to 20)
#    0.000    2.286    1.429    1.714    0.000    1.714 
#    0.000    7.143    0.000    0.857    0.000    9.000 
#    0.000    0.000    0.000    0.000    0.000    0.000 
#
# Total GULP energy -347200.678366 kJ/mol
# GULP energy per Si atom -12400.024227 kJ/mol
# Density = 1.788823 g / cm^3
# Si number density = 17.929042 Si / 1000 Ang^3
#
#
#
# Elastic Constant Matrix: (Units=GPa)
#
#
# Indices 1 2 3 4 5 6 
#
# 1 75.9578 35.1735 37.3453 0.0000 8.3942 0.0000
# 2 35.1735 105.2037 40.4828 0.0000 -0.6970 0.0000
# 3 37.3453 40.4828 94.7508 0.0000 11.2170 0.0000
# 4 0.0000 0.0000 0.0000 21.8716 0.0000 3.8794
# 5 8.3942 -0.6970 11.2170 0.0000 24.0429 0.0000
# 6 0.0000 0.0000 0.0000 3.8794 0.0000 25.1728
#
#
#
# Elastic Compliance Matrix: (Units=1/GPa)
#
#
# Indices 1 2 3 4 5 6 
#
# 1 0.017908 -0.004173 -0.004785 0.000000 -0.004141 0.000000
# 2 -0.004173 0.012523 -0.004150 0.000000 0.003756 0.000000
# 3 -0.004785 -0.004150 0.014850 0.000000 -0.005378 0.000000
# 4 0.000000 0.000000 0.000000 0.047006 0.000000 -0.007244
# 5 -0.004141 0.003756 -0.005378 0.000000 0.045656 0.000000
# 6 0.000000 0.000000 0.000000 -0.007244 0.000000 0.040842
#
#
# Mechanical properties :
#
#
# Convention : Reuss Voigt Hill
#
# Bulk Modulus (GPa) = 52.45682 55.76837 54.11259
# Shear Modulus (GPa) = 23.65681 25.07818 24.36749
#
# Velocity S-wave (km/s) = 3.63639 3.74404 3.69061
# Velocity P-wave (km/s) = 6.85220 7.06137 6.95757
#
# Compressibility (1/GPa) = 0.01906330
#
# Stress axis : x y z
#
# Youngs Moduli (GPa) = 55.84105 79.85582 67.34138
#
# Poissons Ratio (x) = 0.33328 0.32222
# Poissons Ratio (y) = 0.23305 0.27947
# Poissons Ratio (z) = 0.26720 0.33141
#
# Static dielectric constant tensor:
#      x y z
#    x 3.505360 0.000000 0.262550 
#    y 0.000000 3.162390 0.000000 
#    z 0.262550 0.000000 3.265510 
# 
# 
# High freq. dielectric constant tensor:
#      x y z
#    x 1.703240 0.000000 0.019180 
#    y 0.000000 1.681430 0.000000 
#    z 0.019180 0.000000 1.683060 
# 
# From -- ./inp_files/289032.got.cif
#   From: 2010.06.25/outbox.cif.g09.slc.cpg/sg12_145_cif.got.tgz:289032.got - 2010.06.28 00:19:55.
