data_PCOD8090273
_publ_section_title
;
Structure prediction by ZEFSAII (Michael W. Deem and Ramdas Pophale) SiO2 
 PCOD8090273
Probable space group: C 2/M
;
_chemical_formula_sum "Si O2"
_cell_formula_units_Z 44
_cell_length_a 5.157300
_cell_length_b 25.627924
_cell_length_c 17.839376
_cell_angle_alpha 90.000000
_cell_angle_beta 72.611183
_cell_angle_gamma 90.000000
_cell_volume 2250.089554
_symmetry_space_group_name_H-M "C 2/M"
_symmetry_group_IT_number 12
_symmetry_cell_setting 'monoclinic'
loop_
_space_group_symop_operation_xyz
x,y,z
-x,y,-z
-x,-y,-z
x,-y,z
1/2+x,1/2+y,z
1/2-x,1/2+y,-z
1/2-x,1/2-y,-z
1/2+x,1/2-y,z
loop_
_atom_site_type_symbol
_atom_site_label
_atom_site_fract_x
_atom_site_fract_y
_atom_site_fract_z
Si Si1 0.793719 0.442123 0.195125
Si Si2 0.500000 0.786304 0.500000
Si Si3 0.605480 0.558399 0.380709
Si Si4 0.619773 0.717114 0.912085
Si Si5 0.711021 0.620096 0.804696
Si Si6 0.399273 0.122117 0.618924
O O1 0.853589 0.500000 0.158398
O O2 0.721649 0.445906 0.287957
O O3 0.545614 0.418168 0.170590
O O4 0.058506 0.406167 0.163681
O O5 0.250000 0.750000 0.500000
O O6 0.577673 0.821782 0.422013
O O7 0.573865 0.500000 0.416873
O O8 0.316939 0.587000 0.406774
O O9 0.814359 0.591960 0.412409
O O10 0.425414 0.763127 0.899243
O O11 0.623179 0.674112 0.847933
O O12 0.500000 0.693973 0.000000
O O13 0.811082 0.631525 0.712026
#
# Coordination Sequence:
#
# PCOD8090273 Si02
#       6
#     8   4   8   8   8   8
#     4   9  17  30  52  81 109 138 169 203 250 305
#     4  12  26  42  55  70 103 144 176 218 264 296
#     4   9  17  33  56  81 108 133 163 211 263 306
#     4  10  21  36  54  77 104 133 169 218 270 307
#     4  10  19  33  56  79 103 136 173 212 249 303
#     4  10  21  36  54  79 104 135 178 209 248 312
#
# _framework density 19.554777000000001
#
# number of rings (size 3 to 8) (size 9 to 14) (size 15 to 20)
#    0.000    2.182    0.000    3.273    0.000    5.818 
#    0.000    2.727    0.000    3.273    0.000    0.000 
#    0.000    0.000    0.000    0.000    0.000    0.000 
#
# Total GULP energy -272830.660519 kJ/mol
# GULP energy per Si atom -12401.393660 kJ/mol
# Density = 1.951027 g / cm^3
# Si number density = 19.554777 Si / 1000 Ang^3
#
#
#
# Elastic Constant Matrix: (Units=GPa)
#
#
# Indices 1 2 3 4 5 6 
#
# 1 129.7589 47.1215 23.1235 0.0000 5.1969 0.0000
# 2 47.1215 132.7513 46.2018 0.0000 4.9441 0.0000
# 3 23.1235 46.2018 61.0485 0.0000 4.3716 0.0000
# 4 0.0000 0.0000 0.0000 -78.8018 0.0000 16.6197
# 5 5.1969 4.9441 4.3716 0.0000 8.4872 0.0000
# 6 0.0000 0.0000 0.0000 16.6197 0.0000 27.2040
#
#
#
# Elastic Compliance Matrix: (Units=1/GPa)
#
#
# Indices 1 2 3 4 5 6 
#
# 1 0.009018 -0.002675 -0.001150 0.000000 -0.003371 0.000000
# 2 -0.002675 0.011055 -0.007277 0.000000 -0.001053 0.000000
# 3 -0.001150 -0.007277 0.022811 0.000000 -0.006806 0.000000
# 4 0.000000 0.000000 0.000000 -0.011242 0.000000 0.006868
# 5 -0.003371 -0.001053 -0.006806 0.000000 0.124008 0.000000
# 6 0.000000 0.000000 0.000000 0.006868 0.000000 0.032564
#
#
# Mechanical properties :
#
#
# Convention : Reuss Voigt Hill
#
# Bulk Modulus (GPa) = 48.35909 61.82804 55.09357
# Shear Modulus (GPa) = 23.00852 5.18533 14.09692
#
# Velocity S-wave (km/s) = 3.43391 1.63017 2.68786
# Velocity P-wave (km/s) = 6.36444 5.93547 6.15369
#
# Compressibility (1/GPa) = 0.02067863
#
# Stress axis : x y z
#
# Youngs Moduli (GPa) = 110.88879 90.46072 43.83889
#
# Poissons Ratio (x) = 0.24202 0.05040
# Poissons Ratio (y) = 0.29667 0.31903
# Poissons Ratio (z) = 0.12748 0.65831
#
# Static dielectric constant tensor:
#      x y z
#    x 3.841120 0.000000 0.024880 
#    y 0.000000 3.594450 0.000000 
#    z 0.024880 0.000000 3.294310 
# 
# 
# High freq. dielectric constant tensor:
#      x y z
#    x 1.784100 0.000000 0.001240 
#    y 0.000000 1.764290 0.000000 
#    z 0.001240 0.000000 1.733320 
# 
# From -- ./inp_files/252887.got.cif
#   From: 2010.06.25/outbox.cif.g09.slc.cpg/sg12_127_cif.got.tgz:252887.got - 2010.06.28 00:19:55.
