data_PCOD8090036
_publ_section_title
;
Structure prediction by ZEFSAII (Michael W. Deem and Ramdas Pophale) SiO2 
 PCOD8090036
Probable space group: C 2/M
;
_chemical_formula_sum "Si O2"
_cell_formula_units_Z 56
_cell_length_a 13.583310
_cell_length_b 13.240505
_cell_length_c 17.196155
_cell_angle_alpha 90.000000
_cell_angle_beta 75.957930
_cell_angle_gamma 90.000000
_cell_volume 3000.309107
_symmetry_space_group_name_H-M "C 2/M"
_symmetry_group_IT_number 12
_symmetry_cell_setting 'monoclinic'
loop_
_space_group_symop_operation_xyz
x,y,z
-x,y,-z
-x,-y,-z
x,-y,z
1/2+x,1/2+y,z
1/2-x,1/2+y,-z
1/2-x,1/2-y,-z
1/2+x,1/2-y,z
loop_
_atom_site_type_symbol
_atom_site_label
_atom_site_fract_x
_atom_site_fract_y
_atom_site_fract_z
Si Si1 0.444343 0.115057 0.620231
Si Si2 0.104497 0.620714 0.790678
Si Si3 0.117944 0.383950 0.203651
Si Si4 0.231231 0.884576 0.950204
Si Si5 0.615986 0.808158 0.957798
Si Si6 0.233987 0.385270 0.455305
Si Si7 0.346064 0.200846 0.380627
O O1 0.366590 0.131957 0.707215
O O2 0.380595 0.135250 0.554680
O O3 0.538976 0.189407 0.610845
O O4 0.487168 0.000000 0.614640
O O5 0.112258 0.500000 0.790600
O O6 0.143677 0.668472 0.863064
O O7 0.169308 0.661544 0.704457
O O8 0.990119 0.661818 0.801156
O O9 0.115375 0.500000 0.179760
O O10 0.210984 0.338803 0.136986
O O11 0.135361 0.809546 0.976775
O O12 0.192351 0.000000 0.948918
O O13 0.308699 0.878898 0.007395
O O14 0.500000 0.836316 0.000000
O O15 0.266900 0.500000 0.434608
O O16 0.316335 0.318503 0.393481
O O17 0.230547 0.360470 0.547757
#
# Coordination Sequence:
#
# PCOD8090036 Si02
#       7
#     8   8   8   8   8   8   8
#     4   9  17  31  54  79 103 133 173 219 262 305
#     4  10  19  33  55  80 107 137 172 221 269 310
#     4   8  15  29  51  77  99 128 171 218 258 299
#     4  10  21  36  54  77 107 138 175 220 264 315
#     4  11  22  35  55  81 105 139 179 216 264 318
#     4  10  20  34  55  80 108 140 179 219 260 311
#     4  10  20  33  53  82 109 138 176 220 265 312
#
# _framework density 18.664743000000001
#
# number of rings (size 3 to 8) (size 9 to 14) (size 15 to 20)
#    0.000    2.286    1.429    3.000    2.000    2.000 
#    0.000    0.000    0.000    8.571    0.000    0.000 
#    0.000    0.000    0.000    0.000    0.000    0.000 
#
# Total GULP energy -347069.662629 kJ/mol
# GULP energy per Si atom -12395.345094 kJ/mol
# Density = 1.862226 g / cm^3
# Si number density = 18.664743 Si / 1000 Ang^3
#
#
#
# Elastic Constant Matrix: (Units=GPa)
#
#
# Indices 1 2 3 4 5 6 
#
# 1 48.3532 34.0741 18.9894 0.0000 1.4184 0.0000
# 2 34.0741 105.9901 30.9567 0.0000 1.0049 0.0000
# 3 18.9894 30.9567 112.1351 0.0000 13.5367 0.0000
# 4 0.0000 0.0000 0.0000 25.4028 0.0000 -3.5013
# 5 1.4184 1.0049 13.5367 0.0000 20.0078 0.0000
# 6 0.0000 0.0000 0.0000 -3.5013 0.0000 20.2423
#
#
#
# Elastic Compliance Matrix: (Units=1/GPa)
#
#
# Indices 1 2 3 4 5 6 
#
# 1 0.027318 -0.008080 -0.002407 0.000000 0.000098 0.000000
# 2 -0.008080 0.012695 -0.002318 0.000000 0.001503 0.000000
# 3 -0.002407 -0.002318 0.010814 0.000000 -0.007029 0.000000
# 4 0.000000 0.000000 0.000000 0.040327 0.000000 0.006975
# 5 0.000098 0.001503 -0.007029 0.000000 0.054654 0.000000
# 6 0.000000 0.000000 0.000000 0.006975 0.000000 0.050608
#
#
# Mechanical properties :
#
#
# Convention : Reuss Voigt Hill
#
# Bulk Modulus (GPa) = 39.65681 48.27987 43.96834
# Shear Modulus (GPa) = 21.69842 25.29446 23.49644
#
# Velocity S-wave (km/s) = 3.41330 3.68530 3.55190
# Velocity P-wave (km/s) = 6.06854 6.63563 6.35841
#
# Compressibility (1/GPa) = 0.02521635
#
# Stress axis : x y z
#
# Youngs Moduli (GPa) = 36.60640 78.77005 92.47324
#
# Poissons Ratio (x) = 0.63646 0.22261
# Poissons Ratio (y) = 0.29578 0.21434
# Poissons Ratio (z) = 0.08812 0.18258
#
# Static dielectric constant tensor:
#      x y z
#    x 3.132800 0.000000 0.047140 
#    y 0.000000 3.216930 0.000000 
#    z 0.047140 0.000000 3.722880 
# 
# 
# High freq. dielectric constant tensor:
#      x y z
#    x 1.693570 0.000000 0.008970 
#    y 0.000000 1.703480 0.000000 
#    z 0.008970 0.000000 1.744770 
# 
# From -- ./inp_files/269575.got.cif
#   From: 2010.06.25/outbox.cif.g09.slc.cpg/sg12_135_cif.got.tgz:269575.got - 2010.06.28 00:19:55.
