data_PCOD8090841
_publ_section_title
;
Structure prediction by ZEFSAII (Michael W. Deem and Ramdas Pophale) SiO2 
 PCOD8090841
Probable space group: C 2/M
;
_chemical_formula_sum "Si O2"
_cell_formula_units_Z 64
_cell_length_a 23.808288
_cell_length_b 10.331291
_cell_length_c 30.874034
_cell_angle_alpha 90.000000
_cell_angle_beta 27.498617
_cell_angle_gamma 90.000000
_cell_volume 3506.401162
_symmetry_space_group_name_H-M "C 2/M"
_symmetry_group_IT_number 12
_symmetry_cell_setting 'monoclinic'
loop_
_space_group_symop_operation_xyz
x,y,z
-x,y,-z
-x,-y,-z
x,-y,z
1/2+x,1/2+y,z
1/2-x,1/2+y,-z
1/2-x,1/2-y,-z
1/2+x,1/2-y,z
loop_
_atom_site_type_symbol
_atom_site_label
_atom_site_fract_x
_atom_site_fract_y
_atom_site_fract_z
Si Si1 0.455459 0.650035 0.812147
Si Si2 0.163429 0.140902 0.607479
Si Si3 0.748064 0.650506 0.745659
Si Si4 0.235385 0.656257 0.085792
Si Si5 0.558142 0.642495 0.413629
Si Si6 0.999435 0.146534 0.879782
Si Si7 0.860124 0.354043 0.757796
Si Si8 0.406757 0.288699 0.436191
O O1 0.412522 0.500000 0.832551
O O2 0.549642 0.702400 0.711276
O O3 0.346528 0.754291 0.889330
O O4 0.519122 0.657812 0.815101
O O5 0.287364 0.213867 0.533387
O O6 0.135703 0.123609 0.575186
O O7 0.182181 0.000000 0.614899
O O8 0.766826 0.500000 0.718013
O O9 0.848684 0.740380 0.654764
O O10 0.617087 0.709516 0.822234
O O11 0.759318 0.662486 0.789581
O O12 0.219465 0.500000 0.088208
O O13 0.198752 0.705206 0.158806
O O14 0.372340 0.705468 0.983186
O O15 0.500000 0.664517 0.500000
O O16 0.621067 0.500000 0.369040
O O17 0.457696 0.639254 0.443675
O O18 0.997335 0.000000 0.897161
O O19 0.889795 0.500000 0.748507
O O20 0.988898 0.299698 0.655285
#
# Coordination Sequence:
#
# PCOD8090841 Si02
#       8
#     8   8   8   8   8   8   8   8
#     4  10  20  35  52  77 107 140 176 216 259 311
#     4  10  20  32  52  77 104 137 177 218 259 303
#     4   9  19  36  56  79 103 137 176 217 259 305
#     4  10  19  34  54  79 105 139 173 215 268 310
#     4  10  22  38  55  78 109 141 173 212 260 313
#     4   9  19  34  55  78 107 136 175 221 260 306
#     4   9  17  31  52  77 106 132 173 219 257 308
#     4  10  19  34  52  75 104 139 177 207 264 308
#
# _framework density 18.252333
#
# number of rings (size 3 to 8) (size 9 to 14) (size 15 to 20)
#    0.000    2.375    1.250    1.125    1.750    1.250 
#    0.000    4.375    0.000    0.000    0.000    2.625 
#    0.000    0.000    0.000    0.000    0.000    0.000 
#
# Total GULP energy -396460.667917 kJ/mol
# GULP energy per Si atom -12389.395872 kJ/mol
# Density = 1.821079 g / cm^3
# Si number density = 18.252333 Si / 1000 Ang^3
#
#
#
# Elastic Constant Matrix: (Units=GPa)
#
#
# Indices 1 2 3 4 5 6 
#
# 1 77.9828 25.8803 41.2090 -0.0035 -11.9696 0.0024
# 2 25.8803 59.5454 37.3260 -0.0022 -15.8385 0.0032
# 3 41.2090 37.3260 102.2821 0.0003 -9.8437 0.0010
# 4 -0.0035 -0.0022 0.0003 19.0243 0.0008 5.9292
# 5 -11.9696 -15.8385 -9.8437 0.0008 32.3150 -0.0021
# 6 0.0024 0.0032 0.0010 5.9292 -0.0021 -8.8360
#
#
#
# Elastic Compliance Matrix: (Units=1/GPa)
#
#
# Indices 1 2 3 4 5 6 
#
# 1 0.017274 -0.003240 -0.005475 0.000002 0.003143 0.000003
# 2 -0.003240 0.024913 -0.006930 0.000000 0.008900 0.000005
# 3 -0.005475 -0.006930 0.014412 -0.000001 -0.001034 -0.000003
# 4 0.000002 0.000000 -0.000001 0.043473 0.000001 0.029171
# 5 0.003143 0.008900 -0.001034 0.000001 0.036156 -0.000004
# 6 0.000003 0.000005 -0.000003 0.029171 -0.000004 -0.093599
#
#
# Mechanical properties :
#
#
# Convention : Reuss Voigt Hill
#
# Bulk Modulus (GPa) = 39.50981 49.84898 44.67940
# Shear Modulus (GPa) = 60.71236 17.52699 39.11968
#
# Velocity S-wave (km/s) = 5.77365 3.10217 4.63457
# Velocity P-wave (km/s) = 8.13266 6.34047 7.29183
#
# Compressibility (1/GPa) = 0.02531017
#
# Stress axis : x y z
#
# Youngs Moduli (GPa) = 57.89025 40.13926 69.38658
#
# Poissons Ratio (x) = 0.13005 0.37988
# Poissons Ratio (y) = 0.18757 0.48083
# Poissons Ratio (z) = 0.31694 0.27815
#
# Static dielectric constant tensor:
#      x y z
#    x 3.493100 0.000000 -0.006180 
#    y 0.000000 3.246450 0.000010 
#    z -0.006180 0.000010 3.433620 
# 
# 
# High freq. dielectric constant tensor:
#      x y z
#    x 1.712460 0.000000 0.005530 
#    y 0.000000 1.688390 0.000000 
#    z 0.005530 0.000000 1.709500 
# 
# From -- ./inp_files/174718.got.cif
#   From: 2010.06.25/outbox.cif.g09.slc.cpg/sg12_88_cif.got.tgz:174718.got - 2010.06.28 00:19:55.
