data_PCOD8090968
_publ_section_title
;
Structure prediction by ZEFSAII (Michael W. Deem and Ramdas Pophale) SiO2 
 PCOD8090968
Probable space group: C 2/M
;
_chemical_formula_sum "Si O2"
_cell_formula_units_Z 56
_cell_length_a 30.992855
_cell_length_b 9.048772
_cell_length_c 11.822736
_cell_angle_alpha 90.000000
_cell_angle_beta 116.617840
_cell_angle_gamma 90.000000
_cell_volume 2964.243790
_symmetry_space_group_name_H-M "C 2/M"
_symmetry_group_IT_number 12
_symmetry_cell_setting 'monoclinic'
loop_
_space_group_symop_operation_xyz
x,y,z
-x,y,-z
-x,-y,-z
x,-y,z
1/2+x,1/2+y,z
1/2-x,1/2+y,-z
1/2-x,1/2-y,-z
1/2+x,1/2-y,z
loop_
_atom_site_type_symbol
_atom_site_label
_atom_site_fract_x
_atom_site_fract_y
_atom_site_fract_z
Si Si1 0.915941 0.828614 0.704894
Si Si2 0.981608 0.674392 0.177379
Si Si3 0.547395 0.174382 0.613269
Si Si4 0.904570 0.829161 0.948503
Si Si5 0.184534 0.174333 0.008283
Si Si6 0.868570 0.672753 0.449425
Si Si7 0.208926 0.671640 0.814795
O O1 0.894437 0.805464 0.804468
O O2 0.875788 0.764792 0.572308
O O3 0.965465 0.741111 0.748561
O O4 0.925405 0.000000 0.690169
O O5 0.987067 0.500000 0.168677
O O6 0.950970 0.718829 0.252975
O O7 0.952976 0.740341 0.037330
O O8 0.500000 0.245515 0.500000
O O9 0.594159 0.231781 0.601978
O O10 0.544619 0.000000 0.598907
O O11 0.914053 0.000000 0.988079
O O12 0.858388 0.766721 0.962209
O O13 0.179884 0.243927 0.878876
O O14 0.181539 0.000000 0.992251
O O15 0.235387 0.222622 0.124965
O O16 0.876267 0.500000 0.485329
O O17 0.815419 0.704164 0.335612
O O18 0.204271 0.500000 0.839824
#
# Coordination Sequence:
#
# PCOD8090968 Si02
#       7
#     8   8   8   8   8   8   8
#     4  11  23  37  51  71 105 145 180 214 257 310
#     4  11  21  35  57  80 102 134 177 221 263 309
#     4   9  16  29  49  73 102 130 157 201 259 307
#     4  10  22  38  53  72 105 144 177 214 260 310
#     4   9  18  35  57  80 107 138 173 212 260 318
#     4  10  19  34  54  76 105 138 173 213 261 312
#     4   9  18  33  57  85 108 133 168 217 270 312
#
# _framework density 18.891833999999999
#
# number of rings (size 3 to 8) (size 9 to 14) (size 15 to 20)
#    0.000    2.143    1.429    2.143    0.000    5.143 
#    0.000    2.857    0.000    0.000    0.000    0.000 
#    0.000    0.000    0.000    0.000    0.000    0.000 
#
# Total GULP energy -347213.103015 kJ/mol
# GULP energy per Si atom -12400.467965 kJ/mol
# Density = 1.884884 g / cm^3
# Si number density = 18.891834 Si / 1000 Ang^3
#
#
#
# Elastic Constant Matrix: (Units=GPa)
#
#
# Indices 1 2 3 4 5 6 
#
# 1 57.8488 27.1010 36.5784 0.0000 0.3937 0.0000
# 2 27.1010 59.8714 46.0187 0.0000 -2.7492 0.0000
# 3 36.5784 46.0187 130.9193 0.0000 3.6688 0.0000
# 4 0.0000 0.0000 0.0000 31.9750 0.0000 -2.2208
# 5 0.3937 -2.7492 3.6688 0.0000 25.2692 0.0000
# 6 0.0000 0.0000 0.0000 -2.2208 0.0000 21.2912
#
#
#
# Elastic Compliance Matrix: (Units=1/GPa)
#
#
# Indices 1 2 3 4 5 6 
#
# 1 0.023274 -0.007646 -0.003797 0.000000 -0.000643 0.000000
# 2 -0.007646 0.025742 -0.007023 0.000000 0.003939 0.000000
# 3 -0.003797 -0.007023 0.011233 0.000000 -0.002336 0.000000
# 4 0.000000 0.000000 0.000000 0.031503 0.000000 0.003286
# 5 -0.000643 0.003939 -0.002336 0.000000 0.040352 0.000000
# 6 0.000000 0.000000 0.000000 0.003286 0.000000 0.047311
#
#
# Mechanical properties :
#
#
# Convention : Reuss Voigt Hill
#
# Bulk Modulus (GPa) = 42.88582 52.00398 47.44490
# Shear Modulus (GPa) = 22.30974 24.96983 23.63978
#
# Velocity S-wave (km/s) = 3.44018 3.63950 3.54124
# Velocity P-wave (km/s) = 6.20724 6.72668 6.47217
#
# Compressibility (1/GPa) = 0.02331773
#
# Stress axis : x y z
#
# Youngs Moduli (GPa) = 42.96697 38.84686 89.02281
#
# Poissons Ratio (x) = 0.29702 0.33802
# Poissons Ratio (y) = 0.32853 0.62517
# Poissons Ratio (z) = 0.16314 0.27281
#
# Static dielectric constant tensor:
#      x y z
#    x 3.519590 0.000000 0.021920 
#    y 0.000000 3.286900 0.000000 
#    z 0.021920 0.000000 3.584120 
# 
# 
# High freq. dielectric constant tensor:
#      x y z
#    x 1.722830 0.000000 0.003660 
#    y 0.000000 1.717240 0.000000 
#    z 0.003660 0.000000 1.741660 
# 
# From -- ./inp_files/186455.got.cif
#   From: 2010.06.25/outbox.cif.g09.slc.cpg/sg12_94_cif.got.tgz:186455.got - 2010.06.28 00:19:55.
