data_PCOD8090871
_publ_section_title
;
Structure prediction by ZEFSAII (Michael W. Deem and Ramdas Pophale) SiO2 
 PCOD8090871
Probable space group: C 2/M
;
_chemical_formula_sum "Si O2"
_cell_formula_units_Z 56
_cell_length_a 9.424581
_cell_length_b 25.543856
_cell_length_c 19.998912
_cell_angle_alpha 90.000000
_cell_angle_beta 134.981783
_cell_angle_gamma 90.000000
_cell_volume 3405.476743
_symmetry_space_group_name_H-M "C 2/M"
_symmetry_group_IT_number 12
_symmetry_cell_setting 'monoclinic'
loop_
_space_group_symop_operation_xyz
x,y,z
-x,y,-z
-x,-y,-z
x,-y,z
1/2+x,1/2+y,z
1/2-x,1/2+y,-z
1/2-x,1/2-y,-z
1/2+x,1/2-y,z
loop_
_atom_site_type_symbol
_atom_site_label
_atom_site_fract_x
_atom_site_fract_y
_atom_site_fract_z
Si Si1 0.172771 0.700108 0.391422
Si Si2 0.001495 0.200108 0.391422
Si Si3 0.002882 0.500000 0.611693
Si Si4 0.474671 0.092934 0.705992
Si Si5 0.332197 0.500000 0.611693
Si Si6 0.218924 0.060104 0.088066
Si Si7 0.643304 0.592934 0.705992
Si Si8 0.045273 0.439896 0.088066
O O1 0.029428 0.750000 0.352952
O O2 0.319368 0.713284 0.379578
O O3 0.296248 0.688167 0.500000
O O4 0.036940 0.650049 0.330348
O O5 0.954103 0.150049 0.330347
O O6 0.988558 0.551296 0.651914
O O7 0.212750 0.500000 0.641833
O O8 0.817447 0.500000 0.500000
O O9 0.675141 0.092265 0.817549
O O10 0.279752 0.080079 0.686501
O O11 0.467185 0.551296 0.651914
O O12 0.340571 0.064929 0.060381
O O13 0.204250 0.000000 0.107229
O O14 0.000000 0.083723 0.000000
O O15 0.777507 0.592265 0.817549
O O16 0.117436 0.500000 0.107228
O O17 0.000000 0.416277 0.000000
#
# Coordination Sequence:
#
# PCOD8090871 Si02
#       8
#     8   8   4   8   4   8   8   8
#     4   9  18  32  51  73  96 126 164 204 243 285
#     4   9  18  32  51  73  96 126 164 204 243 285
#     4  11  23  33  44  71 106 133 158 197 248 293
#     4  10  19  34  53  72  96 131 170 201 238 294
#     4  11  23  33  44  71 106 133 158 197 248 293
#     4   9  17  30  48  71  97 125 160 201 241 287
#     4  10  19  34  53  72  96 131 170 201 238 294
#     4   9  17  30  48  71  97 125 160 201 241 287
#
# _framework density 16.444101
#
# number of rings (size 3 to 8) (size 9 to 14) (size 15 to 20)
#    0.000    2.429    1.429    1.286    0.000    4.571 
#    0.000    2.857    0.000    0.857    0.000    6.000 
#    0.000    0.000    0.000    0.000    0.000    0.000 
#
# Total GULP energy -347252.556127 kJ/mol
# GULP energy per Si atom -12401.877005 kJ/mol
# Density = 1.640667 g / cm^3
# Si number density = 16.444101 Si / 1000 Ang^3
#
#
#
# Elastic Constant Matrix: (Units=GPa)
#
#
# Indices 1 2 3 4 5 6 
#
# 1 78.4961 67.4865 60.9076 0.0000 0.0020 0.0000
# 2 67.4865 131.7865 76.4507 0.0000 0.0004 0.0000
# 3 60.9076 76.4507 114.7418 0.0000 -0.0002 0.0000
# 4 0.0000 0.0000 0.0000 -79.4747 0.0000 -0.0059
# 5 0.0020 0.0004 -0.0002 0.0000 28.7463 0.0000
# 6 0.0000 0.0000 0.0000 -0.0059 0.0000 27.8933
#
#
#
# Elastic Compliance Matrix: (Units=1/GPa)
#
#
# Indices 1 2 3 4 5 6 
#
# 1 0.026873 -0.008943 -0.008306 0.000000 -0.000002 0.000000
# 2 -0.008943 0.015345 -0.005477 0.000000 0.000000 0.000000
# 3 -0.008306 -0.005477 0.016774 0.000000 0.000001 0.000000
# 4 0.000000 0.000000 0.000000 -0.012583 0.000000 -0.000003
# 5 -0.000002 0.000000 0.000001 0.000000 0.034787 0.000000
# 6 0.000000 0.000000 0.000000 -0.000003 0.000000 0.035851
#
#
# Mechanical properties :
#
#
# Convention : Reuss Voigt Hill
#
# Bulk Modulus (GPa) = 73.85931 81.63488 77.74709
# Shear Modulus (GPa) = 29.93783 3.44496 16.69139
#
# Velocity S-wave (km/s) = 4.27146 1.44896 3.18942
# Velocity P-wave (km/s) = 8.32706 7.24920 7.80676
#
# Compressibility (1/GPa) = 0.01353925
#
# Stress axis : x y z
#
# Youngs Moduli (GPa) = 37.21161 65.16867 59.61722
#
# Poissons Ratio (x) = 0.58280 0.49521
# Poissons Ratio (y) = 0.33278 0.32652
# Poissons Ratio (z) = 0.30910 0.35692
#
# Static dielectric constant tensor:
#      x y z
#    x 3.138520 0.000000 0.000000 
#    y 0.000000 3.042190 0.000000 
#    z 0.000000 0.000000 3.171770 
# 
# 
# High freq. dielectric constant tensor:
#      x y z
#    x 1.634230 0.000000 0.000000 
#    y 0.000000 1.615300 0.000000 
#    z 0.000000 0.000000 1.633460 
# 
# From -- ./inp_files/125330.got.cif
#   From: 2010.06.25/outbox.cif.g09.slc.cpg/sg12_63_cif.got.tgz:125330.got - 2010.06.28 00:19:55.
