data_PCOD8090496
_publ_section_title
;
Structure prediction by ZEFSAII (Michael W. Deem and Ramdas Pophale) SiO2 
 PCOD8090496
Probable space group: C 2/M
;
_chemical_formula_sum "Si O2"
_cell_formula_units_Z 64
_cell_length_a 31.110297
_cell_length_b 13.013965
_cell_length_c 9.272203
_cell_angle_alpha 90.000000
_cell_angle_beta 59.225223
_cell_angle_gamma 90.000000
_cell_volume 3225.399573
_symmetry_space_group_name_H-M "C 2/M"
_symmetry_group_IT_number 12
_symmetry_cell_setting 'monoclinic'
loop_
_space_group_symop_operation_xyz
x,y,z
-x,y,-z
-x,-y,-z
x,-y,z
1/2+x,1/2+y,z
1/2-x,1/2+y,-z
1/2-x,1/2-y,-z
1/2+x,1/2-y,z
loop_
_atom_site_type_symbol
_atom_site_label
_atom_site_fract_x
_atom_site_fract_y
_atom_site_fract_z
Si Si1 0.981528 0.616533 0.873404
Si Si2 0.924636 0.119831 0.742563
Si Si3 0.132320 0.618556 0.870013
Si Si4 0.721991 0.881923 0.175269
Si Si5 0.138748 0.616230 0.531372
Si Si6 0.677127 0.265557 0.016214
Si Si7 0.991401 0.114448 0.167331
Si Si8 0.446027 0.245946 0.439058
O O1 0.998086 0.500000 0.818832
O O2 0.005450 0.680496 0.699397
O O3 0.922159 0.630281 0.965855
O O4 0.000000 0.651521 0.000000
O O5 0.869242 0.161015 0.867511
O O6 0.957524 0.125223 0.829841
O O7 0.951634 0.197178 0.583071
O O8 0.922728 0.000000 0.691524
O O9 0.150532 0.500000 0.848552
O O10 0.133562 0.656991 0.702720
O O11 0.169146 0.693200 0.892004
O O12 0.695508 0.875306 0.377459
O O13 0.690296 0.810090 0.123817
O O14 0.721759 0.000000 0.119580
O O15 0.778056 0.842775 0.097038
O O16 0.118903 0.500000 0.560052
O O17 0.103961 0.679583 0.481240
O O18 0.943175 0.162511 0.327685
O O19 0.974830 0.000000 0.165372
O O20 0.000000 0.171218 0.000000
#
# Coordination Sequence:
#
# PCOD8090496 Si02
#       8
#     8   8   8   8   8   8   8   8
#     4  10  19  33  56  90 127 166 205 243 292 353
#     4  11  24  41  60  88 123 160 206 258 302 349
#     4  10  21  37  60  91 127 159 198 248 297 359
#     4  10  22  42  64  88 118 153 199 251 305 365
#     4  10  21  38  61  90 123 157 193 246 306 359
#     4  11  22  39  65  91 115 157 201 249 309 364
#     4  10  23  40  59  83 116 162 210 252 295 347
#     4  12  20  34  59  88 120 163 205 244 295 361
#
# _framework density 19.842503000000001
#
# number of rings (size 3 to 8) (size 9 to 14) (size 15 to 20)
#    0.000    1.500    2.500    3.000    1.750    1.500 
#    0.000    0.000    0.000    4.500    0.000    0.000 
#    0.000    0.000    0.000    0.000    0.000    0.000 
#
# Total GULP energy -396598.220357 kJ/mol
# GULP energy per Si atom -12393.694386 kJ/mol
# Density = 1.979734 g / cm^3
# Si number density = 19.842503 Si / 1000 Ang^3
#
#
#
# Elastic Constant Matrix: (Units=GPa)
#
#
# Indices 1 2 3 4 5 6 
#
# 1 68.2339 35.4903 40.1953 0.0000 3.6259 0.0000
# 2 35.4903 113.5675 47.4802 0.0000 1.3554 0.0000
# 3 40.1953 47.4802 119.2279 0.0000 -1.2622 0.0000
# 4 0.0000 0.0000 0.0000 35.7790 0.0000 6.9987
# 5 3.6259 1.3554 -1.2622 0.0000 31.5279 0.0000
# 6 0.0000 0.0000 0.0000 6.9987 0.0000 51.0125
#
#
#
# Elastic Compliance Matrix: (Units=1/GPa)
#
#
# Indices 1 2 3 4 5 6 
#
# 1 0.019902 -0.004051 -0.005121 0.000000 -0.002320 0.000000
# 2 -0.004051 0.011401 -0.003176 0.000000 -0.000151 0.000000
# 3 -0.005121 -0.003176 0.011391 0.000000 0.001182 0.000000
# 4 0.000000 0.000000 0.000000 0.028720 0.000000 -0.003940
# 5 -0.002320 -0.000151 0.001182 0.000000 0.032039 0.000000
# 6 0.000000 0.000000 0.000000 -0.003940 0.000000 0.020144
#
#
# Mechanical properties :
#
#
# Convention : Reuss Voigt Hill
#
# Bulk Modulus (GPa) = 55.56083 60.81787 58.18935
# Shear Modulus (GPa) = 32.40602 35.52147 33.96374
#
# Velocity S-wave (km/s) = 4.04562 4.23563 4.14172
# Velocity P-wave (km/s) = 7.06289 7.39173 7.22918
#
# Compressibility (1/GPa) = 0.01799829
#
# Stress axis : x y z
#
# Youngs Moduli (GPa) = 50.24503 87.71210 87.78777
#
# Poissons Ratio (x) = 0.35531 0.44957
# Poissons Ratio (y) = 0.20354 0.27882
# Poissons Ratio (z) = 0.25731 0.27858
#
# Static dielectric constant tensor:
#      x y z
#    x 3.368350 0.000000 0.022350 
#    y 0.000000 4.022300 0.000000 
#    z 0.022350 0.000000 3.715650 
# 
# 
# High freq. dielectric constant tensor:
#      x y z
#    x 1.751430 0.000000 0.001590 
#    y 0.000000 1.797070 0.000000 
#    z 0.001590 0.000000 1.779110 
# 
# From -- ./inp_files/111967.got.cif
#   From: 2010.06.25/outbox.cif.g09.slc.cpg/sg12_56_cif.got.tgz:111967.got - 2010.06.28 00:19:55.
