data_PCOD8090865
_publ_section_title
;
Structure prediction by ZEFSAII (Michael W. Deem and Ramdas Pophale) SiO2 
 PCOD8090865
Probable space group: C 2/M
;
_chemical_formula_sum "Si O2"
_cell_formula_units_Z 56
_cell_length_a 19.681928
_cell_length_b 9.398230
_cell_length_c 20.979540
_cell_angle_alpha 90.000000
_cell_angle_beta 124.471446
_cell_angle_gamma 90.000000
_cell_volume 3199.278572
_symmetry_space_group_name_H-M "C 2/M"
_symmetry_group_IT_number 12
_symmetry_cell_setting 'monoclinic'
loop_
_space_group_symop_operation_xyz
x,y,z
-x,y,-z
-x,-y,-z
x,-y,z
1/2+x,1/2+y,z
1/2-x,1/2+y,-z
1/2-x,1/2-y,-z
1/2+x,1/2-y,z
loop_
_atom_site_type_symbol
_atom_site_label
_atom_site_fract_x
_atom_site_fract_y
_atom_site_fract_z
Si Si1 0.566168 0.167181 0.844478
Si Si2 0.281545 0.669154 0.307410
Si Si3 0.386358 0.831820 0.720444
Si Si4 0.331310 0.163005 0.554703
Si Si5 0.693258 0.333911 0.823262
Si Si6 0.189769 0.338746 0.009790
Si Si7 0.592609 0.163656 0.538403
O O1 0.473428 0.229344 0.792152
O O2 0.623338 0.246333 0.823200
O O3 0.568143 0.000000 0.828234
O O4 0.597295 0.194543 0.934612
O O5 0.287992 0.500000 0.318133
O O6 0.190064 0.724078 0.277692
O O7 0.300955 0.719687 0.246084
O O8 0.346659 0.738705 0.389240
O O9 0.375964 0.780533 0.642016
O O10 0.389205 0.000000 0.726475
O O11 0.250000 0.250000 0.500000
O O12 0.392903 0.183514 0.528899
O O13 0.304583 0.000000 0.549512
O O14 0.669324 0.500000 0.813438
O O15 0.785547 0.309051 0.903287
O O16 0.210366 0.500000 0.004187
O O17 0.250000 0.250000 0.000000
O O18 0.500000 0.215926 0.500000
O O19 0.605042 0.000000 0.566170
#
# Coordination Sequence:
#
# PCOD8090865 Si02
#       7
#     8   8   8   8   8   8   8
#     4   9  17  30  52  75  94 125 164 198 234 282
#     4  10  20  35  51  69  98 133 160 192 241 289
#     4   9  18  32  50  71  96 125 160 196 234 283
#     4  10  19  34  53  71  94 127 160 195 238 283
#     4   9  18  31  48  72 101 128 156 197 243 281
#     4   8  14  27  46  70  97 123 156 194 234 281
#     4  10  22  36  52  74  98 124 159 204 245 280
#
# _framework density 17.503945000000002
#
# number of rings (size 3 to 8) (size 9 to 14) (size 15 to 20)
#    0.000    2.714    1.429    0.000    2.000    0.857 
#    0.000    2.143    0.000    4.286    0.000    0.000 
#    0.000   12.571    0.000    0.000    0.000    0.000 
#
# Total GULP energy -346926.089260 kJ/mol
# GULP energy per Si atom -12390.217474 kJ/mol
# Density = 1.746411 g / cm^3
# Si number density = 17.503945 Si / 1000 Ang^3
#
#
#
# Elastic Constant Matrix: (Units=GPa)
#
#
# Indices 1 2 3 4 5 6 
#
# 1 105.4396 22.5275 50.0876 0.0000 17.6334 0.0000
# 2 22.5275 28.8780 22.6485 0.0000 5.8364 0.0000
# 3 50.0876 22.6485 105.7831 0.0000 23.6445 0.0000
# 4 0.0000 0.0000 0.0000 23.6924 0.0000 0.7178
# 5 17.6334 5.8364 23.6445 0.0000 31.8571 0.0000
# 6 0.0000 0.0000 0.0000 0.7178 0.0000 20.4341
#
#
#
# Elastic Compliance Matrix: (Units=1/GPa)
#
#
# Indices 1 2 3 4 5 6 
#
# 1 0.013415 -0.006491 -0.004278 0.000000 -0.003061 0.000000
# 2 -0.006491 0.044797 -0.006577 0.000000 0.000268 0.000000
# 3 -0.004278 -0.006577 0.014493 0.000000 -0.007184 0.000000
# 4 0.000000 0.000000 0.000000 0.042253 0.000000 -0.001484
# 5 -0.003061 0.000268 -0.007184 0.000000 0.038367 0.000000
# 6 0.000000 0.000000 0.000000 -0.001484 0.000000 0.048990
#
#
# Mechanical properties :
#
#
# Convention : Reuss Voigt Hill
#
# Bulk Modulus (GPa) = 26.30796 47.84755 37.07776
# Shear Modulus (GPa) = 20.02582 24.85254 22.43918
#
# Velocity S-wave (km/s) = 3.38609 3.77214 3.58432
# Velocity P-wave (km/s) = 5.50907 6.80931 6.19341
#
# Compressibility (1/GPa) = 0.03801131
#
# Stress axis : x y z
#
# Youngs Moduli (GPa) = 74.54291 22.32317 68.99969
#
# Poissons Ratio (x) = 0.14491 0.29518
# Poissons Ratio (y) = 0.48388 0.45384
# Poissons Ratio (z) = 0.31889 0.14683
#
# Static dielectric constant tensor:
#      x y z
#    x 3.231580 0.000000 -0.049040 
#    y 0.000000 3.106650 0.000000 
#    z -0.049040 0.000000 4.279150 
# 
# 
# High freq. dielectric constant tensor:
#      x y z
#    x 1.659230 0.000000 0.003180 
#    y 0.000000 1.657640 0.000000 
#    z 0.003180 0.000000 1.695560 
# 
# From -- ./inp_files/275143.got.cif
#   From: 2010.06.25/outbox.cif.g09.slc.cpg/sg12_138_cif.got.tgz:275143.got - 2010.06.28 00:19:55.
