data_PCOD8090216
_publ_section_title
;
Structure prediction by ZEFSAII (Michael W. Deem and Ramdas Pophale) SiO2 
 PCOD8090216
Probable space group: C 2/M
;
_chemical_formula_sum "Si O2"
_cell_formula_units_Z 56
_cell_length_a 12.658705
_cell_length_b 16.666662
_cell_length_c 14.548264
_cell_angle_alpha 90.000000
_cell_angle_beta 121.623631
_cell_angle_gamma 90.000000
_cell_volume 2613.600566
_symmetry_space_group_name_H-M "C 2/M"
_symmetry_group_IT_number 12
_symmetry_cell_setting 'monoclinic'
loop_
_space_group_symop_operation_xyz
x,y,z
-x,y,-z
-x,-y,-z
x,-y,z
1/2+x,1/2+y,z
1/2-x,1/2+y,-z
1/2-x,1/2-y,-z
1/2+x,1/2-y,z
loop_
_atom_site_type_symbol
_atom_site_label
_atom_site_fract_x
_atom_site_fract_y
_atom_site_fract_z
Si Si1 0.561571 0.684721 0.429543
Si Si2 0.408480 0.904303 0.879537
Si Si3 0.782972 0.404150 0.297332
Si Si4 0.827806 0.356003 0.519565
Si Si5 0.370948 0.406297 0.214324
Si Si6 0.477622 0.407031 0.889762
Si Si7 0.010118 0.588495 0.737982
O O1 0.500000 0.685391 0.500000
O O2 0.686002 0.631189 0.487123
O O3 0.608879 0.772287 0.420194
O O4 0.463495 0.648544 0.314230
O O5 0.268446 0.874529 0.833839
O O6 0.458317 0.867073 0.805632
O O7 0.406760 0.000000 0.877005
O O8 0.500000 0.871617 0.000000
O O9 0.789640 0.500000 0.310729
O O10 0.838056 0.365581 0.414847
O O11 0.644673 0.371110 0.215696
O O12 0.867709 0.371382 0.251649
O O13 0.904975 0.421248 0.611562
O O14 0.387089 0.500000 0.249771
O O15 0.403450 0.394611 0.121292
O O16 0.448376 0.500000 0.892956
O O17 0.500000 0.366293 0.000000
O O18 0.049512 0.500000 0.788178
#
# Coordination Sequence:
#
# PCOD8090216 Si02
#       7
#     8   8   8   8   8   8   8
#     4  11  23  37  56  80 109 151 186 227 282 338
#     4   9  19  34  55  84 114 149 190 231 279 332
#     4  10  19  33  55  84 115 146 187 234 279 332
#     4  11  22  37  55  81 111 147 189 233 282 338
#     4  10  20  36  57  83 116 148 186 234 278 334
#     4   9  18  31  52  82 113 146 182 228 283 330
#     4  10  20  33  54  81 110 145 185 233 281 330
#
# _framework density 21.426380999999999
#
# number of rings (size 3 to 8) (size 9 to 14) (size 15 to 20)
#    0.000    2.000    1.429    2.571    2.000    2.000 
#    0.000    0.000    0.000    1.714    0.000    0.000 
#    0.000    0.000    0.000    0.000    0.000    0.286 
#
# Total GULP energy -347080.643285 kJ/mol
# GULP energy per Si atom -12395.737260 kJ/mol
# Density = 2.137761 g / cm^3
# Si number density = 21.426381 Si / 1000 Ang^3
#
#
#
# Elastic Constant Matrix: (Units=GPa)
#
#
# Indices 1 2 3 4 5 6 
#
# 1 186.5829 14.7787 65.7855 0.0000 -2.9715 0.0000
# 2 14.7787 28.1155 19.8122 0.0000 6.2064 0.0000
# 3 65.7855 19.8122 141.1976 0.0000 -3.6280 0.0000
# 4 0.0000 0.0000 0.0000 13.4553 0.0000 2.8888
# 5 -2.9715 6.2064 -3.6280 0.0000 40.8978 0.0000
# 6 0.0000 0.0000 0.0000 2.8888 0.0000 21.5007
#
#
#
# Elastic Compliance Matrix: (Units=1/GPa)
#
#
# Indices 1 2 3 4 5 6 
#
# 1 0.006471 -0.001538 -0.002788 0.000000 0.000456 0.000000
# 2 -0.001538 0.041636 -0.005303 0.000000 -0.006901 0.000000
# 3 -0.002788 -0.005303 0.009161 0.000000 0.001415 0.000000
# 4 0.000000 0.000000 0.000000 0.076528 0.000000 -0.010282
# 5 0.000456 -0.006901 0.001415 0.000000 0.025657 0.000000
# 6 0.000000 0.000000 0.000000 -0.010282 0.000000 0.047892
#
#
# Mechanical properties :
#
#
# Convention : Reuss Voigt Hill
#
# Bulk Modulus (GPa) = 26.30752 61.84985 44.07869
# Shear Modulus (GPa) = 20.89661 32.20541 26.55101
#
# Velocity S-wave (km/s) = 3.12633 3.88115 3.52401
# Velocity P-wave (km/s) = 5.03355 7.00095 6.09713
#
# Compressibility (1/GPa) = 0.03801194
#
# Stress axis : x y z
#
# Youngs Moduli (GPa) = 154.52380 24.01763 109.15271
#
# Poissons Ratio (x) = 0.03694 0.30427
# Poissons Ratio (y) = 0.23767 0.57882
# Poissons Ratio (z) = 0.43075 0.12736
#
# Static dielectric constant tensor:
#      x y z
#    x 4.247870 0.000000 -0.003620 
#    y 0.000000 3.397850 0.000000 
#    z -0.003620 0.000000 3.915810 
# 
# 
# High freq. dielectric constant tensor:
#      x y z
#    x 1.865400 0.000000 -0.001350 
#    y 0.000000 1.789000 0.000000 
#    z -0.001350 0.000000 1.839770 
# 
# From -- ./inp_files/206774.got.cif
#   From: 2010.06.25/outbox.cif.g09.slc.cpg/sg12_104_cif.got.tgz:206774.got - 2010.06.28 00:19:55.
