data_PCOD8090506
_publ_section_title
;
Structure prediction by ZEFSAII (Michael W. Deem and Ramdas Pophale) SiO2 
 PCOD8090506
Probable space group: C 2/M
;
_chemical_formula_sum "Si O2"
_cell_formula_units_Z 40
_cell_length_a 24.077295
_cell_length_b 9.706613
_cell_length_c 24.227824
_cell_angle_alpha 90.000000
_cell_angle_beta 156.456984
_cell_angle_gamma 90.000000
_cell_volume 2261.718802
_symmetry_space_group_name_H-M "C 2/M"
_symmetry_group_IT_number 12
_symmetry_cell_setting 'monoclinic'
loop_
_space_group_symop_operation_xyz
x,y,z
-x,y,-z
-x,-y,-z
x,-y,z
1/2+x,1/2+y,z
1/2-x,1/2+y,-z
1/2-x,1/2-y,-z
1/2+x,1/2-y,z
loop_
_atom_site_type_symbol
_atom_site_label
_atom_site_fract_x
_atom_site_fract_y
_atom_site_fract_z
Si Si1 0.597290 0.500000 0.853139
Si Si2 0.439164 0.500000 0.883630
Si Si3 0.873710 0.500000 0.425851
Si Si4 0.101476 0.500000 0.370051
Si Si5 0.596864 0.000000 0.907169
Si Si6 0.012074 0.212530 0.164368
Si Si7 0.877495 0.000000 0.556831
Si Si8 0.666424 0.212733 0.520012
O O1 0.586633 0.634575 0.882002
O O2 0.472861 0.500000 0.696778
O O3 0.737430 0.500000 0.945523
O O4 0.272875 0.500000 0.739191
O O5 0.489478 0.635938 0.896273
O O6 0.500000 0.500000 0.000000
O O7 0.888469 0.636526 0.475997
O O8 0.000000 0.500000 0.500000
O O9 0.218585 0.500000 0.430572
O O10 0.110911 0.637265 0.414890
O O11 0.957188 0.500000 0.205203
O O12 0.544622 0.867216 0.894037
O O13 0.166917 0.211161 0.330164
O O14 0.899584 0.134940 0.539235
#
# Coordination Sequence:
#
# PCOD8090506 Si02
#       8
#     4   4   4   4   4   8   4   8
#     4  11  22  33  47  78 120 146 162 209 256 299
#     4   9  20  40  61  74  94 138 177 215 263 315
#     4   9  20  40  57  78 104 122 171 232 268 299
#     4  11  18  31  55  76 108 142 180 197 241 319
#     4  12  22  32  49  82 114 142 167 211 258 300
#     4  10  19  36  55  75 107 140 180 209 251 312
#     4  12  18  32  55  78 110 136 179 206 246 316
#     4  10  19  33  57  81  98 142 180 211 249 307
#
# _framework density 17.685663999999999
#
# number of rings (size 3 to 8) (size 9 to 14) (size 15 to 20)
#    0.000    1.600    4.000    3.600    0.000    0.000 
#   10.800    1.000    0.000    0.000    0.000    0.000 
#    0.000    0.000    0.000    0.000    0.000    0.000 
#
# Total GULP energy -248026.597531 kJ/mol
# GULP energy per Si atom -12401.329877 kJ/mol
# Density = 1.764541 g / cm^3
# Si number density = 17.685664 Si / 1000 Ang^3
#
#
#
# Elastic Constant Matrix: (Units=GPa)
#
#
# Indices 1 2 3 4 5 6 
#
# 1 97.1936 60.0841 39.1171 -0.0005 2.1090 -0.0001
# 2 60.0841 170.6353 32.7775 -0.0027 -4.5027 -0.0010
# 3 39.1171 32.7775 43.9311 -0.0039 -7.3486 -0.0020
# 4 -0.0005 -0.0027 -0.0039 16.4941 -0.0019 -0.2631
# 5 2.1090 -4.5027 -7.3486 -0.0019 36.0053 -0.0005
# 6 -0.0001 -0.0010 -0.0020 -0.2631 -0.0005 7.2717
#
#
#
# Elastic Compliance Matrix: (Units=1/GPa)
#
#
# Indices 1 2 3 4 5 6 
#
# 1 0.018594 -0.003900 -0.014402 -0.000004 -0.004516 -0.000005
# 2 -0.003900 0.007660 -0.002117 0.000001 0.000754 0.000000
# 3 -0.014402 -0.002117 0.038580 0.000009 0.008453 0.000011
# 4 -0.000004 0.000001 0.000009 0.060663 0.000005 0.002195
# 5 -0.004516 0.000754 0.008453 0.000005 0.029858 0.000005
# 6 -0.000005 0.000000 0.000011 0.002195 0.000005 0.137598
#
#
# Mechanical properties :
#
#
# Convention : Reuss Voigt Hill
#
# Bulk Modulus (GPa) = 41.67200 63.96861 52.82030
# Shear Modulus (GPa) = 14.62889 23.93964 19.28427
#
# Velocity S-wave (km/s) = 2.87916 3.68315 3.30569
# Velocity P-wave (km/s) = 5.88783 7.37128 6.67091
#
# Compressibility (1/GPa) = 0.02399693
#
# Stress axis : x y z
#
# Youngs Moduli (GPa) = 53.78062 130.54497 25.92013
#
# Poissons Ratio (x) = 0.50912 0.37331
# Poissons Ratio (y) = 0.20974 0.05486
# Poissons Ratio (z) = 0.77456 0.27630
#
# Static dielectric constant tensor:
#      x y z
#    x 2.968920 0.000000 -0.019920 
#    y 0.000000 2.743080 0.000010 
#    z -0.019920 0.000010 3.144650 
# 
# 
# High freq. dielectric constant tensor:
#      x y z
#    x 1.651830 0.000000 -0.000820 
#    y 0.000000 1.699710 0.000000 
#    z -0.000820 0.000000 1.677430 
# 
# From -- ./inp_files/101182.got.cif
#   From: 2010.06.25/outbox.cif.g09.slc.cpg/sg12_51_cif.got.tgz:101182.got - 2010.06.28 00:19:55.
