data_PCOD8090664
_publ_section_title
;
Structure prediction by ZEFSAII (Michael W. Deem and Ramdas Pophale) SiO2 
 PCOD8090664
Probable space group: C 2/M
;
_chemical_formula_sum "Si O2"
_cell_formula_units_Z 52
_cell_length_a 18.019675
_cell_length_b 13.764089
_cell_length_c 15.216260
_cell_angle_alpha 90.000000
_cell_angle_beta 138.460947
_cell_angle_gamma 90.000000
_cell_volume 2502.656670
_symmetry_space_group_name_H-M "C 2/M"
_symmetry_group_IT_number 12
_symmetry_cell_setting 'monoclinic'
loop_
_space_group_symop_operation_xyz
x,y,z
-x,y,-z
-x,-y,-z
x,-y,z
1/2+x,1/2+y,z
1/2-x,1/2+y,-z
1/2-x,1/2-y,-z
1/2+x,1/2-y,z
loop_
_atom_site_type_symbol
_atom_site_label
_atom_site_fract_x
_atom_site_fract_y
_atom_site_fract_z
Si Si1 0.213401 0.106425 0.403520
Si Si2 0.868586 0.390352 0.698813
Si Si3 0.546462 0.609181 0.805959
Si Si4 0.552985 0.808309 0.733710
Si Si5 0.221587 0.889473 0.111467
Si Si6 0.243007 0.245860 0.699807
Si Si7 0.000000 0.263965 0.500000
O O1 0.256462 0.115899 0.541253
O O2 0.081968 0.123474 0.283409
O O3 0.274529 0.186216 0.400130
O O4 0.244445 0.000000 0.394198
O O5 0.903190 0.500000 0.752247
O O6 0.835171 0.336904 0.760524
O O7 0.970498 0.340067 0.738250
O O8 0.568773 0.500000 0.787613
O O9 0.578809 0.692195 0.764208
O O10 0.614807 0.625675 0.955591
O O11 0.666966 0.868855 0.846754
O O12 0.504218 0.829986 0.592609
O O13 0.211803 0.811489 0.180742
O O14 0.224427 0.000000 0.150630
O O15 0.117117 0.202691 0.605060
#
# Coordination Sequence:
#
# PCOD8090664 Si02
#       7
#     8   8   8   8   8   8   4
#     4  10  19  33  58  87 115 152 190 236 291 346
#     4  11  22  37  62  89 119 156 198 242 296 360
#     4  10  21  38  61  88 117 156 202 239 288 352
#     4  11  20  40  62  88 121 155 194 242 301 345
#     4  10  23  39  59  90 120 154 199 246 293 344
#     4  11  20  38  56  87 123 155 193 241 300 344
#     4  10  22  34  62  86 120 154 186 244 294 352
#
# _framework density 20.777919000000001
#
# number of rings (size 3 to 8) (size 9 to 14) (size 15 to 20)
#    0.000    1.538    3.077    2.769    0.000    0.615 
#    0.000    8.462    0.000    2.769    0.000    0.000 
#    0.000    0.000    0.000    0.000    0.000    0.000 
#
# Total GULP energy -322229.118366 kJ/mol
# GULP energy per Si atom -12393.427629 kJ/mol
# Density = 2.073063 g / cm^3
# Si number density = 20.777919 Si / 1000 Ang^3
#
#
#
# Elastic Constant Matrix: (Units=GPa)
#
#
# Indices 1 2 3 4 5 6 
#
# 1 101.1796 45.1640 30.9863 0.0000 5.8159 0.0000
# 2 45.1640 131.0292 31.5707 0.0000 -10.4204 0.0000
# 3 30.9863 31.5707 82.9802 0.0000 8.7827 0.0000
# 4 0.0000 0.0000 0.0000 13.3940 0.0000 -6.5849
# 5 5.8159 -10.4204 8.7827 0.0000 21.9642 0.0000
# 6 0.0000 0.0000 0.0000 -6.5849 0.0000 26.7895
#
#
#
# Elastic Compliance Matrix: (Units=1/GPa)
#
#
# Indices 1 2 3 4 5 6 
#
# 1 0.012797 -0.004075 -0.002783 0.000000 -0.004209 0.000000
# 2 -0.004075 0.010387 -0.003202 0.000000 0.007287 0.000000
# 3 -0.002783 -0.003202 0.015027 0.000000 -0.006791 0.000000
# 4 0.000000 0.000000 0.000000 0.084923 0.000000 0.020874
# 5 -0.004209 0.007287 -0.006791 0.000000 0.052816 0.000000
# 6 0.000000 0.000000 0.000000 0.020874 0.000000 0.042459
#
#
# Mechanical properties :
#
#
# Convention : Reuss Voigt Hill
#
# Bulk Modulus (GPa) = 55.27164 58.95900 57.11532
# Shear Modulus (GPa) = 20.44507 26.26075 23.35291
#
# Velocity S-wave (km/s) = 3.14025 3.55896 3.35614
# Velocity P-wave (km/s) = 6.30929 6.73244 6.52429
#
# Compressibility (1/GPa) = 0.01809246
#
# Stress axis : x y z
#
# Youngs Moduli (GPa) = 78.14614 96.26992 66.54707
#
# Poissons Ratio (x) = 0.39231 0.18517
# Poissons Ratio (y) = 0.31845 0.21306
# Poissons Ratio (z) = 0.21745 0.30822
#
# Static dielectric constant tensor:
#      x y z
#    x 3.764240 0.000000 0.124630 
#    y 0.000000 3.994160 0.000000 
#    z 0.124630 0.000000 3.639930 
# 
# 
# High freq. dielectric constant tensor:
#      x y z
#    x 1.808010 0.000000 0.015560 
#    y 0.000000 1.805740 0.000000 
#    z 0.015560 0.000000 1.805810 
# 
# From -- ./inp_files/225799.got.cif
#   From: 2010.06.25/outbox.cif.g09.slc.cpg/sg12_113_cif.got.tgz:225799.got - 2010.06.28 00:19:55.
