data_PCOD8090051
_publ_section_title
;
Structure prediction by ZEFSAII (Michael W. Deem and Ramdas Pophale) SiO2 
 PCOD8090051
Probable space group: C 2/M
;
_chemical_formula_sum "Si O2"
_cell_formula_units_Z 56
_cell_length_a 21.215880
_cell_length_b 12.842326
_cell_length_c 11.022420
_cell_angle_alpha 90.000000
_cell_angle_beta 66.369455
_cell_angle_gamma 90.000000
_cell_volume 2751.362970
_symmetry_space_group_name_H-M "C 2/M"
_symmetry_group_IT_number 12
_symmetry_cell_setting 'monoclinic'
loop_
_space_group_symop_operation_xyz
x,y,z
-x,y,-z
-x,-y,-z
x,-y,z
1/2+x,1/2+y,z
1/2-x,1/2+y,-z
1/2-x,1/2-y,-z
1/2+x,1/2-y,z
loop_
_atom_site_type_symbol
_atom_site_label
_atom_site_fract_x
_atom_site_fract_y
_atom_site_fract_z
Si Si1 0.453469 0.379810 0.152659
Si Si2 0.409611 0.116738 0.416866
Si Si3 0.792506 0.379658 0.079857
Si Si4 0.665962 0.251598 0.155619
Si Si5 0.515008 0.292146 0.352912
Si Si6 0.787221 0.383271 0.674819
Si Si7 0.172390 0.261956 0.716587
O O1 0.432857 0.500000 0.166548
O O2 0.487272 0.358180 0.259630
O O3 0.386180 0.311767 0.182673
O O4 0.500000 0.352306 0.000000
O O5 0.481049 0.177366 0.376694
O O6 0.367167 0.113427 0.573998
O O7 0.356186 0.176883 0.374730
O O8 0.426723 0.000000 0.357005
O O9 0.808185 0.500000 0.043935
O O10 0.713325 0.354256 0.103450
O O11 0.804606 0.352790 0.210263
O O12 0.846168 0.307560 0.962247
O O13 0.596473 0.283434 0.276042
O O14 0.712537 0.168836 0.193740
O O15 0.500000 0.341429 0.500000
O O16 0.757018 0.500000 0.703200
O O17 0.736796 0.312328 0.630024
#
# Coordination Sequence:
#
# PCOD8090051 Si02
#       7
#     8   8   8   8   8   8   8
#     4  10  22  40  61  85 116 157 202 243 291 351
#     4  10  21  35  55  82 113 152 190 231 291 353
#     4  10  21  37  59  85 115 152 196 243 292 345
#     4  10  21  37  57  85 118 153 193 241 292 348
#     4  11  22  39  61  87 124 156 192 244 296 351
#     4  10  19  33  55  80 109 148 193 237 286 346
#     4  10  20  36  57  81 112 146 192 244 292 336
#
# _framework density 20.353548
#
# number of rings (size 3 to 8) (size 9 to 14) (size 15 to 20)
#    0.000    1.857    1.429    2.571    0.000    2.286 
#    0.000    3.571    0.000    4.714    0.000    0.000 
#    0.000    0.000    0.000    0.000    0.000    0.000 
#
# Total GULP energy -347009.684838 kJ/mol
# GULP energy per Si atom -12393.203030 kJ/mol
# Density = 2.030722 g / cm^3
# Si number density = 20.353548 Si / 1000 Ang^3
#
#
#
# Elastic Constant Matrix: (Units=GPa)
#
#
# Indices 1 2 3 4 5 6 
#
# 1 62.9572 9.9861 18.9292 0.0000 -5.5319 0.0000
# 2 9.9861 78.2555 12.6978 0.0000 1.0913 0.0000
# 3 18.9292 12.6978 85.5229 0.0000 -6.6348 0.0000
# 4 0.0000 0.0000 0.0000 23.2454 0.0000 -2.4277
# 5 -5.5319 1.0913 -6.6348 0.0000 35.7793 0.0000
# 6 0.0000 0.0000 0.0000 -2.4277 0.0000 23.1478
#
#
#
# Elastic Compliance Matrix: (Units=1/GPa)
#
#
# Indices 1 2 3 4 5 6 
#
# 1 0.017368 -0.001689 -0.003430 0.000000 0.002101 0.000000
# 2 -0.001689 0.013279 -0.001674 0.000000 -0.000976 0.000000
# 3 -0.003430 -0.001674 0.012848 0.000000 0.001903 0.000000
# 4 0.000000 0.000000 0.000000 0.043496 0.000000 0.004562
# 5 0.002101 -0.000976 0.001903 0.000000 0.028657 0.000000
# 6 0.000000 0.000000 0.000000 0.004562 0.000000 0.043679
#
#
# Mechanical properties :
#
#
# Convention : Reuss Voigt Hill
#
# Bulk Modulus (GPa) = 33.43420 34.44021 33.93721
# Shear Modulus (GPa) = 27.34001 28.77599 28.05800
#
# Velocity S-wave (km/s) = 3.66902 3.76414 3.71689
# Velocity P-wave (km/s) = 5.86612 5.98744 5.92709
#
# Compressibility (1/GPa) = 0.02990949
#
# Stress axis : x y z
#
# Youngs Moduli (GPa) = 57.57818 75.30487 77.83216
#
# Poissons Ratio (x) = 0.12719 0.26699
# Poissons Ratio (y) = 0.09725 0.13026
# Poissons Ratio (z) = 0.19751 0.12603
#
# Static dielectric constant tensor:
#      x y z
#    x 3.621740 0.000000 0.060390 
#    y 0.000000 3.647640 0.000000 
#    z 0.060390 0.000000 3.695360 
# 
# 
# High freq. dielectric constant tensor:
#      x y z
#    x 1.792370 0.000000 0.001930 
#    y 0.000000 1.790940 0.000000 
#    z 0.001930 0.000000 1.799720 
# 
# From -- ./inp_files/165597.got.cif
#   From: 2010.06.25/outbox.cif.g09.slc.cpg/sg12_83_cif.got.tgz:165597.got - 2010.06.28 00:19:55.
