data_PCOD8090116
_publ_section_title
;
Structure prediction by ZEFSAII (Michael W. Deem and Ramdas Pophale) SiO2 
 PCOD8090116
Probable space group: C 2/M
;
_chemical_formula_sum "Si O2"
_cell_formula_units_Z 64
_cell_length_a 23.063286
_cell_length_b 8.585459
_cell_length_c 30.140728
_cell_angle_alpha 90.000000
_cell_angle_beta 33.827492
_cell_angle_gamma 90.000000
_cell_volume 3322.425102
_symmetry_space_group_name_H-M "C 2/M"
_symmetry_group_IT_number 12
_symmetry_cell_setting 'monoclinic'
loop_
_space_group_symop_operation_xyz
x,y,z
-x,y,-z
-x,-y,-z
x,-y,z
1/2+x,1/2+y,z
1/2-x,1/2+y,-z
1/2-x,1/2-y,-z
1/2+x,1/2-y,z
loop_
_atom_site_type_symbol
_atom_site_label
_atom_site_fract_x
_atom_site_fract_y
_atom_site_fract_z
Si Si1 0.659193 0.182783 0.613169
Si Si2 0.401162 0.676274 0.009723
Si Si3 0.638879 0.685461 0.059529
Si Si4 0.618579 0.817902 0.538747
Si Si5 0.730579 0.316924 0.725906
Si Si6 0.451901 0.322177 0.578610
Si Si7 0.144263 0.175781 0.869646
Si Si8 0.064928 0.185150 0.759143
O O1 0.610421 0.226207 0.596135
O O2 0.768554 0.269625 0.551380
O O3 0.579389 0.236604 0.701865
O O4 0.680788 0.000000 0.602397
O O5 0.359566 0.500000 0.034216
O O6 0.343542 0.756916 0.089225
O O7 0.377901 0.761230 0.978404
O O8 0.523577 0.674499 0.936376
O O9 0.636901 0.500000 0.059387
O O10 0.547521 0.740978 0.150899
O O11 0.750000 0.750000 0.000000
O O12 0.529155 0.729896 0.568539
O O13 0.603150 0.000000 0.540618
O O14 0.709446 0.500000 0.742136
O O15 0.849971 0.283178 0.640962
O O16 0.702454 0.238953 0.791782
O O17 0.655474 0.252083 0.734773
O O18 0.500000 0.300351 0.500000
O O19 0.420516 0.500000 0.607595
O O20 0.187212 0.000000 0.845653
O O21 0.070351 0.000000 0.750304
#
# Coordination Sequence:
#
# PCOD8090116 Si02
#       8
#     8   8   8   8   8   8   8   8
#     4  10  21  37  60  87 112 143 183 229 277 323
#     4   8  13  26  50  76 102 131 171 218 267 316
#     4  10  20  35  53  77 109 145 183 227 277 327
#     4  10  21  39  61  84 111 145 186 226 269 325
#     4  10  19  33  55  82 109 140 185 232 273 323
#     4  11  24  39  55  80 115 150 181 219 274 330
#     4   8  13  25  50  79 101 129 170 222 269 312
#     4  10  20  35  56  81 110 147 190 230 273 330
#
# _framework density 19.263037000000001
#
# number of rings (size 3 to 8) (size 9 to 14) (size 15 to 20)
#    0.000    2.375    1.250    2.625    0.000    5.500 
#    2.250    0.000    0.000    0.000    0.000    1.750 
#    0.000    0.000    0.000    0.000    0.000    0.000 
#
# Total GULP energy -396509.255254 kJ/mol
# GULP energy per Si atom -12390.914227 kJ/mol
# Density = 1.921919 g / cm^3
# Si number density = 19.263037 Si / 1000 Ang^3
#
#
#
# Elastic Constant Matrix: (Units=GPa)
#
#
# Indices 1 2 3 4 5 6 
#
# 1 113.6754 18.4288 69.6136 0.0211 13.4017 -0.1291
# 2 18.4288 21.2152 18.3812 -0.0080 9.7683 -0.0176
# 3 69.6136 18.3812 119.8782 -0.0092 18.6374 -0.0115
# 4 0.0211 -0.0080 -0.0092 20.3876 0.0122 1.3083
# 5 13.4017 9.7683 18.6374 0.0122 36.4482 -0.0224
# 6 -0.1291 -0.0176 -0.0115 1.3083 -0.0224 20.3822
#
#
#
# Elastic Compliance Matrix: (Units=1/GPa)
#
#
# Indices 1 2 3 4 5 6 
#
# 1 0.014290 -0.006082 -0.007390 -0.000026 0.000154 0.000083
# 2 -0.006082 0.061504 -0.004002 0.000036 -0.012201 -0.000003
# 3 -0.007390 -0.004002 0.013751 0.000017 -0.003242 -0.000047
# 4 -0.000026 0.000036 0.000017 0.049252 -0.000027 -0.003162
# 5 0.000154 -0.012201 -0.003242 -0.000027 0.032307 0.000026
# 6 0.000083 -0.000003 -0.000047 -0.003162 0.000026 0.049266
#
#
# Mechanical properties :
#
#
# Convention : Reuss Voigt Hill
#
# Bulk Modulus (GPa) = 18.31576 51.95733 35.13655
# Shear Modulus (GPa) = 18.28044 25.33330 21.80687
#
# Velocity S-wave (km/s) = 3.08391 3.63040 3.36826
# Velocity P-wave (km/s) = 4.71270 6.67864 5.77987
#
# Compressibility (1/GPa) = 0.05459779
#
# Stress axis : x y z
#
# Youngs Moduli (GPa) = 69.97751 16.25913 72.72342
#
# Poissons Ratio (x) = 0.09888 0.53742
# Poissons Ratio (y) = 0.42558 0.29104
# Poissons Ratio (z) = 0.51713 0.06507
#
# Static dielectric constant tensor:
#      x y z
#    x 3.714520 -0.000060 0.294200 
#    y -0.000060 3.219500 0.000020 
#    z 0.294200 0.000020 3.672840 
# 
# 
# High freq. dielectric constant tensor:
#      x y z
#    x 1.756460 -0.000010 0.022160 
#    y -0.000010 1.712570 0.000000 
#    z 0.022160 0.000000 1.755260 
# 
# From -- ./inp_files/382375.got.cif
#   From: 2010.06.25/outbox.cif.g09.slc.cpg/sg12_192_cif.got.tgz:382375.got - 2010.06.28 00:19:55.
