data_PCOD8090576
_publ_section_title
;
Structure prediction by ZEFSAII (Michael W. Deem and Ramdas Pophale) SiO2 
 PCOD8090576
Probable space group: C 2/M
;
_chemical_formula_sum "Si O2"
_cell_formula_units_Z 64
_cell_length_a 20.043893
_cell_length_b 8.904480
_cell_length_c 32.107438
_cell_angle_alpha 90.000000
_cell_angle_beta 35.630248
_cell_angle_gamma 90.000000
_cell_volume 3338.344090
_symmetry_space_group_name_H-M "C 2/M"
_symmetry_group_IT_number 12
_symmetry_cell_setting 'monoclinic'
loop_
_space_group_symop_operation_xyz
x,y,z
-x,y,-z
-x,-y,-z
x,-y,z
1/2+x,1/2+y,z
1/2-x,1/2+y,-z
1/2-x,1/2-y,-z
1/2+x,1/2-y,z
loop_
_atom_site_type_symbol
_atom_site_label
_atom_site_fract_x
_atom_site_fract_y
_atom_site_fract_z
Si Si1 0.556441 0.324107 0.566651
Si Si2 0.025473 0.674611 0.668180
Si Si3 0.575233 0.322175 0.922887
Si Si4 0.327924 0.673924 0.905882
Si Si5 0.743873 0.327787 0.404180
Si Si6 0.683646 0.324122 0.182985
Si Si7 0.579398 0.824533 0.064324
Si Si8 0.598448 0.831376 0.415839
O O1 0.549289 0.500000 0.580134
O O2 0.573039 0.230823 0.600137
O O3 0.665362 0.281153 0.483185
O O4 0.438796 0.272135 0.603967
O O5 0.992462 0.500000 0.682058
O O6 0.124199 0.701312 0.652144
O O7 0.915816 0.771790 0.735882
O O8 0.576034 0.500000 0.920347
O O9 0.703065 0.264264 0.862641
O O10 0.523971 0.259137 0.906042
O O11 0.500000 0.263733 0.000000
O O12 0.348140 0.500000 0.905879
O O13 0.354622 0.713841 0.844653
O O14 0.413025 0.770112 0.891654
O O15 0.196595 0.718604 0.981363
O O16 0.718697 0.500000 0.406004
O O17 0.714121 0.231430 0.378247
O O18 0.707083 0.500000 0.176626
O O19 0.554000 0.000000 0.076272
O O20 0.500000 0.826593 0.500000
O O21 0.620988 0.000000 0.388372
#
# Coordination Sequence:
#
# PCOD8090576 Si02
#       8
#     8   8   8   8   8   8   8   8
#     4  10  19  34  57  83 112 148 190 233 280 334
#     4  11  23  38  55  80 114 149 187 232 283 335
#     4  11  22  36  58  86 114 145 183 228 276 329
#     4   9  19  35  55  81 112 143 178 226 276 328
#     4   9  19  35  56  82 112 147 188 235 282 335
#     4  11  23  40  59  80 112 150 188 229 280 337
#     4  10  19  33  57  86 113 142 180 227 275 327
#     4   9  17  30  52  82 112 141 179 231 283 329
#
# _framework density 19.171182000000002
#
# number of rings (size 3 to 8) (size 9 to 14) (size 15 to 20)
#    0.000    2.000    1.250    2.625    0.000    5.000 
#    0.000    1.250    0.000    3.000    0.000    0.000 
#    0.000    0.000    0.000    0.000    0.000    0.000 
#
# Total GULP energy -396922.788163 kJ/mol
# GULP energy per Si atom -12403.837130 kJ/mol
# Density = 1.912755 g / cm^3
# Si number density = 19.171182 Si / 1000 Ang^3
#
#
#
# Elastic Constant Matrix: (Units=GPa)
#
#
# Indices 1 2 3 4 5 6 
#
# 1 96.2594 42.6300 17.8920 -0.0008 -11.3951 0.0450
# 2 42.6300 71.1146 16.0713 0.0027 -3.6206 0.0081
# 3 17.8920 16.0713 49.5636 -0.0008 -11.3334 0.0006
# 4 -0.0008 0.0027 -0.0008 25.2638 -0.0018 0.9818
# 5 -11.3951 -3.6206 -11.3334 -0.0018 19.5212 0.0008
# 6 0.0450 0.0081 0.0006 0.9818 0.0008 37.6653
#
#
#
# Elastic Compliance Matrix: (Units=1/GPa)
#
#
# Indices 1 2 3 4 5 6 
#
# 1 0.015142 -0.008467 -0.001221 0.000002 0.006560 -0.000016
# 2 -0.008467 0.019908 -0.004249 -0.000003 -0.003717 0.000006
# 3 -0.001221 -0.004249 0.024966 0.000002 0.012994 0.000002
# 4 0.000002 -0.000003 0.000002 0.039622 0.000006 -0.001033
# 5 0.006560 -0.003717 0.012994 0.000006 0.061910 -0.000009
# 6 -0.000016 0.000006 0.000002 -0.001033 -0.000009 0.026577
#
#
# Mechanical properties :
#
#
# Convention : Reuss Voigt Hill
#
# Bulk Modulus (GPa) = 31.11100 41.12489 36.11795
# Shear Modulus (GPa) = 22.05446 25.84635 23.95041
#
# Velocity S-wave (km/s) = 3.39543 3.67575 3.53837
# Velocity P-wave (km/s) = 5.62451 6.28592 5.96439
#
# Compressibility (1/GPa) = 0.03214297
#
# Stress axis : x y z
#
# Youngs Moduli (GPa) = 66.04265 50.23024 40.05515
#
# Poissons Ratio (x) = 0.42530 0.04889
# Poissons Ratio (y) = 0.55918 0.17018
# Poissons Ratio (z) = 0.08061 0.21342
#
# Static dielectric constant tensor:
#      x y z
#    x 3.626610 -0.000030 0.042510 
#    y -0.000030 3.545170 -0.000010 
#    z 0.042510 -0.000010 3.203000 
# 
# 
# High freq. dielectric constant tensor:
#      x y z
#    x 1.758440 0.000000 -0.000740 
#    y 0.000000 1.755600 0.000000 
#    z -0.000740 0.000000 1.709940 
# 
# From -- ./inp_files/378034.got.cif
#   From: 2010.06.25/outbox.cif.g09.slc.cpg/sg12_190_cif.got.tgz:378034.got - 2010.06.28 00:19:55.
