data_PCOD8090430
_publ_section_title
;
Structure prediction by ZEFSAII (Michael W. Deem and Ramdas Pophale) SiO2 
 PCOD8090430
Probable space group: C 2/M
;
_chemical_formula_sum "Si O2"
_cell_formula_units_Z 64
_cell_length_a 29.730701
_cell_length_b 9.139436
_cell_length_c 23.464275
_cell_angle_alpha 90.000000
_cell_angle_beta 149.624440
_cell_angle_gamma 90.000000
_cell_volume 3224.001771
_symmetry_space_group_name_H-M "C 2/M"
_symmetry_group_IT_number 12
_symmetry_cell_setting 'monoclinic'
loop_
_space_group_symop_operation_xyz
x,y,z
-x,y,-z
-x,-y,-z
x,-y,z
1/2+x,1/2+y,z
1/2-x,1/2+y,-z
1/2-x,1/2-y,-z
1/2+x,1/2-y,z
loop_
_atom_site_type_symbol
_atom_site_label
_atom_site_fract_x
_atom_site_fract_y
_atom_site_fract_z
Si Si1 0.334529 0.173922 0.750276
Si Si2 0.675475 0.161523 0.888503
Si Si3 0.002407 0.339055 0.568585
Si Si4 0.133437 0.169736 0.507035
Si Si5 0.517468 0.671820 0.154868
Si Si6 0.857668 0.825751 0.894831
Si Si7 0.505083 0.670061 0.738267
Si Si8 0.809058 0.662374 0.220615
O O1 0.235408 0.222908 0.622885
O O2 0.397215 0.234012 0.769124
O O3 0.367729 0.246495 0.845506
O O4 0.343187 0.000000 0.765206
O O5 0.579796 0.239675 0.786191
O O6 0.721687 0.149845 0.877579
O O7 0.663614 0.000000 0.902056
O O8 0.750000 0.250000 0.000000
O O9 0.003361 0.500000 0.600304
O O10 0.919705 0.248238 0.500694
O O11 0.000000 0.363898 0.500000
O O12 0.096326 0.253085 0.679725
O O13 0.089237 0.203528 0.396750
O O14 0.128479 0.000000 0.515441
O O15 0.539320 0.500000 0.174326
O O16 0.497004 0.716408 0.197794
O O17 0.436989 0.715059 0.024734
O O18 0.766903 0.762875 0.824000
O O19 0.855230 0.000000 0.882764
O O20 0.529360 0.500000 0.759544
O O21 0.825693 0.500000 0.264773
#
# Coordination Sequence:
#
# PCOD8090430 Si02
#       8
#     8   8   8   8   8   8   8   8
#     4  11  24  40  58  85 119 153 192 244 302 357
#     4  11  21  35  56  84 119 155 193 236 284 340
#     4  10  19  33  56  84 113 148 192 236 277 332
#     4  10  22  39  58  83 120 157 191 239 298 353
#     4  10  22  40  63  87 112 150 200 249 298 351
#     4  10  20  38  62  86 114 150 194 243 293 349
#     4  10  21  40  62  85 116 154 197 245 296 350
#     4   9  18  33  54  83 114 145 184 229 275 331
#
# _framework density 19.851105
#
# number of rings (size 3 to 8) (size 9 to 14) (size 15 to 20)
#    0.000    1.875    1.250    2.625    0.000    7.250 
#    0.000    3.125    0.000    0.000    0.000    0.000 
#    0.000    0.000    0.000    0.000    0.000    0.000 
#
# Total GULP energy -396560.494791 kJ/mol
# GULP energy per Si atom -12392.515462 kJ/mol
# Density = 1.980592 g / cm^3
# Si number density = 19.851105 Si / 1000 Ang^3
#
#
#
# Elastic Constant Matrix: (Units=GPa)
#
#
# Indices 1 2 3 4 5 6 
#
# 1 97.3092 30.1573 26.3113 0.0000 6.6831 0.0000
# 2 30.1573 53.1252 31.3421 0.0000 4.8763 0.0000
# 3 26.3113 31.3421 103.3452 0.0000 5.3182 0.0000
# 4 0.0000 0.0000 0.0000 28.1777 0.0000 -1.5462
# 5 6.6831 4.8763 5.3182 0.0000 39.2489 0.0000
# 6 0.0000 0.0000 0.0000 -1.5462 0.0000 75.1300
#
#
#
# Elastic Compliance Matrix: (Units=1/GPa)
#
#
# Indices 1 2 3 4 5 6 
#
# 1 0.012660 -0.006347 -0.001237 0.000000 -0.001200 0.000000
# 2 -0.006347 0.026252 -0.006277 0.000000 -0.001330 0.000000
# 3 -0.001237 -0.006277 0.011927 0.000000 -0.000626 0.000000
# 4 0.000000 0.000000 0.000000 0.035529 0.000000 0.000731
# 5 -0.001200 -0.001330 -0.000626 0.000000 0.025933 0.000000
# 6 0.000000 0.000000 0.000000 0.000731 0.000000 0.013325
#
#
# Mechanical properties :
#
#
# Convention : Reuss Voigt Hill
#
# Bulk Modulus (GPa) = 43.25731 47.71122 45.48426
# Shear Modulus (GPa) = 31.04543 39.57592 35.31067
#
# Velocity S-wave (km/s) = 3.95893 4.46986 4.22213
# Velocity P-wave (km/s) = 6.53725 7.12224 6.83600
#
# Compressibility (1/GPa) = 0.02311748
#
# Stress axis : x y z
#
# Youngs Moduli (GPa) = 78.98689 38.09236 83.84299
#
# Poissons Ratio (x) = 0.24178 0.10368
# Poissons Ratio (y) = 0.50134 0.52630
# Poissons Ratio (z) = 0.09767 0.23911
#
# Static dielectric constant tensor:
#      x y z
#    x 3.477610 0.000000 0.057130 
#    y 0.000000 3.233490 0.000000 
#    z 0.057130 0.000000 3.800250 
# 
# 
# High freq. dielectric constant tensor:
#      x y z
#    x 1.775220 0.000000 -0.000660 
#    y 0.000000 1.752810 0.000000 
#    z -0.000660 0.000000 1.791500 
# 
# From -- ./inp_files/250024.got.cif
#   From: 2010.06.25/outbox.cif.g09.slc.cpg/sg12_126_cif.got.tgz:250024.got - 2010.06.28 00:19:55.
