data_PCOD8090701
_publ_section_title
;
Structure prediction by ZEFSAII (Michael W. Deem and Ramdas Pophale) SiO2 
 PCOD8090701
Probable space group: C 2/M
;
_chemical_formula_sum "Si O2"
_cell_formula_units_Z 64
_cell_length_a 15.312118
_cell_length_b 8.644599
_cell_length_c 28.105187
_cell_angle_alpha 90.000000
_cell_angle_beta 56.771666
_cell_angle_gamma 90.000000
_cell_volume 3111.925080
_symmetry_space_group_name_H-M "C 2/M"
_symmetry_group_IT_number 12
_symmetry_cell_setting 'monoclinic'
loop_
_space_group_symop_operation_xyz
x,y,z
-x,y,-z
-x,-y,-z
x,-y,z
1/2+x,1/2+y,z
1/2-x,1/2+y,-z
1/2-x,1/2-y,-z
1/2+x,1/2-y,z
loop_
_atom_site_type_symbol
_atom_site_label
_atom_site_fract_x
_atom_site_fract_y
_atom_site_fract_z
Si Si1 0.807200 0.682020 0.193212
Si Si2 0.693889 0.818852 0.314328
Si Si3 0.093799 0.817606 0.003715
Si Si4 0.761506 0.179249 0.889652
Si Si5 0.028150 0.179982 0.126850
Si Si6 0.794142 0.317103 0.375427
Si Si7 0.967723 0.819520 0.382873
Si Si8 0.102790 0.818956 0.493515
O O1 0.787172 0.500000 0.204164
O O2 0.730559 0.772260 0.251043
O O3 0.778357 0.743427 0.149054
O O4 0.926716 0.720666 0.169914
O O5 0.765143 0.726814 0.330496
O O6 0.573694 0.774931 0.356203
O O7 0.708501 0.000000 0.318389
O O8 0.076944 0.761342 0.062590
O O9 0.094726 0.000000 0.000760
O O10 0.203443 0.759246 0.950886
O O11 0.000000 0.748266 0.000000
O O12 0.885536 0.209337 0.858050
O O13 0.735550 0.000000 0.901392
O O14 0.996158 0.000000 0.133428
O O15 0.808326 0.500000 0.375521
O O16 0.903303 0.235995 0.356248
O O17 0.705706 0.249978 0.437732
O O18 0.897300 0.783417 0.450378
O O19 0.995468 0.000000 0.370485
O O20 0.000000 0.744050 0.500000
O O21 0.102134 0.000000 0.482779
#
# Coordination Sequence:
#
# PCOD8090701 Si02
#       8
#     8   8   8   8   8   8   8   8
#     4  11  24  42  62  86 115 154 202 254 307 360
#     4  12  26  44  64  88 119 162 211 260 313 366
#     4  10  19  33  58  89 122 158 193 237 295 355
#     4  10  22  38  60  88 119 154 195 243 296 356
#     4  10  21  39  60  87 122 158 196 242 297 361
#     4  11  22  40  65  94 128 163 204 252 306 368
#     4  11  22  40  65  94 129 165 204 251 306 367
#     4   9  17  34  62  93 126 165 201 246 305 362
#
# _framework density 20.566047999999999
#
# number of rings (size 3 to 8) (size 9 to 14) (size 15 to 20)
#    0.000    1.500    2.500    3.000    0.000    2.750 
#    0.000    6.250    0.000    0.000    0.000    0.000 
#    0.000    0.000    0.000    0.000    0.000    0.000 
#
# Total GULP energy -396930.055052 kJ/mol
# GULP energy per Si atom -12404.064220 kJ/mol
# Density = 2.051924 g / cm^3
# Si number density = 20.566048 Si / 1000 Ang^3
#
#
#
# Elastic Constant Matrix: (Units=GPa)
#
#
# Indices 1 2 3 4 5 6 
#
# 1 105.0268 16.2042 7.0530 -0.0001 -0.6073 -0.0002
# 2 16.2042 44.4426 26.4982 -0.0001 -6.9911 -0.0004
# 3 7.0530 26.4982 71.1505 0.0000 8.1674 0.0000
# 4 -0.0001 -0.0001 0.0000 30.5149 0.0000 -4.2450
# 5 -0.6073 -6.9911 8.1674 0.0000 16.4311 0.0000
# 6 -0.0002 -0.0004 0.0000 -4.2450 0.0000 28.8188
#
#
#
# Elastic Compliance Matrix: (Units=1/GPa)
#
#
# Indices 1 2 3 4 5 6 
#
# 1 0.010153 -0.004578 0.000932 0.000000 -0.002036 0.000000
# 2 -0.004578 0.037680 -0.016332 0.000000 0.023981 0.000000
# 3 0.000932 -0.016332 0.022099 0.000000 -0.017899 0.000000
# 4 0.000000 0.000000 0.000000 0.033456 0.000000 0.004928
# 5 -0.002036 0.023981 -0.017899 0.000000 0.079886 0.000000
# 6 0.000000 0.000000 0.000000 0.004928 0.000000 0.035425
#
#
# Mechanical properties :
#
#
# Convention : Reuss Voigt Hill
#
# Bulk Modulus (GPa) = 33.35870 35.57009 34.46439
# Shear Modulus (GPa) = 18.61165 26.54394 22.57779
#
# Velocity S-wave (km/s) = 3.01153 3.59648 3.31693
# Velocity P-wave (km/s) = 5.32428 5.88042 5.60925
#
# Compressibility (1/GPa) = 0.02997719
#
# Stress axis : x y z
#
# Youngs Moduli (GPa) = 98.48970 26.53912 45.25000
#
# Poissons Ratio (x) = 0.12150 -0.04218
# Poissons Ratio (y) = 0.45090 0.73902
# Poissons Ratio (z) = -0.09182 0.43344
#
# Static dielectric constant tensor:
#      x y z
#    x 3.835360 0.000000 0.057710 
#    y 0.000000 3.490110 0.000000 
#    z 0.057710 0.000000 3.733380 
# 
# 
# High freq. dielectric constant tensor:
#      x y z
#    x 1.816810 0.000000 -0.000090 
#    y 0.000000 1.788130 0.000000 
#    z -0.000090 0.000000 1.800550 
# 
# From -- ./inp_files/375047.got.cif
#   From: 2010.06.25/outbox.cif.g09.slc.cpg/sg12_188_cif.got.tgz:375047.got - 2010.06.28 00:19:55.
