data_PCOD8090044
_publ_section_title
;
Structure prediction by ZEFSAII (Michael W. Deem and Ramdas Pophale) SiO2 
 PCOD8090044
Probable space group: C 2/M
;
_chemical_formula_sum "Si O2"
_cell_formula_units_Z 56
_cell_length_a 15.150062
_cell_length_b 9.062615
_cell_length_c 24.424495
_cell_angle_alpha 90.000000
_cell_angle_beta 61.488786
_cell_angle_gamma 90.000000
_cell_volume 2946.767535
_symmetry_space_group_name_H-M "C 2/M"
_symmetry_group_IT_number 12
_symmetry_cell_setting 'monoclinic'
loop_
_space_group_symop_operation_xyz
x,y,z
-x,y,-z
-x,-y,-z
x,-y,z
1/2+x,1/2+y,z
1/2-x,1/2+y,-z
1/2-x,1/2-y,-z
1/2+x,1/2-y,z
loop_
_atom_site_type_symbol
_atom_site_label
_atom_site_fract_x
_atom_site_fract_y
_atom_site_fract_z
Si Si1 0.833260 0.675493 0.208646
Si Si2 0.602419 0.673109 0.997828
Si Si3 0.481965 0.327783 0.568970
Si Si4 0.169336 0.675645 0.563050
Si Si5 0.944081 0.670180 0.880532
Si Si6 0.237561 0.669755 0.138129
Si Si7 0.243421 0.825340 0.348032
O O1 0.831753 0.500000 0.208739
O O2 0.756241 0.733558 0.186112
O O3 0.798037 0.737544 0.277865
O O4 0.945269 0.736188 0.163400
O O5 0.604687 0.500000 0.007320
O O6 0.612357 0.748834 0.053552
O O7 0.500000 0.725667 0.000000
O O8 0.692862 0.725413 0.932323
O O9 0.500000 0.298438 0.500000
O O10 0.496686 0.500000 0.578624
O O11 0.558417 0.232381 0.582293
O O12 0.371129 0.268447 0.616303
O O13 0.175584 0.500000 0.554292
O O14 0.250000 0.750000 0.500000
O O15 0.194809 0.726818 0.617188
O O16 0.951572 0.500000 0.894804
O O17 0.878162 0.690599 0.845157
O O18 0.262803 0.500000 0.144300
O O19 0.240608 0.000000 0.347634
#
# Coordination Sequence:
#
# PCOD8090044 Si02
#       7
#     8   8   8   8   8   8   8
#     4  10  21  38  57  78 106 147 188 222 268 333
#     4  10  19  33  55  80 108 143 180 225 281 328
#     4  10  19  36  59  82 110 148 183 223 280 331
#     4  11  21  36  59  87 115 146 183 228 278 331
#     4  10  21  35  55  81 109 141 182 228 274 324
#     4  10  21  37  55  79 111 144 180 230 282 324
#     4   9  20  38  57  78 112 149 181 221 279 336
#
# _framework density 19.003874
#
# number of rings (size 3 to 8) (size 9 to 14) (size 15 to 20)
#    0.000    2.000    2.857    0.857    0.000    2.857 
#    0.000    3.571    0.000    0.000    0.000    0.000 
#    0.000    0.000    0.000    0.000    0.000    0.000 
#
# Total GULP energy -347265.622231 kJ/mol
# GULP energy per Si atom -12402.343651 kJ/mol
# Density = 1.896062 g / cm^3
# Si number density = 19.003874 Si / 1000 Ang^3
#
#
#
# Elastic Constant Matrix: (Units=GPa)
#
#
# Indices 1 2 3 4 5 6 
#
# 1 122.6327 34.1290 52.2274 0.0000 14.9683 0.0000
# 2 34.1290 41.0760 34.5001 0.0000 8.5215 0.0000
# 3 52.2274 34.5001 136.3518 0.0000 14.3926 0.0000
# 4 0.0000 0.0000 0.0000 18.2860 0.0000 5.9027
# 5 14.9683 8.5215 14.3926 0.0000 26.3819 0.0000
# 6 0.0000 0.0000 0.0000 5.9027 0.0000 32.5506
#
#
#
# Elastic Compliance Matrix: (Units=1/GPa)
#
#
# Indices 1 2 3 4 5 6 
#
# 1 0.011434 -0.006942 -0.002308 0.000000 -0.002986 0.000000
# 2 -0.006942 0.036073 -0.006000 0.000000 -0.004440 0.000000
# 3 -0.002308 -0.006000 0.009967 0.000000 -0.002190 0.000000
# 4 0.000000 0.000000 0.000000 0.058087 0.000000 -0.010533
# 5 -0.002986 -0.004440 -0.002190 0.000000 0.042228 0.000000
# 6 0.000000 0.000000 0.000000 -0.010533 0.000000 0.032632
#
#
# Mechanical properties :
#
#
# Convention : Reuss Voigt Hill
#
# Bulk Modulus (GPa) = 37.07129 60.19705 48.63417
# Shear Modulus (GPa) = 21.74745 27.39061 24.56903
#
# Velocity S-wave (km/s) = 3.38652 3.80059 3.59951
# Velocity P-wave (km/s) = 5.90262 7.14173 6.55153
#
# Compressibility (1/GPa) = 0.02697505
#
# Stress axis : x y z
#
# Youngs Moduli (GPa) = 87.46011 27.72119 100.32940
#
# Poissons Ratio (x) = 0.19245 0.23154
# Poissons Ratio (y) = 0.60717 0.60194
# Poissons Ratio (z) = 0.20184 0.16632
#
# Static dielectric constant tensor:
#      x y z
#    x 3.729770 0.000000 -0.045870 
#    y 0.000000 3.224390 0.000000 
#    z -0.045870 0.000000 3.608420 
# 
# 
# High freq. dielectric constant tensor:
#      x y z
#    x 1.753430 0.000000 0.000080 
#    y 0.000000 1.714780 0.000000 
#    z 0.000080 0.000000 1.737000 
# 
# From -- ./inp_files/337848.got.cif
#   From: 2010.06.25/outbox.cif.g09.slc.cpg/sg12_169_cif.got.tgz:337848.got - 2010.06.28 00:19:55.
