data_PCOD8090538
_publ_section_title
;
Structure prediction by ZEFSAII (Michael W. Deem and Ramdas Pophale) SiO2 
 PCOD8090538
Probable space group: C 2/M
;
_chemical_formula_sum "Si O2"
_cell_formula_units_Z 64
_cell_length_a 19.993408
_cell_length_b 9.187918
_cell_length_c 21.394673
_cell_angle_alpha 90.000000
_cell_angle_beta 61.937283
_cell_angle_gamma 90.000000
_cell_volume 3468.098452
_symmetry_space_group_name_H-M "C 2/M"
_symmetry_group_IT_number 12
_symmetry_cell_setting 'monoclinic'
loop_
_space_group_symop_operation_xyz
x,y,z
-x,y,-z
-x,-y,-z
x,-y,z
1/2+x,1/2+y,z
1/2-x,1/2+y,-z
1/2-x,1/2-y,-z
1/2+x,1/2-y,z
loop_
_atom_site_type_symbol
_atom_site_label
_atom_site_fract_x
_atom_site_fract_y
_atom_site_fract_z
Si Si1 0.018662 0.830781 0.562396
Si Si2 0.896234 0.666871 0.301934
Si Si3 0.324432 0.329089 0.443396
Si Si4 0.826455 0.333820 0.073149
Si Si5 0.428100 0.671324 0.930616
Si Si6 0.445298 0.167350 0.703705
Si Si7 0.345990 0.670133 0.840203
Si Si8 0.919969 0.666266 0.152203
O O1 0.105857 0.792323 0.540631
O O2 0.000000 0.785991 0.500000
O O3 0.960887 0.740630 0.630247
O O4 0.003093 0.000000 0.581512
O O5 0.870456 0.500000 0.323407
O O6 0.842625 0.770574 0.366171
O O7 0.888534 0.716397 0.233412
O O8 0.983153 0.688834 0.282702
O O9 0.308902 0.500000 0.446415
O O10 0.250000 0.250000 0.500000
O O11 0.837094 0.500000 0.045864
O O12 0.739677 0.284734 0.107138
O O13 0.851770 0.316202 0.133685
O O14 0.874172 0.230289 0.008072
O O15 0.433080 0.500000 0.936332
O O16 0.395972 0.716472 0.877452
O O17 0.511207 0.736496 0.902223
O O18 0.373541 0.243071 0.767388
O O19 0.425783 0.000000 0.700570
O O20 0.352886 0.500000 0.822273
O O21 0.948912 0.500000 0.143913
#
# Coordination Sequence:
#
# PCOD8090538 Si02
#       8
#     8   8   8   8   8   8   8   8
#     4   9  19  37  59  82 109 144 183 220 260 313
#     4   9  18  34  56  80 106 139 181 222 261 312
#     4  10  20  35  57  83 111 143 179 219 265 315
#     4  10  22  38  55  77 107 143 181 223 269 319
#     4  11  22  35  56  81 107 140 178 224 273 322
#     4  10  19  33  57  84 109 140 178 224 269 314
#     4  10  21  37  55  78 108 143 182 221 266 322
#     4  10  20  37  58  79 105 141 183 223 265 320
#
# _framework density 18.453916
#
# number of rings (size 3 to 8) (size 9 to 14) (size 15 to 20)
#    0.000    2.125    1.250    1.875    0.000    4.750 
#    2.250    0.000    0.000    0.000    0.000    0.000 
#    0.000    0.000    0.000    0.000    0.000    0.000 
#
# Total GULP energy -396939.127956 kJ/mol
# GULP energy per Si atom -12404.347749 kJ/mol
# Density = 1.841191 g / cm^3
# Si number density = 18.453916 Si / 1000 Ang^3
#
#
#
# Elastic Constant Matrix: (Units=GPa)
#
#
# Indices 1 2 3 4 5 6 
#
# 1 45.9294 29.8236 27.1365 0.0000 -6.2099 -0.0001
# 2 29.8236 76.4667 61.5751 -0.0001 -1.1950 -0.0004
# 3 27.1365 61.5751 124.2392 0.0000 -1.3546 0.0001
# 4 0.0000 -0.0001 0.0000 36.0371 0.0000 0.0723
# 5 -6.2099 -1.1950 -1.3546 0.0000 26.5113 0.0000
# 6 -0.0001 -0.0004 0.0001 0.0723 0.0000 21.6619
#
#
#
# Elastic Compliance Matrix: (Units=1/GPa)
#
#
# Indices 1 2 3 4 5 6 
#
# 1 0.030368 -0.010747 -0.001235 0.000000 0.006566 0.000000
# 2 -0.010747 0.025571 -0.010347 0.000000 -0.001893 0.000000
# 3 -0.001235 -0.010347 0.013446 0.000000 -0.000069 0.000000
# 4 0.000000 0.000000 0.000000 0.027749 0.000000 -0.000093
# 5 0.006566 -0.001893 -0.000069 0.000000 0.039169 0.000000
# 6 0.000000 0.000000 0.000000 -0.000093 0.000000 0.046164
#
#
# Mechanical properties :
#
#
# Convention : Reuss Voigt Hill
#
# Bulk Modulus (GPa) = 40.44030 53.74509 47.09269
# Shear Modulus (GPa) = 21.24318 25.38205 23.31262
#
# Velocity S-wave (km/s) = 3.39654 3.71270 3.55813
# Velocity P-wave (km/s) = 6.11095 6.89681 6.51574
#
# Compressibility (1/GPa) = 0.02472781
#
# Stress axis : x y z
#
# Youngs Moduli (GPa) = 32.92886 39.10609 74.37105
#
# Poissons Ratio (x) = 0.42028 0.09185
# Poissons Ratio (y) = 0.35389 0.76951
# Poissons Ratio (z) = 0.04067 0.40463
#
# Static dielectric constant tensor:
#      x y z
#    x 3.371930 0.000000 0.086220 
#    y 0.000000 3.411440 0.000000 
#    z 0.086220 0.000000 3.413520 
# 
# 
# High freq. dielectric constant tensor:
#      x y z
#    x 1.705760 0.000000 0.002810 
#    y 0.000000 1.717760 0.000000 
#    z 0.002810 0.000000 1.722990 
# 
# From -- ./inp_files/319828.got.cif
#   From: 2010.06.25/outbox.cif.g09.slc.cpg/sg12_160_cif.got.tgz:319828.got - 2010.06.28 00:19:55.
