data_PCOD8090252
_publ_section_title
;
Structure prediction by ZEFSAII (Michael W. Deem and Ramdas Pophale) SiO2 
 PCOD8090252
Probable space group: C 2/M
;
_chemical_formula_sum "Si O2"
_cell_formula_units_Z 64
_cell_length_a 29.926460
_cell_length_b 8.747571
_cell_length_c 18.407474
_cell_angle_alpha 90.000000
_cell_angle_beta 39.851830
_cell_angle_gamma 90.000000
_cell_volume 3087.895001
_symmetry_space_group_name_H-M "C 2/M"
_symmetry_group_IT_number 12
_symmetry_cell_setting 'monoclinic'
loop_
_space_group_symop_operation_xyz
x,y,z
-x,y,-z
-x,-y,-z
x,-y,z
1/2+x,1/2+y,z
1/2-x,1/2+y,-z
1/2-x,1/2-y,-z
1/2+x,1/2-y,z
loop_
_atom_site_type_symbol
_atom_site_label
_atom_site_fract_x
_atom_site_fract_y
_atom_site_fract_z
Si Si1 0.563269 0.818648 0.709629
Si Si2 0.710993 0.678529 0.748246
Si Si3 0.428251 0.824404 0.555886
Si Si4 0.582939 0.823339 0.159301
Si Si5 0.649727 0.319639 0.480137
Si Si6 0.332478 0.176226 0.812249
Si Si7 0.430919 0.179830 0.129627
Si Si8 0.208564 0.675253 0.902380
O O1 0.491925 0.750426 0.764328
O O2 0.626477 0.739314 0.588396
O O3 0.563396 0.772409 0.793669
O O4 0.568964 0.000000 0.693950
O O5 0.718183 0.500000 0.725220
O O6 0.771825 0.760783 0.627697
O O7 0.635397 0.735629 0.819934
O O8 0.721608 0.712358 0.819571
O O9 0.500000 0.756738 0.500000
O O10 0.404545 0.736738 0.513364
O O11 0.368070 0.807783 0.689890
O O12 0.440778 0.000000 0.517519
O O13 0.617646 0.751182 0.188045
O O14 0.571086 0.000000 0.190938
O O15 0.630875 0.801110 0.028853
O O16 0.650753 0.500000 0.477621
O O17 0.262262 0.276781 0.898865
O O18 0.314466 0.000000 0.853122
O O19 0.419717 0.000000 0.133322
O O20 0.500000 0.233048 0.000000
O O21 0.221056 0.500000 0.863145
#
# Coordination Sequence:
#
# PCOD8090252 Si02
#       8
#     8   8   8   8   8   8   8   8
#     4  10  21  41  67  92 122 161 204 249 305 374
#     4  12  25  42  65  91 124 167 213 259 314 376
#     4  10  20  36  60  86 119 166 214 257 308 371
#     4   9  19  36  60  89 121 163 207 248 303 372
#     4  12  25  41  62  90 126 163 208 263 314 366
#     4  10  19  33  55  85 121 161 207 251 302 367
#     4  10  22  43  72 102 129 160 202 252 311 374
#     4  11  21  36  59  88 124 162 206 258 311 366
#
# _framework density 20.726094
#
# number of rings (size 3 to 8) (size 9 to 14) (size 15 to 20)
#    0.000    1.500    1.250    4.500    0.000    5.500 
#    0.000    5.000    0.000    0.000    0.000    0.000 
#    0.000    0.000    0.000    0.000    0.000    0.000 
#
# Total GULP energy -396887.621550 kJ/mol
# GULP energy per Si atom -12402.738173 kJ/mol
# Density = 2.067892 g / cm^3
# Si number density = 20.726094 Si / 1000 Ang^3
#
#
#
# Elastic Constant Matrix: (Units=GPa)
#
#
# Indices 1 2 3 4 5 6 
#
# 1 118.0028 41.8975 57.0933 -0.0125 -5.2459 0.0061
# 2 41.8975 71.2590 39.8974 -0.0148 -0.6225 0.0200
# 3 57.0933 39.8974 112.1863 0.0105 2.3957 0.0067
# 4 -0.0125 -0.0148 0.0105 27.1727 0.0053 -1.3441
# 5 -5.2459 -0.6225 2.3957 0.0053 37.3456 -0.0053
# 6 0.0061 0.0200 0.0067 -1.3441 -0.0053 31.1963
#
#
#
# Elastic Compliance Matrix: (Units=1/GPa)
#
#
# Indices 1 2 3 4 5 6 
#
# 1 0.012525 -0.004688 -0.004749 0.000005 0.001986 0.000002
# 2 -0.004688 0.019295 -0.004475 0.000010 -0.000050 -0.000010
# 3 -0.004749 -0.004475 0.012956 -0.000009 -0.001573 0.000000
# 4 0.000005 0.000010 -0.000009 0.036880 -0.000004 0.001589
# 5 0.001986 -0.000050 -0.001573 -0.000004 0.027156 0.000004
# 6 0.000002 -0.000010 0.000000 0.001589 0.000004 0.032124
#
#
# Mechanical properties :
#
#
# Convention : Reuss Voigt Hill
#
# Bulk Modulus (GPa) = 58.99365 64.35829 61.67597
# Shear Modulus (GPa) = 28.66803 29.98024 29.32414
#
# Velocity S-wave (km/s) = 3.72315 3.80741 3.76552
# Velocity P-wave (km/s) = 6.85622 7.10266 6.98053
#
# Compressibility (1/GPa) = 0.01695098
#
# Stress axis : x y z
#
# Youngs Moduli (GPa) = 79.84052 51.82779 77.18467
#
# Poissons Ratio (x) = 0.24295 0.36659
# Poissons Ratio (y) = 0.37426 0.34542
# Poissons Ratio (z) = 0.37920 0.23194
#
# Static dielectric constant tensor:
#      x y z
#    x 4.065930 -0.000090 -0.038930 
#    y -0.000090 3.483650 0.000040 
#    z -0.038930 0.000040 3.846210 
# 
# 
# High freq. dielectric constant tensor:
#      x y z
#    x 1.820240 0.000000 -0.003310 
#    y 0.000000 1.784300 0.000000 
#    z -0.003310 0.000000 1.825300 
# 
# From -- ./inp_files/295622.got.cif
#   From: 2010.06.25/outbox.cif.g09.slc.cpg/sg12_148_cif.got.tgz:295622.got - 2010.06.28 00:19:55.
