data_PCOD8090905
_publ_section_title
;
Structure prediction by ZEFSAII (Michael W. Deem and Ramdas Pophale) SiO2 
 PCOD8090905
Probable space group: C 2/M
;
_chemical_formula_sum "Si O2"
_cell_formula_units_Z 64
_cell_length_a 18.759557
_cell_length_b 12.260198
_cell_length_c 31.365585
_cell_angle_alpha 90.000000
_cell_angle_beta 152.523060
_cell_angle_gamma 90.000000
_cell_volume 3328.458277
_symmetry_space_group_name_H-M "C 2/M"
_symmetry_group_IT_number 12
_symmetry_cell_setting 'monoclinic'
loop_
_space_group_symop_operation_xyz
x,y,z
-x,y,-z
-x,-y,-z
x,-y,z
1/2+x,1/2+y,z
1/2-x,1/2+y,-z
1/2-x,1/2-y,-z
1/2+x,1/2-y,z
loop_
_atom_site_type_symbol
_atom_site_label
_atom_site_fract_x
_atom_site_fract_y
_atom_site_fract_z
Si Si1 0.898872 0.240457 0.708750
Si Si2 0.197981 0.873848 0.892365
Si Si3 0.565800 0.124624 0.729285
Si Si4 0.493608 0.876267 0.901856
Si Si5 0.242629 0.875654 0.442370
Si Si6 0.152252 0.749131 0.102062
Si Si7 0.738698 0.124609 0.293386
Si Si8 0.980039 0.222789 0.608947
O O1 0.830697 0.143217 0.643460
O O2 0.770635 0.292866 0.671726
O O3 0.040699 0.195754 0.813013
O O4 0.947505 0.336163 0.702408
O O5 0.273607 0.847893 0.886656
O O6 0.152873 0.000000 0.870970
O O7 0.324431 0.842540 0.996453
O O8 0.738473 0.146129 0.837194
O O9 0.548936 0.186033 0.676055
O O10 0.534268 0.000000 0.703438
O O11 0.381856 0.800396 0.870082
O O12 0.427019 0.866625 0.818861
O O13 0.479256 0.000000 0.911247
O O14 0.119783 0.861404 0.415670
O O15 0.377912 0.786381 0.519684
O O16 0.303905 0.000000 0.476498
O O17 0.000000 0.796920 0.000000
O O18 0.884036 0.156371 0.341506
O O19 0.762457 0.000000 0.321385
#
# Coordination Sequence:
#
# PCOD8090905 Si02
#       8
#     8   8   8   8   8   8   8   8
#     4  10  22  36  54  81 114 151 187 224 271 329
#     4   9  17  31  52  80 112 147 185 227 275 327
#     4  10  19  34  53  76 109 147 183 222 272 328
#     4   9  17  30  53  81 110 144 183 230 279 321
#     4  10  21  40  63  86 112 144 182 228 280 333
#     4   9  16  28  49  79 109 139 180 233 275 322
#     4  11  22  38  58  83 113 146 185 230 276 325
#     4  10  21  38  62  88 108 139 185 233 278 326
#
# _framework density 19.228121999999999
#
# number of rings (size 3 to 8) (size 9 to 14) (size 15 to 20)
#    0.000    2.250    1.250    1.875    0.000    2.750 
#    0.000    5.625    0.000    0.000    0.000    0.000 
#    0.000    0.000    0.000    0.000    0.000    0.000 
#
# Total GULP energy -396669.178068 kJ/mol
# GULP energy per Si atom -12395.911815 kJ/mol
# Density = 1.918436 g / cm^3
# Si number density = 19.228122 Si / 1000 Ang^3
#
#
#
# Elastic Constant Matrix: (Units=GPa)
#
#
# Indices 1 2 3 4 5 6 
#
# 1 67.5971 24.6258 21.2448 0.0000 3.2856 0.0000
# 2 24.6258 86.5668 21.4528 0.0001 0.4826 0.0000
# 3 21.2448 21.4528 85.6970 0.0011 2.7501 0.0002
# 4 0.0000 0.0001 0.0011 16.1581 0.0000 3.1383
# 5 3.2856 0.4826 2.7501 0.0000 17.7356 0.0000
# 6 0.0000 0.0000 0.0002 3.1383 0.0000 17.6445
#
#
#
# Elastic Compliance Matrix: (Units=1/GPa)
#
#
# Indices 1 2 3 4 5 6 
#
# 1 0.017440 -0.004154 -0.003199 0.000000 -0.002622 0.000000
# 2 -0.004154 0.013305 -0.002326 0.000000 0.000768 0.000000
# 3 -0.003199 -0.002326 0.013088 -0.000001 -0.001374 0.000000
# 4 0.000000 0.000000 -0.000001 0.064103 0.000000 -0.011401
# 5 -0.002622 0.000768 -0.001374 0.000000 0.057061 0.000000
# 6 0.000000 0.000000 0.000000 -0.011401 0.000000 0.058703
#
#
# Mechanical properties :
#
#
# Convention : Reuss Voigt Hill
#
# Bulk Modulus (GPa) = 40.85641 41.61196 41.23419
# Shear Modulus (GPa) = 19.90312 21.81015 20.85663
#
# Velocity S-wave (km/s) = 3.22079 3.37157 3.29704
# Velocity P-wave (km/s) = 5.92670 6.06999 5.99877
#
# Compressibility (1/GPa) = 0.02447596
#
# Stress axis : x y z
#
# Youngs Moduli (GPa) = 57.34048 75.15731 76.40307
#
# Poissons Ratio (x) = 0.31217 0.24445
# Poissons Ratio (y) = 0.23817 0.17769
# Poissons Ratio (z) = 0.18346 0.17480
#
# Static dielectric constant tensor:
#      x y z
#    x 3.189180 0.000000 -0.028340 
#    y 0.000000 3.293480 0.000000 
#    z -0.028340 0.000000 3.835850 
# 
# 
# High freq. dielectric constant tensor:
#      x y z
#    x 1.720230 0.000000 -0.003520 
#    y 0.000000 1.737000 0.000000 
#    z -0.003520 0.000000 1.761010 
# 
# From -- ./inp_files/379115.got.cif
#   From: 2010.06.25/outbox.cif.g09.slc.cpg/sg12_190_cif.got.tgz:379115.got - 2010.06.28 00:19:55.
