data_PCOD8090342
_publ_section_title
;
Structure prediction by ZEFSAII (Michael W. Deem and Ramdas Pophale) SiO2 
 PCOD8090342
Probable space group: C 2/M
;
_chemical_formula_sum "Si O2"
_cell_formula_units_Z 64
_cell_length_a 18.061995
_cell_length_b 8.980241
_cell_length_c 34.040000
_cell_angle_alpha 90.000000
_cell_angle_beta 142.776025
_cell_angle_gamma 90.000000
_cell_volume 3340.027795
_symmetry_space_group_name_H-M "C 2/M"
_symmetry_group_IT_number 12
_symmetry_cell_setting 'monoclinic'
loop_
_space_group_symop_operation_xyz
x,y,z
-x,y,-z
-x,-y,-z
x,-y,z
1/2+x,1/2+y,z
1/2-x,1/2+y,-z
1/2-x,1/2-y,-z
1/2+x,1/2-y,z
loop_
_atom_site_type_symbol
_atom_site_label
_atom_site_fract_x
_atom_site_fract_y
_atom_site_fract_z
Si Si1 0.093686 0.663557 0.004071
Si Si2 0.709120 0.676180 0.252287
Si Si3 0.228741 0.327000 0.869687
Si Si4 0.408895 0.176689 0.495142
Si Si5 0.985213 0.323176 0.378315
Si Si6 0.127234 0.323430 0.138534
Si Si7 0.348081 0.172469 0.622156
Si Si8 0.946562 0.329571 0.749304
O O1 0.150982 0.500000 0.020054
O O2 0.012779 0.718714 0.932812
O O3 0.201439 0.777481 0.060898
O O4 0.000000 0.650684 0.000000
O O5 0.705324 0.500000 0.244668
O O6 0.847459 0.736308 0.315069
O O7 0.646554 0.754464 0.189105
O O8 0.636684 0.719046 0.260848
O O9 0.252663 0.500000 0.872131
O O10 0.274823 0.239888 0.850929
O O11 0.087306 0.291449 0.816885
O O12 0.500000 0.234545 0.500000
O O13 0.457160 0.239823 0.557080
O O14 0.275942 0.236587 0.429336
O O15 0.402815 0.000000 0.493151
O O16 0.982570 0.500000 0.378089
O O17 0.067055 0.264649 0.376916
O O18 0.144252 0.500000 0.146965
O O19 0.421317 0.198992 0.693013
O O20 0.316850 0.000000 0.602179
O O21 0.916996 0.500000 0.748410
#
# Coordination Sequence:
#
# PCOD8090342 Si02
#       8
#     8   8   8   8   8   8   8   8
#     4   8  16  31  51  77 109 142 175 219 273 320
#     4  11  22  37  58  80 104 140 185 225 269 329
#     4  10  19  33  56  82 108 142 184 225 266 319
#     4  10  20  35  55  80 112 144 174 215 266 315
#     4   9  19  36  56  79 108 140 175 222 274 317
#     4  10  20  35  55  80 112 144 175 220 276 325
#     4  10  20  36  57  78 105 141 179 219 264 318
#     4  10  22  38  53  75 110 145 177 224 282 324
#
# _framework density 19.161517
#
# number of rings (size 3 to 8) (size 9 to 14) (size 15 to 20)
#    0.000    2.250    0.000    3.750    0.000    7.500 
#    0.000    4.375    0.000    0.000    0.000    0.000 
#    0.000    0.000    0.000    0.000    0.000    0.000 
#
# Total GULP energy -396834.798982 kJ/mol
# GULP energy per Si atom -12401.087468 kJ/mol
# Density = 1.911790 g / cm^3
# Si number density = 19.161517 Si / 1000 Ang^3
#
#
#
# Elastic Constant Matrix: (Units=GPa)
#
#
# Indices 1 2 3 4 5 6 
#
# 1 115.7941 37.3759 50.8471 0.0000 11.9603 0.0000
# 2 37.3759 56.4960 38.1700 0.0000 5.3717 0.0001
# 3 50.8471 38.1700 125.8650 0.0000 19.2359 0.0000
# 4 0.0000 0.0000 0.0000 26.9732 0.0000 -0.0530
# 5 11.9603 5.3717 19.2359 0.0000 21.1212 0.0000
# 6 0.0000 0.0001 0.0000 -0.0530 0.0000 27.7826
#
#
#
# Elastic Compliance Matrix: (Units=1/GPa)
#
#
# Indices 1 2 3 4 5 6 
#
# 1 0.011983 -0.005887 -0.002611 0.000000 -0.002911 0.000000
# 2 -0.005887 0.025160 -0.005557 0.000000 0.001996 0.000000
# 3 -0.002611 -0.005557 0.011899 0.000000 -0.007945 0.000000
# 4 0.000000 0.000000 0.000000 0.037074 0.000000 0.000071
# 5 -0.002911 0.001996 -0.007945 0.000000 0.055723 0.000000
# 6 0.000000 0.000000 0.000000 0.000071 0.000000 0.035994
#
#
# Mechanical properties :
#
#
# Convention : Reuss Voigt Hill
#
# Bulk Modulus (GPa) = 47.77176 61.21568 54.49372
# Shear Modulus (GPa) = 23.48310 26.62624 25.05467
#
# Velocity S-wave (km/s) = 3.50456 3.73174 3.61993
# Velocity P-wave (km/s) = 6.43126 7.11227 6.78032
#
# Compressibility (1/GPa) = 0.02093287
#
# Stress axis : x y z
#
# Youngs Moduli (GPa) = 83.44896 39.74640 84.03960
#
# Poissons Ratio (x) = 0.23399 0.21942
# Poissons Ratio (y) = 0.49127 0.46698
# Poissons Ratio (z) = 0.21788 0.22086
#
# Static dielectric constant tensor:
#      x y z
#    x 3.423150 0.000000 -0.050520 
#    y 0.000000 3.370060 0.000000 
#    z -0.050520 0.000000 3.890420 
# 
# 
# High freq. dielectric constant tensor:
#      x y z
#    x 1.735010 0.000000 -0.000180 
#    y 0.000000 1.731830 0.000000 
#    z -0.000180 0.000000 1.764930 
# 
# From -- ./inp_files/378414.got.cif
#   From: 2010.06.25/outbox.cif.g09.slc.cpg/sg12_190_cif.got.tgz:378414.got - 2010.06.28 00:19:55.
