data_PCOD8090353
_publ_section_title
;
Structure prediction by ZEFSAII (Michael W. Deem and Ramdas Pophale) SiO2 
 PCOD8090353
Probable space group: C 2/M
;
_chemical_formula_sum "Si O2"
_cell_formula_units_Z 48
_cell_length_a 14.414495
_cell_length_b 8.764539
_cell_length_c 20.821459
_cell_angle_alpha 90.000000
_cell_angle_beta 69.881485
_cell_angle_gamma 90.000000
_cell_volume 2470.002921
_symmetry_space_group_name_H-M "C 2/M"
_symmetry_group_IT_number 12
_symmetry_cell_setting 'monoclinic'
loop_
_space_group_symop_operation_xyz
x,y,z
-x,y,-z
-x,-y,-z
x,-y,z
1/2+x,1/2+y,z
1/2-x,1/2+y,-z
1/2-x,1/2-y,-z
1/2+x,1/2-y,z
loop_
_atom_site_type_symbol
_atom_site_label
_atom_site_fract_x
_atom_site_fract_y
_atom_site_fract_z
Si Si1 0.601799 0.179975 0.507245
Si Si2 0.419777 0.680528 0.844422
Si Si3 0.406293 0.172400 0.256035
Si Si4 0.769252 0.819244 0.064624
Si Si5 0.804801 0.820694 0.395207
Si Si6 0.428285 0.173737 0.110079
O O1 0.500000 0.239551 0.500000
O O2 0.693513 0.228706 0.440232
O O3 0.615405 0.256541 0.573343
O O4 0.598470 0.000000 0.518456
O O5 0.408480 0.500000 0.845723
O O6 0.487736 0.738577 0.768589
O O7 0.312915 0.758713 0.865759
O O8 0.469091 0.736746 0.900181
O O9 0.326854 0.254105 0.319906
O O10 0.365528 0.174813 0.192201
O O11 0.423700 0.000000 0.275944
O O12 0.873813 0.761167 0.066146
O O13 0.768342 0.000000 0.061043
O O14 0.750000 0.750000 0.000000
O O15 0.815866 0.000000 0.390450
O O16 0.451034 0.000000 0.083510
#
# Coordination Sequence:
#
# PCOD8090353 Si02
#       6
#     8   8   8   8   8   8
#     4   9  19  36  55  78 110 147 186 229 277 332
#     4  10  20  38  60  84 114 145 185 234 282 338
#     4   9  19  37  59  81 112 150 186 230 286 335
#     4  12  24  39  60  86 115 151 190 233 284 339
#     4  10  19  33  56  82 109 144 186 232 279 331
#     4   9  20  39  59  83 113 147 187 233 281 335
#
# _framework density 19.433174999999999
#
# number of rings (size 3 to 8) (size 9 to 14) (size 15 to 20)
#    1.000    1.167    0.000    4.000    0.000    1.667 
#    3.000    3.333    0.000    0.000    0.000    0.000 
#    0.000    0.000    0.000    0.000    0.000    0.000 
#
# Total GULP energy -297484.221101 kJ/mol
# GULP energy per Si atom -12395.175879 kJ/mol
# Density = 1.938894 g / cm^3
# Si number density = 19.433175 Si / 1000 Ang^3
#
#
#
# Elastic Constant Matrix: (Units=GPa)
#
#
# Indices 1 2 3 4 5 6 
#
# 1 55.2453 8.4045 -19.8003 0.0000 7.9355 0.0000
# 2 8.4045 95.4792 -4.0959 0.0000 4.7720 0.0000
# 3 -19.8003 -4.0959 40.8294 0.0000 3.1409 0.0000
# 4 0.0000 0.0000 0.0000 35.3835 0.0000 0.8784
# 5 7.9355 4.7720 3.1409 0.0000 20.8650 0.0000
# 6 0.0000 0.0000 0.0000 0.8784 0.0000 32.7942
#
#
#
# Elastic Compliance Matrix: (Units=1/GPa)
#
#
# Indices 1 2 3 4 5 6 
#
# 1 0.024315 -0.001059 0.012523 0.000000 -0.010891 0.000000
# 2 -0.001059 0.010706 0.000726 0.000000 -0.002155 0.000000
# 3 0.012523 0.000726 0.031381 0.000000 -0.009653 0.000000
# 4 0.000000 0.000000 0.000000 0.028281 0.000000 -0.000758
# 5 -0.010891 -0.002155 -0.009653 0.000000 0.054015 0.000000
# 6 0.000000 0.000000 0.000000 -0.000758 0.000000 0.030514
#
#
# Mechanical properties :
#
#
# Convention : Reuss Voigt Hill
#
# Bulk Modulus (GPa) = 11.01539 17.84120 14.42829
# Shear Modulus (GPa) = 27.01390 31.61156 29.31273
#
# Velocity S-wave (km/s) = 3.73244 4.03759 3.88801
# Velocity P-wave (km/s) = 4.92498 5.56209 5.25320
#
# Compressibility (1/GPa) = 0.09078211
#
# Stress axis : x y z
#
# Youngs Moduli (GPa) = 41.12716 93.40949 31.86680
#
# Poissons Ratio (x) = 0.09890 -0.39907
# Poissons Ratio (y) = 0.04354 -0.02314
# Poissons Ratio (z) = -0.51504 -0.06784
#
# Static dielectric constant tensor:
#      x y z
#    x 3.489920 0.000000 -0.117860 
#    y 0.000000 3.530680 0.000000 
#    z -0.117860 0.000000 3.460680 
# 
# 
# High freq. dielectric constant tensor:
#      x y z
#    x 1.739950 0.000000 -0.009570 
#    y 0.000000 1.769100 0.000000 
#    z -0.009570 0.000000 1.747070 
# 
# From -- ./inp_files/337547.got.cif
#   From: 2010.06.25/outbox.cif.g09.slc.cpg/sg12_169_cif.got.tgz:337547.got - 2010.06.28 00:19:55.
