data_PCOD8090685
_publ_section_title
;
Structure prediction by ZEFSAII (Michael W. Deem and Ramdas Pophale) SiO2 
 PCOD8090685
Probable space group: C 2/M
;
_chemical_formula_sum "Si O2"
_cell_formula_units_Z 64
_cell_length_a 15.269188
_cell_length_b 9.329247
_cell_length_c 27.933625
_cell_angle_alpha 90.000000
_cell_angle_beta 123.022133
_cell_angle_gamma 90.000000
_cell_volume 3336.354891
_symmetry_space_group_name_H-M "C 2/M"
_symmetry_group_IT_number 12
_symmetry_cell_setting 'monoclinic'
loop_
_space_group_symop_operation_xyz
x,y,z
-x,y,-z
-x,-y,-z
x,-y,z
1/2+x,1/2+y,z
1/2-x,1/2+y,-z
1/2-x,1/2-y,-z
1/2+x,1/2-y,z
loop_
_atom_site_type_symbol
_atom_site_label
_atom_site_fract_x
_atom_site_fract_y
_atom_site_fract_z
Si Si1 0.696472 0.170200 0.188678
Si Si2 0.406517 0.170290 0.503967
Si Si3 0.100065 0.832864 0.000372
Si Si4 0.717205 0.835327 0.873426
Si Si5 0.542392 0.165363 0.892842
Si Si6 0.954993 0.332108 0.623736
Si Si7 0.303568 0.834282 0.303629
Si Si8 0.280654 0.666429 0.616897
O O1 0.767045 0.234000 0.167318
O O2 0.576515 0.218913 0.146553
O O3 0.734473 0.232632 0.250101
O O4 0.708217 0.000000 0.192584
O O5 0.500000 0.235715 0.500000
O O6 0.417683 0.228719 0.561156
O O7 0.296806 0.218436 0.448427
O O8 0.417050 0.000000 0.507094
O O9 0.104767 0.751757 0.951609
O O10 0.092254 0.000000 0.986603
O O11 0.202210 0.793588 0.060878
O O12 0.000000 0.778701 0.000000
O O13 0.600749 0.810984 0.859438
O O14 0.734007 0.000000 0.862301
O O15 0.546789 0.000000 0.909130
O O16 0.934071 0.500000 0.621374
O O17 0.888340 0.253553 0.644874
O O18 0.075639 0.296093 0.668257
O O19 0.274254 0.800325 0.349331
O O20 0.281655 0.000000 0.284395
O O21 0.307182 0.500000 0.619859
#
# Coordination Sequence:
#
# PCOD8090685 Si02
#       8
#     8   8   8   8   8   8   8   8
#     4  11  24  40  58  82 110 144 189 239 282 321
#     4   9  15  30  57  84 112 147 186 223 267 335
#     4  10  19  33  58  89 117 147 183 224 272 328
#     4  10  21  39  60  84 116 151 185 223 274 337
#     4  10  22  38  58  84 114 148 184 226 279 333
#     4  10  20  35  58  85 112 146 185 226 277 334
#     4  10  22  40  59  78 106 150 193 227 274 335
#     4  10  20  35  58  86 114 146 185 229 277 331
#
# _framework density 19.182613
#
# number of rings (size 3 to 8) (size 9 to 14) (size 15 to 20)
#    0.000    2.000    2.500    1.125    0.000    3.750 
#    0.000    3.750    0.000    0.750    0.000    0.000 
#    0.000    0.000    0.000    0.000    0.000    0.000 
#
# Total GULP energy -396901.179788 kJ/mol
# GULP energy per Si atom -12403.161868 kJ/mol
# Density = 1.913895 g / cm^3
# Si number density = 19.182613 Si / 1000 Ang^3
#
#
#
# Elastic Constant Matrix: (Units=GPa)
#
#
# Indices 1 2 3 4 5 6 
#
# 1 92.7117 28.9676 10.9666 0.0000 11.1043 0.0000
# 2 28.9676 49.4715 34.0642 0.0000 -0.6474 0.0000
# 3 10.9666 34.0642 75.6820 0.0000 -2.0260 0.0000
# 4 0.0000 0.0000 0.0000 29.2322 0.0000 -1.4458
# 5 11.1043 -0.6474 -2.0260 0.0000 15.8746 0.0000
# 6 0.0000 0.0000 0.0000 -1.4458 0.0000 29.4312
#
#
#
# Elastic Compliance Matrix: (Units=1/GPa)
#
#
# Indices 1 2 3 4 5 6 
#
# 1 0.015092 -0.010541 0.002271 0.000000 -0.010697 0.000000
# 2 -0.010541 0.036658 -0.014785 0.000000 0.006981 0.000000
# 3 0.002271 -0.014785 0.019547 0.000000 0.000303 0.000000
# 4 0.000000 0.000000 0.000000 0.034292 0.000000 0.001685
# 5 -0.010697 0.006981 0.000303 0.000000 0.070800 0.000000
# 6 0.000000 0.000000 0.000000 0.001685 0.000000 0.034060
#
#
# Mechanical properties :
#
#
# Convention : Reuss Voigt Hill
#
# Bulk Modulus (GPa) = 39.70312 40.65133 40.17722
# Shear Modulus (GPa) = 18.87119 24.49873 21.68496
#
# Velocity S-wave (km/s) = 3.13991 3.57758 3.36586
# Velocity P-wave (km/s) = 5.82132 6.18895 6.00795
#
# Compressibility (1/GPa) = 0.02518694
#
# Stress axis : x y z
#
# Youngs Moduli (GPa) = 66.25967 27.27944 51.15884
#
# Poissons Ratio (x) = 0.28755 -0.11619
# Poissons Ratio (y) = 0.69843 0.75639
# Poissons Ratio (z) = -0.15049 0.40333
#
# Static dielectric constant tensor:
#      x y z
#    x 3.588840 0.000000 0.065410 
#    y 0.000000 3.245140 0.000000 
#    z 0.065410 0.000000 3.470870 
# 
# 
# High freq. dielectric constant tensor:
#      x y z
#    x 1.759240 0.000000 0.002870 
#    y 0.000000 1.724580 0.000000 
#    z 0.002870 0.000000 1.743190 
# 
# From -- ./inp_files/375597.got.cif
#   From: 2010.06.25/outbox.cif.g09.slc.cpg/sg12_188_cif.got.tgz:375597.got - 2010.06.28 00:19:55.
