data_PCOD8090013
_publ_section_title
;
Structure prediction by ZEFSAII (Michael W. Deem and Ramdas Pophale) SiO2 
 PCOD8090013
Probable space group: C 2/M
;
_chemical_formula_sum "Si O2"
_cell_formula_units_Z 56
_cell_length_a 20.003293
_cell_length_b 9.309342
_cell_length_c 16.365089
_cell_angle_alpha 90.000000
_cell_angle_beta 88.625255
_cell_angle_gamma 90.000000
_cell_volume 3046.588713
_symmetry_space_group_name_H-M "C 2/M"
_symmetry_group_IT_number 12
_symmetry_cell_setting 'monoclinic'
loop_
_space_group_symop_operation_xyz
x,y,z
-x,y,-z
-x,-y,-z
x,-y,z
1/2+x,1/2+y,z
1/2-x,1/2+y,-z
1/2-x,1/2-y,-z
1/2+x,1/2-y,z
loop_
_atom_site_type_symbol
_atom_site_label
_atom_site_fract_x
_atom_site_fract_y
_atom_site_fract_z
Si Si1 0.236813 0.170047 0.753875
Si Si2 0.499672 0.332629 0.237633
Si Si3 0.704244 0.670742 0.936478
Si Si4 0.447030 0.329622 0.066257
Si Si5 0.120408 0.832241 0.640702
Si Si6 0.076576 0.331519 0.490220
Si Si7 0.381591 0.168982 0.692017
O O1 0.225654 0.225688 0.846091
O O2 0.179614 0.230696 0.695501
O O3 0.308013 0.222433 0.718396
O O4 0.230630 0.000000 0.754479
O O5 0.517045 0.500000 0.229977
O O6 0.465919 0.274244 0.155778
O O7 0.449860 0.301839 0.313477
O O8 0.567693 0.247083 0.248989
O O9 0.713098 0.500000 0.945124
O O10 0.627772 0.719510 0.954497
O O11 0.750000 0.750000 0.000000
O O12 0.449898 0.500000 0.065733
O O13 0.500000 0.264832 0.000000
O O14 0.121804 0.749627 0.555045
O O15 0.130829 0.000000 0.623009
O O16 0.083120 0.500000 0.506262
O O17 0.104739 0.286533 0.401483
O O18 0.000000 0.280770 0.500000
O O19 0.390403 0.000000 0.704372
#
# Coordination Sequence:
#
# PCOD8090013 Si02
#       7
#     8   8   8   8   8   8   8
#     4   9  19  37  56  75 104 142 176 207 256 316
#     4  10  19  33  55  80 104 134 176 218 254 301
#     4  10  20  36  56  78 107 139 172 211 258 310
#     4   9  18  33  54  79 106 137 171 211 259 306
#     4  10  19  34  57  78 100 136 178 216 255 304
#     4  10  20  34  51  76 108 138 170 211 264 314
#     4  10  21  36  54  75 105 143 174 207 260 317
#
# _framework density 18.381214
#
# number of rings (size 3 to 8) (size 9 to 14) (size 15 to 20)
#    0.000    2.286    2.857    0.000    2.000    1.429 
#    0.000    2.143    0.000    0.857    0.000    0.000 
#    0.000    0.000    0.000    0.000    0.000    0.000 
#
# Total GULP energy -347244.148363 kJ/mol
# GULP energy per Si atom -12401.576727 kJ/mol
# Density = 1.833938 g / cm^3
# Si number density = 18.381214 Si / 1000 Ang^3
#
#
#
# Elastic Constant Matrix: (Units=GPa)
#
#
# Indices 1 2 3 4 5 6 
#
# 1 152.1688 35.6060 78.5781 0.0000 6.1840 0.0000
# 2 35.6060 27.9262 34.1315 0.0000 7.3381 0.0000
# 3 78.5781 34.1315 135.8766 0.0000 11.2714 0.0000
# 4 0.0000 0.0000 0.0000 23.8133 0.0000 10.9673
# 5 6.1840 7.3381 11.2714 0.0000 40.8042 0.0000
# 6 0.0000 0.0000 0.0000 10.9673 0.0000 22.5834
#
#
#
# Elastic Compliance Matrix: (Units=1/GPa)
#
#
# Indices 1 2 3 4 5 6 
#
# 1 0.010718 -0.009047 -0.004018 0.000000 0.001113 0.000000
# 2 -0.009047 0.060706 -0.009442 0.000000 -0.006938 0.000000
# 3 -0.004018 -0.009442 0.012142 0.000000 -0.001047 0.000000
# 4 0.000000 0.000000 0.000000 0.054092 0.000000 -0.026269
# 5 0.001113 -0.006938 -0.001047 0.000000 0.025876 0.000000
# 6 0.000000 0.000000 0.000000 -0.026269 0.000000 0.057037
#
#
# Mechanical properties :
#
#
# Convention : Reuss Voigt Hill
#
# Bulk Modulus (GPa) = 25.93849 68.06699 47.00274
# Shear Modulus (GPa) = 17.95746 28.61724 23.28735
#
# Velocity S-wave (km/s) = 3.12900 3.95001 3.56323
# Velocity P-wave (km/s) = 5.21500 7.61016 6.52345
#
# Compressibility (1/GPa) = 0.03855275
#
# Stress axis : x y z
#
# Youngs Moduli (GPa) = 93.29820 16.47273 82.35994
#
# Poissons Ratio (x) = 0.14903 0.33093
# Poissons Ratio (y) = 0.84409 0.77760
# Poissons Ratio (z) = 0.37488 0.15553
#
# Static dielectric constant tensor:
#      x y z
#    x 3.537400 0.000000 -0.077550 
#    y 0.000000 2.973650 0.000000 
#    z -0.077550 0.000000 3.514960 
# 
# 
# High freq. dielectric constant tensor:
#      x y z
#    x 1.722060 0.000000 0.002070 
#    y 0.000000 1.672060 0.000000 
#    z 0.002070 0.000000 1.725290 
# 
# From -- ./inp_files/230873.got.cif
#   From: 2010.06.25/outbox.cif.g09.slc.cpg/sg12_116_cif.got.tgz:230873.got - 2010.06.28 00:19:55.
