data_PCOD8090787
_publ_section_title
;
Structure prediction by ZEFSAII (Michael W. Deem and Ramdas Pophale) SiO2 
 PCOD8090787
Probable space group: C 2/M
;
_chemical_formula_sum "Si O2"
_cell_formula_units_Z 64
_cell_length_a 23.649982
_cell_length_b 9.176037
_cell_length_c 23.736213
_cell_angle_alpha 90.000000
_cell_angle_beta 45.008034
_cell_angle_gamma 90.000000
_cell_volume 3642.866798
_symmetry_space_group_name_H-M "C 2/M"
_symmetry_group_IT_number 12
_symmetry_cell_setting 'monoclinic'
loop_
_space_group_symop_operation_xyz
x,y,z
-x,y,-z
-x,-y,-z
x,-y,z
1/2+x,1/2+y,z
1/2-x,1/2+y,-z
1/2-x,1/2-y,-z
1/2+x,1/2-y,z
loop_
_atom_site_type_symbol
_atom_site_label
_atom_site_fract_x
_atom_site_fract_y
_atom_site_fract_z
Si Si1 0.017919 0.334987 0.421984
Si Si2 0.755062 0.172361 0.361444
Si Si3 0.276078 0.666112 0.848383
Si Si4 0.375793 0.327911 0.470793
Si Si5 0.095795 0.171371 0.673744
Si Si6 0.321971 0.831433 0.978509
Si Si7 0.200342 0.670605 0.278991
Si Si8 0.078956 0.173028 0.173149
O O1 0.002751 0.500000 0.410896
O O2 0.963829 0.219939 0.427551
O O3 0.000000 0.326436 0.500000
O O4 0.108083 0.284632 0.347837
O O5 0.690280 0.247478 0.446428
O O6 0.843403 0.219089 0.319713
O O7 0.745085 0.224827 0.304115
O O8 0.740473 0.000000 0.377055
O O9 0.290208 0.500000 0.820910
O O10 0.260563 0.756324 0.802914
O O11 0.354941 0.720341 0.826959
O O12 0.194881 0.682676 0.942687
O O13 0.366385 0.500000 0.485356
O O14 0.367340 0.277753 0.411776
O O15 0.007277 0.235221 0.746931
O O16 0.085558 0.000000 0.679485
O O17 0.402251 0.751361 0.900192
O O18 0.323627 0.000000 0.959060
O O19 0.250000 0.750000 0.000000
O O20 0.211371 0.500000 0.264600
O O21 0.080438 0.000000 0.162413
#
# Coordination Sequence:
#
# PCOD8090787 Si02
#       8
#     8   8   8   8   8   8   8   8
#     4  10  19  34  50  68  98 132 162 198 247 296
#     4  10  20  37  53  67  95 136 171 207 249 291
#     4   9  18  31  49  74 106 131 152 192 248 297
#     4  11  21  33  51  76  98 125 167 211 252 297
#     4   9  19  34  53  73  98 130 167 208 252 293
#     4   9  17  30  49  75 104 133 158 191 242 297
#     4  10  20  32  50  72  95 128 171 205 237 289
#     4   9  17  32  52  76 102 129 160 199 245 295
#
# _framework density 17.568580999999998
#
# number of rings (size 3 to 8) (size 9 to 14) (size 15 to 20)
#    0.000    2.375    1.250    2.625    0.000    4.750 
#    0.000    2.500    0.000    0.750    0.000    5.250 
#    0.000    0.000    0.000    0.000    0.000    0.000 
#
# Total GULP energy -396692.789810 kJ/mol
# GULP energy per Si atom -12396.649682 kJ/mol
# Density = 1.752859 g / cm^3
# Si number density = 17.568581 Si / 1000 Ang^3
#
#
#
# Elastic Constant Matrix: (Units=GPa)
#
#
# Indices 1 2 3 4 5 6 
#
# 1 100.7980 30.7673 62.3059 0.0001 6.4246 -0.0001
# 2 30.7673 47.2385 39.7908 0.0002 7.3685 0.0001
# 3 62.3059 39.7908 110.7405 0.0000 23.6363 0.0000
# 4 0.0001 0.0002 0.0000 32.0820 -0.0001 1.9793
# 5 6.4246 7.3685 23.6363 -0.0001 13.3460 0.0001
# 6 -0.0001 0.0001 0.0000 1.9793 0.0001 31.8569
#
#
#
# Elastic Compliance Matrix: (Units=1/GPa)
#
#
# Indices 1 2 3 4 5 6 
#
# 1 0.017135 -0.003893 -0.011158 0.000000 0.013662 0.000000
# 2 -0.003893 0.031383 -0.009305 0.000000 0.001027 0.000000
# 3 -0.011158 -0.009305 0.026381 0.000000 -0.036212 0.000000
# 4 0.000000 0.000000 0.000000 0.031290 0.000000 -0.001944
# 5 0.013662 0.001027 -0.036212 0.000000 0.131919 0.000000
# 6 0.000000 0.000000 0.000000 -0.001944 0.000000 0.031511
#
#
# Mechanical properties :
#
#
# Convention : Reuss Voigt Hill
#
# Bulk Modulus (GPa) = 38.18805 58.27833 48.23319
# Shear Modulus (GPa) = 15.28772 23.85118 19.56945
#
# Velocity S-wave (km/s) = 2.95307 3.68857 3.34112
# Velocity P-wave (km/s) = 5.78025 7.16831 6.51137
#
# Compressibility (1/GPa) = 0.02618620
#
# Stress axis : x y z
#
# Youngs Moduli (GPa) = 58.35869 31.86481 37.90648
#
# Poissons Ratio (x) = 0.12404 0.42297
# Poissons Ratio (y) = 0.22717 0.35273
# Poissons Ratio (z) = 0.65118 0.29651
#
# Static dielectric constant tensor:
#      x y z
#    x 3.740160 0.000000 -1.091000 
#    y 0.000000 3.198670 -0.000010 
#    z -1.091000 -0.000010 6.534430 
# 
# 
# High freq. dielectric constant tensor:
#      x y z
#    x 1.656130 0.000000 0.006120 
#    y 0.000000 1.668310 0.000000 
#    z 0.006120 0.000000 1.685670 
# 
# From -- ./inp_files/348556.got.cif
#   From: 2010.06.25/outbox.cif.g09.slc.cpg/sg12_175_cif.got.tgz:348556.got - 2010.06.28 00:19:55.
