data_PCOD8090271
_publ_section_title
;
Structure prediction by ZEFSAII (Michael W. Deem and Ramdas Pophale) SiO2 
 PCOD8090271
Probable space group: C 2/M
;
_chemical_formula_sum "Si O2"
_cell_formula_units_Z 48
_cell_length_a 19.000868
_cell_length_b 8.620847
_cell_length_c 24.601743
_cell_angle_alpha 90.000000
_cell_angle_beta 38.556637
_cell_angle_gamma 90.000000
_cell_volume 2511.759081
_symmetry_space_group_name_H-M "C 2/M"
_symmetry_group_IT_number 12
_symmetry_cell_setting 'monoclinic'
loop_
_space_group_symop_operation_xyz
x,y,z
-x,y,-z
-x,-y,-z
x,-y,z
1/2+x,1/2+y,z
1/2-x,1/2+y,-z
1/2-x,1/2-y,-z
1/2+x,1/2-y,z
loop_
_atom_site_type_symbol
_atom_site_label
_atom_site_fract_x
_atom_site_fract_y
_atom_site_fract_z
Si Si1 0.926858 0.316574 0.243656
Si Si2 0.323056 0.316021 0.102953
Si Si3 0.008492 0.816648 0.907631
Si Si4 0.008044 0.316986 0.414161
Si Si5 0.171337 0.816169 0.402183
Si Si6 0.929044 0.684036 0.743276
O O1 0.925593 0.500000 0.247099
O O2 0.989621 0.265040 0.151391
O O3 0.799077 0.253321 0.322781
O O4 0.995355 0.247459 0.253618
O O5 0.319313 0.500000 0.107870
O O6 0.386168 0.257757 0.119405
O O7 0.197358 0.245020 0.176479
O O8 0.392690 0.265434 0.007417
O O9 0.013608 0.000000 0.896234
O O10 0.022223 0.500000 0.413461
O O11 0.109821 0.233622 0.384113
O O12 0.013939 0.266763 0.347858
O O13 0.888004 0.262144 0.509968
O O14 0.164817 0.000000 0.412726
O O15 0.921752 0.500000 0.752208
#
# Coordination Sequence:
#
# PCOD8090271 Si02
#       6
#     8   8   8   8   8   8
#     4  10  21  34  48  70 102 136 162 191 242 298
#     4   8  15  30  52  74  97 126 162 205 246 283
#     4   9  17  31  53  77  96 123 166 208 243 280
#     4  10  19  33  56  78  93 121 168 209 236 278
#     4  10  20  34  51  72 101 131 157 196 250 295
#     4   9  18  32  49  71 100 132 163 197 241 291
#
# _framework density 19.110112999999998
#
# number of rings (size 3 to 8) (size 9 to 14) (size 15 to 20)
#    0.000    2.667    0.000    4.000    0.000    4.000 
#    0.000    3.333    0.000    3.000    0.000    0.000 
#    0.000    0.000    0.000    0.000    0.000    0.000 
#
# Total GULP energy -297571.722192 kJ/mol
# GULP energy per Si atom -12398.821758 kJ/mol
# Density = 1.906662 g / cm^3
# Si number density = 19.110113 Si / 1000 Ang^3
#
#
#
# Elastic Constant Matrix: (Units=GPa)
#
#
# Indices 1 2 3 4 5 6 
#
# 1 114.8729 8.5766 76.8491 0.0000 21.3910 0.0002
# 2 8.5766 13.3170 13.4756 0.0000 -2.5174 0.0004
# 3 76.8491 13.4756 135.6810 0.0001 21.5294 0.0000
# 4 0.0000 0.0000 0.0001 26.9296 -0.0001 6.2955
# 5 21.3910 -2.5174 21.5294 -0.0001 28.4564 0.0000
# 6 0.0002 0.0004 0.0000 6.2955 0.0000 16.7501
#
#
#
# Elastic Compliance Matrix: (Units=1/GPa)
#
#
# Indices 1 2 3 4 5 6 
#
# 1 0.014851 -0.003547 -0.007089 0.000000 -0.006114 0.000000
# 2 -0.003547 0.090832 -0.009899 0.000001 0.018191 -0.000002
# 3 -0.007089 -0.009899 0.013253 0.000000 -0.005574 0.000000
# 4 0.000000 0.000001 0.000000 0.040711 0.000000 -0.015301
# 5 -0.006114 0.018191 -0.005574 0.000000 0.045564 0.000000
# 6 0.000000 -0.000002 0.000000 -0.015301 0.000000 0.065452
#
#
# Mechanical properties :
#
#
# Convention : Reuss Voigt Hill
#
# Bulk Modulus (GPa) = 12.84252 51.29706 32.06979
# Shear Modulus (GPa) = 14.80657 25.42519 20.11588
#
# Velocity S-wave (km/s) = 2.78655 3.65150 3.24795
# Velocity P-wave (km/s) = 4.13376 6.68424 5.55730
#
# Compressibility (1/GPa) = 0.07786637
#
# Stress axis : x y z
#
# Youngs Moduli (GPa) = 67.33423 11.00936 75.45412
#
# Poissons Ratio (x) = 0.03905 0.53492
# Poissons Ratio (y) = 0.23882 0.74690
# Poissons Ratio (z) = 0.47735 0.10898
#
# Static dielectric constant tensor:
#      x y z
#    x 3.740550 0.000000 -0.138180 
#    y 0.000000 3.112850 0.000000 
#    z -0.138180 0.000000 3.747820 
# 
# 
# High freq. dielectric constant tensor:
#      x y z
#    x 1.740670 0.000000 -0.000080 
#    y 0.000000 1.707910 0.000000 
#    z -0.000080 0.000000 1.757870 
# 
# From -- ./inp_files/345396.got.cif
#   From: 2010.06.25/outbox.cif.g09.slc.cpg/sg12_173_cif.got.tgz:345396.got - 2010.06.28 00:19:55.
