data_PCOD8090882
_publ_section_title
;
Structure prediction by ZEFSAII (Michael W. Deem and Ramdas Pophale) SiO2 
 PCOD8090882
Probable space group: C 2/M
;
_chemical_formula_sum "Si O2"
_cell_formula_units_Z 56
_cell_length_a 24.703895
_cell_length_b 9.425292
_cell_length_c 14.870582
_cell_angle_alpha 90.000000
_cell_angle_beta 104.841534
_cell_angle_gamma 90.000000
_cell_volume 3346.971844
_symmetry_space_group_name_H-M "C 2/M"
_symmetry_group_IT_number 12
_symmetry_cell_setting 'monoclinic'
loop_
_space_group_symop_operation_xyz
x,y,z
-x,y,-z
-x,-y,-z
x,-y,z
1/2+x,1/2+y,z
1/2-x,1/2+y,-z
1/2-x,1/2-y,-z
1/2+x,1/2-y,z
loop_
_atom_site_type_symbol
_atom_site_label
_atom_site_fract_x
_atom_site_fract_y
_atom_site_fract_z
Si Si1 0.793791 0.663927 0.403253
Si Si2 0.890430 0.163097 0.776252
Si Si3 0.116659 0.337022 0.909512
Si Si4 0.009980 0.835352 0.903258
Si Si5 0.707421 0.164684 0.801154
Si Si6 0.682896 0.831944 0.116340
Si Si7 0.327156 0.661892 0.575832
O O1 0.805847 0.500000 0.424087
O O2 0.806896 0.709136 0.306917
O O3 0.729522 0.704369 0.395857
O O4 0.834813 0.746669 0.488789
O O5 0.852622 0.268337 0.817511
O O6 0.878427 0.190493 0.665762
O O7 0.955352 0.194853 0.820488
O O8 0.875283 0.000000 0.795472
O O9 0.098783 0.500000 0.909781
O O10 0.060651 0.245955 0.878305
O O11 0.152000 0.307763 0.835068
O O12 0.152718 0.291258 0.010925
O O13 0.025891 0.000000 0.913213
O O14 0.000000 0.777938 0.000000
O O15 0.756208 0.262105 0.861448
O O16 0.726488 0.000000 0.814049
O O17 0.688963 0.000000 0.131954
O O18 0.325041 0.500000 0.543719
#
# Coordination Sequence:
#
# PCOD8090882 Si02
#       7
#     8   8   8   8   8   8   8
#     4   9  17  30  50  73  98 129 164 203 248 300
#     4  10  19  34  53  74 102 137 169 201 251 306
#     4  10  22  36  51  73 104 138 171 208 251 296
#     4  10  20  34  55  76  97 133 176 212 246 293
#     4  10  20  36  53  71 102 142 171 199 250 309
#     4  11  21  31  48  78 106 133 167 208 249 292
#     4   9  17  30  49  73 100 129 161 204 252 296
#
# _framework density 16.731542999999999
#
# number of rings (size 3 to 8) (size 9 to 14) (size 15 to 20)
#    0.000    2.143    2.857    0.857    0.000    3.143 
#    0.000    0.000    0.000    0.857    0.000    6.000 
#    0.000    0.000    0.000    0.000    0.000    0.000 
#
# Total GULP energy -347273.045705 kJ/mol
# GULP energy per Si atom -12402.608775 kJ/mol
# Density = 1.669346 g / cm^3
# Si number density = 16.731543 Si / 1000 Ang^3
#
#
#
# Elastic Constant Matrix: (Units=GPa)
#
#
# Indices 1 2 3 4 5 6 
#
# 1 85.9522 41.0792 45.3348 0.0000 7.1574 0.0000
# 2 41.0792 54.1465 35.8258 0.0000 7.8540 0.0000
# 3 45.3348 35.8258 108.8905 0.0000 15.3015 0.0000
# 4 0.0000 0.0000 0.0000 27.8202 0.0000 1.3105
# 5 7.1574 7.8540 15.3015 0.0000 21.0420 0.0000
# 6 0.0000 0.0000 0.0000 1.3105 0.0000 28.4858
#
#
#
# Elastic Compliance Matrix: (Units=1/GPa)
#
#
# Indices 1 2 3 4 5 6 
#
# 1 0.019658 -0.012209 -0.004309 0.000000 0.001003 0.000000
# 2 -0.012209 0.031427 -0.004669 0.000000 -0.004182 0.000000
# 3 -0.004309 -0.004669 0.013436 0.000000 -0.006562 0.000000
# 4 0.000000 0.000000 0.000000 0.036023 0.000000 -0.001657
# 5 0.001003 -0.004182 -0.006562 0.000000 0.053515 0.000000
# 6 0.000000 0.000000 0.000000 -0.001657 0.000000 0.035181
#
#
# Mechanical properties :
#
#
# Convention : Reuss Voigt Hill
#
# Bulk Modulus (GPa) = 45.15152 54.82987 49.99069
# Shear Modulus (GPa) = 20.92080 23.91955 22.42018
#
# Velocity S-wave (km/s) = 3.53991 3.78512 3.66456
# Velocity P-wave (km/s) = 6.61456 7.20724 6.91725
#
# Compressibility (1/GPa) = 0.02214765
#
# Stress axis : x y z
#
# Youngs Moduli (GPa) = 50.86881 31.81998 74.42911
#
# Poissons Ratio (x) = 0.38849 0.32069
# Poissons Ratio (y) = 0.62106 0.34751
# Poissons Ratio (z) = 0.21918 0.14857
#
# Static dielectric constant tensor:
#      x y z
#    x 2.923010 0.000000 0.044200 
#    y 0.000000 3.152330 0.000000 
#    z 0.044200 0.000000 3.273610 
# 
# 
# High freq. dielectric constant tensor:
#      x y z
#    x 1.619390 0.000000 0.003760 
#    y 0.000000 1.645860 0.000000 
#    z 0.003760 0.000000 1.649920 
# 
# From -- ./inp_files/237859.got.cif
#   From: 2010.06.25/outbox.cif.g09.slc.cpg/sg12_119_cif.got.tgz:237859.got - 2010.06.28 00:19:55.
