data_PCOD8090290
_publ_section_title
;
Structure prediction by ZEFSAII (Michael W. Deem and Ramdas Pophale) SiO2 
 PCOD8090290
Probable space group: C 2/M
;
_chemical_formula_sum "Si O2"
_cell_formula_units_Z 64
_cell_length_a 26.589348
_cell_length_b 9.227081
_cell_length_c 14.848153
_cell_angle_alpha 90.000000
_cell_angle_beta 104.279761
_cell_angle_gamma 90.000000
_cell_volume 3530.322311
_symmetry_space_group_name_H-M "C 2/M"
_symmetry_group_IT_number 12
_symmetry_cell_setting 'monoclinic'
loop_
_space_group_symop_operation_xyz
x,y,z
-x,y,-z
-x,-y,-z
x,-y,z
1/2+x,1/2+y,z
1/2-x,1/2+y,-z
1/2-x,1/2-y,-z
1/2+x,1/2-y,z
loop_
_atom_site_type_symbol
_atom_site_label
_atom_site_fract_x
_atom_site_fract_y
_atom_site_fract_z
Si Si1 0.439708 0.667797 0.459531
Si Si2 0.641194 0.335431 0.204686
Si Si3 0.085330 0.834013 0.356096
Si Si4 0.003250 0.659107 0.758398
Si Si5 0.612088 0.835109 0.726054
Si Si6 0.182635 0.166726 0.893524
Si Si7 0.695291 0.166098 0.077679
Si Si8 0.527941 0.655152 0.104628
O O1 0.500000 0.719610 0.500000
O O2 0.440473 0.500000 0.429608
O O3 0.403608 0.687666 0.533374
O O4 0.408038 0.762840 0.374744
O O5 0.663166 0.500000 0.219200
O O6 0.627982 0.275344 0.301637
O O7 0.681720 0.234671 0.169480
O O8 0.589498 0.326332 0.121661
O O9 0.028583 0.764613 0.320200
O O10 0.078891 0.000000 0.327439
O O11 0.980014 0.500000 0.733511
O O12 0.996082 0.707860 0.857006
O O13 0.064027 0.663213 0.771372
O O14 0.656520 0.744121 0.795754
O O15 0.631322 0.000000 0.714838
O O16 0.243299 0.173856 0.902275
O O17 0.163443 0.000000 0.891924
O O18 0.169588 0.247123 0.982293
O O19 0.675742 0.000000 0.065138
O O20 0.517729 0.500000 0.150115
O O21 0.500000 0.650238 0.000000
#
# Coordination Sequence:
#
# PCOD8090290 Si02
#       8
#     8   8   8   8   8   8   8   8
#     4  10  19  33  56  80 106 147 188 221 261 313
#     4   9  18  32  52  77 104 139 177 215 262 315
#     4   9  18  34  53  76 105 140 184 218 248 307
#     4  10  20  31  45  70 104 139 173 213 263 307
#     4  11  23  35  51  80 113 142 175 224 275 317
#     4  10  22  39  59  80 105 140 180 221 268 325
#     4  10  21  38  59  83 108 135 174 225 275 323
#     4   9  19  33  47  68  99 138 180 215 249 306
#
# _framework density 18.128654999999998
#
# number of rings (size 3 to 8) (size 9 to 14) (size 15 to 20)
#    0.000    2.250    1.250    2.250    1.750    6.000 
#    0.000    0.000    0.000    0.750    0.000    0.000 
#    0.000    0.000    0.000    0.000    0.000    0.000 
#
# Total GULP energy -396429.936320 kJ/mol
# GULP energy per Si atom -12388.435510 kJ/mol
# Density = 1.808739 g / cm^3
# Si number density = 18.128655 Si / 1000 Ang^3
#
#
#
# Elastic Constant Matrix: (Units=GPa)
#
#
# Indices 1 2 3 4 5 6 
#
# 1 33.7166 30.8384 29.7981 0.0000 -10.2151 0.0000
# 2 30.8384 99.7007 49.8521 0.0000 -0.6525 0.0000
# 3 29.7981 49.8521 97.9453 0.0000 -0.3289 0.0000
# 4 0.0000 0.0000 0.0000 29.3978 0.0000 -1.1068
# 5 -10.2151 -0.6525 -0.3289 0.0000 26.7710 0.0000
# 6 0.0000 0.0000 0.0000 -1.1068 0.0000 27.6405
#
#
#
# Elastic Compliance Matrix: (Units=1/GPa)
#
#
# Indices 1 2 3 4 5 6 
#
# 1 0.056814 -0.011841 -0.011187 0.000000 0.021253 0.000000
# 2 -0.011841 0.015923 -0.004516 0.000000 -0.004185 0.000000
# 3 -0.011187 -0.004516 0.015898 0.000000 -0.004183 0.000000
# 4 0.000000 0.000000 0.000000 0.034068 0.000000 0.001364
# 5 0.021253 -0.004185 -0.004183 0.000000 0.045310 0.000000
# 6 0.000000 0.000000 0.000000 0.001364 0.000000 0.036233
#
#
# Mechanical properties :
#
#
# Convention : Reuss Voigt Hill
#
# Bulk Modulus (GPa) = 29.80799 50.25999 40.03399
# Shear Modulus (GPa) = 18.48313 24.82011 21.65162
#
# Velocity S-wave (km/s) = 3.19651 3.70416 3.45966
# Velocity P-wave (km/s) = 5.48650 6.78813 6.17173
#
# Compressibility (1/GPa) = 0.03354805
#
# Stress axis : x y z
#
# Youngs Moduli (GPa) = 17.60116 62.80104 62.90137
#
# Poissons Ratio (x) = 0.74360 0.70367
# Poissons Ratio (y) = 0.20841 0.28409
# Poissons Ratio (z) = 0.19690 0.28364
#
# Static dielectric constant tensor:
#      x y z
#    x 3.070060 0.000000 -0.025540 
#    y 0.000000 3.843580 0.000000 
#    z -0.025540 0.000000 2.932180 
# 
# 
# High freq. dielectric constant tensor:
#      x y z
#    x 1.673400 0.000000 -0.014210 
#    y 0.000000 1.710200 0.000000 
#    z -0.014210 0.000000 1.700900 
# 
# From -- ./inp_files/244031.got.cif
#   From: 2010.06.25/outbox.cif.g09.slc.cpg/sg12_123_cif.got.tgz:244031.got - 2010.06.28 00:19:55.
