data_PCOD8090358
_publ_section_title
;
Structure prediction by ZEFSAII (Michael W. Deem and Ramdas Pophale) SiO2 
 PCOD8090358
Probable space group: C 2/M
;
_chemical_formula_sum "Si O2"
_cell_formula_units_Z 56
_cell_length_a 18.222044
_cell_length_b 7.755571
_cell_length_c 30.288527
_cell_angle_alpha 90.000000
_cell_angle_beta 139.295316
_cell_angle_gamma 90.000000
_cell_volume 2791.537287
_symmetry_space_group_name_H-M "C 2/M"
_symmetry_group_IT_number 12
_symmetry_cell_setting 'monoclinic'
loop_
_space_group_symop_operation_xyz
x,y,z
-x,y,-z
-x,-y,-z
x,-y,z
1/2+x,1/2+y,z
1/2-x,1/2+y,-z
1/2-x,1/2-y,-z
1/2+x,1/2-y,z
loop_
_atom_site_type_symbol
_atom_site_label
_atom_site_fract_x
_atom_site_fract_y
_atom_site_fract_z
Si Si1 0.776273 0.700791 0.689983
Si Si2 0.876868 0.297229 0.567945
Si Si3 0.454304 0.204371 0.697926
Si Si4 0.798079 0.192473 0.169403
Si Si5 0.867948 0.698165 0.827440
Si Si6 0.318202 0.500000 0.924781
Si Si7 0.029052 0.303644 0.560279
Si Si8 0.008125 0.000000 0.075465
O O1 0.749492 0.500000 0.674077
O O2 0.862296 0.761654 0.691723
O O3 0.827845 0.749136 0.760595
O O4 0.660435 0.800370 0.630742
O O5 0.892835 0.500000 0.577093
O O6 0.750000 0.250000 0.500000
O O7 0.913233 0.222845 0.632023
O O8 0.957110 0.214326 0.566743
O O9 0.569777 0.295885 0.762871
O O10 0.472827 0.000000 0.706525
O O11 0.736924 0.230423 0.187933
O O12 0.758387 0.328938 0.114352
O O13 0.767859 0.000000 0.138823
O O14 0.910803 0.500000 0.849276
O O15 0.970172 0.826117 0.886466
O O16 0.411496 0.500000 0.929818
O O17 0.378643 0.500000 0.000117
O O18 0.987921 0.500000 0.538596
O O19 0.000000 0.212577 0.500000
#
# Coordination Sequence:
#
# PCOD8090358 Si02
#       8
#     8   8   8   8   8   4   8   4
#     4  10  21  35  53  78 105 141 182 233 277 323
#     4  10  21  35  53  76 105 144 183 228 281 331
#     4  10  20  35  53  76 107 144 184 233 278 328
#     4  10  19  33  56  82 110 146 181 226 279 325
#     4   9  19  34  53  83 112 139 186 230 268 333
#     4   9  18  34  54  86 118 138 182 227 267 337
#     4  10  21  35  51  75 108 142 182 233 278 329
#     4   9  18  32  58  84 111 152 173 217 291 321
#
# _framework density 20.060631000000001
#
# number of rings (size 3 to 8) (size 9 to 14) (size 15 to 20)
#    0.000    2.286    0.714    1.714    1.000    2.571 
#    0.000    2.857    0.000    0.857    0.000    0.000 
#    0.000    0.000    0.000    0.000    0.000    0.000 
#
# Total GULP energy -347215.474458 kJ/mol
# GULP energy per Si atom -12400.552659 kJ/mol
# Density = 2.001497 g / cm^3
# Si number density = 20.060631 Si / 1000 Ang^3
#
#
#
# Elastic Constant Matrix: (Units=GPa)
#
#
# Indices 1 2 3 4 5 6 
#
# 1 123.5851 31.2196 68.5141 0.0001 -3.2687 -0.0002
# 2 31.2196 76.5221 53.3666 0.0009 -3.3525 -0.0018
# 3 68.5141 53.3666 173.1890 0.0000 -3.5908 -0.0001
# 4 0.0001 0.0009 0.0000 27.3571 0.0000 2.2357
# 5 -3.2687 -3.3525 -3.5908 0.0000 25.1980 0.0001
# 6 -0.0002 -0.0018 -0.0001 2.2357 0.0001 11.4999
#
#
#
# Elastic Compliance Matrix: (Units=1/GPa)
#
#
# Indices 1 2 3 4 5 6 
#
# 1 0.010560 -0.001754 -0.003625 0.000000 0.000620 0.000000
# 2 -0.001754 0.016992 -0.004513 -0.000001 0.001390 0.000003
# 3 -0.003625 -0.004513 0.008602 0.000000 0.000155 -0.000001
# 4 0.000000 -0.000001 0.000000 0.037144 0.000000 -0.007221
# 5 0.000620 0.001390 0.000155 0.000000 0.039973 0.000000
# 6 0.000000 0.000003 -0.000001 -0.007221 0.000000 0.088361
#
#
# Mechanical properties :
#
#
# Convention : Reuss Voigt Hill
#
# Bulk Modulus (GPa) = 61.08215 75.49965 68.29090
# Shear Modulus (GPa) = 22.03880 27.49072 24.76476
#
# Velocity S-wave (km/s) = 3.31812 3.70588 3.51735
# Velocity P-wave (km/s) = 6.72271 7.48524 7.11420
#
# Compressibility (1/GPa) = 0.01637140
#
# Stress axis : x y z
#
# Youngs Moduli (GPa) = 94.69384 58.85081 116.25331
#
# Poissons Ratio (x) = 0.10320 0.42136
# Poissons Ratio (y) = 0.16605 0.52470
# Poissons Ratio (z) = 0.34322 0.26562
#
# Static dielectric constant tensor:
#      x y z
#    x 3.693580 0.000000 -0.209460 
#    y 0.000000 3.570680 0.000000 
#    z -0.209460 0.000000 3.686140 
# 
# 
# High freq. dielectric constant tensor:
#      x y z
#    x 1.771450 0.000000 -0.004190 
#    y 0.000000 1.778750 0.000000 
#    z -0.004190 0.000000 1.780530 
# 
# From -- ./inp_files/377781.got.cif
#   From: 2010.06.25/outbox.cif.g09.slc.cpg/sg12_189_cif.got.tgz:377781.got - 2010.06.28 00:19:55.
