data_PCOD8090843
_publ_section_title
;
Structure prediction by ZEFSAII (Michael W. Deem and Ramdas Pophale) SiO2 
 PCOD8090843
Probable space group: C 2/M
;
_chemical_formula_sum "Si O2"
_cell_formula_units_Z 48
_cell_length_a 31.578802
_cell_length_b 9.006121
_cell_length_c 9.536244
_cell_angle_alpha 90.000000
_cell_angle_beta 103.196563
_cell_angle_gamma 90.000000
_cell_volume 2640.511397
_symmetry_space_group_name_H-M "C 2/M"
_symmetry_group_IT_number 12
_symmetry_cell_setting 'monoclinic'
loop_
_space_group_symop_operation_xyz
x,y,z
-x,y,-z
-x,-y,-z
x,-y,z
1/2+x,1/2+y,z
1/2-x,1/2+y,-z
1/2-x,1/2-y,-z
1/2+x,1/2-y,z
loop_
_atom_site_type_symbol
_atom_site_label
_atom_site_fract_x
_atom_site_fract_y
_atom_site_fract_z
Si Si1 0.608808 0.172494 0.868640
Si Si2 0.795931 0.175612 0.558856
Si Si3 0.140807 0.674329 0.192881
Si Si4 0.488056 0.825190 0.149993
Si Si5 0.631857 0.330027 0.609247
Si Si6 0.568801 0.326367 0.318018
O O1 0.560202 0.235670 0.854719
O O2 0.632304 0.239367 0.752084
O O3 0.604290 0.000000 0.839233
O O4 0.638883 0.206027 0.025615
O O5 0.750000 0.250000 0.500000
O O6 0.816977 0.241788 0.716023
O O7 0.826644 0.217729 0.451593
O O8 0.791111 0.000000 0.573264
O O9 0.144003 0.500000 0.228420
O O10 0.096598 0.735962 0.225892
O O11 0.519932 0.735833 0.278173
O O12 0.492945 0.000000 0.181625
O O13 0.500000 0.785410 0.000000
O O14 0.635498 0.500000 0.654928
O O15 0.588015 0.299268 0.487728
O O16 0.570709 0.500000 0.280841
#
# Coordination Sequence:
#
# PCOD8090843 Si02
#       6
#     8   8   8   8   8   8
#     4  10  21  35  54  80 109 145 186 224 272 323
#     4  10  21  39  62  88 110 138 178 219 267 327
#     4  10  19  35  57  81 110 144 180 225 271 319
#     4  10  19  34  52  75 109 145 188 235 270 312
#     4   9  21  38  54  77 113 143 174 223 274 322
#     4  10  20  34  52  78 107 145 191 229 270 322
#
# _framework density 18.178296
#
# number of rings (size 3 to 8) (size 9 to 14) (size 15 to 20)
#    0.000    2.167    1.667    2.500    0.000    7.000 
#    0.000    4.167    0.000    0.000    0.000    0.000 
#    0.000    0.000    0.000    0.000    0.000    0.000 
#
# Total GULP energy -297643.158143 kJ/mol
# GULP energy per Si atom -12401.798256 kJ/mol
# Density = 1.813692 g / cm^3
# Si number density = 18.178296 Si / 1000 Ang^3
#
#
#
# Elastic Constant Matrix: (Units=GPa)
#
#
# Indices 1 2 3 4 5 6 
#
# 1 126.2156 55.1811 65.6369 0.0000 21.5688 0.0000
# 2 55.1811 79.8673 62.6228 0.0000 11.0938 0.0000
# 3 65.6369 62.6228 122.4787 0.0000 3.0044 0.0000
# 4 0.0000 0.0000 0.0000 33.0480 0.0000 1.1715
# 5 21.5688 11.0938 3.0044 0.0000 22.2662 0.0000
# 6 0.0000 0.0000 0.0000 1.1715 0.0000 30.6763
#
#
#
# Elastic Compliance Matrix: (Units=1/GPa)
#
#
# Indices 1 2 3 4 5 6 
#
# 1 0.014449 -0.004303 -0.005269 0.000000 -0.011141 0.000000
# 2 -0.004303 0.024148 -0.009880 0.000000 -0.006530 0.000000
# 3 -0.005269 -0.009880 0.015847 0.000000 0.007889 0.000000
# 4 0.000000 0.000000 0.000000 0.030300 0.000000 -0.001157
# 5 -0.011141 -0.006530 0.007889 0.000000 0.057892 0.000000
# 6 0.000000 0.000000 0.000000 -0.001157 0.000000 0.032643
#
#
# Mechanical properties :
#
#
# Convention : Reuss Voigt Hill
#
# Bulk Modulus (GPa) = 64.36258 77.27148 70.81703
# Shear Modulus (GPa) = 22.79317 26.87282 24.83299
#
# Velocity S-wave (km/s) = 3.54484 3.84903 3.70006
# Velocity P-wave (km/s) = 7.22756 7.89640 7.56937
#
# Compressibility (1/GPa) = 0.01553698
#
# Stress axis : x y z
#
# Youngs Moduli (GPa) = 69.21091 41.41104 63.10382
#
# Poissons Ratio (x) = 0.17821 0.33252
# Poissons Ratio (y) = 0.29785 0.62349
# Poissons Ratio (z) = 0.36470 0.40916
#
# Static dielectric constant tensor:
#      x y z
#    x 3.329890 0.000000 0.115830 
#    y 0.000000 3.347890 0.000000 
#    z 0.115830 0.000000 3.327960 
# 
# 
# High freq. dielectric constant tensor:
#      x y z
#    x 1.693890 0.000000 0.012610 
#    y 0.000000 1.709330 0.000000 
#    z 0.012610 0.000000 1.701520 
# 
# From -- ./inp_files/108553.got.cif
#   From: 2010.06.25/outbox.cif.g09.slc.cpg/sg12_55_cif.got.tgz:108553.got - 2010.06.28 00:19:55.
