data_PCOD8090100
_publ_section_title
;
Structure prediction by ZEFSAII (Michael W. Deem and Ramdas Pophale) SiO2 
 PCOD8090100
Probable space group: C 2/M
;
_chemical_formula_sum "Si O2"
_cell_formula_units_Z 64
_cell_length_a 21.885054
_cell_length_b 20.446228
_cell_length_c 12.101332
_cell_angle_alpha 90.000000
_cell_angle_beta 39.534348
_cell_angle_gamma 90.000000
_cell_volume 3446.832381
_symmetry_space_group_name_H-M "C 2/M"
_symmetry_group_IT_number 12
_symmetry_cell_setting 'monoclinic'
loop_
_space_group_symop_operation_xyz
x,y,z
-x,y,-z
-x,-y,-z
x,-y,z
1/2+x,1/2+y,z
1/2-x,1/2+y,-z
1/2-x,1/2-y,-z
1/2+x,1/2-y,z
loop_
_atom_site_type_symbol
_atom_site_label
_atom_site_fract_x
_atom_site_fract_y
_atom_site_fract_z
Si Si1 0.516769 0.427565 0.849275
Si Si2 0.136835 0.303617 0.556916
Si Si3 0.325732 0.207946 0.750499
Si Si4 0.753714 0.152343 0.792560
Si Si5 0.900612 0.071225 0.699548
Si Si6 0.925275 0.308841 0.837788
Si Si7 0.121367 0.162109 0.072518
Si Si8 0.806021 0.838757 0.468758
O O1 0.515751 0.500000 0.794279
O O2 0.423613 0.384244 0.956224
O O3 0.614872 0.393229 0.670183
O O4 0.500000 0.437670 0.000000
O O5 0.141433 0.306162 0.418479
O O6 0.141843 0.231431 0.603745
O O7 0.222299 0.345442 0.493016
O O8 0.031217 0.333885 0.724126
O O9 0.298028 0.284520 0.794755
O O10 0.405157 0.190633 0.732992
O O11 0.235886 0.161667 0.903712
O O12 0.814679 0.088233 0.735837
O O13 0.753735 0.155876 0.660257
O O14 0.646320 0.145689 0.991006
O O15 0.912697 0.130258 0.766524
O O16 0.000000 0.066811 0.500000
O O17 0.877225 0.000000 0.785371
O O18 0.919161 0.234330 0.886742
#
# Coordination Sequence:
#
# PCOD8090100 Si02
#       8
#     8   8   8   8   8   8   8   8
#     4  11  23  38  58  82 112 154 193 229 279 337
#     4  10  21  34  55  82 108 149 189 232 283 329
#     4  10  19  33  55  81 114 146 184 228 285 335
#     4  10  20  34  53  78 117 146 183 228 282 337
#     4  11  22  33  52  81 112 149 187 224 276 336
#     4  11  19  34  56  84 113 152 182 230 284 337
#     4  11  19  35  53  80 114 144 183 228 279 338
#     4  10  21  38  52  80 115 146 187 235 277 332
#
# _framework density 18.567772999999999
#
# number of rings (size 3 to 8) (size 9 to 14) (size 15 to 20)
#    0.000    1.500    3.750    3.000    1.750    3.000 
#    0.000    0.000    0.000    0.750    0.000    2.625 
#    0.000    0.000    0.000    0.000    0.000    0.000 
#
# Total GULP energy -396530.633165 kJ/mol
# GULP energy per Si atom -12391.582286 kJ/mol
# Density = 1.852551 g / cm^3
# Si number density = 18.567773 Si / 1000 Ang^3
#
#
#
# Elastic Constant Matrix: (Units=GPa)
#
#
# Indices 1 2 3 4 5 6 
#
# 1 99.3054 21.4163 33.2760 0.0000 -13.8598 0.0000
# 2 21.4163 72.6102 27.0004 0.0000 -7.0851 0.0000
# 3 33.2760 27.0004 89.0392 0.0000 -11.2835 0.0000
# 4 0.0000 0.0000 0.0000 388.9867 0.0000 -76.4241
# 5 -13.8598 -7.0851 -11.2835 0.0000 28.1453 0.0000
# 6 0.0000 0.0000 0.0000 -76.4241 0.0000 9.6497
#
#
#
# Elastic Compliance Matrix: (Units=1/GPa)
#
#
# Indices 1 2 3 4 5 6 
#
# 1 0.012221 -0.001913 -0.003462 0.000000 0.004149 0.000000
# 2 -0.001913 0.015944 -0.003930 0.000000 0.001496 0.000000
# 3 -0.003462 -0.003930 0.014091 0.000000 0.002955 0.000000
# 4 0.000000 0.000000 0.000000 -0.004624 0.000000 -0.036618
# 5 0.004149 0.001496 0.002955 0.000000 0.039134 0.000000
# 6 0.000000 0.000000 0.000000 -0.036618 0.000000 -0.186381
#
#
# Mechanical properties :
#
#
# Convention : Reuss Voigt Hill
#
# Bulk Modulus (GPa) = 42.28890 47.14891 44.71891
# Shear Modulus (GPa) = -60.15255 97.30715 18.57730
#
# Velocity S-wave (km/s) = -5.69794 7.24709 3.16652
# Velocity P-wave (km/s) = 4.52370 9.77113 6.12418
#
# Compressibility (1/GPa) = 0.02364687
#
# Stress axis : x y z
#
# Youngs Moduli (GPa) = 81.82331 62.72024 70.96692
#
# Poissons Ratio (x) = 0.11996 0.24566
# Poissons Ratio (y) = 0.15650 0.27893
# Poissons Ratio (z) = 0.28325 0.24652
#
# Static dielectric constant tensor:
#      x y z
#    x 3.653810 0.000000 -0.135680 
#    y 0.000000 3.756280 0.000000 
#    z -0.135680 0.000000 3.561600 
# 
# 
# High freq. dielectric constant tensor:
#      x y z
#    x 1.729680 0.000000 0.003030 
#    y 0.000000 1.683490 0.000000 
#    z 0.003030 0.000000 1.724450 
# 
# From -- ./inp_files/169661.got.cif
#   From: 2010.06.25/outbox.cif.g09.slc.cpg/sg12_85_cif.got.tgz:169661.got - 2010.06.28 00:19:55.
