data_PCOD8090338
_publ_section_title
;
Structure prediction by ZEFSAII (Michael W. Deem and Ramdas Pophale) SiO2 
 PCOD8090338
Probable space group: C 2/M
;
_chemical_formula_sum "Si O2"
_cell_formula_units_Z 56
_cell_length_a 18.257824
_cell_length_b 8.939777
_cell_length_c 19.394691
_cell_angle_alpha 90.000000
_cell_angle_beta 113.757385
_cell_angle_gamma 90.000000
_cell_volume 2897.362539
_symmetry_space_group_name_H-M "C 2/M"
_symmetry_group_IT_number 12
_symmetry_cell_setting 'monoclinic'
loop_
_space_group_symop_operation_xyz
x,y,z
-x,y,-z
-x,-y,-z
x,-y,z
1/2+x,1/2+y,z
1/2-x,1/2+y,-z
1/2-x,1/2-y,-z
1/2+x,1/2-y,z
loop_
_atom_site_type_symbol
_atom_site_label
_atom_site_fract_x
_atom_site_fract_y
_atom_site_fract_z
Si Si1 0.679952 0.328335 0.012123
Si Si2 0.268929 0.675769 0.691995
Si Si3 0.921770 0.176190 0.147026
Si Si4 0.722984 0.824949 0.826992
Si Si5 0.128230 0.171673 0.568344
Si Si6 0.974731 0.828129 0.600417
Si Si7 0.563339 0.823778 0.274379
O O1 0.693749 0.500000 0.002573
O O2 0.693149 0.294060 0.098590
O O3 0.750000 0.250000 0.000000
O O4 0.597283 0.284178 0.941525
O O5 0.284890 0.500000 0.695278
O O6 0.238833 0.728623 0.755578
O O7 0.202509 0.720052 0.610704
O O8 0.349360 0.759578 0.703965
O O9 0.850993 0.232533 0.170378
O O10 0.004411 0.257722 0.194416
O O11 0.932564 0.000000 0.163220
O O12 0.700273 0.000000 0.821261
O O13 0.098600 0.201617 0.479464
O O14 0.057599 0.209406 0.594562
O O15 0.155145 0.000000 0.587156
O O16 0.968121 0.718618 0.662115
O O17 0.973095 0.000000 0.624905
O O18 0.565355 0.000000 0.267606
#
# Coordination Sequence:
#
# PCOD8090338 Si02
#       7
#     8   8   8   8   8   8   8
#     4   8  15  29  51  79 107 135 171 216 263 311
#     4  11  23  37  54  77 108 145 181 219 263 313
#     4  10  19  33  56  82 108 140 176 217 267 319
#     4   9  18  34  56  82 109 138 177 221 263 311
#     4   9  19  37  61  86 110 137 170 213 263 314
#     4   9  19  38  62  85 109 137 172 214 261 315
#     4  12  25  38  53  75 107 145 182 222 265 312
#
# _framework density 19.327923999999999
#
# number of rings (size 3 to 8) (size 9 to 14) (size 15 to 20)
#    0.000    2.286    0.000    3.857    0.000    5.714 
#    0.000    2.143    0.000    4.286    0.000    0.000 
#    0.000    0.000    0.000    0.000    0.000    0.000 
#
# Total GULP energy -347041.269358 kJ/mol
# GULP energy per Si atom -12394.331048 kJ/mol
# Density = 1.928393 g / cm^3
# Si number density = 19.327924 Si / 1000 Ang^3
#
#
#
# Elastic Constant Matrix: (Units=GPa)
#
#
# Indices 1 2 3 4 5 6 
#
# 1 48.2983 26.8403 23.9514 0.0000 24.6352 0.0000
# 2 26.8403 82.8400 35.7360 0.0000 16.5522 0.0000
# 3 23.9514 35.7360 103.2265 0.0000 31.7061 0.0000
# 4 0.0000 0.0000 0.0000 31.5905 0.0000 4.6630
# 5 24.6352 16.5522 31.7061 0.0000 24.7512 0.0000
# 6 0.0000 0.0000 0.0000 4.6630 0.0000 25.0136
#
#
#
# Elastic Compliance Matrix: (Units=1/GPa)
#
#
# Indices 1 2 3 4 5 6 
#
# 1 0.048302 -0.008567 0.007856 0.000000 -0.052410 0.000000
# 2 -0.008567 0.016140 -0.004787 0.000000 0.003865 0.000000
# 3 0.007856 -0.004787 0.018037 0.000000 -0.027723 0.000000
# 4 0.000000 0.000000 0.000000 0.032551 0.000000 -0.006068
# 5 -0.052410 0.003865 -0.027723 0.000000 0.125495 0.000000
# 6 0.000000 0.000000 0.000000 -0.006068 0.000000 0.041109
#
#
# Mechanical properties :
#
#
# Convention : Reuss Voigt Hill
#
# Bulk Modulus (GPa) = 13.98923 45.26891 29.62907
# Shear Modulus (GPa) = 15.79994 26.12688 20.96341
#
# Velocity S-wave (km/s) = 2.86224 3.68063 3.29693
# Velocity P-wave (km/s) = 4.26342 6.44477 5.46406
#
# Compressibility (1/GPa) = 0.07148354
#
# Stress axis : x y z
#
# Youngs Moduli (GPa) = 20.70308 61.95856 55.44163
#
# Poissons Ratio (x) = 0.53079 -0.43556
# Poissons Ratio (y) = 0.17736 0.26539
# Poissons Ratio (z) = -0.16265 0.29659
#
# Static dielectric constant tensor:
#      x y z
#    x 3.224080 0.000000 0.080990 
#    y 0.000000 3.485940 0.000000 
#    z 0.080990 0.000000 4.256440 
# 
# 
# High freq. dielectric constant tensor:
#      x y z
#    x 1.721340 0.000000 0.010890 
#    y 0.000000 1.751980 0.000000 
#    z 0.010890 0.000000 1.777380 
# 
# From -- ./inp_files/314409.got.cif
#   From: 2010.06.25/outbox.cif.g09.slc.cpg/sg12_158_cif.got.tgz:314409.got - 2010.06.28 00:19:55.
