data_PCOD8090657
_publ_section_title
;
Structure prediction by ZEFSAII (Michael W. Deem and Ramdas Pophale) SiO2 
 PCOD8090657
Probable space group: C 2/M
;
_chemical_formula_sum "Si O2"
_cell_formula_units_Z 64
_cell_length_a 14.345976
_cell_length_b 17.850031
_cell_length_c 24.137095
_cell_angle_alpha 90.000000
_cell_angle_beta 147.910052
_cell_angle_gamma 90.000000
_cell_volume 3283.620649
_symmetry_space_group_name_H-M "C 2/M"
_symmetry_group_IT_number 12
_symmetry_cell_setting 'monoclinic'
loop_
_space_group_symop_operation_xyz
x,y,z
-x,y,-z
-x,-y,-z
x,-y,z
1/2+x,1/2+y,z
1/2-x,1/2+y,-z
1/2-x,1/2-y,-z
1/2+x,1/2-y,z
loop_
_atom_site_type_symbol
_atom_site_label
_atom_site_fract_x
_atom_site_fract_y
_atom_site_fract_z
Si Si1 0.344726 0.172624 0.884015
Si Si2 0.336760 0.213170 0.129553
Si Si3 0.494416 0.914293 0.715079
Si Si4 0.602226 0.411085 0.498295
Si Si5 0.983866 0.783341 0.106755
Si Si6 0.998319 0.089029 0.325045
Si Si7 0.806410 0.585827 0.401181
Si Si8 0.776102 0.082576 0.767191
O O1 0.261264 0.244965 0.870854
O O2 0.437283 0.205262 0.876163
O O3 0.192022 0.114117 0.793094
O O4 0.500000 0.135632 0.000000
O O5 0.422679 0.137256 0.195559
O O6 0.474751 0.269551 0.168736
O O7 0.202799 0.193110 0.012862
O O8 0.301199 0.884308 0.604684
O O9 0.591015 0.908567 0.704799
O O10 0.494239 0.000000 0.737248
O O11 0.500000 0.377837 0.500000
O O12 0.589257 0.500000 0.491077
O O13 0.523035 0.380708 0.400355
O O14 0.098620 0.853977 0.146792
O O15 0.159613 0.121517 0.368687
O O16 0.999114 0.000000 0.322627
O O17 0.830424 0.500000 0.432087
O O18 0.739401 0.593321 0.305617
O O19 0.000000 0.625033 0.500000
O O20 0.854544 0.000000 0.819701
#
# Coordination Sequence:
#
# PCOD8090657 Si02
#       8
#     8   8   8   8   8   8   8   8
#     4  10  21  38  57  80 113 153 194 235 287 346
#     4  10  21  38  57  79 112 154 189 230 285 351
#     4  10  20  35  59  88 114 145 191 241 285 338
#     4   9  19  35  55  80 115 153 190 233 286 342
#     4  10  21  37  57  79 111 154 190 226 292 348
#     4  10  20  35  58  85 113 151 196 240 285 338
#     4   9  17  31  55  83 111 142 179 226 289 349
#     4  10  19  33  58  87 112 140 184 241 288 337
#
# _framework density 19.490680999999999
#
# number of rings (size 3 to 8) (size 9 to 14) (size 15 to 20)
#    0.000    2.250    1.250    1.500    1.750    3.750 
#    0.000    1.875    2.750    4.500    0.000    0.000 
#    0.000    0.000    0.000    0.000    0.000    0.000 
#
# Total GULP energy -396594.452727 kJ/mol
# GULP energy per Si atom -12393.576648 kJ/mol
# Density = 1.944632 g / cm^3
# Si number density = 19.490681 Si / 1000 Ang^3
#
#
#
# Elastic Constant Matrix: (Units=GPa)
#
#
# Indices 1 2 3 4 5 6 
#
# 1 130.2478 28.1762 59.6178 0.0003 1.8160 0.0002
# 2 28.1762 48.8725 41.6589 0.0004 2.2445 0.0001
# 3 59.6178 41.6589 120.8774 0.0031 9.4669 0.0011
# 4 0.0003 0.0004 0.0031 16.4163 0.0005 -0.7655
# 5 1.8160 2.2445 9.4669 0.0005 31.5826 0.0002
# 6 0.0002 0.0001 0.0011 -0.7655 0.0002 21.2581
#
#
#
# Elastic Compliance Matrix: (Units=1/GPa)
#
#
# Indices 1 2 3 4 5 6 
#
# 1 0.010108 -0.002209 -0.004292 0.000001 0.000862 0.000000
# 2 -0.002209 0.029484 -0.009132 0.000001 0.000769 0.000000
# 3 -0.004292 -0.009132 0.013790 -0.000002 -0.003238 -0.000001
# 4 0.000001 0.000001 -0.000002 0.061017 0.000000 0.002197
# 5 0.000862 0.000769 -0.003238 0.000000 0.032529 0.000000
# 6 0.000000 0.000000 -0.000001 0.002197 0.000000 0.047120
#
#
# Mechanical properties :
#
#
# Convention : Reuss Voigt Hill
#
# Bulk Modulus (GPa) = 45.21415 62.10038 53.65726
# Shear Modulus (GPa) = 21.48822 25.22106 23.35464
#
# Velocity S-wave (km/s) = 3.32397 3.60113 3.46533
# Velocity P-wave (km/s) = 6.16279 7.01581 6.60309
#
# Compressibility (1/GPa) = 0.02211697
#
# Stress axis : x y z
#
# Youngs Moduli (GPa) = 98.93299 33.91716 72.51497
#
# Poissons Ratio (x) = 0.07492 0.31120
# Poissons Ratio (y) = 0.21854 0.66220
# Poissons Ratio (z) = 0.42457 0.30973
#
# Static dielectric constant tensor:
#      x y z
#    x 3.895430 0.000000 0.104650 
#    y 0.000000 3.208690 0.000000 
#    z 0.104650 0.000000 3.571620 
# 
# 
# High freq. dielectric constant tensor:
#      x y z
#    x 1.781810 0.000000 0.005480 
#    y 0.000000 1.719810 0.000000 
#    z 0.005480 0.000000 1.755130 
# 
# From -- ./inp_files/340844.got.cif
#   From: 2010.06.25/outbox.cif.g09.slc.cpg/sg12_171_cif.got.tgz:340844.got - 2010.06.28 00:19:55.
