data_PCOD8090699
_publ_section_title
;
Structure prediction by ZEFSAII (Michael W. Deem and Ramdas Pophale) SiO2 
 PCOD8090699
Probable space group: C 2/M
;
_chemical_formula_sum "Si O2"
_cell_formula_units_Z 56
_cell_length_a 13.688932
_cell_length_b 18.609577
_cell_length_c 12.602340
_cell_angle_alpha 90.000000
_cell_angle_beta 121.361916
_cell_angle_gamma 90.000000
_cell_volume 2741.338761
_symmetry_space_group_name_H-M "C 2/M"
_symmetry_group_IT_number 12
_symmetry_cell_setting 'monoclinic'
loop_
_space_group_symop_operation_xyz
x,y,z
-x,y,-z
-x,-y,-z
x,-y,z
1/2+x,1/2+y,z
1/2-x,1/2+y,-z
1/2-x,1/2-y,-z
1/2+x,1/2-y,z
loop_
_atom_site_type_symbol
_atom_site_label
_atom_site_fract_x
_atom_site_fract_y
_atom_site_fract_z
Si Si1 0.370419 0.206471 0.453375
Si Si2 0.718956 0.337931 0.181536
Si Si3 0.971092 0.915953 0.801484
Si Si4 0.262110 0.415938 0.016996
Si Si5 0.582238 0.418270 0.459110
Si Si6 0.869673 0.318035 0.894598
Si Si7 0.291773 0.842362 0.623289
O O1 0.500000 0.224155 0.500000
O O2 0.310429 0.158565 0.328604
O O3 0.371822 0.163782 0.565687
O O4 0.303141 0.280167 0.428638
O O5 0.598990 0.372950 0.149460
O O6 0.697262 0.256771 0.130019
O O7 0.773942 0.382806 0.116381
O O8 0.935660 0.882885 0.667000
O O9 0.104251 0.900898 0.891631
O O10 0.941084 0.000000 0.796697
O O11 0.232711 0.500000 0.002953
O O12 0.191272 0.378380 0.069935
O O13 0.500000 0.380993 0.500000
O O14 0.542937 0.500000 0.424163
O O15 0.714530 0.414038 0.570141
O O16 0.868616 0.343602 0.771557
O O17 0.000000 0.308025 0.000000
#
# Coordination Sequence:
#
# PCOD8090699 Si02
#       7
#     8   8   8   8   8   8   8
#     4  10  22  38  63  91 122 160 199 249 307 363
#     4  11  22  41  65  94 124 157 204 259 312 364
#     4  10  20  37  63  93 125 157 203 258 308 364
#     4  11  24  41  63  91 124 166 208 251 310 370
#     4  10  19  33  58  89 120 157 201 250 302 358
#     4  11  25  41  62  92 125 164 207 253 305 368
#     4  10  21  40  59  89 122 161 199 246 303 363
#
# _framework density 20.427976000000001
#
# number of rings (size 3 to 8) (size 9 to 14) (size 15 to 20)
#    0.000    1.571    1.429    3.429    2.000    4.286 
#    0.000    0.000    0.000    2.143    0.000    0.000 
#    0.000    0.000    0.000    0.000    0.000    0.000 
#
# Total GULP energy -347262.127681 kJ/mol
# GULP energy per Si atom -12402.218846 kJ/mol
# Density = 2.038148 g / cm^3
# Si number density = 20.427976 Si / 1000 Ang^3
#
#
#
# Elastic Constant Matrix: (Units=GPa)
#
#
# Indices 1 2 3 4 5 6 
#
# 1 87.6968 27.4411 48.8767 0.0000 -12.6123 0.0000
# 2 27.4411 76.8199 36.0036 0.0000 -15.2859 0.0000
# 3 48.8767 36.0036 149.2237 0.0000 -19.6385 0.0000
# 4 0.0000 0.0000 0.0000 27.6293 0.0000 -2.8802
# 5 -12.6123 -15.2859 -19.6385 0.0000 33.9388 0.0000
# 6 0.0000 0.0000 0.0000 -2.8802 0.0000 28.9592
#
#
#
# Elastic Compliance Matrix: (Units=1/GPa)
#
#
# Indices 1 2 3 4 5 6 
#
# 1 0.014789 -0.003107 -0.003848 0.000000 0.001870 0.000000
# 2 -0.003107 0.016136 -0.002242 0.000000 0.004816 0.000000
# 3 -0.003848 -0.002242 0.008856 0.000000 0.002685 0.000000
# 4 0.000000 0.000000 0.000000 0.036573 0.000000 0.003637
# 5 0.001870 0.004816 0.002685 0.000000 0.033882 0.000000
# 6 0.000000 0.000000 0.000000 0.003637 0.000000 0.034893
#
#
# Mechanical properties :
#
#
# Convention : Reuss Voigt Hill
#
# Bulk Modulus (GPa) = 46.75768 59.82037 53.28903
# Shear Modulus (GPa) = 29.29936 31.53340 30.41638
#
# Velocity S-wave (km/s) = 3.79129 3.93318 3.86289
# Velocity P-wave (km/s) = 6.48875 7.06920 6.78519
#
# Compressibility (1/GPa) = 0.02138686
#
# Stress axis : x y z
#
# Youngs Moduli (GPa) = 67.61870 61.97205 112.91814
#
# Poissons Ratio (x) = 0.19256 0.43453
# Poissons Ratio (y) = 0.21010 0.25313
# Poissons Ratio (z) = 0.26021 0.13892
#
# Static dielectric constant tensor:
#      x y z
#    x 3.600310 0.000000 -0.226100 
#    y 0.000000 3.589540 0.000000 
#    z -0.226100 0.000000 3.981510 
# 
# 
# High freq. dielectric constant tensor:
#      x y z
#    x 1.791790 0.000000 -0.014460 
#    y 0.000000 1.785080 0.000000 
#    z -0.014460 0.000000 1.814390 
# 
# From -- ./inp_files/133979.got.cif
#   From: 2010.06.25/outbox.cif.g09.slc.cpg/sg12_67_cif.got.tgz:133979.got - 2010.06.28 00:19:55.
