data_PCOD8090568
_publ_section_title
;
Structure prediction by ZEFSAII (Michael W. Deem and Ramdas Pophale) SiO2 
 PCOD8090568
Probable space group: C 2/M
;
_chemical_formula_sum "Si O2"
_cell_formula_units_Z 56
_cell_length_a 23.288305
_cell_length_b 9.023315
_cell_length_c 15.034342
_cell_angle_alpha 90.000000
_cell_angle_beta 64.198286
_cell_angle_gamma 90.000000
_cell_volume 2844.319958
_symmetry_space_group_name_H-M "C 2/M"
_symmetry_group_IT_number 12
_symmetry_cell_setting 'monoclinic'
loop_
_space_group_symop_operation_xyz
x,y,z
-x,y,-z
-x,-y,-z
x,-y,z
1/2+x,1/2+y,z
1/2-x,1/2+y,-z
1/2-x,1/2-y,-z
1/2+x,1/2-y,z
loop_
_atom_site_type_symbol
_atom_site_label
_atom_site_fract_x
_atom_site_fract_y
_atom_site_fract_z
Si Si1 0.465763 0.667567 0.116593
Si Si2 0.985293 0.824347 0.412676
Si Si3 0.932311 0.825282 0.806417
Si Si4 0.737986 0.326746 0.645627
Si Si5 0.344109 0.326474 0.468727
Si Si6 0.160110 0.326863 0.840008
Si Si7 0.816850 0.325534 0.972767
O O1 0.442210 0.500000 0.152687
O O2 0.514674 0.722216 0.157976
O O3 0.405696 0.775078 0.159454
O O4 0.500000 0.676712 0.000000
O O5 0.916761 0.768599 0.423396
O O6 0.000000 0.756483 0.500000
O O7 0.041343 0.775836 0.307680
O O8 0.983192 0.000000 0.419050
O O9 0.867497 0.737381 0.868180
O O10 0.918097 0.000000 0.821728
O O11 0.746877 0.500000 0.653344
O O12 0.683565 0.288962 0.609724
O O13 0.805173 0.258986 0.570737
O O14 0.718623 0.254735 0.752351
O O15 0.338556 0.500000 0.493281
O O16 0.168411 0.500000 0.819196
O O17 0.160392 0.284382 0.943455
O O18 0.810122 0.500000 0.963740
O O19 0.750000 0.250000 0.000000
#
# Coordination Sequence:
#
# PCOD8090568 Si02
#       7
#     8   8   8   8   8   8   8
#     4  10  19  33  57  85 114 149 186 230 284 340
#     4   9  18  33  56  83 110 144 185 228 273 328
#     4  10  20  37  60  86 116 150 189 232 282 339
#     4  10  20  34  56  83 113 148 187 233 288 344
#     4   9  18  35  56  81 114 147 187 235 283 336
#     4  11  23  37  56  84 116 149 189 236 287 344
#     4  11  25  42  59  81 112 150 191 235 284 340
#
# _framework density 19.688362000000001
#
# number of rings (size 3 to 8) (size 9 to 14) (size 15 to 20)
#    0.000    2.000    1.429    2.143    0.000    6.571 
#    0.000    3.571    0.000    0.857    0.000    0.000 
#    0.000    0.000    0.000    0.000    0.000    0.000 
#
# Total GULP energy -347299.758734 kJ/mol
# GULP energy per Si atom -12403.562812 kJ/mol
# Density = 1.964355 g / cm^3
# Si number density = 19.688362 Si / 1000 Ang^3
#
#
#
# Elastic Constant Matrix: (Units=GPa)
#
#
# Indices 1 2 3 4 5 6 
#
# 1 103.7558 38.7759 60.6711 0.0000 -17.3267 0.0000
# 2 38.7759 66.2619 48.8896 0.0000 -12.1414 0.0000
# 3 60.6711 48.8896 144.9866 0.0000 -15.6955 0.0000
# 4 0.0000 0.0000 0.0000 27.6083 0.0000 -11.4168
# 5 -17.3267 -12.1414 -15.6955 0.0000 32.0077 0.0000
# 6 0.0000 0.0000 0.0000 -11.4168 0.0000 27.3617
#
#
#
# Elastic Compliance Matrix: (Units=1/GPa)
#
#
# Indices 1 2 3 4 5 6 
#
# 1 0.014427 -0.004752 -0.003996 0.000000 0.004047 0.000000
# 2 -0.004752 0.022300 -0.005168 0.000000 0.003352 0.000000
# 3 -0.003996 -0.005168 0.010419 0.000000 0.000985 0.000000
# 4 0.000000 0.000000 0.000000 0.043774 0.000000 0.018265
# 5 0.004047 0.003352 0.000985 0.000000 0.035188 0.000000
# 6 0.000000 0.000000 0.000000 0.018265 0.000000 0.044169
#
#
# Mechanical properties :
#
#
# Convention : Reuss Voigt Hill
#
# Bulk Modulus (GPa) = 51.78068 67.96415 59.87241
# Shear Modulus (GPa) = 24.44427 28.50674 26.47551
#
# Velocity S-wave (km/s) = 3.52740 3.80925 3.67103
# Velocity P-wave (km/s) = 6.55342 7.34453 6.96022
#
# Compressibility (1/GPa) = 0.01931222
#
# Stress axis : x y z
#
# Youngs Moduli (GPa) = 69.31545 44.84327 95.97949
#
# Poissons Ratio (x) = 0.21310 0.38358
# Poissons Ratio (y) = 0.32940 0.49603
# Poissons Ratio (z) = 0.27702 0.23175
#
# Static dielectric constant tensor:
#      x y z
#    x 3.600080 0.000000 0.004770 
#    y 0.000000 3.390020 0.000000 
#    z 0.004770 0.000000 3.781590 
# 
# 
# High freq. dielectric constant tensor:
#      x y z
#    x 1.762480 0.000000 -0.006410 
#    y 0.000000 1.747670 0.000000 
#    z -0.006410 0.000000 1.781450 
# 
# From -- ./inp_files/238241.got.cif
#   From: 2010.06.25/outbox.cif.g09.slc.cpg/sg12_120_cif.got.tgz:238241.got - 2010.06.28 00:19:55.
