data_PCOD8090475
_publ_section_title
;
Structure prediction by ZEFSAII (Michael W. Deem and Ramdas Pophale) SiO2 
 PCOD8090475
Probable space group: C 2/M
;
_chemical_formula_sum "Si O2"
_cell_formula_units_Z 48
_cell_length_a 20.177100
_cell_length_b 8.819112
_cell_length_c 24.547237
_cell_angle_alpha 90.000000
_cell_angle_beta 145.341110
_cell_angle_gamma 90.000000
_cell_volume 2484.056205
_symmetry_space_group_name_H-M "C 2/M"
_symmetry_group_IT_number 12
_symmetry_cell_setting 'monoclinic'
loop_
_space_group_symop_operation_xyz
x,y,z
-x,y,-z
-x,-y,-z
x,-y,z
1/2+x,1/2+y,z
1/2-x,1/2+y,-z
1/2-x,1/2-y,-z
1/2+x,1/2-y,z
loop_
_atom_site_type_symbol
_atom_site_label
_atom_site_fract_x
_atom_site_fract_y
_atom_site_fract_z
Si Si1 0.710453 0.673836 0.396296
Si Si2 0.933903 0.324834 0.609391
Si Si3 0.137499 0.678320 0.897291
Si Si4 0.624954 0.675911 0.108441
Si Si5 0.652597 0.322266 0.791431
Si Si6 0.081706 0.174133 0.202041
O O1 0.682881 0.500000 0.394336
O O2 0.846337 0.710239 0.499986
O O3 0.628638 0.782171 0.376315
O O4 0.685000 0.702251 0.315429
O O5 0.969005 0.500000 0.635373
O O6 0.052427 0.228899 0.680930
O O7 0.154037 0.500000 0.905560
O O8 0.118353 0.743005 0.824472
O O9 0.027092 0.718283 0.859764
O O10 0.250000 0.750000 0.000000
O O11 0.651026 0.500000 0.114536
O O12 0.720371 0.775174 0.142435
O O13 0.631943 0.714821 0.176957
O O14 0.500000 0.722333 0.000000
O O15 0.649912 0.500000 0.798440
O O16 0.038267 0.000000 0.174212
#
# Coordination Sequence:
#
# PCOD8090475 Si02
#       6
#     8   8   8   8   8   8
#     4   9  18  33  56  86 119 152 191 239 297 355
#     4  10  19  33  56  86 117 153 194 241 294 351
#     4  12  24  38  59  87 117 150 192 243 294 347
#     4  10  22  40  61  84 115 156 197 239 295 359
#     4  12  24  39  59  85 118 156 198 244 292 346
#     4  10  20  37  60  87 118 152 192 242 297 353
#
# _framework density 19.323233999999999
#
# number of rings (size 3 to 8) (size 9 to 14) (size 15 to 20)
#    0.000    1.500    1.667    4.500    0.000    3.000 
#    0.000    0.833    0.000    5.000    0.000    0.000 
#    0.000    0.000    0.000    0.000    0.000    0.000 
#
# Total GULP energy -297689.636314 kJ/mol
# GULP energy per Si atom -12403.734846 kJ/mol
# Density = 1.927925 g / cm^3
# Si number density = 19.323234 Si / 1000 Ang^3
#
#
#
# Elastic Constant Matrix: (Units=GPa)
#
#
# Indices 1 2 3 4 5 6 
#
# 1 49.9125 26.1559 19.7444 0.0000 -0.7426 0.0000
# 2 26.1559 116.4375 41.2675 0.0000 8.6754 0.0000
# 3 19.7444 41.2675 116.7003 0.0000 -0.4829 0.0000
# 4 0.0000 0.0000 0.0000 31.5573 0.0000 6.8812
# 5 -0.7426 8.6754 -0.4829 0.0000 34.0300 0.0000
# 6 0.0000 0.0000 0.0000 6.8812 0.0000 29.0591
#
#
#
# Elastic Compliance Matrix: (Units=1/GPa)
#
#
# Indices 1 2 3 4 5 6 
#
# 1 0.023365 -0.004541 -0.002341 0.000000 0.001634 0.000000
# 2 -0.004541 0.010928 -0.003108 0.000000 -0.002929 0.000000
# 3 -0.002341 -0.003108 0.010068 0.000000 0.000884 0.000000
# 4 0.000000 0.000000 0.000000 0.033414 0.000000 -0.007912
# 5 0.001634 -0.002929 0.000884 0.000000 0.030181 0.000000
# 6 0.000000 0.000000 0.000000 -0.007912 0.000000 0.036286
#
#
# Mechanical properties :
#
#
# Convention : Reuss Voigt Hill
#
# Bulk Modulus (GPa) = 41.01479 50.82065 45.91772
# Shear Modulus (GPa) = 29.01108 31.98812 30.49960
#
# Velocity S-wave (km/s) = 3.87894 4.07310 3.97721
# Velocity P-wave (km/s) = 6.42910 6.96259 6.70115
#
# Compressibility (1/GPa) = 0.02438145
#
# Stress axis : x y z
#
# Youngs Moduli (GPa) = 42.79946 91.50642 99.32681
#
# Poissons Ratio (x) = 0.41551 0.23248
# Poissons Ratio (y) = 0.19434 0.30874
# Poissons Ratio (z) = 0.10018 0.28443
#
# Static dielectric constant tensor:
#      x y z
#    x 3.265120 0.000000 -0.068560 
#    y 0.000000 3.549550 0.000000 
#    z -0.068560 0.000000 3.791100 
# 
# 
# High freq. dielectric constant tensor:
#      x y z
#    x 1.724750 0.000000 -0.004620 
#    y 0.000000 1.753460 0.000000 
#    z -0.004620 0.000000 1.774250 
# 
# From -- ./inp_files/345703.got.cif
#   From: 2010.06.25/outbox.cif.g09.slc.cpg/sg12_173_cif.got.tgz:345703.got - 2010.06.28 00:19:55.
