data_PCOD8090654
_publ_section_title
;
Structure prediction by ZEFSAII (Michael W. Deem and Ramdas Pophale) SiO2 
 PCOD8090654
Probable space group: C 2/M
;
_chemical_formula_sum "Si O2"
_cell_formula_units_Z 56
_cell_length_a 15.656144
_cell_length_b 8.740411
_cell_length_c 23.247058
_cell_angle_alpha 90.000000
_cell_angle_beta 121.370339
_cell_angle_gamma 90.000000
_cell_volume 2716.133978
_symmetry_space_group_name_H-M "C 2/M"
_symmetry_group_IT_number 12
_symmetry_cell_setting 'monoclinic'
loop_
_space_group_symop_operation_xyz
x,y,z
-x,y,-z
-x,-y,-z
x,-y,z
1/2+x,1/2+y,z
1/2-x,1/2+y,-z
1/2-x,1/2-y,-z
1/2+x,1/2-y,z
loop_
_atom_site_type_symbol
_atom_site_label
_atom_site_fract_x
_atom_site_fract_y
_atom_site_fract_z
Si Si1 0.567697 0.680982 0.793166
Si Si2 0.974486 0.331542 0.931616
Si Si3 0.195276 0.819765 0.426682
Si Si4 0.174694 0.330495 0.930790
Si Si5 0.620439 0.818314 0.211273
Si Si6 0.478900 0.176891 0.339507
Si Si7 0.787341 0.676278 0.338910
O O1 0.572883 0.500000 0.789235
O O2 0.658197 0.735703 0.866319
O O3 0.458677 0.729962 0.777013
O O4 0.581917 0.757361 0.736078
O O5 0.937083 0.500000 0.937876
O O6 0.889919 0.260887 0.859518
O O7 0.070258 0.342490 0.925592
O O8 0.000000 0.238433 0.000000
O O9 0.250000 0.750000 0.500000
O O10 0.256758 0.766749 0.391714
O O11 0.081096 0.766457 0.385231
O O12 0.196846 0.000000 0.433069
O O13 0.214930 0.500000 0.929703
O O14 0.250000 0.250000 0.000000
O O15 0.730123 0.778210 0.271705
O O16 0.599781 0.000000 0.207402
O O17 0.406138 0.197498 0.369493
O O18 0.504963 0.000000 0.338160
O O19 0.755980 0.500000 0.319452
#
# Coordination Sequence:
#
# PCOD8090654 Si02
#       7
#     8   8   8   8   8   8   8
#     4  11  21  36  58  83 116 160 207 258 315 373
#     4   8  16  31  50  75 108 146 191 244 298 354
#     4  11  24  44  68  95 129 170 206 253 313 373
#     4  10  20  34  53  79 112 153 200 253 313 373
#     4  10  19  33  58  86 115 157 206 254 309 370
#     4  11  23  41  65  95 127 164 209 260 312 370
#     4  10  23  41  63  92 128 164 204 255 315 372
#
# _framework density 20.617540999999999
#
# number of rings (size 3 to 8) (size 9 to 14) (size 15 to 20)
#    0.000    1.857    1.429    3.857    0.000    3.429 
#    0.000    4.286    0.000   14.571    0.000    0.000 
#    0.000    0.000    0.000    0.000    0.000    0.000 
#
# Total GULP energy -347070.254885 kJ/mol
# GULP energy per Si atom -12395.366246 kJ/mol
# Density = 2.057061 g / cm^3
# Si number density = 20.617541 Si / 1000 Ang^3
#
#
#
# Elastic Constant Matrix: (Units=GPa)
#
#
# Indices 1 2 3 4 5 6 
#
# 1 88.9590 25.3466 55.9201 0.0000 -9.2676 0.0000
# 2 25.3466 75.3994 39.2254 0.0000 -2.8513 0.0000
# 3 55.9201 39.2254 168.6114 0.0000 -9.8924 0.0000
# 4 0.0000 0.0000 0.0000 35.9295 0.0000 4.3367
# 5 -9.2676 -2.8513 -9.8924 0.0000 26.5957 0.0000
# 6 0.0000 0.0000 0.0000 4.3367 0.0000 24.6201
#
#
#
# Elastic Compliance Matrix: (Units=1/GPa)
#
#
# Indices 1 2 3 4 5 6 
#
# 1 0.014973 -0.002759 -0.004125 0.000000 0.003387 0.000000
# 2 -0.002759 0.015600 -0.002732 0.000000 -0.000305 0.000000
# 3 -0.004125 -0.002732 0.008008 0.000000 0.001248 0.000000
# 4 0.000000 0.000000 0.000000 0.028437 0.000000 -0.005009
# 5 0.003387 -0.000305 0.001248 0.000000 0.039212 0.000000
# 6 0.000000 0.000000 0.000000 -0.005009 0.000000 0.041500
#
#
# Mechanical properties :
#
#
# Convention : Reuss Voigt Hill
#
# Bulk Modulus (GPa) = 51.68473 63.77269 57.72871
# Shear Modulus (GPa) = 28.83310 31.59424 30.21367
#
# Velocity S-wave (km/s) = 3.74367 3.91883 3.83225
# Velocity P-wave (km/s) = 6.61888 7.17459 6.90233
#
# Compressibility (1/GPa) = 0.01934807
#
# Stress axis : x y z
#
# Youngs Moduli (GPa) = 66.78513 64.10263 124.87936
#
# Poissons Ratio (x) = 0.17688 0.51516
# Poissons Ratio (y) = 0.18428 0.34116
# Poissons Ratio (z) = 0.27551 0.17512
#
# Static dielectric constant tensor:
#      x y z
#    x 4.172080 0.000000 0.781470 
#    y 0.000000 3.704520 0.000000 
#    z 0.781470 0.000000 5.590140 
# 
# 
# High freq. dielectric constant tensor:
#      x y z
#    x 1.794530 0.000000 -0.004260 
#    y 0.000000 1.797820 0.000000 
#    z -0.004260 0.000000 1.818900 
# 
# From -- ./inp_files/339043.got.cif
#   From: 2010.06.25/outbox.cif.g09.slc.cpg/sg12_170_cif.got.tgz:339043.got - 2010.06.28 00:19:55.
