data_PCOD8090802
_publ_section_title
;
Structure prediction by ZEFSAII (Michael W. Deem and Ramdas Pophale) SiO2 
 PCOD8090802
Probable space group: C 2/M
;
_chemical_formula_sum "Si O2"
_cell_formula_units_Z 56
_cell_length_a 31.227236
_cell_length_b 13.355899
_cell_length_c 9.428272
_cell_angle_alpha 90.000000
_cell_angle_beta 61.431504
_cell_angle_gamma 90.000000
_cell_volume 3453.464375
_symmetry_space_group_name_H-M "C 2/M"
_symmetry_group_IT_number 12
_symmetry_cell_setting 'monoclinic'
loop_
_space_group_symop_operation_xyz
x,y,z
-x,y,-z
-x,-y,-z
x,-y,z
1/2+x,1/2+y,z
1/2-x,1/2+y,-z
1/2-x,1/2-y,-z
1/2+x,1/2-y,z
loop_
_atom_site_type_symbol
_atom_site_label
_atom_site_fract_x
_atom_site_fract_y
_atom_site_fract_z
Si Si1 0.739391 0.783658 0.858635
Si Si2 0.640207 0.200538 0.618784
Si Si3 0.305166 0.613689 0.544261
Si Si4 0.857465 0.619000 0.073316
Si Si5 0.055618 0.381774 0.261492
Si Si6 0.260190 0.887247 0.620955
Si Si7 0.553435 0.118526 0.583115
O O1 0.784493 0.849747 0.728436
O O2 0.691087 0.851213 0.934227
O O3 0.732020 0.685073 0.773566
O O4 0.750000 0.750000 0.000000
O O5 0.649693 0.318689 0.578998
O O6 0.639697 0.176763 0.784451
O O7 0.682471 0.137496 0.473520
O O8 0.587984 0.174417 0.638021
O O9 0.323746 0.500000 0.525072
O O10 0.260617 0.626604 0.504331
O O11 0.858408 0.500000 0.097305
O O12 0.903255 0.658465 0.909450
O O13 0.057279 0.500000 0.265687
O O14 0.065875 0.343395 0.404715
O O15 0.002057 0.349191 0.292383
O O16 0.252770 0.000000 0.687546
O O17 0.560661 0.000000 0.587834
#
# Coordination Sequence:
#
# PCOD8090802 Si02
#       7
#     8   8   8   8   8   8   8
#     4  11  22  33  48  74 105 133 169 203 247 298
#     4  11  19  31  52  77  94 129 172 203 243 295
#     4  10  20  37  53  69 101 136 169 208 248 290
#     4  11  20  32  49  74 106 133 162 207 250 290
#     4   8  18  32  47  70 104 135 159 197 252 300
#     4  10  19  34  51  70  98 135 170 203 241 293
#     4   9  17  32  50  73 101 131 165 200 243 304
#
# _framework density 16.215600999999999
#
# number of rings (size 3 to 8) (size 9 to 14) (size 15 to 20)
#    0.000    2.000    2.857    3.429    4.000    1.714 
#    0.000    2.143    0.000    0.000    0.000    5.000 
#    0.000    0.000    0.000    0.000    0.000    0.000 
#
# Total GULP energy -347201.821594 kJ/mol
# GULP energy per Si atom -12400.065057 kJ/mol
# Density = 1.617869 g / cm^3
# Si number density = 16.215601 Si / 1000 Ang^3
#
#
#
# Elastic Constant Matrix: (Units=GPa)
#
#
# Indices 1 2 3 4 5 6 
#
# 1 87.0474 24.4740 40.5045 0.0000 2.1048 0.0000
# 2 24.4740 91.9434 42.5782 0.0000 0.2705 0.0000
# 3 40.5045 42.5782 108.7516 0.0000 -4.5068 0.0000
# 4 0.0000 0.0000 0.0000 19.1285 0.0000 -0.1592
# 5 2.1048 0.2705 -4.5068 0.0000 25.9092 0.0000
# 6 0.0000 0.0000 0.0000 -0.1592 0.0000 23.9997
#
#
#
# Elastic Compliance Matrix: (Units=1/GPa)
#
#
# Indices 1 2 3 4 5 6 
#
# 1 0.014188 -0.001571 -0.004750 0.000000 -0.001962 0.000000
# 2 -0.001571 0.013487 -0.004730 0.000000 -0.000836 0.000000
# 3 -0.004750 -0.004730 0.012928 0.000000 0.002684 0.000000
# 4 0.000000 0.000000 0.000000 0.052281 0.000000 0.000347
# 5 -0.001962 -0.000836 0.002684 0.000000 0.039231 0.000000
# 6 0.000000 0.000000 0.000000 0.000347 0.000000 0.041670
#
#
# Mechanical properties :
#
#
# Convention : Reuss Voigt Hill
#
# Bulk Modulus (GPa) = 54.05473 55.87286 54.96379
# Shear Modulus (GPa) = 24.74588 25.81986 25.28287
#
# Velocity S-wave (km/s) = 3.91071 3.99467 3.95292
# Velocity P-wave (km/s) = 7.33478 7.47045 7.40292
#
# Compressibility (1/GPa) = 0.01849977
#
# Stress axis : x y z
#
# Youngs Moduli (GPa) = 70.48433 74.14367 77.35315
#
# Poissons Ratio (x) = 0.11647 0.36746
# Poissons Ratio (y) = 0.11072 0.36589
# Poissons Ratio (z) = 0.33483 0.35071
#
# Static dielectric constant tensor:
#      x y z
#    x 3.018150 0.000000 -0.108120 
#    y 0.000000 3.003580 0.000000 
#    z -0.108120 0.000000 3.303160 
# 
# 
# High freq. dielectric constant tensor:
#      x y z
#    x 1.613960 0.000000 0.003760 
#    y 0.000000 1.602110 0.000000 
#    z 0.003760 0.000000 1.625260 
# 
# From -- ./inp_files/104123.got.cif
#   From: 2010.06.25/outbox.cif.g09.slc.cpg/sg12_53_cif.got.tgz:104123.got - 2010.06.28 00:19:55.
