data_PCOD8090899
_publ_section_title
;
Structure prediction by ZEFSAII (Michael W. Deem and Ramdas Pophale) SiO2 
 PCOD8090899
Probable space group: C 2/M
;
_chemical_formula_sum "Si O2"
_cell_formula_units_Z 40
_cell_length_a 28.988358
_cell_length_b 9.861864
_cell_length_c 17.014889
_cell_angle_alpha 90.000000
_cell_angle_beta 24.507789
_cell_angle_gamma 90.000000
_cell_volume 2017.754067
_symmetry_space_group_name_H-M "C 2/M"
_symmetry_group_IT_number 12
_symmetry_cell_setting 'monoclinic'
loop_
_space_group_symop_operation_xyz
x,y,z
-x,y,-z
-x,-y,-z
x,-y,z
1/2+x,1/2+y,z
1/2-x,1/2+y,-z
1/2-x,1/2-y,-z
1/2+x,1/2-y,z
loop_
_atom_site_type_symbol
_atom_site_label
_atom_site_fract_x
_atom_site_fract_y
_atom_site_fract_z
Si Si1 0.094426 0.500000 0.917914
Si Si2 0.703863 0.500000 0.923546
Si Si3 0.063451 0.500000 0.143932
Si Si4 0.748995 0.791288 0.875409
Si Si5 0.096861 0.000000 0.288939
Si Si6 0.323057 0.000000 0.577420
Si Si7 0.471397 0.500000 0.319591
Si Si8 0.783986 0.794511 0.637800
O O1 0.171366 0.368061 0.786246
O O2 0.035780 0.500000 0.093829
O O3 0.000000 0.500000 0.000000
O O4 0.731565 0.635813 0.930274
O O5 0.788006 0.500000 0.721495
O O6 0.572364 0.500000 0.098654
O O7 0.955145 0.500000 0.365426
O O8 0.130483 0.364942 0.061543
O O9 0.832054 0.863700 0.806612
O O10 0.796455 0.799840 0.712802
O O11 0.048736 0.000000 0.276908
O O12 0.000000 0.000000 0.500000
O O13 0.277130 0.141667 0.612420
O O14 0.393765 0.367747 0.432873
#
# Coordination Sequence:
#
# PCOD8090899 Si02
#       8
#     4   4   4   8   4   4   4   8
#     4   9  18  35  57  80 104 129 163 202 237 298
#     4  10  21  32  48  76 105 126 172 218 253 283
#     4   9  17  33  58  74  98 137 171 192 247 306
#     4   9  18  34  51  74  96 132 172 212 249 300
#     4  11  18  32  54  68  98 136 174 207 255 301
#     4  10  19  34  53  76 103 133 165 210 248 295
#     4  11  19  32  54  73  97 136 171 209 250 303
#     4   9  18  33  55  78  98 129 170 203 250 298
#
# _framework density 19.824021999999999
#
# number of rings (size 3 to 8) (size 9 to 14) (size 15 to 20)
#    0.000    2.400    2.000    2.400    0.000    0.800 
#    0.000    3.000    0.000    0.000    0.000    0.000 
#    0.000    0.000    0.000    0.000    0.000    0.000 
#
# Total GULP energy -247835.209664 kJ/mol
# GULP energy per Si atom -12391.760483 kJ/mol
# Density = 1.977890 g / cm^3
# Si number density = 19.824022 Si / 1000 Ang^3
#
#
#
# Elastic Constant Matrix: (Units=GPa)
#
#
# Indices 1 2 3 4 5 6 
#
# 1 72.8397 29.3843 31.7216 0.0000 -21.9763 0.0000
# 2 29.3843 208.9667 52.8336 0.0000 -17.9870 0.0000
# 3 31.7216 52.8336 145.9574 0.0000 1.0880 0.0000
# 4 0.0000 0.0000 0.0000 21.1929 0.0000 -0.6920
# 5 -21.9763 -17.9870 1.0880 0.0000 25.5327 0.0000
# 6 0.0000 0.0000 0.0000 -0.6920 0.0000 0.6372
#
#
#
# Elastic Compliance Matrix: (Units=1/GPa)
#
#
# Indices 1 2 3 4 5 6 
#
# 1 0.021462 -0.000232 -0.004719 0.000000 0.018510 0.000000
# 2 -0.000232 0.005665 -0.002029 0.000000 0.003878 0.000000
# 3 -0.004719 -0.002029 0.008655 0.000000 -0.005860 0.000000
# 4 0.000000 0.000000 0.000000 0.048920 0.000000 0.053126
# 5 0.018510 0.003878 -0.005860 0.000000 0.058079 0.000000
# 6 0.000000 0.000000 0.000000 0.053126 0.000000 1.627123
#
#
# Mechanical properties :
#
#
# Convention : Reuss Voigt Hill
#
# Bulk Modulus (GPa) = 45.82293 72.84921 59.33607
# Shear Modulus (GPa) = 2.79152 30.39417 16.59285
#
# Velocity S-wave (km/s) = 1.18794 3.91986 2.89625
# Velocity P-wave (km/s) = 5.00466 7.57065 6.41722
#
# Compressibility (1/GPa) = 0.02182313
#
# Stress axis : x y z
#
# Youngs Moduli (GPa) = 46.59423 176.52767 115.54011
#
# Poissons Ratio (x) = 0.04088 0.54518
# Poissons Ratio (y) = 0.01079 0.23445
# Poissons Ratio (z) = 0.21986 0.35820
#
# Static dielectric constant tensor:
#      x y z
#    x 2.798880 0.000000 -0.110890 
#    y 0.000000 4.230820 0.000000 
#    z -0.110890 0.000000 3.580380 
# 
# 
# High freq. dielectric constant tensor:
#      x y z
#    x 1.705130 0.000000 0.007760 
#    y 0.000000 1.795250 0.000000 
#    z 0.007760 0.000000 1.791260 
# 
# From -- ./inp_files/296250.got.cif
#   From: 2010.06.25/outbox.cif.g09.slc.cpg/sg12_149_cif.got.tgz:296250.got - 2010.06.28 00:19:55.
