data_PCOD8090539
_publ_section_title
;
Structure prediction by ZEFSAII (Michael W. Deem and Ramdas Pophale) SiO2 
 PCOD8090539
Probable space group: C 2/M
;
_chemical_formula_sum "Si O2"
_cell_formula_units_Z 64
_cell_length_a 30.555534
_cell_length_b 9.029961
_cell_length_c 16.255502
_cell_angle_alpha 90.000000
_cell_angle_beta 132.592064
_cell_angle_gamma 90.000000
_cell_volume 3301.919980
_symmetry_space_group_name_H-M "C 2/M"
_symmetry_group_IT_number 12
_symmetry_cell_setting 'monoclinic'
loop_
_space_group_symop_operation_xyz
x,y,z
-x,y,-z
-x,-y,-z
x,-y,z
1/2+x,1/2+y,z
1/2-x,1/2+y,-z
1/2-x,1/2-y,-z
1/2+x,1/2-y,z
loop_
_atom_site_type_symbol
_atom_site_label
_atom_site_fract_x
_atom_site_fract_y
_atom_site_fract_z
Si Si1 0.417301 0.332520 0.715999
Si Si2 0.517130 0.825437 0.934217
Si Si3 0.289364 0.675105 0.619320
Si Si4 0.741691 0.825067 0.248682
Si Si5 0.134201 0.673726 0.995436
Si Si6 0.957580 0.169347 0.591395
Si Si7 0.868517 0.175730 0.345844
Si Si8 0.909784 0.824446 0.220557
O O1 0.434397 0.500000 0.762256
O O2 0.469352 0.223265 0.807175
O O3 0.356854 0.284098 0.682656
O O4 0.412834 0.317488 0.611761
O O5 0.581887 0.769550 0.989197
O O6 0.516254 0.000000 0.939797
O O7 0.500000 0.753132 0.000000
O O8 0.278337 0.500000 0.604341
O O9 0.250000 0.750000 0.500000
O O10 0.275174 0.739689 0.690240
O O11 0.805385 0.766272 0.298783
O O12 0.740971 0.000000 0.266678
O O13 0.695807 0.784934 0.117668
O O14 0.128842 0.500000 0.971916
O O15 0.128837 0.754766 0.901519
O O16 0.922411 0.242857 0.469897
O O17 0.022542 0.240551 0.691606
O O18 0.971006 0.000000 0.585749
O O19 0.877613 0.224945 0.263655
O O20 0.869308 0.000000 0.354890
O O21 0.909721 0.000000 0.207940
#
# Coordination Sequence:
#
# PCOD8090539 Si02
#       8
#     8   8   8   8   8   8   8   8
#     4  10  20  34  54  81 108 139 179 226 274 322
#     4  10  20  34  52  75 104 141 184 223 268 332
#     4  11  23  38  58  85 116 149 188 231 277 332
#     4  10  21  39  59  79 111 153 194 234 278 331
#     4  10  21  36  54  78 113 152 186 228 285 340
#     4   9  16  30  53  82 111 135 173 230 285 330
#     4   9  18  33  56  83 107 141 189 237 282 333
#     4  10  19  33  57  84 109 142 186 234 285 337
#
# _framework density 19.382663000000001
#
# number of rings (size 3 to 8) (size 9 to 14) (size 15 to 20)
#    0.000    2.125    1.250    2.250    0.000    6.750 
#    0.000    0.625    0.000    2.250    0.000    0.000 
#    0.000    0.000    0.000    0.000    0.000    0.000 
#
# Total GULP energy -396768.949437 kJ/mol
# GULP energy per Si atom -12399.029670 kJ/mol
# Density = 1.933855 g / cm^3
# Si number density = 19.382663 Si / 1000 Ang^3
#
#
#
# Elastic Constant Matrix: (Units=GPa)
#
#
# Indices 1 2 3 4 5 6 
#
# 1 131.7041 30.6403 56.4778 0.0000 -3.7479 0.0000
# 2 30.6403 22.6898 32.6452 0.0000 -4.5209 0.0000
# 3 56.4778 32.6452 143.1482 0.0000 -4.1017 0.0000
# 4 0.0000 0.0000 0.0000 30.0887 0.0000 -5.1111
# 5 -3.7479 -4.5209 -4.1017 0.0000 34.4220 0.0000
# 6 0.0000 0.0000 0.0000 -5.1111 0.0000 22.0147
#
#
#
# Elastic Compliance Matrix: (Units=1/GPa)
#
#
# Indices 1 2 3 4 5 6 
#
# 1 0.011286 -0.013311 -0.001437 0.000000 -0.000691 0.000000
# 2 -0.013311 0.082947 -0.013440 0.000000 0.007843 0.000000
# 3 -0.001437 -0.013440 0.010599 0.000000 -0.000659 0.000000
# 4 0.000000 0.000000 0.000000 0.034600 0.000000 0.008033
# 5 -0.000691 0.007843 -0.000659 0.000000 0.029928 0.000000
# 6 0.000000 0.000000 0.000000 0.008033 0.000000 0.047289
#
#
# Mechanical properties :
#
#
# Convention : Reuss Voigt Hill
#
# Bulk Modulus (GPa) = 20.63705 59.67433 40.15569
# Shear Modulus (GPa) = 17.29054 29.15699 23.22377
#
# Velocity S-wave (km/s) = 2.98998 3.88272 3.46522
# Velocity P-wave (km/s) = 4.75292 7.13827 6.06404
#
# Compressibility (1/GPa) = 0.04845654
#
# Stress axis : x y z
#
# Youngs Moduli (GPa) = 88.60510 12.05592 94.34971
#
# Poissons Ratio (x) = 0.16047 0.13559
# Poissons Ratio (y) = 1.17939 1.26805
# Poissons Ratio (z) = 0.12733 0.16203
#
# Static dielectric constant tensor:
#      x y z
#    x 3.820440 0.000000 0.008030 
#    y 0.000000 3.206510 0.000000 
#    z 0.008030 0.000000 3.642980 
# 
# 
# High freq. dielectric constant tensor:
#      x y z
#    x 1.768450 0.000000 -0.002900 
#    y 0.000000 1.713950 0.000000 
#    z -0.002900 0.000000 1.765550 
# 
# From -- ./inp_files/250023.got.cif
#   From: 2010.06.25/outbox.cif.g09.slc.cpg/sg12_126_cif.got.tgz:250023.got - 2010.06.28 00:19:55.
