data_PCOD8090849
_publ_section_title
;
Structure prediction by ZEFSAII (Michael W. Deem and Ramdas Pophale) SiO2 
 PCOD8090849
Probable space group: C 2/M
;
_chemical_formula_sum "Si O2"
_cell_formula_units_Z 48
_cell_length_a 8.829069
_cell_length_b 26.966057
_cell_length_c 21.637300
_cell_angle_alpha 90.000000
_cell_angle_beta 144.695964
_cell_angle_gamma 90.000000
_cell_volume 2977.141505
_symmetry_space_group_name_H-M "C 2/M"
_symmetry_group_IT_number 12
_symmetry_cell_setting 'monoclinic'
loop_
_space_group_symop_operation_xyz
x,y,z
-x,y,-z
-x,-y,-z
x,-y,z
1/2+x,1/2+y,z
1/2-x,1/2+y,-z
1/2-x,1/2-y,-z
1/2+x,1/2-y,z
loop_
_atom_site_type_symbol
_atom_site_label
_atom_site_fract_x
_atom_site_fract_y
_atom_site_fract_z
Si Si1 0.431275 0.302044 0.376721
Si Si2 0.677586 0.303336 0.999999
Si Si3 0.279635 0.144404 0.805522
Si Si4 0.744677 0.443866 0.872339
Si Si5 0.442454 0.644405 0.805522
Si Si6 0.424390 0.197956 0.623278
O O1 0.371975 0.346209 0.309052
O O2 0.429765 0.250000 0.339883
O O3 0.209768 0.300024 0.354884
O O4 0.715356 0.312931 0.500000
O O5 0.516387 0.332634 0.895214
O O6 0.500000 0.297299 0.000000
O O7 0.750000 0.250000 0.000000
O O8 0.935526 0.332635 0.104783
O O9 0.303500 0.085075 0.827196
O O10 0.118806 0.169018 0.809403
O O11 0.659334 0.500000 0.829667
O O12 0.505286 0.414925 0.827197
O O13 0.000000 0.441677 0.000000
O O14 0.135767 0.653791 0.690947
#
# Coordination Sequence:
#
# PCOD8090849 Si02
#       6
#     8   8   8   8   8   8
#     4  10  20  33  50  75 109 148 182 212 253 313
#     4  12  22  32  48  73 111 143 171 204 260 321
#     4  10  19  34  52  77 102 131 178 216 267 306
#     4   9  18  36  61  79 103 133 180 229 271 320
#     4  10  19  34  52  77 102 131 178 216 267 306
#     4  10  20  33  50  75 109 148 182 212 253 313
#
# _framework density 16.122847
#
# number of rings (size 3 to 8) (size 9 to 14) (size 15 to 20)
#    1.000    0.833    1.667    4.500    0.000    2.000 
#    0.000    0.000    0.000    7.000    0.000    2.333 
#    0.000    0.000    0.000    0.000    0.000    0.000 
#
# Total GULP energy -297485.439832 kJ/mol
# GULP energy per Si atom -12395.226660 kJ/mol
# Density = 1.608615 g / cm^3
# Si number density = 16.122847 Si / 1000 Ang^3
#
#
#
# Elastic Constant Matrix: (Units=GPa)
#
#
# Indices 1 2 3 4 5 6 
#
# 1 114.4647 49.3879 45.8969 -0.0002 0.1180 -0.0001
# 2 49.3879 136.7370 55.7245 0.0000 0.4644 0.0000
# 3 45.8969 55.7245 93.7976 -0.0003 -1.6290 -0.0001
# 4 -0.0002 0.0000 -0.0003 20.1997 -0.0002 -0.1535
# 5 0.1180 0.4644 -1.6290 -0.0002 34.9577 -0.0001
# 6 -0.0001 0.0000 -0.0001 -0.1535 -0.0001 22.2967
#
#
#
# Elastic Compliance Matrix: (Units=1/GPa)
#
#
# Indices 1 2 3 4 5 6 
#
# 1 0.011458 -0.002443 -0.004159 0.000000 -0.000200 0.000000
# 2 -0.002443 0.010176 -0.004856 0.000000 -0.000353 0.000000
# 3 -0.004159 -0.004856 0.015595 0.000000 0.000805 0.000000
# 4 0.000000 0.000000 0.000000 0.049508 0.000000 0.000341
# 5 -0.000200 -0.000353 0.000805 0.000000 0.028649 0.000000
# 6 0.000000 0.000000 0.000000 0.000341 0.000000 0.044852
#
#
# Mechanical properties :
#
#
# Convention : Reuss Voigt Hill
#
# Bulk Modulus (GPa) = 69.86478 71.89086 70.87782
# Shear Modulus (GPa) = 26.60626 28.42349 27.51487
#
# Velocity S-wave (km/s) = 4.06670 4.20328 4.13555
# Velocity P-wave (km/s) = 8.09182 8.26093 8.17681
#
# Compressibility (1/GPa) = 0.01431336
#
# Stress axis : x y z
#
# Youngs Moduli (GPa) = 87.27405 98.27096 64.12229
#
# Poissons Ratio (x) = 0.24008 0.26667
# Poissons Ratio (y) = 0.21322 0.31139
# Poissons Ratio (z) = 0.36295 0.47722
#
# Static dielectric constant tensor:
#      x y z
#    x 3.040470 0.000000 0.006990 
#    y 0.000000 2.832140 0.000000 
#    z 0.006990 0.000000 3.135930 
# 
# 
# High freq. dielectric constant tensor:
#      x y z
#    x 1.623870 0.000000 0.000310 
#    y 0.000000 1.588060 0.000000 
#    z 0.000310 0.000000 1.628050 
# 
# From -- ./inp_files/302582.got.cif
#   From: 2010.06.25/outbox.cif.g09.slc.cpg/sg12_152_cif.got.tgz:302582.got - 2010.06.28 00:19:55.
