data_PCOD8090495
_publ_section_title
;
Structure prediction by ZEFSAII (Michael W. Deem and Ramdas Pophale) SiO2 
 PCOD8090495
Probable space group: C 2/M
;
_chemical_formula_sum "Si O2"
_cell_formula_units_Z 56
_cell_length_a 17.972622
_cell_length_b 20.031218
_cell_length_c 15.086162
_cell_angle_alpha 90.000000
_cell_angle_beta 148.707307
_cell_angle_gamma 90.000000
_cell_volume 2821.031830
_symmetry_space_group_name_H-M "C 2/M"
_symmetry_group_IT_number 12
_symmetry_cell_setting 'monoclinic'
loop_
_space_group_symop_operation_xyz
x,y,z
-x,y,-z
-x,-y,-z
x,-y,z
1/2+x,1/2+y,z
1/2-x,1/2+y,-z
1/2-x,1/2-y,-z
1/2+x,1/2-y,z
loop_
_atom_site_type_symbol
_atom_site_label
_atom_site_fract_x
_atom_site_fract_y
_atom_site_fract_z
Si Si1 0.961119 0.681476 0.689682
Si Si2 0.700623 0.922467 0.890888
Si Si3 0.905989 0.730765 0.818862
Si Si4 0.574293 0.299155 0.482316
Si Si5 0.657098 0.576215 0.139218
Si Si6 0.480079 0.424242 0.278680
Si Si7 0.823986 0.869413 0.668827
O O1 0.988234 0.698413 0.819333
O O2 0.982298 0.745425 0.647430
O O3 0.796967 0.657942 0.518989
O O4 0.060614 0.620114 0.766379
O O5 0.766117 0.890587 0.866959
O O6 0.655648 0.000000 0.834408
O O7 0.812891 0.913993 0.085464
O O8 0.745019 0.703152 0.668191
O O9 0.905452 0.808983 0.799541
O O10 0.000000 0.713128 0.000000
O O11 0.500000 0.282958 0.500000
O O12 0.528390 0.372912 0.403549
O O13 0.642507 0.500000 0.097535
O O14 0.745627 0.587628 0.320875
O O15 0.500000 0.606296 0.000000
O O16 0.507215 0.500000 0.339961
O O17 0.566779 0.414249 0.275574
#
# Coordination Sequence:
#
# PCOD8090495 Si02
#       7
#     8   8   8   8   8   8   8
#     4  11  24  43  63  91 133 162 205 261 317 374
#     4  10  24  39  60  96 131 165 209 259 312 375
#     4  11  24  42  65  95 125 161 207 265 314 373
#     4  11  25  43  65  96 126 164 215 260 308 369
#     4  10  19  33  56  90 126 161 204 249 303 376
#     4  11  22  41  65  89 125 172 215 257 307 367
#     4  11  20  38  63  90 123 166 208 249 313 381
#
# _framework density 19.850892999999999
#
# number of rings (size 3 to 8) (size 9 to 14) (size 15 to 20)
#    0.000    1.286    4.286    1.714    6.000    2.000 
#    0.000    1.429    0.000    0.857    0.000    0.000 
#    0.000    0.000    0.000    0.000    0.000    0.000 
#
# Total GULP energy -347127.323773 kJ/mol
# GULP energy per Si atom -12397.404420 kJ/mol
# Density = 1.980571 g / cm^3
# Si number density = 19.850893 Si / 1000 Ang^3
#
#
#
# Elastic Constant Matrix: (Units=GPa)
#
#
# Indices 1 2 3 4 5 6 
#
# 1 126.6756 37.3777 42.2750 0.0000 -14.2720 0.0000
# 2 37.3777 98.9455 50.3156 0.0000 1.9072 0.0000
# 3 42.2750 50.3156 89.2123 0.0000 -19.9798 0.0000
# 4 0.0000 0.0000 0.0000 30.1744 0.0000 0.2616
# 5 -14.2720 1.9072 -19.9798 0.0000 26.6634 0.0000
# 6 0.0000 0.0000 0.0000 0.2616 0.0000 30.0610
#
#
#
# Elastic Compliance Matrix: (Units=1/GPa)
#
#
# Indices 1 2 3 4 5 6 
#
# 1 0.009869 -0.002578 -0.002402 0.000000 0.003667 0.000000
# 2 -0.002578 0.016611 -0.010481 0.000000 -0.010422 0.000000
# 3 -0.002402 -0.010481 0.021797 0.000000 0.015797 0.000000
# 4 0.000000 0.000000 0.000000 0.033143 0.000000 -0.000288
# 5 0.003667 -0.010422 0.015797 0.000000 0.052050 0.000000
# 6 0.000000 0.000000 0.000000 -0.000288 0.000000 0.033268
#
#
# Mechanical properties :
#
#
# Convention : Reuss Voigt Hill
#
# Bulk Modulus (GPa) = 57.61692 63.86333 60.74012
# Shear Modulus (GPa) = 24.57666 29.70410 27.14038
#
# Velocity S-wave (km/s) = 3.52243 3.87248 3.70159
# Velocity P-wave (km/s) = 6.75509 7.22746 6.99526
#
# Compressibility (1/GPa) = 0.01735601
#
# Stress axis : x y z
#
# Youngs Moduli (GPa) = 101.32252 60.20086 45.87891
#
# Poissons Ratio (x) = 0.15518 0.11019
# Poissons Ratio (y) = 0.26118 0.48086
# Poissons Ratio (z) = 0.24334 0.63097
#
# Static dielectric constant tensor:
#      x y z
#    x 3.695510 0.000000 -0.171720 
#    y 0.000000 3.532240 0.000000 
#    z -0.171720 0.000000 3.603730 
# 
# 
# High freq. dielectric constant tensor:
#      x y z
#    x 1.775070 0.000000 -0.006810 
#    y 0.000000 1.772610 0.000000 
#    z -0.006810 0.000000 1.768220 
# 
# From -- ./inp_files/227561.got.cif
#   From: 2010.06.25/outbox.cif.g09.slc.cpg/sg12_114_cif.got.tgz:227561.got - 2010.06.28 00:19:55.
