data_PCOD8090034
_publ_section_title
;
Structure prediction by ZEFSAII (Michael W. Deem and Ramdas Pophale) SiO2 
 PCOD8090034
Probable space group: C 2/M
;
_chemical_formula_sum "Si O2"
_cell_formula_units_Z 56
_cell_length_a 18.763493
_cell_length_b 9.303322
_cell_length_c 20.330484
_cell_angle_alpha 90.000000
_cell_angle_beta 60.020154
_cell_angle_gamma 90.000000
_cell_volume 3074.101867
_symmetry_space_group_name_H-M "C 2/M"
_symmetry_group_IT_number 12
_symmetry_cell_setting 'monoclinic'
loop_
_space_group_symop_operation_xyz
x,y,z
-x,y,-z
-x,-y,-z
x,-y,z
1/2+x,1/2+y,z
1/2-x,1/2+y,-z
1/2-x,1/2-y,-z
1/2+x,1/2-y,z
loop_
_atom_site_type_symbol
_atom_site_label
_atom_site_fract_x
_atom_site_fract_y
_atom_site_fract_z
Si Si1 0.715666 0.336916 0.576213
Si Si2 0.620909 0.836496 0.238572
Si Si3 0.764256 0.339446 0.695053
Si Si4 0.612570 0.843623 0.787512
Si Si5 0.589825 0.840321 0.948065
Si Si6 0.960592 0.169379 0.285683
Si Si7 0.241438 0.171478 0.933805
O O1 0.713161 0.500000 0.554016
O O2 0.750000 0.250000 0.500000
O O3 0.777222 0.316697 0.610502
O O4 0.622586 0.286808 0.636753
O O5 0.655687 0.823630 0.296748
O O6 0.542279 0.734136 0.279730
O O7 0.684801 0.788733 0.151365
O O8 0.593834 0.000000 0.236711
O O9 0.726198 0.500000 0.722408
O O10 0.703317 0.219293 0.747764
O O11 0.588070 0.864441 0.872368
O O12 0.547853 0.737194 0.782774
O O13 0.612546 0.000000 0.751995
O O14 0.657053 0.727276 0.941342
O O15 0.601598 0.000000 0.975921
O O16 0.500000 0.773274 0.000000
O O17 0.970805 0.000000 0.275497
O O18 0.236538 0.000000 0.946185
O O19 0.250000 0.250000 0.000000
#
# Coordination Sequence:
#
# PCOD8090034 Si02
#       7
#     8   8   8   8   8   8   8
#     4   9  19  36  59  85 114 146 180 225 274 329
#     4  10  21  38  59  81 111 149 190 233 279 333
#     4   9  18  36  58  81 110 144 184 228 274 326
#     4  10  19  33  55  80 106 142 187 232 278 328
#     4  10  22  38  55  78 110 144 185 236 284 334
#     4  10  22  37  56  83 115 147 185 229 276 329
#     4  11  24  40  58  81 112 151 192 237 288 336
#
# _framework density 18.216704
#
# number of rings (size 3 to 8) (size 9 to 14) (size 15 to 20)
#    0.000    2.143    1.429    2.143    2.000    5.429 
#    0.000    0.714    0.000    4.286    0.000    0.000 
#    0.000    0.000    0.000    0.000    0.000    0.000 
#
# Total GULP energy -346951.790274 kJ/mol
# GULP energy per Si atom -12391.135367 kJ/mol
# Density = 1.817524 g / cm^3
# Si number density = 18.216704 Si / 1000 Ang^3
#
#
#
# Elastic Constant Matrix: (Units=GPa)
#
#
# Indices 1 2 3 4 5 6 
#
# 1 122.9745 66.9677 59.0380 0.0000 0.4400 0.0000
# 2 66.9677 106.9440 54.5623 0.0001 -2.0247 -0.0002
# 3 59.0380 54.5623 95.7761 0.0000 9.8801 0.0000
# 4 0.0000 0.0001 0.0000 29.6800 0.0000 -0.3566
# 5 0.4400 -2.0247 9.8801 0.0000 22.2166 0.0000
# 6 0.0000 -0.0002 0.0000 -0.3566 0.0000 39.1457
#
#
#
# Elastic Compliance Matrix: (Units=1/GPa)
#
#
# Indices 1 2 3 4 5 6 
#
# 1 0.013951 -0.005973 -0.005358 0.000000 0.001562 0.000000
# 2 -0.005973 0.016237 -0.006009 0.000000 0.004270 0.000000
# 3 -0.005358 -0.006009 0.018040 0.000000 -0.008464 0.000000
# 4 0.000000 0.000000 0.000000 0.033696 0.000000 0.000307
# 5 0.001562 0.004270 -0.008464 0.000000 0.049134 0.000000
# 6 0.000000 0.000000 0.000000 0.000307 0.000000 0.025548
#
#
# Mechanical properties :
#
#
# Convention : Reuss Voigt Hill
#
# Bulk Modulus (GPa) = 73.80743 76.31452 75.06098
# Shear Modulus (GPa) = 25.53570 27.88356 26.70963
#
# Velocity S-wave (km/s) = 3.74809 3.91661 3.83327
# Velocity P-wave (km/s) = 7.70293 7.90169 7.80294
#
# Compressibility (1/GPa) = 0.01354877
#
# Stress axis : x y z
#
# Youngs Moduli (GPa) = 71.67851 61.58600 55.43111
#
# Poissons Ratio (x) = 0.36784 0.29702
# Poissons Ratio (y) = 0.42812 0.33309
# Poissons Ratio (z) = 0.38407 0.37007
#
# Static dielectric constant tensor:
#      x y z
#    x 3.308220 0.000050 0.154810 
#    y 0.000050 42.541300 0.000000 
#    z 0.154810 0.000000 3.250080 
# 
# 
# High freq. dielectric constant tensor:
#      x y z
#    x 1.706960 0.000000 0.010670 
#    y 0.000000 1.717340 0.000000 
#    z 0.010670 0.000000 1.690460 
# 
# From -- ./inp_files/313690.got.cif
#   From: 2010.06.25/outbox.cif.g09.slc.cpg/sg12_157_cif.got.tgz:313690.got - 2010.06.28 00:19:55.
