data_PCOD8090037
_publ_section_title
;
Structure prediction by ZEFSAII (Michael W. Deem and Ramdas Pophale) SiO2 
 PCOD8090037
Probable space group: C 2/M
;
_chemical_formula_sum "Si O2"
_cell_formula_units_Z 64
_cell_length_a 24.532023
_cell_length_b 12.164063
_cell_length_c 11.888405
_cell_angle_alpha 90.000000
_cell_angle_beta 79.116577
_cell_angle_gamma 90.000000
_cell_volume 3483.798448
_symmetry_space_group_name_H-M "C 2/M"
_symmetry_group_IT_number 12
_symmetry_cell_setting 'monoclinic'
loop_
_space_group_symop_operation_xyz
x,y,z
-x,y,-z
-x,-y,-z
x,-y,z
1/2+x,1/2+y,z
1/2-x,1/2+y,-z
1/2-x,1/2-y,-z
1/2+x,1/2-y,z
loop_
_atom_site_type_symbol
_atom_site_label
_atom_site_fract_x
_atom_site_fract_y
_atom_site_fract_z
Si Si1 0.457112 0.806206 0.684034
Si Si2 0.949743 0.626358 0.944194
Si Si3 0.873847 0.873341 0.678689
Si Si4 0.324339 0.869744 0.011582
Si Si5 0.270473 0.738362 0.830718
Si Si6 0.253930 0.627030 0.362595
Si Si7 0.931926 0.374961 0.455378
Si Si8 0.663368 0.731848 0.523560
O O1 0.457149 0.862270 0.806496
O O2 0.427006 0.689028 0.710820
O O3 0.424764 0.871542 0.595439
O O4 0.519286 0.798022 0.612256
O O5 0.951054 0.500000 0.974809
O O6 0.888376 0.669215 0.005656
O O7 0.000000 0.682066 0.000000
O O8 0.815870 0.839118 0.756247
O O9 0.870023 0.847777 0.547777
O O10 0.884991 0.000000 0.696961
O O11 0.283764 0.839162 0.130590
O O12 0.321645 0.000000 0.985387
O O13 0.299104 0.794567 0.924639
O O14 0.250324 0.842088 0.765627
O O15 0.239571 0.500000 0.386844
O O16 0.315584 0.655459 0.383177
O O17 0.212713 0.704068 0.445727
O O18 0.942791 0.500000 0.413541
O O19 0.877522 0.327453 0.416106
#
# Coordination Sequence:
#
# PCOD8090037 Si02
#       8
#     8   8   8   8   8   8   8   8
#     4  10  19  34  52  79 105 136 178 225 265 331
#     4  10  20  34  54  79 108 141 171 215 277 331
#     4  10  19  34  54  76 105 144 177 220 270 314
#     4  10  20  35  54  80 108 135 176 228 274 321
#     4  10  20  34  54  80 105 138 184 224 267 325
#     4  10  19  34  53  76 110 147 178 217 267 321
#     4  10  19  33  55  80 107 137 176 227 277 317
#     4   9  20  33  50  80 110 140 179 218 263 328
#
# _framework density 18.370753000000001
#
# number of rings (size 3 to 8) (size 9 to 14) (size 15 to 20)
#    0.000    2.125    1.250    3.000    0.000    1.000 
#    0.000    8.750    0.000    0.375    0.000    0.000 
#    0.000    0.000    0.000    0.000    0.000    0.000 
#
# Total GULP energy -396441.259432 kJ/mol
# GULP energy per Si atom -12388.789357 kJ/mol
# Density = 1.832894 g / cm^3
# Si number density = 18.370753 Si / 1000 Ang^3
#
#
#
# Elastic Constant Matrix: (Units=GPa)
#
#
# Indices 1 2 3 4 5 6 
#
# 1 105.4989 23.4205 36.5634 0.0000 -6.3234 0.0000
# 2 23.4205 74.4467 16.1872 0.0000 -2.1885 0.0000
# 3 36.5634 16.1872 52.2953 0.0000 -8.2743 0.0000
# 4 0.0000 0.0000 0.0000 19.9389 0.0000 0.0573
# 5 -6.3234 -2.1885 -8.2743 0.0000 22.8610 0.0000
# 6 0.0000 0.0000 0.0000 0.0573 0.0000 24.9296
#
#
#
# Elastic Compliance Matrix: (Units=1/GPa)
#
#
# Indices 1 2 3 4 5 6 
#
# 1 0.012852 -0.002242 -0.008235 0.000000 0.000360 0.000000
# 2 -0.002242 0.014794 -0.003061 0.000000 -0.000312 0.000000
# 3 -0.008235 -0.003061 0.026965 0.000000 0.007189 0.000000
# 4 0.000000 0.000000 0.000000 0.050153 0.000000 -0.000115
# 5 0.000360 -0.000312 0.007189 0.000000 0.046414 0.000000
# 6 0.000000 0.000000 0.000000 -0.000115 0.000000 0.040113
#
#
# Mechanical properties :
#
#
# Convention : Reuss Voigt Hill
#
# Bulk Modulus (GPa) = 36.31752 42.73147 39.52450
# Shear Modulus (GPa) = 21.97356 23.95055 22.96205
#
# Velocity S-wave (km/s) = 3.46224 3.61464 3.53926
# Velocity P-wave (km/s) = 5.98289 6.38216 6.18575
#
# Compressibility (1/GPa) = 0.02753492
#
# Stress axis : x y z
#
# Youngs Moduli (GPa) = 77.80826 67.59420 37.08556
#
# Poissons Ratio (x) = 0.15155 0.30540
# Poissons Ratio (y) = 0.17445 0.11352
# Poissons Ratio (z) = 0.64074 0.20691
#
# Static dielectric constant tensor:
#      x y z
#    x 3.818510 0.000000 0.016130 
#    y 0.000000 3.192500 0.000000 
#    z 0.016130 0.000000 3.437960 
# 
# 
# High freq. dielectric constant tensor:
#      x y z
#    x 1.723880 0.000000 -0.001040 
#    y 0.000000 1.692710 0.000000 
#    z -0.001040 0.000000 1.697190 
# 
# From -- ./inp_files/174591.got.cif
#   From: 2010.06.25/outbox.cif.g09.slc.cpg/sg12_88_cif.got.tgz:174591.got - 2010.06.28 00:19:55.
