data_PCOD8090411
_publ_section_title
;
Structure prediction by ZEFSAII (Michael W. Deem and Ramdas Pophale) SiO2 
 PCOD8090411
Probable space group: C 2/M
;
_chemical_formula_sum "Si O2"
_cell_formula_units_Z 56
_cell_length_a 28.040571
_cell_length_b 10.309496
_cell_length_c 10.995630
_cell_angle_alpha 90.000000
_cell_angle_beta 115.351590
_cell_angle_gamma 90.000000
_cell_volume 2872.548897
_symmetry_space_group_name_H-M "C 2/M"
_symmetry_group_IT_number 12
_symmetry_cell_setting 'monoclinic'
loop_
_space_group_symop_operation_xyz
x,y,z
-x,y,-z
-x,-y,-z
x,-y,z
1/2+x,1/2+y,z
1/2-x,1/2+y,-z
1/2-x,1/2-y,-z
1/2+x,1/2-y,z
loop_
_atom_site_type_symbol
_atom_site_label
_atom_site_fract_x
_atom_site_fract_y
_atom_site_fract_z
Si Si1 0.478261 0.850542 0.610050
Si Si2 0.769957 0.746736 0.823593
Si Si3 0.395988 0.647789 0.617659
Si Si4 0.379717 0.647975 0.881450
Si Si5 0.723623 0.640732 0.549753
Si Si6 0.079643 0.348383 0.878050
Si Si7 0.683613 0.148499 0.877677
O O1 0.500000 0.821081 0.500000
O O2 0.431585 0.751362 0.586573
O O3 0.522541 0.824417 0.760001
O O4 0.458417 0.000000 0.595859
O O5 0.816119 0.838233 0.820454
O O6 0.754921 0.635237 0.711707
O O7 0.713162 0.814966 0.785408
O O8 0.787601 0.696568 0.971251
O O9 0.415168 0.500000 0.612840
O O10 0.397086 0.675159 0.762771
O O11 0.337934 0.669496 0.499867
O O12 0.394158 0.500000 0.936133
O O13 0.411058 0.753095 0.997193
O O14 0.730654 0.500000 0.494517
O O15 0.750000 0.750000 0.500000
O O16 0.086311 0.500000 0.926003
O O17 0.121989 0.309977 0.818296
O O18 0.687463 0.000000 0.893357
#
# Coordination Sequence:
#
# PCOD8090411 Si02
#       7
#     8   8   8   8   8   8   8
#     4  10  23  43  64  86 115 150 197 246 293 351
#     4  10  19  33  56  83 119 157 191 236 282 344
#     4  10  23  41  59  86 121 153 194 242 294 350
#     4  10  20  37  59  87 120 152 192 239 289 350
#     4  11  23  39  59  87 122 159 197 237 285 348
#     4   9  20  38  59  86 116 149 196 247 290 342
#     4   9  18  32  54  83 114 151 191 234 286 339
#
# _framework density 19.494880999999999
#
# number of rings (size 3 to 8) (size 9 to 14) (size 15 to 20)
#    0.000    2.143    1.429    0.857    2.000    3.714 
#    0.000    3.571    0.000    0.000    0.000    0.000 
#    0.000    0.000    0.000    0.000    0.000    0.000 
#
# Total GULP energy -346910.012085 kJ/mol
# GULP energy per Si atom -12389.643289 kJ/mol
# Density = 1.945051 g / cm^3
# Si number density = 19.494881 Si / 1000 Ang^3
#
#
#
# Elastic Constant Matrix: (Units=GPa)
#
#
# Indices 1 2 3 4 5 6 
#
# 1 104.3501 73.0748 32.1236 0.0000 -6.3168 0.0000
# 2 73.0748 149.6905 34.9046 0.0000 -5.6308 0.0000
# 3 32.1236 34.9046 82.7834 0.0000 5.6489 0.0000
# 4 0.0000 0.0000 0.0000 25.1694 0.0000 -2.8129
# 5 -6.3168 -5.6308 5.6489 0.0000 28.5100 0.0000
# 6 0.0000 0.0000 0.0000 -2.8129 0.0000 34.1247
#
#
#
# Elastic Compliance Matrix: (Units=1/GPa)
#
#
# Indices 1 2 3 4 5 6 
#
# 1 0.015448 -0.006648 -0.003381 0.000000 0.002780 0.000000
# 2 -0.006648 0.010398 -0.001869 0.000000 0.000951 0.000000
# 3 -0.003381 -0.001869 0.014451 0.000000 -0.003982 0.000000
# 4 0.000000 0.000000 0.000000 0.040100 0.000000 0.003305
# 5 0.002780 0.000951 -0.003982 0.000000 0.036668 0.000000
# 6 0.000000 0.000000 0.000000 0.003305 0.000000 0.029577
#
#
# Mechanical properties :
#
#
# Convention : Reuss Voigt Hill
#
# Bulk Modulus (GPa) = 60.60513 68.55891 64.58202
# Shear Modulus (GPa) = 28.41900 30.67554 29.54727
#
# Velocity S-wave (km/s) = 3.82221 3.97106 3.89735
# Velocity P-wave (km/s) = 7.11578 7.50132 7.31109
#
# Compressibility (1/GPa) = 0.01650025
#
# Stress axis : x y z
#
# Youngs Moduli (GPa) = 64.73368 96.17634 69.19730
#
# Poissons Ratio (x) = 0.63941 0.23395
# Poissons Ratio (y) = 0.43037 0.12933
# Poissons Ratio (z) = 0.21886 0.17976
#
# Static dielectric constant tensor:
#      x y z
#    x 3.491720 0.000000 0.316710 
#    y 0.000000 3.674850 0.000000 
#    z 0.316710 0.000000 3.198280 
# 
# 
# High freq. dielectric constant tensor:
#      x y z
#    x 1.759520 0.000000 0.001980 
#    y 0.000000 1.760400 0.000000 
#    z 0.001980 0.000000 1.758120 
# 
# From -- ./inp_files/181077.got.cif
#   From: 2010.06.25/outbox.cif.g09.slc.cpg/sg12_91_cif.got.tgz:181077.got - 2010.06.28 00:19:55.
