data_PCOD8090557
_publ_section_title
;
Structure prediction by ZEFSAII (Michael W. Deem and Ramdas Pophale) SiO2 
 PCOD8090557
Probable space group: C 2/M
;
_chemical_formula_sum "Si O2"
_cell_formula_units_Z 48
_cell_length_a 19.069467
_cell_length_b 12.675938
_cell_length_c 20.672787
_cell_angle_alpha 90.000000
_cell_angle_beta 31.240283
_cell_angle_gamma 90.000000
_cell_volume 2591.635207
_symmetry_space_group_name_H-M "C 2/M"
_symmetry_group_IT_number 12
_symmetry_cell_setting 'monoclinic'
loop_
_space_group_symop_operation_xyz
x,y,z
-x,y,-z
-x,-y,-z
x,-y,z
1/2+x,1/2+y,z
1/2-x,1/2+y,-z
1/2-x,1/2-y,-z
1/2+x,1/2-y,z
loop_
_atom_site_type_symbol
_atom_site_label
_atom_site_fract_x
_atom_site_fract_y
_atom_site_fract_z
Si Si1 0.481738 0.119887 0.837902
Si Si2 0.346592 0.121504 0.812455
Si Si3 0.736020 0.616523 0.449041
Si Si4 0.934744 0.000000 0.122855
Si Si5 0.562464 0.290226 0.020505
Si Si6 0.120080 0.666748 0.532984
Si Si7 0.847340 0.500000 0.596617
O O1 0.395399 0.161074 0.844561
O O2 0.639253 0.127800 0.697747
O O3 0.440920 0.000000 0.886381
O O4 0.453248 0.189278 0.922534
O O5 0.221432 0.189505 0.886427
O O6 0.465262 0.135665 0.666775
O O7 0.303640 0.000000 0.849723
O O8 0.669666 0.500000 0.493937
O O9 0.785449 0.629416 0.483252
O O10 0.628075 0.706856 0.516330
O O11 0.769770 0.000000 0.255280
O O12 0.000000 0.000000 0.000000
O O13 0.990595 0.892171 0.111249
O O14 0.500000 0.264604 0.000000
O O15 0.175111 0.606012 0.427031
O O16 0.000000 0.500000 0.500000
#
# Coordination Sequence:
#
# PCOD8090557 Si02
#       7
#     8   8   8   4   8   8   4
#     4   9  19  36  58  80 107 149 198 230 287 338
#     4  10  19  36  58  81 113 153 183 240 289 344
#     4   9  17  35  58  80 112 145 181 245 287 338
#     4  10  24  38  52  82 118 156 180 229 293 340
#     4  11  22  35  57  79 116 150 192 229 291 340
#     4  10  19  33  57  85 111 142 193 229 291 332
#     4  12  24  34  58  88 118 144 197 234 280 356
#
# _framework density 18.521125999999999
#
# number of rings (size 3 to 8) (size 9 to 14) (size 15 to 20)
#    0.000    2.000    2.500    2.500    4.667    0.333 
#    0.000    0.833    0.000    0.500    0.000    0.000 
#    0.000    0.000    0.000    0.000    0.000    0.000 
#
# Total GULP energy -297548.029543 kJ/mol
# GULP energy per Si atom -12397.834564 kJ/mol
# Density = 1.847897 g / cm^3
# Si number density = 18.521126 Si / 1000 Ang^3
#
#
#
# Elastic Constant Matrix: (Units=GPa)
#
#
# Indices 1 2 3 4 5 6 
#
# 1 63.4594 32.3869 40.5432 0.0010 -0.9497 -0.0003
# 2 32.3869 113.6036 39.2735 0.0010 4.4800 -0.0005
# 3 40.5432 39.2735 90.4419 0.0024 5.0198 -0.0009
# 4 0.0010 0.0010 0.0024 31.5669 -0.0012 2.9556
# 5 -0.9497 4.4800 5.0198 -0.0012 20.6409 0.0003
# 6 -0.0003 -0.0005 -0.0009 2.9556 0.0003 13.7761
#
#
#
# Elastic Compliance Matrix: (Units=1/GPa)
#
#
# Indices 1 2 3 4 5 6 
#
# 1 0.023585 -0.003709 -0.009191 0.000000 0.004125 0.000000
# 2 -0.003709 0.010969 -0.002999 0.000000 -0.001822 0.000000
# 3 -0.009191 -0.002999 0.016692 -0.000001 -0.003831 0.000001
# 4 0.000000 0.000000 -0.000001 0.032328 0.000002 -0.006936
# 5 0.004125 -0.001822 -0.003831 0.000002 0.049965 -0.000002
# 6 0.000000 0.000000 0.000001 -0.006936 -0.000002 0.074077
#
#
# Mechanical properties :
#
#
# Convention : Reuss Voigt Hill
#
# Bulk Modulus (GPa) = 51.42181 54.65690 53.03935
# Shear Modulus (GPa) = 20.33380 23.55020 21.94200
#
# Velocity S-wave (km/s) = 3.31701 3.56972 3.44568
# Velocity P-wave (km/s) = 6.51876 6.82387 6.67306
#
# Compressibility (1/GPa) = 0.01944700
#
# Stress axis : x y z
#
# Youngs Moduli (GPa) = 42.40039 91.16903 59.90912
#
# Poissons Ratio (x) = 0.33815 0.55062
# Poissons Ratio (y) = 0.15726 0.17968
# Poissons Ratio (z) = 0.38970 0.27344
#
# Static dielectric constant tensor:
#      x y z
#    x 3.222170 0.000000 -0.050390 
#    y 0.000000 3.680130 0.000000 
#    z -0.050390 0.000000 3.329060 
# 
# 
# High freq. dielectric constant tensor:
#      x y z
#    x 1.696840 0.000000 -0.001650 
#    y 0.000000 1.722970 0.000000 
#    z -0.001650 0.000000 1.713290 
# 
# From -- ./inp_files/164139.got.cif
#   From: 2010.06.25/outbox.cif.g09.slc.cpg/sg12_83_cif.got.tgz:164139.got - 2010.06.28 00:19:55.
