data_PCOD8090183
_publ_section_title
;
Structure prediction by ZEFSAII (Michael W. Deem and Ramdas Pophale) SiO2 
 PCOD8090183
Probable space group: C 2/M
;
_chemical_formula_sum "Si O2"
_cell_formula_units_Z 56
_cell_length_a 15.258653
_cell_length_b 9.020647
_cell_length_c 25.658078
_cell_angle_alpha 90.000000
_cell_angle_beta 53.637057
_cell_angle_gamma 90.000000
_cell_volume 2843.960331
_symmetry_space_group_name_H-M "C 2/M"
_symmetry_group_IT_number 12
_symmetry_cell_setting 'monoclinic'
loop_
_space_group_symop_operation_xyz
x,y,z
-x,y,-z
-x,-y,-z
x,-y,z
1/2+x,1/2+y,z
1/2-x,1/2+y,-z
1/2-x,1/2-y,-z
1/2+x,1/2-y,z
loop_
_atom_site_type_symbol
_atom_site_label
_atom_site_fract_x
_atom_site_fract_y
_atom_site_fract_z
Si Si1 0.129770 0.173609 0.862028
Si Si2 0.217341 0.671551 0.932331
Si Si3 0.103976 0.826065 0.496721
Si Si4 0.089684 0.328501 0.083671
Si Si5 0.024441 0.327413 0.624293
Si Si6 0.720352 0.827681 0.286314
Si Si7 0.300237 0.171811 0.356852
O O1 0.153448 0.259260 0.906716
O O2 0.229599 0.202960 0.787895
O O3 0.021908 0.238621 0.873579
O O4 0.113269 0.000000 0.879437
O O5 0.244113 0.500000 0.912062
O O6 0.329174 0.759776 0.902131
O O7 0.138510 0.689857 0.009140
O O8 0.097665 0.749741 0.554875
O O9 0.209126 0.766756 0.428803
O O10 0.000000 0.779035 0.500000
O O11 0.110199 0.000000 0.504281
O O12 0.069552 0.500000 0.104833
O O13 0.022323 0.500000 0.611809
O O14 0.081170 0.299299 0.660174
O O15 0.902227 0.261744 0.669588
O O16 0.795044 0.752672 0.303550
O O17 0.718025 0.000000 0.299761
O O18 0.278041 0.000000 0.354110
#
# Coordination Sequence:
#
# PCOD8090183 Si02
#       7
#     8   8   8   8   8   8   8
#     4  11  23  38  57  83 118 156 196 240 288 340
#     4  10  21  38  61  90 120 150 189 236 288 344
#     4  10  19  33  55  83 113 139 175 229 284 336
#     4  10  21  38  61  89 119 151 190 237 287 342
#     4  10  21  37  57  80 107 142 185 228 277 334
#     4  10  23  40  55  78 111 147 188 233 275 326
#     4  10  21  37  57  81 109 144 184 229 282 338
#
# _framework density 19.690852
#
# number of rings (size 3 to 8) (size 9 to 14) (size 15 to 20)
#    0.000    1.857    1.429    2.143    0.000    7.143 
#    0.000    1.429    0.000    0.000    0.000    0.000 
#    0.000    0.000    0.000    0.000    0.000    0.000 
#
# Total GULP energy -347323.734589 kJ/mol
# GULP energy per Si atom -12404.419092 kJ/mol
# Density = 1.964603 g / cm^3
# Si number density = 19.690852 Si / 1000 Ang^3
#
#
#
# Elastic Constant Matrix: (Units=GPa)
#
#
# Indices 1 2 3 4 5 6 
#
# 1 90.3567 29.3271 18.7158 0.0000 0.9694 0.0000
# 2 29.3271 72.4062 30.4908 0.0000 2.4551 0.0000
# 3 18.7158 30.4908 41.1008 0.0000 -3.6897 0.0000
# 4 0.0000 0.0000 0.0000 29.6603 0.0000 4.9301
# 5 0.9694 2.4551 -3.6897 0.0000 20.4754 0.0000
# 6 0.0000 0.0000 0.0000 4.9301 0.0000 36.1044
#
#
#
# Elastic Compliance Matrix: (Units=1/GPa)
#
#
# Indices 1 2 3 4 5 6 
#
# 1 0.012989 -0.003957 -0.003041 0.000000 -0.000688 0.000000
# 2 -0.003957 0.021846 -0.014864 0.000000 -0.005111 0.000000
# 3 -0.003041 -0.014864 0.037522 0.000000 0.008688 0.000000
# 4 0.000000 0.000000 0.000000 0.034498 0.000000 -0.004711
# 5 -0.000688 -0.005111 0.008688 0.000000 0.051050 0.000000
# 6 0.000000 0.000000 0.000000 -0.004711 0.000000 0.028341
#
#
# Mechanical properties :
#
#
# Convention : Reuss Voigt Hill
#
# Bulk Modulus (GPa) = 34.92395 40.10344 37.51370
# Shear Modulus (GPa) = 20.87570 25.60337 23.23954
#
# Velocity S-wave (km/s) = 3.25956 3.60983 3.43916
# Velocity P-wave (km/s) = 5.65163 6.14697 5.90450
#
# Compressibility (1/GPa) = 0.02863365
#
# Stress axis : x y z
#
# Youngs Moduli (GPa) = 76.98919 45.77458 26.65130
#
# Poissons Ratio (x) = 0.18113 0.08104
# Poissons Ratio (y) = 0.30465 0.39613
# Poissons Ratio (z) = 0.23411 0.68037
#
# Static dielectric constant tensor:
#      x y z
#    x 3.704600 0.000000 -0.118760 
#    y 0.000000 3.551060 0.000000 
#    z -0.118760 0.000000 3.474110 
# 
# 
# High freq. dielectric constant tensor:
#      x y z
#    x 1.781200 0.000000 -0.001460 
#    y 0.000000 1.765340 0.000000 
#    z -0.001460 0.000000 1.758230 
# 
# From -- ./inp_files/309046.got.cif
#   From: 2010.06.25/outbox.cif.g09.slc.cpg/sg12_155_cif.got.tgz:309046.got - 2010.06.28 00:19:55.
