data_PCOD8090729
_publ_section_title
;
Structure prediction by ZEFSAII (Michael W. Deem and Ramdas Pophale) SiO2 
 PCOD8090729
Probable space group: C 2/M
;
_chemical_formula_sum "Si O2"
_cell_formula_units_Z 40
_cell_length_a 13.663557
_cell_length_b 20.278498
_cell_length_c 9.170474
_cell_angle_alpha 90.000000
_cell_angle_beta 134.522195
_cell_angle_gamma 90.000000
_cell_volume 1811.623754
_symmetry_space_group_name_H-M "C 2/M"
_symmetry_group_IT_number 12
_symmetry_cell_setting 'monoclinic'
loop_
_space_group_symop_operation_xyz
x,y,z
-x,y,-z
-x,-y,-z
x,-y,z
1/2+x,1/2+y,z
1/2-x,1/2+y,-z
1/2-x,1/2-y,-z
1/2+x,1/2-y,z
loop_
_atom_site_type_symbol
_atom_site_label
_atom_site_fract_x
_atom_site_fract_y
_atom_site_fract_z
Si Si1 0.359775 0.744741 0.271893
Si Si2 0.958635 0.837804 0.118821
Si Si3 0.268280 0.320873 0.442712
Si Si4 0.921041 0.572861 0.636117
Si Si5 0.697553 0.106973 0.792372
O O1 0.500000 0.758471 0.500000
O O2 0.382976 0.722292 0.129006
O O3 0.278573 0.689038 0.279196
O O4 0.286462 0.814548 0.210289
O O5 0.095991 0.856818 0.351120
O O6 0.857910 0.903673 0.007528
O O7 0.000000 0.813402 0.000000
O O8 0.250000 0.250000 0.500000
O O9 0.139458 0.369398 0.327581
O O10 0.901600 0.500000 0.685128
O O11 0.843081 0.572107 0.399788
O O12 0.084472 0.586359 0.792831
#
# Coordination Sequence:
#
# PCOD8090729 Si02
#       5
#     8   8   8   8   8
#     4  10  19  33  59  88 122 159 195 249 310 359
#     4  11  21  34  57  91 120 153 205 259 304 351
#     4  11  20  39  61  88 126 163 201 254 310 372
#     4  11  22  38  62  87 122 168 205 248 312 374
#     4  11  19  36  56  87 123 157 208 247 298 361
#
# _framework density 22.079639
#
# number of rings (size 3 to 8) (size 9 to 14) (size 15 to 20)
#    0.000    1.200    6.000    3.000    0.000    0.000 
#    0.000    4.000    0.000    9.000    0.000    0.000 
#    0.000    0.000    0.000    0.000    0.000    0.000 
#
# Total GULP energy -247802.417092 kJ/mol
# GULP energy per Si atom -12390.120855 kJ/mol
# Density = 2.202938 g / cm^3
# Si number density = 22.079639 Si / 1000 Ang^3
#
#
#
# Elastic Constant Matrix: (Units=GPa)
#
#
# Indices 1 2 3 4 5 6 
#
# 1 132.4465 53.3086 31.8749 0.0000 -5.1022 0.0000
# 2 53.3086 93.2485 40.3769 0.0000 2.8910 0.0000
# 3 31.8749 40.3769 55.1053 0.0000 -1.9715 0.0000
# 4 0.0000 0.0000 0.0000 -38.7028 0.0000 118.2382
# 5 -5.1022 2.8910 -1.9715 0.0000 44.7023 0.0000
# 6 0.0000 0.0000 0.0000 118.2382 0.0000 -272.9461
#
#
#
# Elastic Compliance Matrix: (Units=1/GPa)
#
#
# Indices 1 2 3 4 5 6 
#
# 1 0.010090 -0.004840 -0.002241 0.000000 0.001366 0.000000
# 2 -0.004840 0.018134 -0.010566 0.000000 -0.002191 0.000000
# 3 -0.002241 -0.010566 0.027244 0.000000 0.001629 0.000000
# 4 0.000000 0.000000 0.000000 0.079891 0.000000 0.034608
# 5 0.001366 -0.002191 0.001629 0.000000 0.022740 0.000000
# 6 0.000000 0.000000 0.000000 0.034608 0.000000 0.011328
#
#
# Mechanical properties :
#
#
# Convention : Reuss Voigt Hill
#
# Bulk Modulus (GPa) = 49.57033 59.10235 54.33634
# Shear Modulus (GPa) = 23.64669 -43.04000 -9.69665
#
# Velocity S-wave (km/s) = 3.27612 -4.41989 -2.09790
# Velocity P-wave (km/s) = 6.06713 0.88246 4.33525
#
# Compressibility (1/GPa) = 0.02017336
#
# Stress axis : x y z
#
# Youngs Moduli (GPa) = 99.10381 55.14430 36.70599
#
# Poissons Ratio (x) = 0.26692 0.08226
# Poissons Ratio (y) = 0.47971 0.38783
# Poissons Ratio (z) = 0.22210 0.58265
#
# Static dielectric constant tensor:
#      x y z
#    x 4.615990 0.000000 0.323810 
#    y 0.000000 3.592070 0.000000 
#    z 0.323810 0.000000 4.459210 
# 
# 
# High freq. dielectric constant tensor:
#      x y z
#    x 1.886000 0.000000 0.023030 
#    y 0.000000 1.817690 0.000000 
#    z 0.023030 0.000000 1.865990 
# 
# From -- ./inp_files/63785.got.cif
#   From: 2010.06.25/outbox.cif.g09.slc.cpg/sg12_32_cif.got.tgz:63785.got - 2010.06.28 00:19:55.
