data_PCOD8090265
_publ_section_title
;
Structure prediction by ZEFSAII (Michael W. Deem and Ramdas Pophale) SiO2 
 PCOD8090265
Probable space group: C 2/M
;
_chemical_formula_sum "Si O2"
_cell_formula_units_Z 48
_cell_length_a 13.412475
_cell_length_b 18.367870
_cell_length_c 11.476090
_cell_angle_alpha 90.000000
_cell_angle_beta 63.365777
_cell_angle_gamma 90.000000
_cell_volume 2527.226163
_symmetry_space_group_name_H-M "C 2/M"
_symmetry_group_IT_number 12
_symmetry_cell_setting 'monoclinic'
loop_
_space_group_symop_operation_xyz
x,y,z
-x,y,-z
-x,-y,-z
x,-y,z
1/2+x,1/2+y,z
1/2-x,1/2+y,-z
1/2-x,1/2-y,-z
1/2+x,1/2-y,z
loop_
_atom_site_type_symbol
_atom_site_label
_atom_site_fract_x
_atom_site_fract_y
_atom_site_fract_z
Si Si1 0.947991 0.230413 0.190769
Si Si2 0.981949 0.081671 0.274536
Si Si3 0.791067 0.864146 0.534253
Si Si4 0.766819 0.081375 0.790722
Si Si5 0.663335 0.785020 0.959022
Si Si6 0.103346 0.717104 0.524760
O O1 0.969213 0.143175 0.181185
O O2 0.840468 0.242829 0.163852
O O3 0.933572 0.259702 0.327236
O O4 0.045105 0.279114 0.084285
O O5 0.887003 0.088602 0.422911
O O6 0.100977 0.094913 0.271617
O O7 0.974563 0.000000 0.224318
O O8 0.735654 0.906177 0.671497
O O9 0.840175 0.788484 0.561081
O O10 0.694545 0.847352 0.488480
O O11 0.697755 0.131882 0.915407
O O12 0.733760 0.000000 0.844379
O O13 0.750000 0.750000 0.000000
O O14 0.000000 0.690279 0.500000
#
# Coordination Sequence:
#
# PCOD8090265 Si02
#       6
#     8   8   8   8   8   8
#     4  10  21  38  58  88 112 157 199 241 295 344
#     4  10  20  35  58  90 120 148 188 242 307 358
#     4  10  19  33  55  89 121 153 189 242 298 349
#     4  11  21  37  60  89 120 155 197 244 299 353
#     4  11  22  38  61  83 116 156 202 244 281 347
#     4  10  20  33  59  89 120 150 200 243 290 352
#
# _framework density 18.993155000000002
#
# number of rings (size 3 to 8) (size 9 to 14) (size 15 to 20)
#    0.000    1.667    3.333    3.000    0.000    1.333 
#    0.000    4.167    0.000    2.000    0.000    0.000 
#    0.000    0.000    0.000    0.000    0.000    0.000 
#
# Total GULP energy -297498.998180 kJ/mol
# GULP energy per Si atom -12395.791591 kJ/mol
# Density = 1.894993 g / cm^3
# Si number density = 18.993155 Si / 1000 Ang^3
#
#
#
# Elastic Constant Matrix: (Units=GPa)
#
#
# Indices 1 2 3 4 5 6 
#
# 1 111.7203 49.1776 24.4198 0.0000 17.0676 0.0000
# 2 49.1776 135.8021 49.1544 0.0000 -0.5915 0.0000
# 3 24.4198 49.1544 85.3726 0.0000 3.0192 0.0000
# 4 0.0000 0.0000 0.0000 28.3885 0.0000 -4.5658
# 5 17.0676 -0.5915 3.0192 0.0000 31.6088 0.0000
# 6 0.0000 0.0000 0.0000 -4.5658 0.0000 24.6334
#
#
#
# Elastic Compliance Matrix: (Units=1/GPa)
#
#
# Indices 1 2 3 4 5 6 
#
# 1 0.011889 -0.004023 -0.000858 0.000000 -0.006413 0.000000
# 2 -0.004023 0.010678 -0.005099 0.000000 0.002859 0.000000
# 3 -0.000858 -0.005099 0.014932 0.000000 -0.001059 0.000000
# 4 0.000000 0.000000 0.000000 0.036308 0.000000 0.006730
# 5 -0.006413 0.002859 -0.001059 0.000000 0.035254 0.000000
# 6 0.000000 0.000000 0.000000 0.006730 0.000000 0.041843
#
#
# Mechanical properties :
#
#
# Convention : Reuss Voigt Hill
#
# Bulk Modulus (GPa) = 57.01018 64.26648 60.63833
# Shear Modulus (GPa) = 28.29519 30.93571 29.61545
#
# Velocity S-wave (km/s) = 3.86392 4.04020 3.95304
# Velocity P-wave (km/s) = 7.07021 7.46152 7.26850
#
# Compressibility (1/GPa) = 0.01754073
#
# Stress axis : x y z
#
# Youngs Moduli (GPa) = 84.11237 93.64755 66.97138
#
# Poissons Ratio (x) = 0.37672 0.05744
# Poissons Ratio (y) = 0.33836 0.34146
# Poissons Ratio (z) = 0.07214 0.47748
#
# Static dielectric constant tensor:
#      x y z
#    x 4.427570 0.000000 0.117290 
#    y 0.000000 3.560210 0.000000 
#    z 0.117290 0.000000 3.442520 
# 
# 
# High freq. dielectric constant tensor:
#      x y z
#    x 1.738640 0.000000 -0.003310 
#    y 0.000000 1.721850 0.000000 
#    z -0.003310 0.000000 1.731870 
# 
# From -- ./inp_files/131661.got.cif
#   From: 2010.06.25/outbox.cif.g09.slc.cpg/sg12_66_cif.got.tgz:131661.got - 2010.06.28 00:19:55.
