data_PCOD8090446
_publ_section_title
;
Structure prediction by ZEFSAII (Michael W. Deem and Ramdas Pophale) SiO2 
 PCOD8090446
Probable space group: C 2/M
;
_chemical_formula_sum "Si O2"
_cell_formula_units_Z 60
_cell_length_a 13.269500
_cell_length_b 13.279778
_cell_length_c 21.140237
_cell_angle_alpha 90.000000
_cell_angle_beta 118.561019
_cell_angle_gamma 90.000000
_cell_volume 3271.917058
_symmetry_space_group_name_H-M "C 2/M"
_symmetry_group_IT_number 12
_symmetry_cell_setting 'monoclinic'
loop_
_space_group_symop_operation_xyz
x,y,z
-x,y,-z
-x,-y,-z
x,-y,z
1/2+x,1/2+y,z
1/2-x,1/2+y,-z
1/2-x,1/2-y,-z
1/2+x,1/2-y,z
loop_
_atom_site_type_symbol
_atom_site_label
_atom_site_fract_x
_atom_site_fract_y
_atom_site_fract_z
Si Si1 0.625611 0.615095 0.743594
Si Si2 0.721812 0.699787 0.235200
Si Si3 0.922348 0.116013 0.587197
Si Si4 0.209181 0.382324 0.610319
Si Si5 0.825066 0.613707 0.146131
Si Si6 0.389597 0.618354 0.003918
Si Si7 0.956383 0.799396 0.152750
Si Si8 0.500000 0.244436 0.500000
O O1 0.664796 0.500000 0.745214
O O2 0.733738 0.685836 0.759904
O O3 0.521003 0.644350 0.666475
O O4 0.582477 0.628032 0.802190
O O5 0.736210 0.662589 0.310363
O O6 0.789765 0.626003 0.208620
O O7 0.589483 0.690758 0.177046
O O8 0.798385 0.136730 0.580495
O O9 0.933185 0.185692 0.529373
O O10 0.932944 0.000000 0.569299
O O11 0.184000 0.500000 0.611715
O O12 0.090488 0.326625 0.561795
O O13 0.863685 0.500000 0.145312
O O14 0.933337 0.683577 0.163865
O O15 0.721647 0.647065 0.069696
O O16 0.400675 0.500000 0.018141
O O17 0.381736 0.670926 0.069484
O O18 0.500000 0.660094 0.000000
#
# Coordination Sequence:
#
# PCOD8090446 Si02
#       8
#     8   8   8   8   8   8   8   4
#     4  10  21  37  57  83 111 143 185 229 276 329
#     4  11  21  37  58  83 111 148 185 231 274 329
#     4  10  21  38  60  84 110 143 185 230 275 331
#     4  11  23  38  58  84 114 147 185 228 276 331
#     4  10  22  37  55  83 117 148 184 229 277 328
#     4  10  19  33  56  85 112 144 189 234 274 321
#     4  11  21  35  61  82 111 150 189 228 277 326
#     4  12  22  40  60  82 116 146 184 224 286 332
#
# _framework density 18.337872999999998
#
# number of rings (size 3 to 8) (size 9 to 14) (size 15 to 20)
#    0.000    1.467    4.000    2.000    0.000    1.600 
#    0.000    0.000    0.000    1.200    0.000    0.000 
#    0.000    0.000    0.000    0.000    0.000    0.000 
#
# Total GULP energy -372124.809830 kJ/mol
# GULP energy per Si atom -12404.160328 kJ/mol
# Density = 1.829614 g / cm^3
# Si number density = 18.337873 Si / 1000 Ang^3
#
#
#
# Elastic Constant Matrix: (Units=GPa)
#
#
# Indices 1 2 3 4 5 6 
#
# 1 51.7545 23.2747 11.9102 0.0000 -11.1178 0.0000
# 2 23.2747 77.8927 25.9625 0.0000 -6.4450 0.0000
# 3 11.9102 25.9625 67.5352 0.0000 -6.4313 0.0000
# 4 0.0000 0.0000 0.0000 25.3183 0.0000 -0.9642
# 5 -11.1178 -6.4450 -6.4313 0.0000 25.8876 0.0000
# 6 0.0000 0.0000 0.0000 -0.9642 0.0000 8.8944
#
#
#
# Elastic Compliance Matrix: (Units=1/GPa)
#
#
# Indices 1 2 3 4 5 6 
#
# 1 0.024183 -0.006155 -0.001081 0.000000 0.008585 0.000000
# 2 -0.006155 0.016428 -0.005216 0.000000 0.000151 0.000000
# 3 -0.001081 -0.005216 0.017243 0.000000 0.002521 0.000000
# 4 0.000000 0.000000 0.000000 0.039661 0.000000 0.004300
# 5 0.008585 0.000151 0.002521 0.000000 0.042979 0.000000
# 6 0.000000 0.000000 0.000000 0.004300 0.000000 0.112896
#
#
# Mechanical properties :
#
#
# Convention : Reuss Voigt Hill
#
# Bulk Modulus (GPa) = 30.34882 35.49747 32.92315
# Shear Modulus (GPa) = 17.28441 21.08905 19.18673
#
# Velocity S-wave (km/s) = 3.07343 3.39488 3.23815
# Velocity P-wave (km/s) = 5.40189 5.89631 5.65451
#
# Compressibility (1/GPa) = 0.03295021
#
# Stress axis : x y z
#
# Youngs Moduli (GPa) = 41.35116 60.87034 57.99501
#
# Poissons Ratio (x) = 0.37468 0.06269
# Poissons Ratio (y) = 0.25453 0.30248
# Poissons Ratio (z) = 0.04470 0.31748
#
# Static dielectric constant tensor:
#      x y z
#    x 3.279460 0.000000 -0.033250 
#    y 0.000000 3.328340 0.000000 
#    z -0.033250 0.000000 3.398490 
# 
# 
# High freq. dielectric constant tensor:
#      x y z
#    x 1.706120 0.000000 -0.005040 
#    y 0.000000 1.712700 0.000000 
#    z -0.005040 0.000000 1.721700 
# 
# From -- ./inp_files/263371.got.cif
#   From: 2010.06.25/outbox.cif.g09.slc.cpg/sg12_132_cif.got.tgz:263371.got - 2010.06.28 00:19:55.
