data_PCOD8090820
_publ_section_title
;
Structure prediction by ZEFSAII (Michael W. Deem and Ramdas Pophale) SiO2 
 PCOD8090820
Probable space group: C 2/M
;
_chemical_formula_sum "Si O2"
_cell_formula_units_Z 48
_cell_length_a 25.268866
_cell_length_b 10.576763
_cell_length_c 16.723474
_cell_angle_alpha 90.000000
_cell_angle_beta 35.773393
_cell_angle_gamma 90.000000
_cell_volume 2612.821244
_symmetry_space_group_name_H-M "C 2/M"
_symmetry_group_IT_number 12
_symmetry_cell_setting 'monoclinic'
loop_
_space_group_symop_operation_xyz
x,y,z
-x,y,-z
-x,-y,-z
x,-y,z
1/2+x,1/2+y,z
1/2-x,1/2+y,-z
1/2-x,1/2-y,-z
1/2+x,1/2-y,z
loop_
_atom_site_type_symbol
_atom_site_label
_atom_site_fract_x
_atom_site_fract_y
_atom_site_fract_z
Si Si1 0.205606 0.500000 0.452602
Si Si2 0.589545 0.239696 0.609790
Si Si3 0.209910 0.758765 0.173611
Si Si4 0.742580 0.000000 0.221613
Si Si5 0.416026 0.357980 0.550391
Si Si6 0.612362 0.750280 0.127602
Si Si7 0.916825 0.000000 0.927460
Si Si8 0.384266 0.500000 0.330785
O O1 0.156746 0.624721 0.547657
O O2 0.206194 0.500000 0.356070
O O3 0.307761 0.500000 0.357907
O O4 0.592641 0.261660 0.511507
O O5 0.488503 0.191518 0.759139
O O6 0.622551 0.370514 0.609824
O O7 0.208959 0.621456 0.214926
O O8 0.173506 0.855997 0.284479
O O9 0.140991 0.748885 0.184442
O O10 0.308190 0.812645 0.024400
O O11 0.852861 0.000000 0.084131
O O12 0.500000 0.311323 0.500000
O O13 0.431115 0.500000 0.499514
O O14 0.604773 0.609102 0.107692
O O15 0.019580 0.000000 0.833046
#
# Coordination Sequence:
#
# PCOD8090820 Si02
#       8
#     4   8   8   4   8   8   4   4
#     4  12  24  36  58  81 110 141 180 240 294 326
#     4  11  21  39  56  83 111 142 182 231 276 324
#     4  10  19  34  51  80 112 148 176 206 262 328
#     4  10  20  34  52  81 114 138 175 220 275 335
#     4  11  21  33  56  82 109 146 186 218 257 324
#     4   9  19  33  53  78 111 148 177 211 257 326
#     4   8  18  35  58  77 103 139 189 231 257 313
#     4  10  22  41  61  76  98 145 198 236 271 322
#
# _framework density 18.370947000000001
#
# number of rings (size 3 to 8) (size 9 to 14) (size 15 to 20)
#    0.000    1.833    4.167    0.500    1.167    1.000 
#    3.000    1.667    0.000    0.000    0.000    1.167 
#    0.000    0.000    0.000    0.000    0.000    0.000 
#
# Total GULP energy -297400.631854 kJ/mol
# GULP energy per Si atom -12391.692994 kJ/mol
# Density = 1.832913 g / cm^3
# Si number density = 18.370947 Si / 1000 Ang^3
#
#
#
# Elastic Constant Matrix: (Units=GPa)
#
#
# Indices 1 2 3 4 5 6 
#
# 1 56.9289 13.8227 19.8035 0.0000 -20.1717 0.0000
# 2 13.8227 64.2372 19.6171 -0.0002 -12.1732 0.0000
# 3 19.8035 19.6171 102.7096 -0.0002 -11.5042 0.0000
# 4 0.0000 -0.0002 -0.0002 32.1345 0.0000 -9.1801
# 5 -20.1717 -12.1732 -11.5042 0.0000 26.4385 0.0000
# 6 0.0000 0.0000 0.0000 -9.1801 0.0000 21.3981
#
#
#
# Elastic Compliance Matrix: (Units=1/GPa)
#
#
# Indices 1 2 3 4 5 6 
#
# 1 0.024911 -0.001286 -0.002623 0.000000 0.017273 0.000000
# 2 -0.001286 0.017755 -0.002457 0.000000 0.006125 0.000000
# 3 -0.002623 -0.002457 0.010891 0.000000 0.001607 0.000000
# 4 0.000000 0.000000 0.000000 0.035466 0.000000 0.015215
# 5 0.017273 0.006125 0.001607 0.000000 0.054521 0.000000
# 6 0.000000 0.000000 0.000000 0.015215 0.000000 0.053261
#
#
# Mechanical properties :
#
#
# Convention : Reuss Voigt Hill
#
# Bulk Modulus (GPa) = 24.49497 36.70693 30.60095
# Shear Modulus (GPa) = 22.40694 27.36971 24.88833
#
# Velocity S-wave (km/s) = 3.49620 3.86403 3.68471
# Velocity P-wave (km/s) = 5.44613 6.31917 5.89883
#
# Compressibility (1/GPa) = 0.04082471
#
# Stress axis : x y z
#
# Youngs Moduli (GPa) = 40.14344 56.32196 91.81778
#
# Poissons Ratio (x) = 0.07244 0.24081
# Poissons Ratio (y) = 0.05163 0.22561
# Poissons Ratio (z) = 0.10529 0.13839
#
# Static dielectric constant tensor:
#      x y z
#    x 3.099820 0.000000 -0.158050 
#    y 0.000000 3.244530 0.000000 
#    z -0.158050 0.000000 3.910380 
# 
# 
# High freq. dielectric constant tensor:
#      x y z
#    x 1.686750 0.000000 -0.006120 
#    y 0.000000 1.702920 0.000000 
#    z -0.006120 0.000000 1.731720 
# 
# From -- ./inp_files/174911.got.cif
#   From: 2010.06.25/outbox.cif.g09.slc.cpg/sg12_88_cif.got.tgz:174911.got - 2010.06.28 00:19:55.
