data_PCOD8090669
_publ_section_title
;
Structure prediction by ZEFSAII (Michael W. Deem and Ramdas Pophale) SiO2 
 PCOD8090669
Probable space group: C 2/M
;
_chemical_formula_sum "Si O2"
_cell_formula_units_Z 44
_cell_length_a 23.283323
_cell_length_b 7.861285
_cell_length_c 11.031587
_cell_angle_alpha 90.000000
_cell_angle_beta 75.066533
_cell_angle_gamma 90.000000
_cell_volume 1950.990222
_symmetry_space_group_name_H-M "C 2/M"
_symmetry_group_IT_number 12
_symmetry_cell_setting 'monoclinic'
loop_
_space_group_symop_operation_xyz
x,y,z
-x,y,-z
-x,-y,-z
x,-y,z
1/2+x,1/2+y,z
1/2-x,1/2+y,-z
1/2-x,1/2-y,-z
1/2+x,1/2-y,z
loop_
_atom_site_type_symbol
_atom_site_label
_atom_site_fract_x
_atom_site_fract_y
_atom_site_fract_z
Si Si1 0.569964 0.000000 0.464750
Si Si2 0.465927 0.684206 0.143526
Si Si3 0.143279 0.806231 0.504929
Si Si4 0.332031 0.694077 0.237402
Si Si5 0.787871 0.189294 0.774423
Si Si6 0.857506 0.500000 0.821157
Si Si7 0.526730 0.000000 0.122116
O O1 0.500000 0.000000 0.500000
O O2 0.589874 0.828278 0.522961
O O3 0.597292 0.000000 0.315690
O O4 0.466009 0.500000 0.212209
O O5 0.398187 0.742958 0.157098
O O6 0.500420 0.829789 0.201827
O O7 0.500000 0.661008 0.000000
O O8 0.175095 0.771767 0.615445
O O9 0.190951 0.773087 0.373727
O O10 0.118240 0.000000 0.512900
O O11 0.317541 0.500000 0.214593
O O12 0.283771 0.802379 0.188583
O O13 0.816605 0.330791 0.847080
O O14 0.806769 0.000000 0.808432
O O15 0.901500 0.500000 0.913641
O O16 0.500000 0.000000 0.000000
#
# Coordination Sequence:
#
# PCOD8090669 Si02
#       7
#     4   8   8   8   8   4   4
#     4  10  22  34  52  80 120 165 194 233 284 342
#     4   9  20  37  57  88 114 142 189 250 301 342
#     4   9  20  34  49  80 122 155 201 237 280 341
#     4  10  19  33  58  87 119 154 200 245 288 342
#     4  10  20  35  55  85 121 165 188 236 292 349
#     4  10  22  40  56  84 127 150 194 241 294 351
#     4  10  22  40  66  86 110 149 197 247 291 352
#
# _framework density 22.552648000000001
#
# number of rings (size 3 to 8) (size 9 to 14) (size 15 to 20)
#    0.000    2.364    0.909    0.545    5.091    1.091 
#    0.000    0.000    0.000    4.364    0.000    0.000 
#    0.000    0.000    0.000    0.000    0.000    0.000 
#
# Total GULP energy -272642.022259 kJ/mol
# GULP energy per Si atom -12392.819194 kJ/mol
# Density = 2.250132 g / cm^3
# Si number density = 22.552648 Si / 1000 Ang^3
#
#
#
# Elastic Constant Matrix: (Units=GPa)
#
#
# Indices 1 2 3 4 5 6 
#
# 1 171.5022 85.4885 13.8275 0.0000 2.6451 0.0000
# 2 85.4885 178.1345 -0.4292 0.0000 11.4442 0.0000
# 3 13.8275 -0.4292 26.1295 0.0000 -1.0501 0.0000
# 4 0.0000 0.0000 0.0000 5.9730 0.0000 1.6626
# 5 2.6451 11.4442 -1.0501 0.0000 30.7418 0.0000
# 6 0.0000 0.0000 0.0000 1.6626 0.0000 35.7990
#
#
#
# Elastic Compliance Matrix: (Units=1/GPa)
#
#
# Indices 1 2 3 4 5 6 
#
# 1 0.008146 -0.003960 -0.004351 0.000000 0.000625 0.000000
# 2 -0.003960 0.007676 0.002123 0.000000 -0.002444 0.000000
# 3 -0.004351 0.002123 0.040647 0.000000 0.000972 0.000000
# 4 0.000000 0.000000 0.000000 0.169613 0.000000 -0.007877
# 5 0.000625 -0.002444 0.000972 0.000000 0.033418 0.000000
# 6 0.000000 0.000000 0.000000 -0.007877 0.000000 0.028300
#
#
# Mechanical properties :
#
#
# Convention : Reuss Voigt Hill
#
# Bulk Modulus (GPa) = 22.67830 63.72665 43.20248
# Shear Modulus (GPa) = 15.87942 32.96137 24.42040
#
# Velocity S-wave (km/s) = 2.65638 3.82714 3.29419
# Velocity P-wave (km/s) = 4.41429 6.91719 5.80231
#
# Compressibility (1/GPa) = 0.04409501
#
# Stress axis : x y z
#
# Youngs Moduli (GPa) = 122.76186 130.27141 24.60195
#
# Poissons Ratio (x) = 0.51586 0.10703
# Poissons Ratio (y) = 0.48612 -0.05224
# Poissons Ratio (z) = 0.53409 -0.27662
#
# Static dielectric constant tensor:
#      x y z
#    x 3.935880 0.000000 -0.127500 
#    y 0.000000 5.743770 0.000000 
#    z -0.127500 0.000000 3.678620 
# 
# 
# High freq. dielectric constant tensor:
#      x y z
#    x 1.880030 0.000000 -0.020090 
#    y 0.000000 1.910990 0.000000 
#    z -0.020090 0.000000 1.854390 
# 
# From -- ./inp_files/163169.got.cif
#   From: 2010.06.25/outbox.cif.g09.slc.cpg/sg12_82_cif.got.tgz:163169.got - 2010.06.28 00:19:55.
