data_PCOD8090349
_publ_section_title
;
Structure prediction by ZEFSAII (Michael W. Deem and Ramdas Pophale) SiO2 
 PCOD8090349
Probable space group: C 2/M
;
_chemical_formula_sum "Si O2"
_cell_formula_units_Z 48
_cell_length_a 20.356359
_cell_length_b 8.927392
_cell_length_c 23.093846
_cell_angle_alpha 90.000000
_cell_angle_beta 39.283689
_cell_angle_gamma 90.000000
_cell_volume 2657.264706
_symmetry_space_group_name_H-M "C 2/M"
_symmetry_group_IT_number 12
_symmetry_cell_setting 'monoclinic'
loop_
_space_group_symop_operation_xyz
x,y,z
-x,y,-z
-x,-y,-z
x,-y,z
1/2+x,1/2+y,z
1/2-x,1/2+y,-z
1/2-x,1/2-y,-z
1/2+x,1/2-y,z
loop_
_atom_site_type_symbol
_atom_site_label
_atom_site_fract_x
_atom_site_fract_y
_atom_site_fract_z
Si Si1 0.149370 0.325587 0.043226
Si Si2 0.112356 0.325619 0.433574
Si Si3 0.110867 0.171035 0.950995
Si Si4 0.073047 0.675605 0.763112
Si Si5 0.233212 0.821523 0.573562
Si Si6 0.797804 0.828052 0.229958
O O1 0.168723 0.500000 0.031361
O O2 0.048870 0.283648 0.150486
O O3 0.250000 0.250000 0.000000
O O4 0.134645 0.279477 0.987097
O O5 0.094769 0.500000 0.456061
O O6 0.173193 0.264247 0.448591
O O7 0.180481 0.293701 0.329898
O O8 0.000000 0.247492 0.500000
O O9 0.196172 0.199941 0.842728
O O10 0.114355 0.000000 0.970751
O O11 0.000000 0.210135 0.000000
O O12 0.090827 0.500000 0.741092
O O13 0.124510 0.765421 0.674809
O O14 0.122513 0.722191 0.790656
O O15 0.250000 0.750000 0.500000
O O16 0.229965 0.000000 0.570989
O O17 0.827684 0.000000 0.224855
#
# Coordination Sequence:
#
# PCOD8090349 Si02
#       6
#     8   8   8   8   8   8
#     4  11  24  39  56  79 111 147 185 231 282 335
#     4   8  15  30  52  77 104 135 172 215 260 308
#     4  10  19  33  56  82 109 141 181 225 269 330
#     4  10  20  35  56  80 106 141 185 229 273 326
#     4  10  20  35  57  81 108 142 182 225 271 326
#     4   9  17  31  54  81 106 140 180 219 268 324
#
# _framework density 18.063687999999999
#
# number of rings (size 3 to 8) (size 9 to 14) (size 15 to 20)
#    0.000    2.333    1.667    2.500    0.000    3.000 
#    3.000    0.000    0.000   12.500    0.000    0.000 
#    0.000    0.000    0.000    0.000    0.000    0.000 
#
# Total GULP energy -297551.007215 kJ/mol
# GULP energy per Si atom -12397.958634 kJ/mol
# Density = 1.802257 g / cm^3
# Si number density = 18.063688 Si / 1000 Ang^3
#
#
#
# Elastic Constant Matrix: (Units=GPa)
#
#
# Indices 1 2 3 4 5 6 
#
# 1 97.0087 44.6066 86.9558 -0.0001 -4.2922 0.0002
# 2 44.6066 65.2397 60.5562 -0.0002 -4.3870 0.0006
# 3 86.9558 60.5562 156.3370 0.0000 -2.2239 0.0000
# 4 -0.0001 -0.0002 0.0000 28.5842 0.0000 4.7278
# 5 -4.2922 -4.3870 -2.2239 0.0000 32.8753 0.0000
# 6 0.0002 0.0006 0.0000 4.7278 0.0000 28.3812
#
#
#
# Elastic Compliance Matrix: (Units=1/GPa)
#
#
# Indices 1 2 3 4 5 6 
#
# 1 0.021907 -0.005607 -0.009993 0.000000 0.001436 0.000000
# 2 -0.005607 0.025586 -0.006761 0.000000 0.002225 -0.000001
# 3 -0.009993 -0.006761 0.014556 0.000000 -0.001222 0.000000
# 4 0.000000 0.000000 0.000000 0.035976 0.000000 -0.005993
# 5 0.001436 0.002225 -0.001222 0.000000 0.030820 0.000000
# 6 0.000000 -0.000001 0.000000 -0.005993 0.000000 0.036233
#
#
# Mechanical properties :
#
#
# Convention : Reuss Voigt Hill
#
# Bulk Modulus (GPa) = 57.70596 78.09141 67.89868
# Shear Modulus (GPa) = 23.19384 26.39926 24.79655
#
# Velocity S-wave (km/s) = 3.58719 3.82704 3.70906
# Velocity P-wave (km/s) = 7.01230 7.92801 7.48418
#
# Compressibility (1/GPa) = 0.01732923
#
# Stress axis : x y z
#
# Youngs Moduli (GPa) = 45.64705 39.08312 68.70105
#
# Poissons Ratio (x) = 0.21913 0.68652
# Poissons Ratio (y) = 0.25593 0.46446
# Poissons Ratio (z) = 0.45614 0.26423
#
# Static dielectric constant tensor:
#      x y z
#    x 3.203700 0.000000 -0.188750 
#    y 0.000000 3.234870 0.000000 
#    z -0.188750 0.000000 3.565530 
# 
# 
# High freq. dielectric constant tensor:
#      x y z
#    x 1.680760 0.000000 0.001040 
#    y 0.000000 1.687830 0.000000 
#    z 0.001040 0.000000 1.715460 
# 
# From -- ./inp_files/345395.got.cif
#   From: 2010.06.25/outbox.cif.g09.slc.cpg/sg12_173_cif.got.tgz:345395.got - 2010.06.28 00:19:55.
