data_PCOD8090952
_publ_section_title
;
Structure prediction by ZEFSAII (Michael W. Deem and Ramdas Pophale) SiO2 
 PCOD8090952
Probable space group: C 2/M
;
_chemical_formula_sum "Si O2"
_cell_formula_units_Z 64
_cell_length_a 33.803703
_cell_length_b 9.040789
_cell_length_c 14.601328
_cell_angle_alpha 90.000000
_cell_angle_beta 126.434432
_cell_angle_gamma 90.000000
_cell_volume 3590.120362
_symmetry_space_group_name_H-M "C 2/M"
_symmetry_group_IT_number 12
_symmetry_cell_setting 'monoclinic'
loop_
_space_group_symop_operation_xyz
x,y,z
-x,y,-z
-x,-y,-z
x,-y,z
1/2+x,1/2+y,z
1/2-x,1/2+y,-z
1/2-x,1/2-y,-z
1/2+x,1/2-y,z
loop_
_atom_site_type_symbol
_atom_site_label
_atom_site_fract_x
_atom_site_fract_y
_atom_site_fract_z
Si Si1 0.848144 0.328726 0.264933
Si Si2 0.299182 0.175767 0.675270
Si Si3 0.899368 0.824664 0.491079
Si Si4 0.656543 0.168680 0.079986
Si Si5 0.003261 0.323752 0.397507
Si Si6 0.594331 0.171768 0.834077
Si Si7 0.745074 0.668483 0.898543
Si Si8 0.811931 0.826401 0.505939
O O1 0.845714 0.500000 0.289334
O O2 0.890377 0.248724 0.380324
O O3 0.861002 0.307919 0.175897
O O4 0.796982 0.249416 0.218050
O O5 0.331734 0.241615 0.804853
O O6 0.241497 0.219169 0.608036
O O7 0.321571 0.244633 0.614705
O O8 0.303866 0.000000 0.677626
O O9 0.951623 0.756234 0.592741
O O10 0.855465 0.775677 0.498402
O O11 0.902953 0.000000 0.487973
O O12 0.705829 0.178222 0.090346
O O13 0.641776 0.000000 0.077242
O O14 0.612704 0.242473 0.957379
O O15 0.008470 0.500000 0.396875
O O16 0.000000 0.277317 0.500000
O O17 0.955750 0.261689 0.276554
O O18 0.585088 0.000000 0.837921
O O19 0.729270 0.500000 0.894596
O O20 0.750000 0.750000 0.000000
O O21 0.814193 0.000000 0.527548
#
# Coordination Sequence:
#
# PCOD8090952 Si02
#       8
#     8   8   8   8   8   8   8   8
#     4  11  20  33  50  72 103 140 177 212 257 307
#     4   9  17  32  56  79  99 130 173 214 253 308
#     4  11  22  35  53  77 105 137 172 216 269 319
#     4   9  17  31  51  73 102 138 173 210 259 310
#     4  10  19  34  54  75 102 137 178 220 262 308
#     4   9  17  31  50  71  99 137 172 207 256 306
#     4  11  20  31  47  71 105 142 177 211 251 306
#     4   9  19  35  52  75 107 136 163 209 270 317
#
# _framework density 17.826699999999999
#
# number of rings (size 3 to 8) (size 9 to 14) (size 15 to 20)
#    0.000    2.125    2.500    1.875    0.000    3.250 
#    0.000    3.750    0.000    0.750    0.000    5.250 
#    0.000    0.000    0.000    0.000    0.000    0.000 
#
# Total GULP energy -396563.826690 kJ/mol
# GULP energy per Si atom -12392.619584 kJ/mol
# Density = 1.778613 g / cm^3
# Si number density = 17.826700 Si / 1000 Ang^3
#
#
#
# Elastic Constant Matrix: (Units=GPa)
#
#
# Indices 1 2 3 4 5 6 
#
# 1 68.2908 25.1384 45.5454 0.0000 7.5212 0.0000
# 2 25.1384 44.4043 29.5712 0.0000 3.9617 0.0000
# 3 45.5454 29.5712 161.4640 0.0000 4.2919 0.0000
# 4 0.0000 0.0000 0.0000 23.3120 0.0000 1.2000
# 5 7.5212 3.9617 4.2919 0.0000 25.6443 0.0000
# 6 0.0000 0.0000 0.0000 1.2000 0.0000 26.2085
#
#
#
# Elastic Compliance Matrix: (Units=1/GPa)
#
#
# Indices 1 2 3 4 5 6 
#
# 1 0.021168 -0.008783 -0.004253 0.000000 -0.004140 0.000000
# 2 -0.008783 0.029555 -0.002895 0.000000 -0.001505 0.000000
# 3 -0.004253 -0.002895 0.007913 0.000000 0.000370 0.000000
# 4 0.000000 0.000000 0.000000 0.042998 0.000000 -0.001969
# 5 -0.004140 -0.001505 0.000370 0.000000 0.040380 0.000000
# 6 0.000000 0.000000 0.000000 -0.001969 0.000000 0.038246
#
#
# Mechanical properties :
#
#
# Convention : Reuss Voigt Hill
#
# Bulk Modulus (GPa) = 37.34769 52.74101 45.04435
# Shear Modulus (GPa) = 22.61973 26.62659 24.62316
#
# Velocity S-wave (km/s) = 3.56598 3.86895 3.72055
# Velocity P-wave (km/s) = 6.16043 7.04329 6.61660
#
# Compressibility (1/GPa) = 0.02677542
#
# Stress axis : x y z
#
# Youngs Moduli (GPa) = 47.24035 33.83535 126.36900
#
# Poissons Ratio (x) = 0.29716 0.53740
# Poissons Ratio (y) = 0.41489 0.36589
# Poissons Ratio (z) = 0.20089 0.09797
#
# Static dielectric constant tensor:
#      x y z
#    x 2.546510 0.000000 0.127500 
#    y 0.000000 3.208520 0.000000 
#    z 0.127500 0.000000 3.699560 
# 
# 
# High freq. dielectric constant tensor:
#      x y z
#    x 1.665920 0.000000 0.008470 
#    y 0.000000 1.665530 0.000000 
#    z 0.008470 0.000000 1.700430 
# 
# From -- ./inp_files/249250.got.cif
#   From: 2010.06.25/outbox.cif.g09.slc.cpg/sg12_125_cif.got.tgz:249250.got - 2010.06.28 00:19:55.
