data_PCOD8090859
_publ_section_title
;
Structure prediction by ZEFSAII (Michael W. Deem and Ramdas Pophale) SiO2 
 PCOD8090859
Probable space group: C 2/M
;
_chemical_formula_sum "Si O2"
_cell_formula_units_Z 60
_cell_length_a 26.807399
_cell_length_b 19.544434
_cell_length_c 12.958628
_cell_angle_alpha 90.000000
_cell_angle_beta 27.080250
_cell_angle_gamma 90.000000
_cell_volume 3090.831477
_symmetry_space_group_name_H-M "C 2/M"
_symmetry_group_IT_number 12
_symmetry_cell_setting 'monoclinic'
loop_
_space_group_symop_operation_xyz
x,y,z
-x,y,-z
-x,-y,-z
x,-y,z
1/2+x,1/2+y,z
1/2-x,1/2+y,-z
1/2-x,1/2-y,-z
1/2+x,1/2-y,z
loop_
_atom_site_type_symbol
_atom_site_label
_atom_site_fract_x
_atom_site_fract_y
_atom_site_fract_z
Si Si1 0.510503 0.671221 0.190100
Si Si2 0.145080 0.580924 0.945754
Si Si3 0.774396 0.839990 0.544678
Si Si4 0.734699 0.686760 0.670102
Si Si5 0.500000 0.866815 0.500000
Si Si6 0.780098 0.578058 0.974413
Si Si7 0.462722 0.822016 0.346009
Si Si8 0.565384 0.577839 0.274288
O O1 0.405325 0.652585 0.314711
O O2 0.506748 0.750721 0.223244
O O3 0.505883 0.624626 0.300066
O O4 0.621924 0.656662 0.922650
O O5 0.124180 0.500000 0.987380
O O6 0.212160 0.599854 0.719928
O O7 0.213263 0.607120 0.920887
O O8 0.027081 0.617540 0.168369
O O9 0.728985 0.768703 0.672880
O O10 0.744459 0.846724 0.479922
O O11 0.834466 0.665734 0.560589
O O12 0.604631 0.915434 0.295422
O O13 0.483367 0.819870 0.430607
O O14 0.744646 0.500000 0.049462
O O15 0.684329 0.611818 0.081753
O O16 0.500000 0.579528 0.500000
O O17 0.572697 0.500000 0.217662
#
# Coordination Sequence:
#
# PCOD8090859 Si02
#       8
#     8   8   8   8   4   8   8   8
#     4  11  21  37  59  84 116 150 193 243 287 342
#     4  10  20  39  61  87 120 152 195 240 285 342
#     4  10  21  37  60  84 108 154 195 237 291 340
#     4  10  21  39  59  81 116 148 195 241 283 352
#     4  10  19  34  52  82 115 144 184 232 276 338
#     4   9  18  33  55  79 111 153 187 223 278 343
#     4  10  22  37  56  87 117 152 193 232 294 339
#     4  10  21  36  55  82 114 153 192 229 283 342
#
# _framework density 19.412251999999999
#
# number of rings (size 3 to 8) (size 9 to 14) (size 15 to 20)
#    0.000    2.000    1.333    2.200    0.933    2.667 
#    0.000    4.667    0.000    1.600    0.000    0.000 
#    0.000    0.000    0.000    0.000    0.000    0.000 
#
# Total GULP energy -372004.461873 kJ/mol
# GULP energy per Si atom -12400.148729 kJ/mol
# Density = 1.936807 g / cm^3
# Si number density = 19.412252 Si / 1000 Ang^3
#
#
#
# Elastic Constant Matrix: (Units=GPa)
#
#
# Indices 1 2 3 4 5 6 
#
# 1 94.7848 26.2678 36.7187 0.0000 -6.9672 0.0000
# 2 26.2678 68.6839 24.9445 0.0000 0.1343 0.0000
# 3 36.7187 24.9445 108.1780 0.0000 -5.0150 0.0000
# 4 0.0000 0.0000 0.0000 19.0249 0.0000 5.5035
# 5 -6.9672 0.1343 -5.0150 0.0000 28.0167 0.0000
# 6 0.0000 0.0000 0.0000 5.5035 0.0000 19.8771
#
#
#
# Elastic Compliance Matrix: (Units=1/GPa)
#
#
# Indices 1 2 3 4 5 6 
#
# 1 0.013133 -0.003769 -0.003465 0.000000 0.002664 0.000000
# 2 -0.003769 0.016987 -0.002707 0.000000 -0.001503 0.000000
# 3 -0.003465 -0.002707 0.011097 0.000000 0.001138 0.000000
# 4 0.000000 0.000000 0.000000 0.057139 0.000000 -0.015820
# 5 0.002664 -0.001503 0.001138 0.000000 0.036566 0.000000
# 6 0.000000 0.000000 0.000000 -0.015820 0.000000 0.054690
#
#
# Mechanical properties :
#
#
# Convention : Reuss Voigt Hill
#
# Bulk Modulus (GPa) = 46.87384 49.72318 48.29851
# Shear Modulus (GPa) = 23.08326 25.63144 24.35735
#
# Velocity S-wave (km/s) = 3.45209 3.63764 3.54608
# Velocity P-wave (km/s) = 6.33152 6.58127 6.45760
#
# Compressibility (1/GPa) = 0.02133386
#
# Stress axis : x y z
#
# Youngs Moduli (GPa) = 76.14433 58.86780 90.11315
#
# Poissons Ratio (x) = 0.22190 0.31224
# Poissons Ratio (y) = 0.28702 0.24396
# Poissons Ratio (z) = 0.26384 0.15937
#
# Static dielectric constant tensor:
#      x y z
#    x 3.678170 0.000000 -0.160640 
#    y 0.000000 3.303090 0.000000 
#    z -0.160640 0.000000 3.559100 
# 
# 
# High freq. dielectric constant tensor:
#      x y z
#    x 1.761130 0.000000 -0.006960 
#    y 0.000000 1.730790 0.000000 
#    z -0.006960 0.000000 1.766500 
# 
# From -- ./inp_files/178028.got.cif
#   From: 2010.06.25/outbox.cif.g09.slc.cpg/sg12_90_cif.got.tgz:178028.got - 2010.06.28 00:19:55.
