data_PCOD8090723
_publ_section_title
;
Structure prediction by ZEFSAII (Michael W. Deem and Ramdas Pophale) SiO2 
 PCOD8090723
Probable space group: C 2/M
;
_chemical_formula_sum "Si O2"
_cell_formula_units_Z 48
_cell_length_a 7.164454
_cell_length_b 18.399110
_cell_length_c 27.277824
_cell_angle_alpha 90.000000
_cell_angle_beta 142.999888
_cell_angle_gamma 90.000000
_cell_volume 2163.982722
_symmetry_space_group_name_H-M "C 2/M"
_symmetry_group_IT_number 12
_symmetry_cell_setting 'monoclinic'
loop_
_space_group_symop_operation_xyz
x,y,z
-x,y,-z
-x,-y,-z
x,-y,z
1/2+x,1/2+y,z
1/2-x,1/2+y,-z
1/2-x,1/2-y,-z
1/2+x,1/2-y,z
loop_
_atom_site_type_symbol
_atom_site_label
_atom_site_fract_x
_atom_site_fract_y
_atom_site_fract_z
Si Si1 0.920691 0.312379 0.347149
Si Si2 0.617835 0.085309 0.802203
Si Si3 0.709918 0.081608 0.475766
Si Si4 0.401151 0.349238 0.366003
Si Si5 0.069765 0.821423 0.832524
Si Si6 0.168777 0.327930 0.906896
O O1 0.029680 0.230369 0.380360
O O2 0.574255 0.312595 0.252534
O O3 0.941577 0.362602 0.400625
O O4 0.144202 0.345666 0.353964
O O5 0.270927 0.112715 0.715729
O O6 0.684371 0.105584 0.872357
O O7 0.888291 0.119091 0.825652
O O8 0.634833 0.000000 0.798639
O O9 0.000000 0.088070 0.500000
O O10 0.814003 0.102871 0.553020
O O11 0.575980 0.000000 0.448003
O O12 0.051237 0.744986 0.856097
O O13 0.424726 0.846559 0.898973
O O14 0.500000 0.314153 0.000000
#
# Coordination Sequence:
#
# PCOD8090723 Si02
#       6
#     8   8   8   8   8   8
#     4  10  19  33  59  87 115 158 212 255 301 375
#     4  11  25  42  65  97 134 171 216 268 325 383
#     4   9  18  32  53  84 121 159 203 252 307 367
#     4  10  19  35  59  86 120 164 208 254 312 369
#     4  11  22  41  68  98 127 170 218 265 319 386
#     4  12  24  42  72  99 127 168 218 266 324 392
#
# _framework density 22.181324
#
# number of rings (size 3 to 8) (size 9 to 14) (size 15 to 20)
#    0.000    1.500    3.333    2.500    0.000    5.000 
#    0.000    0.833    0.000    1.000    0.000    0.000 
#    0.000    0.000    0.000    0.000    0.000    0.000 
#
# Total GULP energy -297663.812167 kJ/mol
# GULP energy per Si atom -12402.658840 kJ/mol
# Density = 2.213084 g / cm^3
# Si number density = 22.181324 Si / 1000 Ang^3
#
#
#
# Elastic Constant Matrix: (Units=GPa)
#
#
# Indices 1 2 3 4 5 6 
#
# 1 40.1475 7.8228 14.3733 -0.0014 3.9147 0.0003
# 2 7.8228 137.4886 50.9368 -0.0035 1.8264 -0.0029
# 3 14.3733 50.9368 115.8501 -0.0021 2.3106 -0.0021
# 4 -0.0014 -0.0035 -0.0021 22.1657 -0.0006 -0.7229
# 5 3.9147 1.8264 2.3106 -0.0006 28.6854 0.0001
# 6 0.0003 -0.0029 -0.0021 -0.7229 0.0001 23.0228
#
#
#
# Elastic Compliance Matrix: (Units=1/GPa)
#
#
# Indices 1 2 3 4 5 6 
#
# 1 0.026394 -0.000321 -0.003067 0.000001 -0.003334 -0.000001
# 2 -0.000321 0.008694 -0.003779 0.000001 -0.000205 0.000001
# 3 -0.003067 -0.003779 0.010678 0.000000 -0.000201 0.000001
# 4 0.000001 0.000001 0.000000 0.045161 0.000001 0.001418
# 5 -0.003334 -0.000205 -0.000201 0.000001 0.035345 0.000000
# 6 -0.000001 0.000001 0.000001 0.001418 0.000000 0.043480
#
#
# Mechanical properties :
#
#
# Convention : Reuss Voigt Hill
#
# Bulk Modulus (GPa) = 31.81449 48.86132 40.33790
# Shear Modulus (GPa) = 25.69860 29.46499 27.58179
#
# Velocity S-wave (km/s) = 3.40747 3.64863 3.53011
# Velocity P-wave (km/s) = 5.46399 6.31078 5.90259
#
# Compressibility (1/GPa) = 0.03143222
#
# Stress axis : x y z
#
# Youngs Moduli (GPa) = 37.88757 115.01814 93.65242
#
# Poissons Ratio (x) = 0.03695 0.28722
# Poissons Ratio (y) = 0.01217 0.35389
# Poissons Ratio (z) = 0.11620 0.43462
#
# Static dielectric constant tensor:
#      x y z
#    x 3.912800 0.000000 -0.148180 
#    y 0.000000 3.838560 0.000000 
#    z -0.148180 0.000000 4.330950 
# 
# 
# High freq. dielectric constant tensor:
#      x y z
#    x 1.874520 0.000000 -0.003240 
#    y 0.000000 1.860520 0.000000 
#    z -0.003240 0.000000 1.877010 
# 
# From -- ./inp_files/256458.got.cif
#   From: 2010.06.25/outbox.cif.g09.slc.cpg/sg12_129_cif.got.tgz:256458.got - 2010.06.28 00:19:55.
