data_PCOD8090112
_publ_section_title
;
Structure prediction by ZEFSAII (Michael W. Deem and Ramdas Pophale) SiO2 
 PCOD8090112
Probable space group: C 2/M
;
_chemical_formula_sum "Si O2"
_cell_formula_units_Z 56
_cell_length_a 24.238073
_cell_length_b 9.095844
_cell_length_c 14.018923
_cell_angle_alpha 90.000000
_cell_angle_beta 97.076754
_cell_angle_gamma 90.000000
_cell_volume 3067.147224
_symmetry_space_group_name_H-M "C 2/M"
_symmetry_group_IT_number 12
_symmetry_cell_setting 'monoclinic'
loop_
_space_group_symop_operation_xyz
x,y,z
-x,y,-z
-x,-y,-z
x,-y,z
1/2+x,1/2+y,z
1/2-x,1/2+y,-z
1/2-x,1/2-y,-z
1/2+x,1/2-y,z
loop_
_atom_site_type_symbol
_atom_site_label
_atom_site_fract_x
_atom_site_fract_y
_atom_site_fract_z
Si Si1 0.465603 0.325548 0.790699
Si Si2 0.686375 0.826573 0.744417
Si Si3 0.197177 0.328511 0.532010
Si Si4 0.578541 0.173165 0.834982
Si Si5 0.875626 0.330842 0.656624
Si Si6 0.705236 0.167848 0.191583
Si Si7 0.902188 0.329119 0.942617
O O1 0.466827 0.500000 0.794131
O O2 0.526596 0.262843 0.783635
O O3 0.426820 0.273096 0.695162
O O4 0.443846 0.265065 0.887064
O O5 0.684185 0.768977 0.635018
O O6 0.631404 0.771765 0.786289
O O7 0.740303 0.765816 0.810422
O O8 0.690211 0.000000 0.749632
O O9 0.211144 0.500000 0.536534
O O10 0.250000 0.250000 0.500000
O O11 0.142842 0.297393 0.455501
O O12 0.567946 0.000000 0.820133
O O13 0.588708 0.215104 0.946829
O O14 0.894209 0.500000 0.674651
O O15 0.823122 0.296287 0.713078
O O16 0.661675 0.205171 0.098187
O O17 0.724491 0.000000 0.190748
O O18 0.915714 0.500000 0.925895
#
# Coordination Sequence:
#
# PCOD8090112 Si02
#       7
#     8   8   8   8   8   8   8
#     4  11  22  35  55  82 106 131 175 231 270 302
#     4  10  21  34  52  80 110 139 177 218 258 308
#     4  10  19  33  55  82 109 138 175 216 259 310
#     4  10  21  38  55  73 105 148 181 211 258 318
#     4   9  18  34  55  78 106 142 177 211 261 320
#     4   9  17  31  51  77 106 139 176 213 259 312
#     4   9  19  36  57  77 103 142 181 212 257 321
#
# _framework density 18.258009000000001
#
# number of rings (size 3 to 8) (size 9 to 14) (size 15 to 20)
#    0.000    2.286    1.429    2.571    0.000    6.286 
#    0.000    0.714    0.000    4.286    0.000    0.000 
#    0.000    0.000    0.000    0.000    0.000    0.000 
#
# Total GULP energy -347254.914393 kJ/mol
# GULP energy per Si atom -12401.961228 kJ/mol
# Density = 1.821645 g / cm^3
# Si number density = 18.258009 Si / 1000 Ang^3
#
#
#
# Elastic Constant Matrix: (Units=GPa)
#
#
# Indices 1 2 3 4 5 6 
#
# 1 141.8779 52.9932 41.3019 0.0000 3.5638 0.0000
# 2 52.9932 58.9000 20.5197 0.0000 3.5387 0.0000
# 3 41.3019 20.5197 52.4767 0.0000 11.2779 0.0000
# 4 0.0000 0.0000 0.0000 16.5306 0.0000 3.4172
# 5 3.5638 3.5387 11.2779 0.0000 19.2794 0.0000
# 6 0.0000 0.0000 0.0000 3.4172 0.0000 34.5956
#
#
#
# Elastic Compliance Matrix: (Units=1/GPa)
#
#
# Indices 1 2 3 4 5 6 
#
# 1 0.012287 -0.008839 -0.006948 0.000000 0.003416 0.000000
# 2 -0.008839 0.026032 -0.002913 0.000000 -0.001440 0.000000
# 3 -0.006948 -0.002913 0.028907 0.000000 -0.015091 0.000000
# 4 0.000000 0.000000 0.000000 0.061755 0.000000 -0.006100
# 5 0.003416 -0.001440 -0.015091 0.000000 0.060329 0.000000
# 6 0.000000 0.000000 0.000000 -0.006100 0.000000 0.029508
#
#
# Mechanical properties :
#
#
# Convention : Reuss Voigt Hill
#
# Bulk Modulus (GPa) = 33.52836 53.65381 43.59108
# Shear Modulus (GPa) = 18.78577 23.31043 21.04810
#
# Velocity S-wave (km/s) = 3.21114 3.57700 3.39900
# Velocity P-wave (km/s) = 5.67028 6.81984 6.27145
#
# Compressibility (1/GPa) = 0.02982550
#
# Stress axis : x y z
#
# Youngs Moduli (GPa) = 81.38899 38.41431 34.59423
#
# Poissons Ratio (x) = 0.33955 0.24036
# Poissons Ratio (y) = 0.71941 0.10076
# Poissons Ratio (z) = 0.56549 0.11189
#
# Static dielectric constant tensor:
#      x y z
#    x 3.341620 0.000000 0.123020 
#    y 0.000000 3.204970 0.000000 
#    z 0.123020 0.000000 3.534180 
# 
# 
# High freq. dielectric constant tensor:
#      x y z
#    x 1.704730 0.000000 0.016350 
#    y 0.000000 1.695350 0.000000 
#    z 0.016350 0.000000 1.704850 
# 
# From -- ./inp_files/230923.got.cif
#   From: 2010.06.25/outbox.cif.g09.slc.cpg/sg12_116_cif.got.tgz:230923.got - 2010.06.28 00:19:55.
