data_PCOD8090227
_publ_section_title
;
Structure prediction by ZEFSAII (Michael W. Deem and Ramdas Pophale) SiO2 
 PCOD8090227
Probable space group: C 2/M
;
_chemical_formula_sum "Si O2"
_cell_formula_units_Z 64
_cell_length_a 26.812902
_cell_length_b 19.227174
_cell_length_c 8.936230
_cell_angle_alpha 90.000000
_cell_angle_beta 51.022666
_cell_angle_gamma 90.000000
_cell_volume 3581.420201
_symmetry_space_group_name_H-M "C 2/M"
_symmetry_group_IT_number 12
_symmetry_cell_setting 'monoclinic'
loop_
_space_group_symop_operation_xyz
x,y,z
-x,y,-z
-x,-y,-z
x,-y,z
1/2+x,1/2+y,z
1/2-x,1/2+y,-z
1/2-x,1/2-y,-z
1/2+x,1/2-y,z
loop_
_atom_site_type_symbol
_atom_site_label
_atom_site_fract_x
_atom_site_fract_y
_atom_site_fract_z
Si Si1 0.253964 0.362170 0.409255
Si Si2 0.110182 0.079043 0.852872
Si Si3 0.433110 0.706687 0.553353
Si Si4 0.062940 0.211401 0.806910
Si Si5 0.770002 0.579240 0.853193
Si Si6 0.817199 0.710846 0.906271
Si Si7 0.879057 0.921194 0.822330
Si Si8 0.179542 0.722300 0.760003
O O1 0.316797 0.405580 0.335555
O O2 0.218684 0.403547 0.343272
O O3 0.208841 0.350175 0.639735
O O4 0.268364 0.283863 0.326313
O O5 0.064457 0.130059 0.848625
O O6 0.093262 0.000000 0.843344
O O7 0.099350 0.094270 0.048808
O O8 0.500000 0.731241 0.500000
O O9 0.440647 0.713592 0.363109
O O10 0.374220 0.755448 0.706059
O O11 0.416830 0.628203 0.636879
O O12 0.122472 0.253960 0.759613
O O13 0.000000 0.245259 0.000000
O O14 0.790834 0.500000 0.843685
O O15 0.813325 0.630011 0.869525
O O16 0.696717 0.592366 0.040274
O O17 0.750000 0.750000 0.000000
O O18 0.841429 0.710608 0.030918
O O19 0.895477 0.000000 0.745056
#
# Coordination Sequence:
#
# PCOD8090227 Si02
#       8
#     8   8   8   8   8   8   8   8
#     4   9  16  30  51  77 108 142 182 229 281 327
#     4   9  18  32  51  74 108 149 189 227 271 326
#     4  12  24  38  58  82 111 151 195 239 291 344
#     4  11  23  37  53  75 110 147 188 234 278 336
#     4  10  19  33  55  84 119 153 189 233 291 341
#     4  12  21  36  60  86 114 149 189 242 284 337
#     4   9  18  34  54  80 114 153 191 235 282 337
#     4  10  20  32  54  80 109 141 185 232 280 331
#
# _framework density 17.870006
#
# number of rings (size 3 to 8) (size 9 to 14) (size 15 to 20)
#    0.000    1.750    2.500    4.875    3.500    1.000 
#    0.000    2.500    0.000    0.375    0.000    0.000 
#    0.000    6.000    0.000    0.000    0.000    0.000 
#
# Total GULP energy -396724.565598 kJ/mol
# GULP energy per Si atom -12397.642675 kJ/mol
# Density = 1.782933 g / cm^3
# Si number density = 17.870006 Si / 1000 Ang^3
#
#
#
# Elastic Constant Matrix: (Units=GPa)
#
#
# Indices 1 2 3 4 5 6 
#
# 1 99.6585 37.2984 48.4251 0.0000 12.4798 0.0000
# 2 37.2984 78.4797 34.5706 0.0000 0.6870 0.0000
# 3 48.4251 34.5706 114.4733 0.0000 12.4306 0.0000
# 4 0.0000 0.0000 0.0000 26.8047 0.0000 6.1809
# 5 12.4798 0.6870 12.4306 0.0000 26.9094 0.0000
# 6 0.0000 0.0000 0.0000 6.1809 0.0000 21.5518
#
#
#
# Elastic Compliance Matrix: (Units=1/GPa)
#
#
# Indices 1 2 3 4 5 6 
#
# 1 0.014505 -0.005046 -0.004101 0.000000 -0.004703 0.000000
# 2 -0.005046 0.016532 -0.003229 0.000000 0.003409 0.000000
# 3 -0.004101 -0.003229 0.011823 0.000000 -0.003477 0.000000
# 4 0.000000 0.000000 0.000000 0.039949 0.000000 -0.011457
# 5 -0.004703 0.003409 -0.003477 0.000000 0.040862 0.000000
# 6 0.000000 0.000000 0.000000 -0.011457 0.000000 0.049686
#
#
# Mechanical properties :
#
#
# Convention : Reuss Voigt Hill
#
# Bulk Modulus (GPa) = 55.22033 59.24442 57.23238
# Shear Modulus (GPa) = 24.49250 26.54101 25.51676
#
# Velocity S-wave (km/s) = 3.70617 3.85805 3.78287
# Velocity P-wave (km/s) = 7.02015 7.28498 7.15379
#
# Compressibility (1/GPa) = 0.01810927
#
# Stress axis : x y z
#
# Youngs Moduli (GPa) = 68.94412 60.48695 84.57951
#
# Poissons Ratio (x) = 0.30520 0.34688
# Poissons Ratio (y) = 0.34787 0.27307
# Poissons Ratio (z) = 0.28276 0.19529
#
# Static dielectric constant tensor:
#      x y z
#    x 3.203640 0.000000 0.072990 
#    y 0.000000 3.290840 0.000000 
#    z 0.072990 0.000000 3.324870 
# 
# 
# High freq. dielectric constant tensor:
#      x y z
#    x 1.682300 0.000000 0.012260 
#    y 0.000000 1.675700 0.000000 
#    z 0.012260 0.000000 1.685580 
# 
# From -- ./inp_files/99099.got.cif
#   From: 2010.06.25/outbox.cif.g09.slc.cpg/sg12_50_cif.got.tgz:99099.got - 2010.06.28 00:19:55.
