data_PCOD8090419
_publ_section_title
;
Structure prediction by ZEFSAII (Michael W. Deem and Ramdas Pophale) SiO2 
 PCOD8090419
Probable space group: C 2/M
;
_chemical_formula_sum "Si O2"
_cell_formula_units_Z 40
_cell_length_a 18.153867
_cell_length_b 9.004851
_cell_length_c 26.266030
_cell_angle_alpha 90.000000
_cell_angle_beta 29.728207
_cell_angle_gamma 90.000000
_cell_volume 2129.228026
_symmetry_space_group_name_H-M "C 2/M"
_symmetry_group_IT_number 12
_symmetry_cell_setting 'monoclinic'
loop_
_space_group_symop_operation_xyz
x,y,z
-x,y,-z
-x,-y,-z
x,-y,z
1/2+x,1/2+y,z
1/2-x,1/2+y,-z
1/2-x,1/2-y,-z
1/2+x,1/2-y,z
loop_
_atom_site_type_symbol
_atom_site_label
_atom_site_fract_x
_atom_site_fract_y
_atom_site_fract_z
Si Si1 0.092371 0.327610 0.595958
Si Si2 0.174877 0.330308 0.999464
Si Si3 0.447467 0.675089 0.777079
Si Si4 0.605549 0.174024 0.777704
Si Si5 0.911232 0.670844 0.603021
O O1 0.113941 0.500000 0.595670
O O2 0.250000 0.250000 0.500000
O O3 0.988459 0.254605 0.700522
O O4 0.017537 0.302368 0.586662
O O5 0.202987 0.500000 0.994261
O O6 0.998269 0.295436 0.109342
O O7 0.250000 0.250000 0.000000
O O8 0.269302 0.290361 0.891899
O O9 0.480229 0.500000 0.752915
O O10 0.545716 0.738255 0.764468
O O11 0.767246 0.228270 0.696096
O O12 0.609483 0.000000 0.761864
O O13 0.861291 0.500000 0.628260
O O14 0.000000 0.722755 0.500000
#
# Coordination Sequence:
#
# PCOD8090419 Si02
#       5
#     8   8   8   8   8
#     4  11  23  38  57  81 108 138 177 223 270 322
#     4   8  16  30  50  78 108 140 177 217 260 308
#     4  10  19  34  56  80 111 147 179 215 264 317
#     4  10  19  33  56  84 110 138 180 226 264 310
#     4  10  22  39  56  76 105 140 176 218 272 327
#
# _framework density 18.786152000000001
#
# number of rings (size 3 to 8) (size 9 to 14) (size 15 to 20)
#    0.000    2.200    0.000    3.000    0.000    5.200 
#    0.000    1.000    0.000    6.000    0.000    0.000 
#    0.000    0.000    0.000    0.000    0.000    0.000 
#
# Total GULP energy -247828.309024 kJ/mol
# GULP energy per Si atom -12391.415451 kJ/mol
# Density = 1.874339 g / cm^3
# Si number density = 18.786152 Si / 1000 Ang^3
#
#
#
# Elastic Constant Matrix: (Units=GPa)
#
#
# Indices 1 2 3 4 5 6 
#
# 1 71.5953 47.8081 62.9657 0.0056 7.5791 -0.0113
# 2 47.8081 101.3408 80.4149 0.0087 4.8717 -0.0132
# 3 62.9657 80.4149 188.9758 0.0010 9.0127 -0.0003
# 4 0.0056 0.0087 0.0010 33.9141 -0.0037 0.1481
# 5 7.5791 4.8717 9.0127 -0.0037 29.2831 0.0091
# 6 -0.0113 -0.0132 -0.0003 0.1481 0.0091 28.3819
#
#
#
# Elastic Compliance Matrix: (Units=1/GPa)
#
#
# Indices 1 2 3 4 5 6 
#
# 1 0.023036 -0.007160 -0.004467 -0.000002 -0.003396 0.000007
# 2 -0.007160 0.017132 -0.004929 -0.000003 0.000520 0.000005
# 3 -0.004467 -0.004929 0.008914 0.000002 -0.000767 -0.000004
# 4 -0.000002 -0.000003 0.000002 0.029487 0.000004 -0.000154
# 5 -0.003396 0.000520 -0.000767 0.000004 0.035178 -0.000012
# 6 0.000007 0.000005 -0.000004 -0.000154 -0.000012 0.035235
#
#
# Mechanical properties :
#
#
# Convention : Reuss Voigt Hill
#
# Bulk Modulus (GPa) = 62.61569 82.69883 72.65726
# Shear Modulus (GPa) = 26.67842 29.69738 28.18790
#
# Velocity S-wave (km/s) = 3.77252 3.98026 3.87778
# Velocity P-wave (km/s) = 7.23734 8.07713 7.66874
#
# Compressibility (1/GPa) = 0.01597044
#
# Stress axis : x y z
#
# Youngs Moduli (GPa) = 43.40955 58.37102 112.18041
#
# Poissons Ratio (x) = 0.41792 0.50110
# Poissons Ratio (y) = 0.31080 0.55297
# Poissons Ratio (z) = 0.19391 0.28773
#
# Static dielectric constant tensor:
#      x y z
#    x 3.117910 0.000000 0.095160 
#    y 0.000000 3.568160 0.000090 
#    z 0.095160 0.000090 4.489240 
# 
# 
# High freq. dielectric constant tensor:
#      x y z
#    x 1.694670 0.000000 0.004980 
#    y 0.000000 1.741660 0.000000 
#    z 0.004980 0.000000 1.759220 
# 
# From -- ./inp_files/151734.got.cif
#   From: 2010.06.25/outbox.cif.g09.slc.cpg/sg12_76_cif.got.tgz:151734.got - 2010.06.28 00:19:55.
