data_PCOD8090140
_publ_section_title
;
Structure prediction by ZEFSAII (Michael W. Deem and Ramdas Pophale) SiO2 
 PCOD8090140
Probable space group: C 2/M
;
_chemical_formula_sum "Si O2"
_cell_formula_units_Z 56
_cell_length_a 28.257726
_cell_length_b 8.865018
_cell_length_c 13.510551
_cell_angle_alpha 90.000000
_cell_angle_beta 121.457916
_cell_angle_gamma 90.000000
_cell_volume 2887.028002
_symmetry_space_group_name_H-M "C 2/M"
_symmetry_group_IT_number 12
_symmetry_cell_setting 'monoclinic'
loop_
_space_group_symop_operation_xyz
x,y,z
-x,y,-z
-x,-y,-z
x,-y,z
1/2+x,1/2+y,z
1/2-x,1/2+y,-z
1/2-x,1/2-y,-z
1/2+x,1/2-y,z
loop_
_atom_site_type_symbol
_atom_site_label
_atom_site_fract_x
_atom_site_fract_y
_atom_site_fract_z
Si Si1 0.866125 0.178155 0.180364
Si Si2 0.585485 0.178215 0.280575
Si Si3 0.697062 0.178013 0.726351
Si Si4 0.025481 0.176578 0.815949
Si Si5 0.414261 0.172653 0.944238
Si Si6 0.198918 0.678423 0.501393
Si Si7 0.302560 0.825915 0.937138
O O1 0.855753 0.240354 0.279658
O O2 0.927939 0.224035 0.213356
O O3 0.857499 0.000000 0.165145
O O4 0.820434 0.257985 0.061599
O O5 0.532324 0.247068 0.278912
O O6 0.584101 0.232901 0.165616
O O7 0.641653 0.238926 0.391859
O O8 0.582641 0.000000 0.286336
O O9 0.699830 0.230782 0.616030
O O10 0.752412 0.229061 0.841306
O O11 0.689344 0.000000 0.726678
O O12 0.016780 0.000000 0.809031
O O13 0.043527 0.230092 0.944689
O O14 0.351686 0.190885 0.912281
O O15 0.434186 0.000000 0.973395
O O16 0.203791 0.500000 0.496196
O O17 0.250000 0.750000 0.500000
O O18 0.284912 0.000000 0.931819
#
# Coordination Sequence:
#
# PCOD8090140 Si02
#       7
#     8   8   8   8   8   8   8
#     4  10  21  37  55  78 110 144 180 223 270 322
#     4  10  20  36  56  78 107 143 181 218 263 319
#     4  11  22  36  55  80 109 142 182 224 269 319
#     4  10  21  35  53  80 110 139 176 222 269 316
#     4   9  18  32  53  80 109 143 178 213 261 323
#     4  10  23  41  60  83 110 141 179 223 266 316
#     4  10  19  33  55  82 112 145 180 220 270 323
#
# _framework density 19.397109
#
# number of rings (size 3 to 8) (size 9 to 14) (size 15 to 20)
#    0.000    2.000    0.000    3.429    0.000    7.429 
#    0.000    0.714    0.000    4.286    0.000    0.000 
#    0.000    0.000    0.000    0.000    0.000    0.000 
#
# Total GULP energy -347292.088166 kJ/mol
# GULP energy per Si atom -12403.288863 kJ/mol
# Density = 1.935296 g / cm^3
# Si number density = 19.397109 Si / 1000 Ang^3
#
#
#
# Elastic Constant Matrix: (Units=GPa)
#
#
# Indices 1 2 3 4 5 6 
#
# 1 140.6930 38.8759 87.5688 0.0000 2.3159 0.0000
# 2 38.8759 41.9982 28.5125 0.0000 -3.6958 0.0000
# 3 87.5688 28.5125 87.7428 0.0000 -4.7805 0.0000
# 4 0.0000 0.0000 0.0000 20.1221 0.0000 2.2035
# 5 2.3159 -3.6958 -4.7805 0.0000 34.9447 0.0000
# 6 0.0000 0.0000 0.0000 2.2035 0.0000 35.9538
#
#
#
# Elastic Compliance Matrix: (Units=1/GPa)
#
#
# Indices 1 2 3 4 5 6 
#
# 1 0.020732 -0.006905 -0.018702 0.000000 -0.004663 0.000000
# 2 -0.006905 0.032974 -0.003636 0.000000 0.003448 0.000000
# 3 -0.018702 -0.003636 0.031525 0.000000 0.005168 0.000000
# 4 0.000000 0.000000 0.000000 0.050032 0.000000 -0.003066
# 5 -0.004663 0.003448 0.005168 0.000000 0.029997 0.000000
# 6 0.000000 0.000000 0.000000 -0.003066 0.000000 0.028001
#
#
# Mechanical properties :
#
#
# Convention : Reuss Voigt Hill
#
# Bulk Modulus (GPa) = 37.38885 64.48315 50.93600
# Shear Modulus (GPa) = 19.18190 25.90256 22.54223
#
# Velocity S-wave (km/s) = 3.14810 3.65825 3.41272
# Velocity P-wave (km/s) = 5.70363 7.15259 6.46881
#
# Compressibility (1/GPa) = 0.02674594
#
# Stress axis : x y z
#
# Youngs Moduli (GPa) = 48.23364 30.32688 31.72133
#
# Poissons Ratio (x) = 0.20940 0.59324
# Poissons Ratio (y) = 0.33305 0.11534
# Poissons Ratio (z) = 0.90204 0.11027
#
# Static dielectric constant tensor:
#      x y z
#    x 3.829610 0.000000 -0.102140 
#    y 0.000000 3.472390 0.000000 
#    z -0.102140 0.000000 3.527550 
# 
# 
# High freq. dielectric constant tensor:
#      x y z
#    x 1.774850 0.000000 -0.003580 
#    y 0.000000 1.753970 0.000000 
#    z -0.003580 0.000000 1.736300 
# 
# From -- ./inp_files/187760.got.cif
#   From: 2010.06.25/outbox.cif.g09.slc.cpg/sg12_94_cif.got.tgz:187760.got - 2010.06.28 00:19:55.
