data_PCOD8090412
_publ_section_title
;
Structure prediction by ZEFSAII (Michael W. Deem and Ramdas Pophale) SiO2 
 PCOD8090412
Probable space group: C 2/M
;
_chemical_formula_sum "Si O2"
_cell_formula_units_Z 64
_cell_length_a 14.958675
_cell_length_b 18.874928
_cell_length_c 11.547269
_cell_angle_alpha 90.000000
_cell_angle_beta 94.722632
_cell_angle_gamma 90.000000
_cell_volume 3249.232213
_symmetry_space_group_name_H-M "C 2/M"
_symmetry_group_IT_number 12
_symmetry_cell_setting 'monoclinic'
loop_
_space_group_symop_operation_xyz
x,y,z
-x,y,-z
-x,-y,-z
x,-y,z
1/2+x,1/2+y,z
1/2-x,1/2+y,-z
1/2-x,1/2-y,-z
1/2+x,1/2-y,z
loop_
_atom_site_type_symbol
_atom_site_label
_atom_site_fract_x
_atom_site_fract_y
_atom_site_fract_z
Si Si1 0.591638 0.419065 0.575023
Si Si2 0.271497 0.724137 0.876289
Si Si3 0.888687 0.782998 0.288874
Si Si4 0.004040 0.419871 0.864172
Si Si5 0.707320 0.078284 0.810690
Si Si6 0.063911 0.278824 0.231402
Si Si7 0.270403 0.078204 0.458224
Si Si8 0.651604 0.782300 0.481723
O O1 0.500000 0.400463 0.500000
O O2 0.591542 0.500000 0.620879
O O3 0.606370 0.367583 0.687151
O O4 0.669975 0.405340 0.490508
O O5 0.206755 0.761497 0.775385
O O6 0.263749 0.638962 0.879827
O O7 0.373247 0.744281 0.858669
O O8 0.250000 0.750000 0.000000
O O9 0.904187 0.742928 0.412772
O O10 0.966411 0.757741 0.209572
O O11 0.969462 0.500000 0.835896
O O12 0.103204 0.409462 0.825158
O O13 0.941327 0.363426 0.791406
O O14 0.000000 0.403617 0.000000
O O15 0.728268 0.086305 0.678550
O O16 0.736619 0.000000 0.858175
O O17 0.101989 0.258709 0.360970
O O18 0.341040 0.132491 0.520548
O O19 0.301105 0.000000 0.500281
O O20 0.750000 0.750000 0.500000
#
# Coordination Sequence:
#
# PCOD8090412 Si02
#       8
#     8   8   8   8   8   8   8   8
#     4  10  21  35  56  88 123 161 202 246 304 373
#     4  12  25  42  63  92 123 163 214 263 313 373
#     4  12  24  40  61  90 125 159 207 258 313 370
#     4  10  21  40  64  91 124 162 209 264 318 375
#     4  10  20  39  62  88 123 163 206 254 311 375
#     4  12  24  37  66  91 123 167 207 258 313 373
#     4  10  19  33  56  83 120 159 192 239 300 370
#     4  12  20  37  57  87 124 160 199 250 309 370
#
# _framework density 19.696961000000002
#
# number of rings (size 3 to 8) (size 9 to 14) (size 15 to 20)
#    0.000    1.000    5.000    1.875    1.750    0.500 
#    0.000    1.250    0.000    3.750    0.000    1.750 
#    0.000    0.000    0.000    0.000    0.000    0.000 
#
# Total GULP energy -396844.974189 kJ/mol
# GULP energy per Si atom -12401.405443 kJ/mol
# Density = 1.965213 g / cm^3
# Si number density = 19.696961 Si / 1000 Ang^3
#
#
#
# Elastic Constant Matrix: (Units=GPa)
#
#
# Indices 1 2 3 4 5 6 
#
# 1 80.5259 38.7877 22.6313 0.0000 -24.0095 0.0000
# 2 38.7877 153.3681 30.5635 0.0000 -5.6493 0.0000
# 3 22.6313 30.5635 78.3701 0.0000 -18.7907 0.0000
# 4 0.0000 0.0000 0.0000 32.1138 0.0000 2.1115
# 5 -24.0095 -5.6493 -18.7907 0.0000 25.8766 0.0000
# 6 0.0000 0.0000 0.0000 2.1115 0.0000 33.2212
#
#
#
# Elastic Compliance Matrix: (Units=1/GPa)
#
#
# Indices 1 2 3 4 5 6 
#
# 1 0.019668 -0.004373 0.000209 0.000000 0.017445 0.000000
# 2 -0.004373 0.008049 -0.002939 0.000000 -0.004435 0.000000
# 3 0.000209 -0.002939 0.016635 0.000000 0.011632 0.000000
# 4 0.000000 0.000000 0.000000 0.031270 0.000000 -0.001987
# 5 0.017445 -0.004435 0.011632 0.000000 0.062310 0.000000
# 6 0.000000 0.000000 0.000000 -0.001987 0.000000 0.030228
#
#
# Mechanical properties :
#
#
# Convention : Reuss Voigt Hill
#
# Bulk Modulus (GPa) = 33.17418 55.13656 44.15537
# Shear Modulus (GPa) = 25.98562 32.92776 29.45669
#
# Velocity S-wave (km/s) = 3.63612 4.09310 3.87136
# Velocity P-wave (km/s) = 5.87429 7.09867 6.51531
#
# Compressibility (1/GPa) = 0.03014392
#
# Stress axis : x y z
#
# Youngs Moduli (GPa) = 50.84498 124.24443 60.11440
#
# Poissons Ratio (x) = 0.54333 -0.01255
# Poissons Ratio (y) = 0.22235 0.17670
# Poissons Ratio (z) = -0.01062 0.36521
#
# Static dielectric constant tensor:
#      x y z
#    x 3.538570 0.000000 -0.242500 
#    y 0.000000 4.081010 0.000000 
#    z -0.242500 0.000000 3.411690 
# 
# 
# High freq. dielectric constant tensor:
#      x y z
#    x 1.764460 0.000000 -0.029110 
#    y 0.000000 1.786860 0.000000 
#    z -0.029110 0.000000 1.747980 
# 
# From -- ./inp_files/146142.got.cif
#   From: 2010.06.25/outbox.cif.g09.slc.cpg/sg12_74_cif.got.tgz:146142.got - 2010.06.28 00:19:55.
