data_PCOD8090628
_publ_section_title
;
Structure prediction by ZEFSAII (Michael W. Deem and Ramdas Pophale) SiO2 
 PCOD8090628
Probable space group: C 2/M
;
_chemical_formula_sum "Si O2"
_cell_formula_units_Z 56
_cell_length_a 22.280542
_cell_length_b 22.732976
_cell_length_c 14.403819
_cell_angle_alpha 90.000000
_cell_angle_beta 158.875413
_cell_angle_gamma 90.000000
_cell_volume 2629.305327
_symmetry_space_group_name_H-M "C 2/M"
_symmetry_group_IT_number 12
_symmetry_cell_setting 'monoclinic'
loop_
_space_group_symop_operation_xyz
x,y,z
-x,y,-z
-x,-y,-z
x,-y,z
1/2+x,1/2+y,z
1/2-x,1/2+y,-z
1/2-x,1/2-y,-z
1/2+x,1/2-y,z
loop_
_atom_site_type_symbol
_atom_site_label
_atom_site_fract_x
_atom_site_fract_y
_atom_site_fract_z
Si Si1 0.371431 0.932124 0.014990
Si Si2 0.256336 0.565438 0.830175
Si Si3 0.607935 0.433167 0.785133
Si Si4 0.277635 0.618256 0.373423
Si Si5 0.162276 0.634054 0.531926
Si Si6 0.866992 0.933647 0.688440
Si Si7 0.306338 0.248010 0.690484
O O1 0.191816 0.924411 0.806014
O O2 0.355711 0.912707 0.885905
O O3 0.431824 0.000000 0.110267
O O4 0.498826 0.886342 0.242641
O O5 0.190111 0.500000 0.712014
O O6 0.145220 0.611989 0.613723
O O7 0.249233 0.577149 0.930235
O O8 0.443900 0.573851 0.066670
O O9 0.537110 0.500000 0.693657
O O10 0.459242 0.388016 0.588510
O O11 0.256534 0.586511 0.441623
O O12 0.241870 0.686667 0.333524
O O13 0.324140 0.605454 0.715882
O O14 0.188308 0.703840 0.569436
O O15 0.821144 0.000000 0.648934
O O16 0.250000 0.250000 0.500000
O O17 0.500000 0.260332 0.000000
#
# Coordination Sequence:
#
# PCOD8090628 Si02
#       7
#     8   8   8   8   8   8   8
#     4  11  23  40  65  98 132 167 213 278 339 388
#     4   9  18  34  58  87 117 156 204 258 322 390
#     4   9  20  40  67  94 123 164 214 270 334 391
#     4  11  22  39  64  90 124 169 218 268 328 396
#     4  12  23  37  58  89 128 172 211 260 325 394
#     4  10  19  33  57  90 120 152 202 266 328 387
#     4  12  26  45  66  92 133 181 227 269 325 400
#
# _framework density 21.298400999999998
#
# number of rings (size 3 to 8) (size 9 to 14) (size 15 to 20)
#    0.000    1.429    1.429    6.000    2.000    2.857 
#    0.000    4.286    3.143    0.000    0.000    0.000 
#    0.000    0.000    0.000    0.000    0.000    0.000 
#
# Total GULP energy -347101.340622 kJ/mol
# GULP energy per Si atom -12396.476451 kJ/mol
# Density = 2.124992 g / cm^3
# Si number density = 21.298401 Si / 1000 Ang^3
#
#
#
# Elastic Constant Matrix: (Units=GPa)
#
#
# Indices 1 2 3 4 5 6 
#
# 1 45.0360 15.8232 5.9446 0.0000 -18.3526 0.0000
# 2 15.8232 94.9791 30.6411 0.0000 -1.8987 0.0000
# 3 5.9446 30.6411 91.1490 0.0000 -16.1006 0.0000
# 4 0.0000 0.0000 0.0000 33.5315 0.0000 0.3295
# 5 -18.3526 -1.8987 -16.1006 0.0000 38.5486 0.0000
# 6 0.0000 0.0000 0.0000 0.3295 0.0000 14.8096
#
#
#
# Elastic Compliance Matrix: (Units=1/GPa)
#
#
# Indices 1 2 3 4 5 6 
#
# 1 0.029936 -0.005512 0.002559 0.000000 0.015050 0.000000
# 2 -0.005512 0.012873 -0.004663 0.000000 -0.003938 0.000000
# 3 0.002559 -0.004663 0.013546 0.000000 0.006646 0.000000
# 4 0.000000 0.000000 0.000000 0.029829 0.000000 -0.000664
# 5 0.015050 -0.003938 0.006646 0.000000 0.035688 0.000000
# 6 0.000000 0.000000 0.000000 -0.000664 0.000000 0.067538
#
#
# Mechanical properties :
#
#
# Convention : Reuss Voigt Hill
#
# Bulk Modulus (GPa) = 24.31808 37.33132 30.82470
# Shear Modulus (GPa) = 22.89894 29.29495 26.09695
#
# Velocity S-wave (km/s) = 3.28250 3.71273 3.50423
# Velocity P-wave (km/s) = 5.08026 5.99541 5.55671
#
# Compressibility (1/GPa) = 0.04112167
#
# Stress axis : x y z
#
# Youngs Moduli (GPa) = 33.40446 77.68399 73.82326
#
# Poissons Ratio (x) = 0.42819 -0.18891
# Poissons Ratio (y) = 0.18412 0.34427
# Poissons Ratio (z) = -0.08548 0.36228
#
# Static dielectric constant tensor:
#      x y z
#    x 4.047740 0.000000 -0.375490 
#    y 0.000000 3.738300 0.000000 
#    z -0.375490 0.000000 3.937940 
# 
# 
# High freq. dielectric constant tensor:
#      x y z
#    x 1.835040 0.000000 -0.021400 
#    y 0.000000 1.815730 0.000000 
#    z -0.021400 0.000000 1.844640 
# 
# From -- ./inp_files/242180.got.cif
#   From: 2010.06.25/outbox.cif.g09.slc.cpg/sg12_122_cif.got.tgz:242180.got - 2010.06.28 00:19:55.
