data_PCOD8090232
_publ_section_title
;
Structure prediction by ZEFSAII (Michael W. Deem and Ramdas Pophale) SiO2 
 PCOD8090232
Probable space group: C 2/M
;
_chemical_formula_sum "Si O2"
_cell_formula_units_Z 60
_cell_length_a 12.241320
_cell_length_b 20.000171
_cell_length_c 14.167882
_cell_angle_alpha 90.000000
_cell_angle_beta 64.936414
_cell_angle_gamma 90.000000
_cell_volume 3142.082101
_symmetry_space_group_name_H-M "C 2/M"
_symmetry_group_IT_number 12
_symmetry_cell_setting 'monoclinic'
loop_
_space_group_symop_operation_xyz
x,y,z
-x,y,-z
-x,-y,-z
x,-y,z
1/2+x,1/2+y,z
1/2-x,1/2+y,-z
1/2-x,1/2-y,-z
1/2+x,1/2-y,z
loop_
_atom_site_type_symbol
_atom_site_label
_atom_site_fract_x
_atom_site_fract_y
_atom_site_fract_z
Si Si1 0.993739 0.075107 0.212593
Si Si2 0.752272 0.177763 0.102024
Si Si3 0.000000 0.113581 0.000000
Si Si4 0.362962 0.810937 0.052144
Si Si5 0.256658 0.578457 0.796185
Si Si6 0.260239 0.576943 0.398094
Si Si7 0.105679 0.577418 0.281082
Si Si8 0.166246 0.421876 0.625898
O O1 0.979881 0.072394 0.104052
O O2 0.877096 0.110938 0.303864
O O3 0.117492 0.107177 0.207576
O O4 0.998434 0.000000 0.247461
O O5 0.883914 0.156826 0.019149
O O6 0.774159 0.254126 0.130171
O O7 0.699705 0.126651 0.196716
O O8 0.664483 0.175944 0.046367
O O9 0.349342 0.879848 0.115008
O O10 0.500000 0.786595 0.000000
O O11 0.236052 0.500000 0.825847
O O12 0.247836 0.592750 0.687440
O O13 0.293460 0.500000 0.401703
O O14 0.139888 0.582805 0.378718
O O15 0.232036 0.610798 0.510305
O O16 0.122110 0.500000 0.239842
O O17 0.970693 0.605131 0.312982
O O18 0.151285 0.500000 0.611961
#
# Coordination Sequence:
#
# PCOD8090232 Si02
#       8
#     8   8   4   8   8   8   8   8
#     4  10  20  32  52  82 113 142 177 227 274 316
#     4  11  23  36  57  81 106 146 182 219 270 329
#     4  12  19  36  54  78 107 142 182 226 264 326
#     4  11  23  39  55  77 110 145 185 220 268 327
#     4  10  21  36  54  79 108 143 184 224 271 321
#     4   9  17  30  52  82 111 140 177 224 277 321
#     4  10  19  33  55  85 111 138 179 227 275 317
#     4   9  18  33  53  80 112 142 179 226 270 322
#
# _framework density 19.095618000000002
#
# number of rings (size 3 to 8) (size 9 to 14) (size 15 to 20)
#    0.000    1.867    3.333    1.400    0.000    3.467 
#    0.000    2.667    0.000    0.800    3.467    0.000 
#    0.000    0.000    0.000    0.000    0.000    0.000 
#
# Total GULP energy -371736.431840 kJ/mol
# GULP energy per Si atom -12391.214395 kJ/mol
# Density = 1.905216 g / cm^3
# Si number density = 19.095618 Si / 1000 Ang^3
#
#
#
# Elastic Constant Matrix: (Units=GPa)
#
#
# Indices 1 2 3 4 5 6 
#
# 1 119.4929 18.0867 55.4702 0.0000 8.6050 0.0000
# 2 18.0867 59.0791 38.6531 0.0000 4.7858 0.0000
# 3 55.4702 38.6531 117.5363 0.0000 1.1215 0.0000
# 4 0.0000 0.0000 0.0000 4.6201 0.0000 2.3970
# 5 8.6050 4.7858 1.1215 0.0000 28.3350 0.0000
# 6 0.0000 0.0000 0.0000 2.3970 0.0000 9.6658
#
#
#
# Elastic Compliance Matrix: (Units=1/GPa)
#
#
# Indices 1 2 3 4 5 6 
#
# 1 0.010993 0.000340 -0.005270 0.000000 -0.003187 0.000000
# 2 0.000340 0.021903 -0.007330 0.000000 -0.003513 0.000000
# 3 -0.005270 -0.007330 0.013383 0.000000 0.002309 0.000000
# 4 0.000000 0.000000 0.000000 0.248405 0.000000 -0.061601
# 5 -0.003187 -0.003513 0.002309 0.000000 0.036762 0.000000
# 6 0.000000 0.000000 0.000000 -0.061601 0.000000 0.118734
#
#
# Mechanical properties :
#
#
# Convention : Reuss Voigt Hill
#
# Bulk Modulus (GPa) = 45.95461 57.83647 51.89554
# Shear Modulus (GPa) = 10.37449 20.78405 15.57927
#
# Velocity S-wave (km/s) = 2.33339 3.30270 2.85942
# Velocity P-wave (km/s) = 5.60155 6.70055 6.17555
#
# Compressibility (1/GPa) = 0.02176060
#
# Stress axis : x y z
#
# Youngs Moduli (GPa) = 90.96792 45.65678 74.71906
#
# Poissons Ratio (x) = -0.01554 0.39374
# Poissons Ratio (y) = -0.03097 0.54769
# Poissons Ratio (z) = 0.47936 0.33467
#
# Static dielectric constant tensor:
#      x y z
#    x 3.703510 0.000000 -0.109060 
#    y 0.000000 3.185500 0.000000 
#    z -0.109060 0.000000 3.510150 
# 
# 
# High freq. dielectric constant tensor:
#      x y z
#    x 1.762630 0.000000 0.000610 
#    y 0.000000 1.697730 0.000000 
#    z 0.000610 0.000000 1.732970 
# 
# From -- ./inp_files/207657.got.cif
#   From: 2010.06.25/outbox.cif.g09.slc.cpg/sg12_104_cif.got.tgz:207657.got - 2010.06.28 00:19:55.
