data_PCOD8090457
_publ_section_title
;
Structure prediction by ZEFSAII (Michael W. Deem and Ramdas Pophale) SiO2 
 PCOD8090457
Probable space group: C 2/M
;
_chemical_formula_sum "Si O2"
_cell_formula_units_Z 64
_cell_length_a 25.208606
_cell_length_b 8.718659
_cell_length_c 30.230661
_cell_angle_alpha 90.000000
_cell_angle_beta 151.688777
_cell_angle_gamma 90.000000
_cell_volume 3151.107889
_symmetry_space_group_name_H-M "C 2/M"
_symmetry_group_IT_number 12
_symmetry_cell_setting 'monoclinic'
loop_
_space_group_symop_operation_xyz
x,y,z
-x,y,-z
-x,-y,-z
x,-y,z
1/2+x,1/2+y,z
1/2-x,1/2+y,-z
1/2-x,1/2-y,-z
1/2+x,1/2-y,z
loop_
_atom_site_type_symbol
_atom_site_label
_atom_site_fract_x
_atom_site_fract_y
_atom_site_fract_z
Si Si1 0.825336 0.681518 0.093963
Si Si2 0.485436 0.178626 0.365264
Si Si3 0.261282 0.819598 0.460289
Si Si4 0.835891 0.325096 0.767530
Si Si5 0.421866 0.182267 0.739134
Si Si6 0.189917 0.181554 0.823263
Si Si7 0.915193 0.175542 0.401726
Si Si8 0.119722 0.682826 0.104025
O O1 0.814373 0.500000 0.084660
O O2 0.782430 0.744340 0.109248
O O3 0.953730 0.734200 0.182276
O O4 0.750000 0.750000 0.000000
O O5 0.615119 0.223851 0.466590
O O6 0.431505 0.266687 0.283844
O O7 0.419085 0.223728 0.360641
O O8 0.471381 0.000000 0.345223
O O9 0.250000 0.750000 0.500000
O O10 0.167160 0.750776 0.359857
O O11 0.244172 0.000000 0.450197
O O12 0.876029 0.500000 0.800098
O O13 0.897485 0.250353 0.770501
O O14 0.704199 0.311897 0.662812
O O15 0.865410 0.245203 0.835983
O O16 0.407639 0.000000 0.727711
O O17 0.284265 0.242768 0.858475
O O18 0.192710 0.000000 0.830572
O O19 0.000000 0.242392 0.500000
O O20 0.943681 0.000000 0.409666
O O21 0.128720 0.500000 0.112644
O O22 0.000000 0.740530 0.000000
#
# Coordination Sequence:
#
# PCOD8090457 Si02
#       8
#     8   8   8   8   8   8   8   8
#     4  11  25  43  64  92 123 159 202 247 302 360
#     4  11  23  38  57  85 123 159 193 241 301 364
#     4  11  24  40  60  86 118 157 202 247 300 359
#     4   9  17  33  56  86 118 150 194 246 293 343
#     4  10  22  40  64  90 120 158 203 252 300 349
#     4  11  22  39  65  92 119 157 204 252 303 356
#     4  10  19  33  56  85 115 151 198 244 287 345
#     4   9  18  32  58  90 117 148 195 249 296 347
#
# _framework density 20.310317000000001
#
# number of rings (size 3 to 8) (size 9 to 14) (size 15 to 20)
#    0.000    1.750    1.250    3.000    1.750    7.250 
#    0.000    0.625    0.000    1.500    0.000    0.000 
#    0.000    0.000    0.000    0.000    0.000    0.000 
#
# Total GULP energy -396842.158834 kJ/mol
# GULP energy per Si atom -12401.317464 kJ/mol
# Density = 2.026409 g / cm^3
# Si number density = 20.310317 Si / 1000 Ang^3
#
#
#
# Elastic Constant Matrix: (Units=GPa)
#
#
# Indices 1 2 3 4 5 6 
#
# 1 152.4054 33.8405 67.1164 -0.0001 -16.8993 0.0001
# 2 33.8405 49.0540 37.7809 -0.0004 0.9023 0.0021
# 3 67.1164 37.7809 156.9332 -0.0005 -17.6552 0.0000
# 4 -0.0001 -0.0004 -0.0005 27.9284 -0.0002 -6.8689
# 5 -16.8993 0.9023 -17.6552 -0.0002 39.4189 0.0000
# 6 0.0001 0.0021 0.0000 -6.8689 0.0000 26.3571
#
#
#
# Elastic Compliance Matrix: (Units=1/GPa)
#
#
# Indices 1 2 3 4 5 6 
#
# 1 0.008913 -0.004308 -0.002458 0.000000 0.002819 0.000000
# 2 -0.004308 0.027560 -0.005341 0.000000 -0.004870 -0.000002
# 3 -0.002458 -0.005341 0.009061 0.000000 0.003127 0.000000
# 4 0.000000 0.000000 0.000000 0.038258 0.000000 0.009970
# 5 0.002819 -0.004870 0.003127 0.000000 0.028089 0.000000
# 6 0.000000 -0.000002 0.000000 0.009970 0.000000 0.040539
#
#
# Mechanical properties :
#
#
# Convention : Reuss Voigt Hill
#
# Bulk Modulus (GPa) = 46.89975 70.65203 58.77589
# Shear Modulus (GPa) = 27.21261 33.38452 30.29857
#
# Velocity S-wave (km/s) = 3.66436 4.05868 3.86655
# Velocity P-wave (km/s) = 6.40664 7.53828 6.99538
#
# Compressibility (1/GPa) = 0.02132207
#
# Stress axis : x y z
#
# Youngs Moduli (GPa) = 112.19853 36.28428 110.36704
#
# Poissons Ratio (x) = 0.15630 0.27124
# Poissons Ratio (y) = 0.48331 0.58942
# Poissons Ratio (z) = 0.27574 0.19378
#
# Static dielectric constant tensor:
#      x y z
#    x 3.964930 0.000000 -0.003330 
#    y 0.000000 3.400550 0.000000 
#    z -0.003330 0.000000 3.877000 
# 
# 
# High freq. dielectric constant tensor:
#      x y z
#    x 1.808020 0.000000 -0.004210 
#    y 0.000000 1.762390 0.000000 
#    z -0.004210 0.000000 1.806800 
# 
# From -- ./inp_files/382532.got.cif
#   From: 2010.06.25/outbox.cif.g09.slc.cpg/sg12_192_cif.got.tgz:382532.got - 2010.06.28 00:19:55.
