data_PCOD8090862
_publ_section_title
;
Structure prediction by ZEFSAII (Michael W. Deem and Ramdas Pophale) SiO2 
 PCOD8090862
Probable space group: C 2/M
;
_chemical_formula_sum "Si O2"
_cell_formula_units_Z 56
_cell_length_a 9.892039
_cell_length_b 19.290957
_cell_length_c 17.298157
_cell_angle_alpha 90.000000
_cell_angle_beta 81.260649
_cell_angle_gamma 90.000000
_cell_volume 3262.628818
_symmetry_space_group_name_H-M "C 2/M"
_symmetry_group_IT_number 12
_symmetry_cell_setting 'monoclinic'
loop_
_space_group_symop_operation_xyz
x,y,z
-x,y,-z
-x,-y,-z
x,-y,z
1/2+x,1/2+y,z
1/2-x,1/2+y,-z
1/2-x,1/2-y,-z
1/2+x,1/2-y,z
loop_
_atom_site_type_symbol
_atom_site_label
_atom_site_fract_x
_atom_site_fract_y
_atom_site_fract_z
Si Si1 0.739434 0.579771 0.189069
Si Si2 0.144446 0.669633 0.948769
Si Si3 0.575871 0.579830 0.810745
Si Si4 0.186937 0.917579 0.364520
Si Si5 0.846172 0.417269 0.499816
Si Si6 0.885485 0.917812 0.365737
Si Si7 0.357858 0.328538 0.054397
O O1 0.783516 0.500000 0.178914
O O2 0.844654 0.624493 0.129697
O O3 0.586510 0.590666 0.170890
O O4 0.749184 0.605827 0.276848
O O5 0.174368 0.748861 0.922184
O O6 0.248632 0.641754 0.003891
O O7 0.000000 0.659806 0.000000
O O8 0.613414 0.500000 0.823837
O O9 0.631498 0.603649 0.722189
O O10 0.650680 0.627254 0.866865
O O11 0.285607 0.889395 0.423676
O O12 0.030584 0.889311 0.386912
O O13 0.179926 0.000000 0.367587
O O14 0.849718 0.500000 0.500151
O O15 0.744124 0.388666 0.575236
O O16 0.000000 0.388117 0.500000
O O17 0.889491 0.000000 0.371981
O O18 0.500000 0.337214 0.000000
#
# Coordination Sequence:
#
# PCOD8090862 Si02
#       7
#     8   8   8   8   8   8   8
#     4   9  17  31  50  71  97 124 157 199 239 280
#     4  10  21  34  48  70  97 126 158 194 238 286
#     4   9  17  30  51  75  93 119 162 205 236 268
#     4   8  14  25  42  62  85 119 155 188 225 266
#     4   9  15  23  37  59  91 126 152 177 220 276
#     4   8  14  25  41  63  89 115 151 192 226 268
#     4  10  19  34  53  69  92 125 162 199 232 278
#
# _framework density 17.164073999999999
#
# number of rings (size 3 to 8) (size 9 to 14) (size 15 to 20)
#    0.000    3.000    1.429    2.143    0.000    2.857 
#    2.571    0.000    0.000    0.000    0.000    1.000 
#    0.000    0.000    0.000    0.000    0.000    0.000 
#
# Total GULP energy -347065.997350 kJ/mol
# GULP energy per Si atom -12395.214191 kJ/mol
# Density = 1.712501 g / cm^3
# Si number density = 17.164074 Si / 1000 Ang^3
#
#
#
# Elastic Constant Matrix: (Units=GPa)
#
#
# Indices 1 2 3 4 5 6 
#
# 1 91.7658 21.0183 59.1466 0.0000 12.4202 0.0000
# 2 21.0183 33.7222 40.5802 0.0000 3.0406 0.0000
# 3 59.1466 40.5802 136.1957 0.0000 8.5809 0.0000
# 4 0.0000 0.0000 0.0000 1.6146 0.0000 0.6842
# 5 12.4202 3.0406 8.5809 0.0000 28.2966 0.0000
# 6 0.0000 0.0000 0.0000 0.6842 0.0000 16.9024
#
#
#
# Elastic Compliance Matrix: (Units=1/GPa)
#
#
# Indices 1 2 3 4 5 6 
#
# 1 0.015906 -0.002386 -0.005885 0.000000 -0.004940 0.000000
# 2 -0.002386 0.046606 -0.012846 0.000000 -0.000065 0.000000
# 3 -0.005885 -0.012846 0.013739 0.000000 -0.000203 0.000000
# 4 0.000000 0.000000 0.000000 0.630154 0.000000 -0.025509
# 5 -0.004940 -0.000065 -0.000203 0.000000 0.037577 0.000000
# 6 0.000000 0.000000 0.000000 -0.025509 0.000000 0.060196
#
#
# Mechanical properties :
#
#
# Convention : Reuss Voigt Hill
#
# Bulk Modulus (GPa) = 29.39873 55.90823 42.65348
# Shear Modulus (GPa) = 5.82920 18.75860 12.29390
#
# Velocity S-wave (km/s) = 1.84487 3.30949 2.67920
# Velocity P-wave (km/s) = 4.65868 6.87366 5.87156
#
# Compressibility (1/GPa) = 0.03401508
#
# Stress axis : x y z
#
# Youngs Moduli (GPa) = 62.87008 21.45661 72.78793
#
# Poissons Ratio (x) = 0.05120 0.42838
# Poissons Ratio (y) = 0.15001 0.93504
# Poissons Ratio (z) = 0.37001 0.27563
#
# Static dielectric constant tensor:
#      x y z
#    x 3.262430 0.000000 0.012400 
#    y 0.000000 2.733970 0.000000 
#    z 0.012400 0.000000 3.379620 
# 
# 
# High freq. dielectric constant tensor:
#      x y z
#    x 1.657860 0.000000 0.001990 
#    y 0.000000 1.604900 0.000000 
#    z 0.001990 0.000000 1.674120 
# 
# From -- ./inp_files/257610.got.cif
#   From: 2010.06.25/outbox.cif.g09.slc.cpg/sg12_129_cif.got.tgz:257610.got - 2010.06.28 00:19:55.
