data_PCOD8090692
_publ_section_title
;
Structure prediction by ZEFSAII (Michael W. Deem and Ramdas Pophale) SiO2 
 PCOD8090692
Probable space group: C 2/M
;
_chemical_formula_sum "Si O2"
_cell_formula_units_Z 56
_cell_length_a 15.202686
_cell_length_b 8.814288
_cell_length_c 23.969454
_cell_angle_alpha 90.000000
_cell_angle_beta 62.855505
_cell_angle_gamma 90.000000
_cell_volume 2858.161647
_symmetry_space_group_name_H-M "C 2/M"
_symmetry_group_IT_number 12
_symmetry_cell_setting 'monoclinic'
loop_
_space_group_symop_operation_xyz
x,y,z
-x,y,-z
-x,-y,-z
x,-y,z
1/2+x,1/2+y,z
1/2-x,1/2+y,-z
1/2-x,1/2-y,-z
1/2+x,1/2-y,z
loop_
_atom_site_type_symbol
_atom_site_label
_atom_site_fract_x
_atom_site_fract_y
_atom_site_fract_z
Si Si1 0.020759 0.320708 0.932885
Si Si2 0.095970 0.178658 0.503700
Si Si3 0.054573 0.824290 0.640342
Si Si4 0.763688 0.324985 0.620247
Si Si5 0.349951 0.820954 0.712503
Si Si6 0.239793 0.679972 0.846685
Si Si7 0.822015 0.679941 0.933500
O O1 0.023935 0.500000 0.937469
O O2 0.126458 0.261983 0.880465
O O3 0.934267 0.271234 0.915656
O O4 0.000000 0.249803 0.000000
O O5 0.090357 0.231108 0.569236
O O6 0.193561 0.242603 0.446372
O O7 0.000000 0.244139 0.500000
O O8 0.101144 0.000000 0.497247
O O9 0.145511 0.798781 0.656511
O O10 0.964279 0.722258 0.687497
O O11 0.021146 0.000000 0.648335
O O12 0.789154 0.500000 0.605346
O O13 0.812402 0.263433 0.663001
O O14 0.284939 0.732348 0.775711
O O15 0.335763 0.000000 0.724460
O O16 0.247321 0.500000 0.850780
O O17 0.300387 0.755601 0.879040
O O18 0.808822 0.500000 0.937975
O O19 0.750000 0.750000 0.000000
#
# Coordination Sequence:
#
# PCOD8090692 Si02
#       7
#     8   8   8   8   8   8   8
#     4   9  18  36  61  88 119 153 189 229 283 348
#     4  10  19  33  58  89 118 151 195 243 293 352
#     4  10  21  39  60  85 118 156 196 241 294 352
#     4  10  22  38  59  85 117 154 196 247 297 343
#     4  11  24  41  58  83 117 154 196 244 293 348
#     4  11  23  41  63  86 116 157 197 239 292 348
#     4  11  21  37  62  92 123 153 191 237 286 343
#
# _framework density 19.593012999999999
#
# number of rings (size 3 to 8) (size 9 to 14) (size 15 to 20)
#    0.000    1.714    2.857    1.714    0.000    3.143 
#    0.000    6.429    0.000    0.000    0.000    0.000 
#    0.000    0.000    0.000    0.000    0.000    0.000 
#
# Total GULP energy -347275.163555 kJ/mol
# GULP energy per Si atom -12402.684413 kJ/mol
# Density = 1.954842 g / cm^3
# Si number density = 19.593013 Si / 1000 Ang^3
#
#
#
# Elastic Constant Matrix: (Units=GPa)
#
#
# Indices 1 2 3 4 5 6 
#
# 1 131.6822 34.8495 49.4667 0.0000 -18.1200 0.0000
# 2 34.8495 52.5082 28.9624 0.0000 -4.7899 0.0000
# 3 49.4667 28.9624 115.2922 0.0000 -18.0552 0.0000
# 4 0.0000 0.0000 0.0000 33.9882 0.0000 0.3967
# 5 -18.1200 -4.7899 -18.0552 0.0000 24.9148 0.0000
# 6 0.0000 0.0000 0.0000 0.3967 0.0000 25.6046
#
#
#
# Elastic Compliance Matrix: (Units=1/GPa)
#
#
# Indices 1 2 3 4 5 6 
#
# 1 0.010572 -0.005213 -0.002458 0.000000 0.004905 0.000000
# 2 -0.005213 0.024680 -0.004302 0.000000 -0.002164 0.000000
# 3 -0.002458 -0.004302 0.011731 0.000000 0.005886 0.000000
# 4 0.000000 0.000000 0.000000 0.029427 0.000000 -0.000456
# 5 0.004905 -0.002164 0.005886 0.000000 0.047554 0.000000
# 6 0.000000 0.000000 0.000000 -0.000456 0.000000 0.039063
#
#
# Mechanical properties :
#
#
# Convention : Reuss Voigt Hill
#
# Bulk Modulus (GPa) = 43.41022 58.44885 50.92954
# Shear Modulus (GPa) = 25.68679 29.31512 27.50095
#
# Velocity S-wave (km/s) = 3.62473 3.87227 3.75054
# Velocity P-wave (km/s) = 6.30256 7.06321 6.69370
#
# Compressibility (1/GPa) = 0.02303605
#
# Stress axis : x y z
#
# Youngs Moduli (GPa) = 94.58816 40.51834 85.24553
#
# Poissons Ratio (x) = 0.21124 0.20955
# Poissons Ratio (y) = 0.49312 0.36673
# Poissons Ratio (z) = 0.23252 0.17431
#
# Static dielectric constant tensor:
#      x y z
#    x 3.906600 0.000000 0.039300 
#    y 0.000000 3.394810 0.000000 
#    z 0.039300 0.000000 3.640530 
# 
# 
# High freq. dielectric constant tensor:
#      x y z
#    x 1.779470 0.000000 -0.002220 
#    y 0.000000 1.748550 0.000000 
#    z -0.002220 0.000000 1.760510 
# 
# From -- ./inp_files/338551.got.cif
#   From: 2010.06.25/outbox.cif.g09.slc.cpg/sg12_170_cif.got.tgz:338551.got - 2010.06.28 00:19:55.
