data_PCOD8090327
_publ_section_title
;
Structure prediction by ZEFSAII (Michael W. Deem and Ramdas Pophale) SiO2 
 PCOD8090327
Probable space group: C 2/M
;
_chemical_formula_sum "Si O2"
_cell_formula_units_Z 48
_cell_length_a 12.318358
_cell_length_b 13.225020
_cell_length_c 16.504957
_cell_angle_alpha 90.000000
_cell_angle_beta 113.426940
_cell_angle_gamma 90.000000
_cell_volume 2467.184997
_symmetry_space_group_name_H-M "C 2/M"
_symmetry_group_IT_number 12
_symmetry_cell_setting 'monoclinic'
loop_
_space_group_symop_operation_xyz
x,y,z
-x,y,-z
-x,-y,-z
x,-y,z
1/2+x,1/2+y,z
1/2-x,1/2+y,-z
1/2-x,1/2-y,-z
1/2+x,1/2-y,z
loop_
_atom_site_type_symbol
_atom_site_label
_atom_site_fract_x
_atom_site_fract_y
_atom_site_fract_z
Si Si1 0.236464 0.388766 0.942241
Si Si2 0.119672 0.810438 0.870889
Si Si3 0.329943 0.272594 0.290693
Si Si4 0.560985 0.211725 0.437799
Si Si5 0.711789 0.383747 0.559062
Si Si6 0.643694 0.615942 0.189248
O O1 0.177929 0.500000 0.919672
O O2 0.132368 0.306524 0.903308
O O3 0.331782 0.373932 0.899036
O O4 0.306052 0.381059 0.047200
O O5 0.175201 0.826314 0.798203
O O6 0.983690 0.838754 0.830601
O O7 0.462454 0.229899 0.340474
O O8 0.297108 0.353033 0.349637
O O9 0.239326 0.178661 0.269381
O O10 0.500000 0.165504 0.500000
O O11 0.622558 0.318587 0.477916
O O12 0.654433 0.131791 0.431523
O O13 0.675784 0.500000 0.538470
O O14 0.649954 0.500000 0.220382
#
# Coordination Sequence:
#
# PCOD8090327 Si02
#       6
#     8   8   8   8   8   8
#     4   9  19  35  55  78 106 145 187 226 269 313
#     4  10  19  33  56  81 110 141 182 229 267 316
#     4  10  21  36  53  81 114 140 173 220 271 321
#     4   9  20  39  58  79 108 139 179 222 262 317
#     4  10  21  38  59  81 108 143 178 217 267 319
#     4  10  20  35  56  79 106 143 184 224 265 313
#
# _framework density 19.455371
#
# number of rings (size 3 to 8) (size 9 to 14) (size 15 to 20)
#    0.000    2.333    0.000    2.000    0.000    6.667 
#    0.000   15.833    0.000   14.000    0.000    0.000 
#    0.000    0.000    0.000    0.000    0.000    0.000 
#
# Total GULP energy -297640.209161 kJ/mol
# GULP energy per Si atom -12401.675382 kJ/mol
# Density = 1.941109 g / cm^3
# Si number density = 19.455371 Si / 1000 Ang^3
#
#
#
# Elastic Constant Matrix: (Units=GPa)
#
#
# Indices 1 2 3 4 5 6 
#
# 1 92.9744 40.7608 24.9735 0.0000 11.4058 0.0000
# 2 40.7608 121.4042 28.9917 0.0000 6.3489 0.0000
# 3 24.9735 28.9917 81.8198 0.0000 6.2656 0.0000
# 4 0.0000 0.0000 0.0000 22.2023 0.0000 -4.2551
# 5 11.4058 6.3489 6.2656 0.0000 25.8685 0.0000
# 6 0.0000 0.0000 0.0000 -4.2551 0.0000 22.2975
#
#
#
# Elastic Compliance Matrix: (Units=1/GPa)
#
#
# Indices 1 2 3 4 5 6 
#
# 1 0.013614 -0.003743 -0.002486 0.000000 -0.004482 0.000000
# 2 -0.003743 0.010082 -0.002412 0.000000 -0.000240 0.000000
# 3 -0.002486 -0.002412 0.013965 0.000000 -0.001695 0.000000
# 4 0.000000 0.000000 0.000000 0.046750 0.000000 0.008921
# 5 -0.004482 -0.000240 -0.001695 0.000000 0.041102 0.000000
# 6 0.000000 0.000000 0.000000 0.008921 0.000000 0.046551
#
#
# Mechanical properties :
#
#
# Convention : Reuss Voigt Hill
#
# Bulk Modulus (GPa) = 49.06679 53.96115 51.51397
# Shear Modulus (GPa) = 25.49217 27.50516 26.49866
#
# Velocity S-wave (km/s) = 3.62372 3.76407 3.69456
# Velocity P-wave (km/s) = 6.54090 6.83279 6.68844
#
# Compressibility (1/GPa) = 0.02038038
#
# Stress axis : x y z
#
# Youngs Moduli (GPa) = 73.45324 99.18620 71.60736
#
# Poissons Ratio (x) = 0.37124 0.17801
# Poissons Ratio (y) = 0.27492 0.17269
# Poissons Ratio (z) = 0.18260 0.23920
#
# Static dielectric constant tensor:
#      x y z
#    x 3.578260 0.000000 -0.061020 
#    y 0.000000 3.474440 0.000000 
#    z -0.061020 0.000000 3.610090 
# 
# 
# High freq. dielectric constant tensor:
#      x y z
#    x 1.757840 0.000000 -0.004280 
#    y 0.000000 1.747010 0.000000 
#    z -0.004280 0.000000 1.764180 
# 
# From -- ./inp_files/204263.got.cif
#   From: 2010.06.25/outbox.cif.g09.slc.cpg/sg12_103_cif.got.tgz:204263.got - 2010.06.28 00:19:55.
