data_PCOD8090794
_publ_section_title
;
Structure prediction by ZEFSAII (Michael W. Deem and Ramdas Pophale) SiO2 
 PCOD8090794
Probable space group: C 2/M
;
_chemical_formula_sum "Si O2"
_cell_formula_units_Z 64
_cell_length_a 23.552318
_cell_length_b 9.228396
_cell_length_c 17.704692
_cell_angle_alpha 90.000000
_cell_angle_beta 72.755900
_cell_angle_gamma 90.000000
_cell_volume 3675.145858
_symmetry_space_group_name_H-M "C 2/M"
_symmetry_group_IT_number 12
_symmetry_cell_setting 'monoclinic'
loop_
_space_group_symop_operation_xyz
x,y,z
-x,y,-z
-x,-y,-z
x,-y,z
1/2+x,1/2+y,z
1/2-x,1/2+y,-z
1/2-x,1/2-y,-z
1/2+x,1/2-y,z
loop_
_atom_site_type_symbol
_atom_site_label
_atom_site_fract_x
_atom_site_fract_y
_atom_site_fract_z
Si Si1 0.182653 0.332150 0.664313
Si Si2 0.856358 0.168122 0.461869
Si Si3 0.507347 0.664615 0.585190
Si Si4 0.405943 0.828717 0.707910
Si Si5 0.417646 0.826330 0.183838
Si Si6 0.429992 0.841570 0.017261
Si Si7 0.816620 0.167537 0.641544
Si Si8 0.449793 0.827470 0.850064
O O1 0.170320 0.500000 0.652881
O O2 0.182380 0.252080 0.584346
O O3 0.132835 0.266132 0.740005
O O4 0.246402 0.308739 0.677763
O O5 0.925310 0.196991 0.417516
O O6 0.839611 0.226014 0.551666
O O7 0.839534 0.000000 0.463164
O O8 0.500000 0.690865 0.500000
O O9 0.489085 0.500000 0.612998
O O10 0.465828 0.776924 0.644133
O O11 0.347611 0.756520 0.695987
O O12 0.410158 0.781527 0.794164
O O13 0.401417 0.000000 0.700444
O O14 0.405037 0.763741 0.103301
O O15 0.482184 0.771654 0.187340
O O16 0.415549 0.000000 0.181365
O O17 0.399913 0.000000 0.024539
O O18 0.500000 0.859442 0.000000
O O19 0.420243 0.762084 0.939467
O O20 0.834751 0.000000 0.643276
O O21 0.452419 0.000000 0.857573
#
# Coordination Sequence:
#
# PCOD8090794 Si02
#       8
#     8   8   8   8   8   8   8   8
#     4  10  20  32  50  72  93 118 156 208 244 266
#     4  10  20  34  51  67  89 124 160 191 231 288
#     4  10  19  34  51  66  93 129 156 182 228 289
#     4  11  21  31  48  73  97 121 157 204 240 267
#     4   8  13  24  43  69  96 118 146 186 233 282
#     4   7  10  19  38  63  94 126 144 168 226 292
#     4  10  21  37  49  61  90 132 166 192 234 288
#     4   8  14  24  40  68 101 122 142 183 237 284
#
# _framework density 17.414273999999999
#
# number of rings (size 3 to 8) (size 9 to 14) (size 15 to 20)
#    0.000    2.750    1.250    3.000    0.000    2.750 
#    0.000    0.000    0.000    0.750    0.000    1.750 
#    0.000    9.500    0.000    0.000    0.000    0.125 
#
# Total GULP energy -396563.110291 kJ/mol
# GULP energy per Si atom -12392.597197 kJ/mol
# Density = 1.737464 g / cm^3
# Si number density = 17.414274 Si / 1000 Ang^3
#
#
#
# Elastic Constant Matrix: (Units=GPa)
#
#
# Indices 1 2 3 4 5 6 
#
# 1 70.2673 27.6116 62.2658 0.0000 18.9911 0.0000
# 2 27.6116 36.0568 32.6046 0.0000 11.0166 0.0000
# 3 62.2658 32.6046 118.4769 0.0000 20.4430 0.0000
# 4 0.0000 0.0000 0.0000 4.2128 0.0000 3.9374
# 5 18.9911 11.0166 20.4430 0.0000 20.8719 0.0000
# 6 0.0000 0.0000 0.0000 3.9374 0.0000 19.9198
#
#
#
# Elastic Compliance Matrix: (Units=1/GPa)
#
#
# Indices 1 2 3 4 5 6 
#
# 1 0.032095 -0.009995 -0.012020 0.000000 -0.012154 0.000000
# 2 -0.009995 0.042470 -0.004977 0.000000 -0.008447 0.000000
# 3 -0.012020 -0.004977 0.016591 0.000000 -0.002686 0.000000
# 4 0.000000 0.000000 0.000000 0.291163 0.000000 -0.057552
# 5 -0.012154 -0.008447 -0.002686 0.000000 0.066060 0.000000
# 6 0.000000 0.000000 0.000000 -0.057552 0.000000 0.061577
#
#
# Mechanical properties :
#
#
# Convention : Reuss Voigt Hill
#
# Bulk Modulus (GPa) = 26.90245 52.19610 39.54928
# Shear Modulus (GPa) = 8.67560 15.82217 12.24888
#
# Velocity S-wave (km/s) = 2.23444 3.01753 2.65501
# Velocity P-wave (km/s) = 4.70521 6.49453 5.67088
#
# Compressibility (1/GPa) = 0.03717133
#
# Stress axis : x y z
#
# Youngs Moduli (GPa) = 31.15766 23.54626 60.27526
#
# Poissons Ratio (x) = 0.23535 0.72449
# Poissons Ratio (y) = 0.31143 0.29999
# Poissons Ratio (z) = 0.37450 0.11719
#
# Static dielectric constant tensor:
#      x y z
#    x 3.123640 0.000000 0.069640 
#    y 0.000000 2.838970 0.000000 
#    z 0.069640 0.000000 3.732640 
# 
# 
# High freq. dielectric constant tensor:
#      x y z
#    x 1.655470 0.000000 0.009220 
#    y 0.000000 1.627810 0.000000 
#    z 0.009220 0.000000 1.683000 
# 
# From -- ./inp_files/287592.got.cif
#   From: 2010.06.25/outbox.cif.g09.slc.cpg/sg12_144_cif.got.tgz:287592.got - 2010.06.28 00:19:55.
