data_PCOD8090033
_publ_section_title
;
Structure prediction by ZEFSAII (Michael W. Deem and Ramdas Pophale) SiO2 
 PCOD8090033
Probable space group: C 2/M
;
_chemical_formula_sum "Si O2"
_cell_formula_units_Z 64
_cell_length_a 25.909068
_cell_length_b 9.318800
_cell_length_c 30.315828
_cell_angle_alpha 90.000000
_cell_angle_beta 27.897108
_cell_angle_gamma 90.000000
_cell_volume 3424.684195
_symmetry_space_group_name_H-M "C 2/M"
_symmetry_group_IT_number 12
_symmetry_cell_setting 'monoclinic'
loop_
_space_group_symop_operation_xyz
x,y,z
-x,y,-z
-x,-y,-z
x,-y,z
1/2+x,1/2+y,z
1/2-x,1/2+y,-z
1/2-x,1/2-y,-z
1/2+x,1/2-y,z
loop_
_atom_site_type_symbol
_atom_site_label
_atom_site_fract_x
_atom_site_fract_y
_atom_site_fract_z
Si Si1 0.759198 0.831773 0.895871
Si Si2 0.961129 0.329404 0.890720
Si Si3 0.682140 0.168159 0.766361
Si Si4 0.608772 0.332745 0.446068
Si Si5 0.860648 0.663620 0.410782
Si Si6 0.015811 0.332969 0.593539
Si Si7 0.956078 0.668878 0.793967
Si Si8 0.293935 0.666291 0.769292
O O1 0.861480 0.750091 0.839237
O O2 0.749085 0.797585 0.851615
O O3 0.775840 0.000000 0.891950
O O4 0.648087 0.772743 0.002409
O O5 0.964562 0.500000 0.890036
O O6 0.959563 0.276001 0.841479
O O7 0.068079 0.263023 0.834731
O O8 0.786209 0.226980 0.660120
O O9 0.697486 0.201727 0.806811
O O10 0.676357 0.000000 0.762670
O O11 0.500000 0.303443 0.500000
O O12 0.620659 0.500000 0.449029
O O13 0.603020 0.242247 0.495262
O O14 0.823347 0.500000 0.437855
O O15 0.750000 0.750000 0.500000
O O16 0.944344 0.694394 0.387131
O O17 0.925386 0.705616 0.317177
O O18 0.007053 0.500000 0.588463
O O19 0.897089 0.262002 0.678007
O O20 0.931178 0.500000 0.809422
O O21 0.330344 0.500000 0.737789
#
# Coordination Sequence:
#
# PCOD8090033 Si02
#       8
#     8   8   8   8   8   8   8   8
#     4  10  20  34  57  85 107 136 181 228 273 319
#     4   9  19  34  54  82 110 139 179 226 274 322
#     4   9  18  33  53  79 111 143 178 222 269 320
#     4  10  19  33  55  80 106 142 185 219 257 320
#     4  10  23  38  54  80 110 145 182 221 272 326
#     4  11  22  36  53  78 111 144 180 224 272 323
#     4  10  20  37  58  79 109 145 180 218 269 329
#     4  10  19  34  56  81 109 142 181 224 269 320
#
# _framework density 18.687854000000002
#
# number of rings (size 3 to 8) (size 9 to 14) (size 15 to 20)
#    0.000    2.125    2.500    0.750    1.750    2.250 
#    0.000    2.500    0.000    2.250    0.000    1.750 
#    0.000    0.000    0.000    0.000    0.000    0.000 
#
# Total GULP energy -396820.626952 kJ/mol
# GULP energy per Si atom -12400.644592 kJ/mol
# Density = 1.864532 g / cm^3
# Si number density = 18.687854 Si / 1000 Ang^3
#
#
#
# Elastic Constant Matrix: (Units=GPa)
#
#
# Indices 1 2 3 4 5 6 
#
# 1 122.8843 43.1955 74.7733 -0.0206 13.2942 0.0159
# 2 43.1955 43.8320 38.5218 -0.0416 0.5066 0.0534
# 3 74.7733 38.5218 133.2933 -0.0006 7.1053 0.0052
# 4 -0.0206 -0.0416 -0.0006 20.2680 0.0096 0.5470
# 5 13.2942 0.5066 7.1053 0.0096 34.9469 -0.0159
# 6 0.0159 0.0534 0.0052 0.5470 -0.0159 24.3066
#
#
#
# Elastic Compliance Matrix: (Units=1/GPa)
#
#
# Indices 1 2 3 4 5 6 
#
# 1 0.015724 -0.010603 -0.005506 -0.000004 -0.004709 0.000011
# 2 -0.010603 0.037797 -0.005218 0.000067 0.004546 -0.000073
# 3 -0.005506 -0.005218 0.012114 -0.000016 -0.000293 0.000013
# 4 -0.000004 0.000067 -0.000016 0.049369 -0.000010 -0.001111
# 5 -0.004709 0.004546 -0.000293 -0.000010 0.030400 0.000013
# 6 0.000011 -0.000073 0.000013 -0.001111 0.000013 0.041166
#
#
# Mechanical properties :
#
#
# Convention : Reuss Voigt Hill
#
# Bulk Modulus (GPa) = 43.51102 68.11010 55.81056
# Shear Modulus (GPa) = 21.10743 25.47222 23.28983
#
# Velocity S-wave (km/s) = 3.36441 3.69594 3.53406
# Velocity P-wave (km/s) = 6.19887 7.39855 6.82512
#
# Compressibility (1/GPa) = 0.02298268
#
# Stress axis : x y z
#
# Youngs Moduli (GPa) = 63.59585 26.45746 82.54765
#
# Poissons Ratio (x) = 0.28053 0.45447
# Poissons Ratio (y) = 0.67431 0.43070
# Poissons Ratio (z) = 0.35013 0.13804
#
# Static dielectric constant tensor:
#      x y z
#    x 3.587950 -0.000020 0.214920 
#    y -0.000020 3.149080 0.000030 
#    z 0.214920 0.000030 3.392700 
# 
# 
# High freq. dielectric constant tensor:
#      x y z
#    x 1.736980 0.000000 0.008740 
#    y 0.000000 1.690410 0.000000 
#    z 0.008740 0.000000 1.732570 
# 
# From -- ./inp_files/244081.got.cif
#   From: 2010.06.25/outbox.cif.g09.slc.cpg/sg12_123_cif.got.tgz:244081.got - 2010.06.28 00:19:55.
