data_PCOD8090190
_publ_section_title
;
Structure prediction by ZEFSAII (Michael W. Deem and Ramdas Pophale) SiO2 
 PCOD8090190
Probable space group: C 2/M
;
_chemical_formula_sum "Si O2"
_cell_formula_units_Z 56
_cell_length_a 15.012882
_cell_length_b 9.595956
_cell_length_c 24.121331
_cell_angle_alpha 90.000000
_cell_angle_beta 118.979587
_cell_angle_gamma 90.000000
_cell_volume 3039.894958
_symmetry_space_group_name_H-M "C 2/M"
_symmetry_group_IT_number 12
_symmetry_cell_setting 'monoclinic'
loop_
_space_group_symop_operation_xyz
x,y,z
-x,y,-z
-x,-y,-z
x,-y,z
1/2+x,1/2+y,z
1/2-x,1/2+y,-z
1/2-x,1/2-y,-z
1/2+x,1/2-y,z
loop_
_atom_site_type_symbol
_atom_site_label
_atom_site_fract_x
_atom_site_fract_y
_atom_site_fract_z
Si Si1 0.179947 0.839412 0.439272
Si Si2 0.104475 0.339038 0.000812
Si Si3 0.323991 0.662594 0.794319
Si Si4 0.946485 0.160081 0.116517
Si Si5 0.727358 0.161040 0.649102
Si Si6 0.469316 0.338210 0.429154
Si Si7 0.768092 0.159361 0.140247
O O1 0.250000 0.750000 0.500000
O O2 0.203856 0.800490 0.383142
O O3 0.061841 0.806993 0.415211
O O4 0.204023 0.000000 0.459619
O O5 0.114572 0.500000 0.986896
O O6 0.194868 0.291811 0.068404
O O7 0.110421 0.248948 0.947196
O O8 0.000000 0.306555 0.000000
O O9 0.312707 0.500000 0.804147
O O10 0.439278 0.714394 0.838875
O O11 0.295510 0.696670 0.722716
O O12 0.247583 0.745327 0.811011
O O13 0.884397 0.176010 0.155178
O O14 0.946260 0.000000 0.096834
O O15 0.625709 0.251112 0.620791
O O16 0.694487 0.000000 0.638067
O O17 0.500000 0.289372 0.500000
O O18 0.438451 0.500000 0.420029
O O19 0.743249 0.000000 0.149109
#
# Coordination Sequence:
#
# PCOD8090190 Si02
#       7
#     8   8   8   8   8   8   8
#     4  10  20  35  57  83 112 143 176 220 272 323
#     4  10  19  33  55  83 114 143 180 232 282 327
#     4  10  22  39  55  77 110 146 186 229 270 325
#     4  10  21  36  57  82 109 144 188 230 273 329
#     4  10  22  38  56  80 111 147 183 222 275 329
#     4  10  20  35  57  86 113 139 178 224 270 323
#     4  10  21  37  57  82 110 146 187 227 278 332
#
# _framework density 18.421690000000002
#
# number of rings (size 3 to 8) (size 9 to 14) (size 15 to 20)
#    0.000    2.000    2.857    0.429    0.000    4.000 
#    0.000    2.857    0.000    0.000    0.000    0.000 
#    0.000    0.000    0.000    0.000    0.000    0.000 
#
# Total GULP energy -347315.901993 kJ/mol
# GULP energy per Si atom -12404.139357 kJ/mol
# Density = 1.837976 g / cm^3
# Si number density = 18.421690 Si / 1000 Ang^3
#
#
#
# Elastic Constant Matrix: (Units=GPa)
#
#
# Indices 1 2 3 4 5 6 
#
# 1 104.6685 42.2932 42.9077 0.0000 -14.0036 0.0000
# 2 42.2932 57.6969 49.1149 0.0000 -10.6288 0.0000
# 3 42.9077 49.1149 101.2277 0.0000 -18.6012 0.0000
# 4 0.0000 0.0000 0.0000 30.3036 0.0000 -0.7696
# 5 -14.0036 -10.6288 -18.6012 0.0000 26.5377 0.0000
# 6 0.0000 0.0000 0.0000 -0.7696 0.0000 30.9454
#
#
#
# Elastic Compliance Matrix: (Units=1/GPa)
#
#
# Indices 1 2 3 4 5 6 
#
# 1 0.013940 -0.008693 -0.001124 0.000000 0.003087 0.000000
# 2 -0.008693 0.035046 -0.013295 0.000000 0.000130 0.000000
# 3 -0.001124 -0.013295 0.018042 0.000000 0.006728 0.000000
# 4 0.000000 0.000000 0.000000 0.033020 0.000000 0.000821
# 5 0.003087 0.000130 0.006728 0.000000 0.044079 0.000000
# 6 0.000000 0.000000 0.000000 0.000821 0.000000 0.032335
#
#
# Mechanical properties :
#
#
# Convention : Reuss Voigt Hill
#
# Bulk Modulus (GPa) = 48.06839 59.13610 53.60224
# Shear Modulus (GPa) = 21.77483 26.17583 23.97533
#
# Velocity S-wave (km/s) = 3.44178 3.77360 3.61151
# Velocity P-wave (km/s) = 6.47646 7.15247 6.82284
#
# Compressibility (1/GPa) = 0.02080369
#
# Stress axis : x y z
#
# Youngs Moduli (GPa) = 71.73445 28.53393 55.42545
#
# Poissons Ratio (x) = 0.24805 0.06229
# Poissons Ratio (y) = 0.62361 0.73690
# Poissons Ratio (z) = 0.08062 0.37937
#
# Static dielectric constant tensor:
#      x y z
#    x 3.635140 0.000000 -0.071410 
#    y 0.000000 3.341210 0.000000 
#    z -0.071410 0.000000 3.327840 
# 
# 
# High freq. dielectric constant tensor:
#      x y z
#    x 1.726990 0.000000 -0.001860 
#    y 0.000000 1.709540 0.000000 
#    z -0.001860 0.000000 1.706300 
# 
# From -- ./inp_files/309012.got.cif
#   From: 2010.06.25/outbox.cif.g09.slc.cpg/sg12_155_cif.got.tgz:309012.got - 2010.06.28 00:19:55.
