data_PCOD8090016
_publ_section_title
;
Structure prediction by ZEFSAII (Michael W. Deem and Ramdas Pophale) SiO2 
 PCOD8090016
Probable space group: C 2/M
;
_chemical_formula_sum "Si O2"
_cell_formula_units_Z 48
_cell_length_a 16.648207
_cell_length_b 16.732147
_cell_length_c 19.394559
_cell_angle_alpha 90.000000
_cell_angle_beta 28.576320
_cell_angle_gamma 90.000000
_cell_volume 2584.197582
_symmetry_space_group_name_H-M "C 2/M"
_symmetry_group_IT_number 12
_symmetry_cell_setting 'monoclinic'
loop_
_space_group_symop_operation_xyz
x,y,z
-x,y,-z
-x,-y,-z
x,-y,z
1/2+x,1/2+y,z
1/2-x,1/2+y,-z
1/2-x,1/2-y,-z
1/2+x,1/2-y,z
loop_
_atom_site_type_symbol
_atom_site_label
_atom_site_fract_x
_atom_site_fract_y
_atom_site_fract_z
Si Si1 0.683723 0.407411 0.884787
Si Si2 0.837812 0.408083 0.162039
Si Si3 0.138231 0.712927 0.144668
Si Si4 0.696236 0.185995 0.673400
Si Si5 0.168090 0.682988 0.342769
Si Si6 0.956620 0.818942 0.662717
O O1 0.698858 0.500000 0.896196
O O2 0.752534 0.350782 0.893908
O O3 0.772872 0.393080 0.744644
O O4 0.500000 0.381364 0.000000
O O5 0.876270 0.500000 0.142743
O O6 0.808669 0.373586 0.259473
O O7 0.664731 0.396485 0.249091
O O8 0.000000 0.368945 0.000000
O O9 0.056532 0.784346 0.250659
O O10 0.976245 0.668871 0.236199
O O11 0.250000 0.750000 0.000000
O O12 0.710946 0.279104 0.688780
O O13 0.852408 0.163943 0.504948
O O14 0.131433 0.757322 0.321715
O O15 0.000000 0.647411 0.500000
#
# Coordination Sequence:
#
# PCOD8090016 Si02
#       6
#     8   8   8   8   8   8
#     4  10  21  36  52  72 101 134 169 209 253 304
#     4  10  20  34  53  78 108 141 176 213 258 316
#     4  11  21  34  55  78 103 137 175 218 263 309
#     4  10  19  33  55  80 105 132 170 220 264 308
#     4   8  16  32  54  77  99 128 166 204 247 305
#     4   9  19  34  52  77 106 138 174 211 257 313
#
# _framework density 18.574431000000001
#
# number of rings (size 3 to 8) (size 9 to 14) (size 15 to 20)
#    0.000    2.333    0.000    4.000    0.000    7.000 
#    0.000    0.833    0.000    1.000    0.000    0.000 
#    0.000    0.000    0.000    0.000    0.000    0.000 
#
# Total GULP energy -297314.917231 kJ/mol
# GULP energy per Si atom -12388.121551 kJ/mol
# Density = 1.853215 g / cm^3
# Si number density = 18.574431 Si / 1000 Ang^3
#
#
#
# Elastic Constant Matrix: (Units=GPa)
#
#
# Indices 1 2 3 4 5 6 
#
# 1 82.2515 40.6283 46.7757 0.0054 -6.7724 -0.0047
# 2 40.6283 59.9323 44.0207 -0.0596 0.6362 0.0108
# 3 46.7757 44.0207 149.9374 -0.0620 9.1470 0.0085
# 4 0.0054 -0.0596 -0.0620 16.9003 0.0198 -0.2418
# 5 -6.7724 0.6362 9.1470 0.0198 40.2653 -0.0015
# 6 -0.0047 0.0108 0.0085 -0.2418 -0.0015 22.2268
#
#
#
# Elastic Compliance Matrix: (Units=1/GPa)
#
#
# Indices 1 2 3 4 5 6 
#
# 1 0.019815 -0.011153 -0.003165 -0.000062 0.004228 0.000010
# 2 -0.011153 0.027598 -0.004545 0.000085 -0.001279 -0.000013
# 3 -0.003165 -0.004545 0.009146 0.000021 -0.002538 -0.000002
# 4 -0.000062 0.000085 0.000021 0.059180 -0.000046 0.000644
# 5 0.004228 -0.001279 -0.002538 -0.000046 0.026143 0.000004
# 6 0.000010 -0.000013 -0.000002 0.000644 0.000004 0.044998
#
#
# Mechanical properties :
#
#
# Convention : Reuss Voigt Hill
#
# Bulk Modulus (GPa) = 53.09852 61.66342 57.38097
# Shear Modulus (GPa) = 21.65584 26.59157 24.12370
#
# Velocity S-wave (km/s) = 3.41823 3.78778 3.60774
# Velocity P-wave (km/s) = 6.65041 7.23877 6.95082
#
# Compressibility (1/GPa) = 0.01883292
#
# Stress axis : x y z
#
# Youngs Moduli (GPa) = 50.46711 36.23432 109.33473
#
# Poissons Ratio (x) = 0.40411 0.34607
# Poissons Ratio (y) = 0.56284 0.49696
# Poissons Ratio (z) = 0.15974 0.16470
#
# Static dielectric constant tensor:
#      x y z
#    x 3.487140 -0.000030 -0.130600 
#    y -0.000030 3.154300 0.000120 
#    z -0.130600 0.000120 3.390300 
# 
# 
# High freq. dielectric constant tensor:
#      x y z
#    x 1.716760 0.000000 0.002920 
#    y 0.000000 1.689810 0.000010 
#    z 0.002920 0.000010 1.744670 
# 
# From -- ./inp_files/61696.got.cif
#   From: 2010.06.25/outbox.cif.g09.slc.cpg/sg12_31_cif.got.tgz:61696.got - 2010.06.28 00:19:55.
