data_PCOD8090565
_publ_section_title
;
Structure prediction by ZEFSAII (Michael W. Deem and Ramdas Pophale) SiO2 
 PCOD8090565
Probable space group: C 2/M
;
_chemical_formula_sum "Si O2"
_cell_formula_units_Z 56
_cell_length_a 19.142463
_cell_length_b 12.575654
_cell_length_c 12.238286
_cell_angle_alpha 90.000000
_cell_angle_beta 66.326815
_cell_angle_gamma 90.000000
_cell_volume 2698.196861
_symmetry_space_group_name_H-M "C 2/M"
_symmetry_group_IT_number 12
_symmetry_cell_setting 'monoclinic'
loop_
_space_group_symop_operation_xyz
x,y,z
-x,y,-z
-x,-y,-z
x,-y,z
1/2+x,1/2+y,z
1/2-x,1/2+y,-z
1/2-x,1/2-y,-z
1/2+x,1/2-y,z
loop_
_atom_site_type_symbol
_atom_site_label
_atom_site_fract_x
_atom_site_fract_y
_atom_site_fract_z
Si Si1 0.837281 0.767579 0.477700
Si Si2 0.121955 0.878976 0.098278
Si Si3 0.753014 0.618185 0.853782
Si Si4 0.996258 0.716820 0.118144
Si Si5 0.118461 0.237354 0.309348
Si Si6 0.477208 0.122819 0.354262
Si Si7 0.871273 0.881604 0.247101
O O1 0.750000 0.750000 0.500000
O O2 0.845769 0.801255 0.598825
O O3 0.864453 0.862549 0.381849
O O4 0.890572 0.662940 0.428670
O O5 0.066536 0.796500 0.076724
O O6 0.112581 0.866589 0.235931
O O7 0.099599 0.000000 0.082393
O O8 0.204529 0.854007 0.993061
O O9 0.785351 0.500000 0.845486
O O10 0.826444 0.690998 0.799149
O O11 0.707990 0.628248 0.767415
O O12 0.995961 0.630049 0.213805
O O13 0.922418 0.790388 0.165139
O O14 0.000000 0.655072 0.000000
O O15 0.038641 0.301596 0.378932
O O16 0.484031 0.000000 0.388365
O O17 0.905718 0.000000 0.209748
#
# Coordination Sequence:
#
# PCOD8090565 Si02
#       7
#     8   8   8   8   8   8   8
#     4  11  23  40  60  85 117 154 203 253 298 347
#     4  10  21  35  56  88 119 156 199 243 303 360
#     4  10  19  33  57  85 113 151 202 251 296 352
#     4  10  19  35  61  87 120 156 194 245 298 356
#     4  11  22  39  61  83 123 164 199 249 299 364
#     4  10  24  42  61  90 122 159 202 244 300 364
#     4  10  20  34  56  86 115 148 195 250 302 349
#
# _framework density 20.754601000000001
#
# number of rings (size 3 to 8) (size 9 to 14) (size 15 to 20)
#    0.000    1.714    2.857    1.714    0.000    3.714 
#    0.000    0.000    0.000    5.143    0.000    0.000 
#    0.000    0.000    0.000    0.000    0.000    0.000 
#
# Total GULP energy -346975.787931 kJ/mol
# GULP energy per Si atom -12391.992426 kJ/mol
# Density = 2.070736 g / cm^3
# Si number density = 20.754601 Si / 1000 Ang^3
#
#
#
# Elastic Constant Matrix: (Units=GPa)
#
#
# Indices 1 2 3 4 5 6 
#
# 1 89.5558 8.9323 32.5767 0.0000 2.6416 0.0000
# 2 8.9323 53.3680 8.0377 0.0000 -6.5808 0.0000
# 3 32.5767 8.0377 99.8618 0.0000 17.5278 0.0000
# 4 0.0000 0.0000 0.0000 19.1739 0.0000 -1.2603
# 5 2.6416 -6.5808 17.5278 0.0000 46.0521 0.0000
# 6 0.0000 0.0000 0.0000 -1.2603 0.0000 4.8524
#
#
#
# Elastic Compliance Matrix: (Units=1/GPa)
#
#
# Indices 1 2 3 4 5 6 
#
# 1 0.012810 -0.001435 -0.004177 0.000000 0.000650 0.000000
# 2 -0.001435 0.019679 -0.001740 0.000000 0.003557 0.000000
# 3 -0.004177 -0.001740 0.012343 0.000000 -0.004707 0.000000
# 4 0.000000 0.000000 0.000000 0.053060 0.000000 0.013782
# 5 0.000650 0.003557 -0.004707 0.000000 0.023977 0.000000
# 6 0.000000 0.000000 0.000000 0.013782 0.000000 0.209664
#
#
# Mechanical properties :
#
#
# Convention : Reuss Voigt Hill
#
# Bulk Modulus (GPa) = 33.19318 37.98655 35.58986
# Shear Modulus (GPa) = 14.03397 26.89827 20.46612
#
# Velocity S-wave (km/s) = 2.60318 3.60393 3.14363
# Velocity P-wave (km/s) = 5.00632 5.97161 5.51015
#
# Compressibility (1/GPa) = 0.03012667
#
# Stress axis : x y z
#
# Youngs Moduli (GPa) = 78.06579 50.81658 81.01897
#
# Poissons Ratio (x) = 0.07290 0.33845
# Poissons Ratio (y) = 0.11200 0.14099
# Poissons Ratio (z) = 0.32611 0.08843
#
# Static dielectric constant tensor:
#      x y z
#    x 3.752050 0.000000 0.055010 
#    y 0.000000 3.455180 0.000000 
#    z 0.055010 0.000000 4.071280 
# 
# 
# High freq. dielectric constant tensor:
#      x y z
#    x 1.811280 0.000000 0.003180 
#    y 0.000000 1.784110 0.000000 
#    z 0.003180 0.000000 1.831600 
# 
# From -- ./inp_files/156524.got.cif
#   From: 2010.06.25/outbox.cif.g09.slc.cpg/sg12_79_cif.got.tgz:156524.got - 2010.06.28 00:19:55.
