data_PCOD8090202
_publ_section_title
;
Structure prediction by ZEFSAII (Michael W. Deem and Ramdas Pophale) SiO2 
 PCOD8090202
Probable space group: C 2/M
;
_chemical_formula_sum "Si O2"
_cell_formula_units_Z 56
_cell_length_a 14.026983
_cell_length_b 15.030860
_cell_length_c 17.785624
_cell_angle_alpha 90.000000
_cell_angle_beta 129.188008
_cell_angle_gamma 90.000000
_cell_volume 2906.443733
_symmetry_space_group_name_H-M "C 2/M"
_symmetry_group_IT_number 12
_symmetry_cell_setting 'monoclinic'
loop_
_space_group_symop_operation_xyz
x,y,z
-x,y,-z
-x,-y,-z
x,-y,z
1/2+x,1/2+y,z
1/2-x,1/2+y,-z
1/2-x,1/2-y,-z
1/2+x,1/2-y,z
loop_
_atom_site_type_symbol
_atom_site_label
_atom_site_fract_x
_atom_site_fract_y
_atom_site_fract_z
Si Si1 0.873039 0.000000 0.834800
Si Si2 0.841296 0.000000 0.986474
Si Si3 0.619109 0.310086 0.210859
Si Si4 0.886738 0.902604 0.402186
Si Si5 0.178982 0.207533 0.770993
Si Si6 0.907194 0.754429 0.637547
Si Si7 0.334154 0.328272 0.068470
Si Si8 0.740734 0.600658 0.513248
O O1 0.841623 0.085835 0.768284
O O2 0.014135 0.000000 0.928498
O O3 0.800865 0.000000 0.878712
O O4 0.786019 0.086441 0.999311
O O5 0.700336 0.266837 0.184595
O O6 0.647207 0.263159 0.304752
O O7 0.475108 0.303244 0.119332
O O8 0.830660 0.861384 0.300597
O O9 0.777145 0.910480 0.407003
O O10 0.000000 0.850092 0.500000
O O11 0.937733 0.000000 0.404306
O O12 0.188874 0.155175 0.854442
O O13 0.052844 0.264457 0.710718
O O14 0.852964 0.671469 0.562457
O O15 0.876975 0.850729 0.584155
O O16 0.250000 0.250000 0.000000
O O17 0.765059 0.500000 0.491614
#
# Coordination Sequence:
#
# PCOD8090202 Si02
#       8
#     4   4   8   8   8   8   8   8
#     4   9  18  34  58  80 106 144 181 229 280 329
#     4   9  18  36  58  85 106 137 186 231 275 337
#     4  10  21  37  57  85 114 146 187 232 284 338
#     4  10  19  33  55  84 109 149 193 230 278 332
#     4  11  21  35  58  82 117 148 186 237 284 333
#     4  10  21  35  55  84 115 149 193 232 281 336
#     4  10  22  38  61  85 111 148 189 235 287 337
#     4  10  20  36  56  78 114 156 190 237 279 328
#
# _framework density 19.267531999999999
#
# number of rings (size 3 to 8) (size 9 to 14) (size 15 to 20)
#    0.000    2.000    2.857    0.857    2.000    1.714 
#    1.286    0.000    6.286    1.714    0.000    0.000 
#    0.000    0.000    0.000    0.000    0.000    0.000 
#
# Total GULP energy -346942.788616 kJ/mol
# GULP energy per Si atom -12390.813879 kJ/mol
# Density = 1.922368 g / cm^3
# Si number density = 19.267532 Si / 1000 Ang^3
#
#
#
# Elastic Constant Matrix: (Units=GPa)
#
#
# Indices 1 2 3 4 5 6 
#
# 1 97.2246 37.6438 23.6432 0.0000 -5.4536 0.0000
# 2 37.6438 126.6145 33.0341 0.0000 6.1995 0.0000
# 3 23.6432 33.0341 61.3888 0.0000 -4.2633 0.0000
# 4 0.0000 0.0000 0.0000 25.9482 0.0000 -2.5698
# 5 -5.4536 6.1995 -4.2633 0.0000 21.4510 0.0000
# 6 0.0000 0.0000 0.0000 -2.5698 0.0000 25.0990
#
#
#
# Elastic Compliance Matrix: (Units=1/GPa)
#
#
# Indices 1 2 3 4 5 6 
#
# 1 0.012377 -0.003105 -0.002854 0.000000 0.003477 0.000000
# 2 -0.003105 0.010264 -0.004652 0.000000 -0.004681 0.000000
# 3 -0.002854 -0.004652 0.020214 0.000000 0.004636 0.000000
# 4 0.000000 0.000000 0.000000 0.038933 0.000000 0.003986
# 5 0.003477 -0.004681 0.004636 0.000000 0.049776 0.000000
# 6 0.000000 0.000000 0.000000 0.003986 0.000000 0.040250
#
#
# Mechanical properties :
#
#
# Convention : Reuss Voigt Hill
#
# Bulk Modulus (GPa) = 46.22893 52.65221 49.44057
# Shear Modulus (GPa) = 24.96882 27.22676 26.09779
#
# Velocity S-wave (km/s) = 3.60377 3.76319 3.68434
# Velocity P-wave (km/s) = 6.43129 6.80208 6.61928
#
# Compressibility (1/GPa) = 0.02163148
#
# Stress axis : x y z
#
# Youngs Moduli (GPa) = 80.79533 97.42565 49.46954
#
# Poissons Ratio (x) = 0.30254 0.14120
# Poissons Ratio (y) = 0.25090 0.23015
# Poissons Ratio (z) = 0.23062 0.45326
#
# Static dielectric constant tensor:
#      x y z
#    x 3.620270 0.000000 -0.259740 
#    y 0.000000 3.668580 0.000000 
#    z -0.259740 0.000000 3.559910 
# 
# 
# High freq. dielectric constant tensor:
#      x y z
#    x 1.741000 0.000000 -0.016030 
#    y 0.000000 1.742140 0.000000 
#    z -0.016030 0.000000 1.739530 
# 
# From -- ./inp_files/270416.got.cif
#   From: 2010.06.25/outbox.cif.g09.slc.cpg/sg12_136_cif.got.tgz:270416.got - 2010.06.28 00:19:55.
