data_PCOD8090104
_publ_section_title
;
Structure prediction by ZEFSAII (Michael W. Deem and Ramdas Pophale) SiO2 
 PCOD8090104
Probable space group: C 2/M
;
_chemical_formula_sum "Si O2"
_cell_formula_units_Z 56
_cell_length_a 18.479651
_cell_length_b 8.991403
_cell_length_c 20.661377
_cell_angle_alpha 90.000000
_cell_angle_beta 119.955030
_cell_angle_gamma 90.000000
_cell_volume 2974.457333
_symmetry_space_group_name_H-M "C 2/M"
_symmetry_group_IT_number 12
_symmetry_cell_setting 'monoclinic'
loop_
_space_group_symop_operation_xyz
x,y,z
-x,y,-z
-x,-y,-z
x,-y,z
1/2+x,1/2+y,z
1/2-x,1/2+y,-z
1/2-x,1/2-y,-z
1/2+x,1/2-y,z
loop_
_atom_site_type_symbol
_atom_site_label
_atom_site_fract_x
_atom_site_fract_y
_atom_site_fract_z
Si Si1 0.668954 0.329689 0.986792
Si Si2 0.290829 0.824928 0.730912
Si Si3 0.898407 0.175296 0.173364
Si Si4 0.771231 0.825012 0.853987
Si Si5 0.120357 0.175430 0.593857
Si Si6 0.945185 0.824051 0.571143
Si Si7 0.561809 0.825581 0.300858
O O1 0.690735 0.500000 0.988440
O O2 0.657576 0.293523 0.058234
O O3 0.750000 0.250000 0.000000
O O4 0.595796 0.290210 0.902295
O O5 0.309718 0.741898 0.806193
O O6 0.205089 0.759614 0.662231
O O7 0.365251 0.785108 0.716069
O O8 0.283965 0.000000 0.740911
O O9 0.815685 0.245625 0.167599
O O10 0.978035 0.245350 0.241966
O O11 0.897408 0.000000 0.187628
O O12 0.754688 0.000000 0.838501
O O13 0.107253 0.232418 0.514534
O O14 0.042307 0.220004 0.604013
O O15 0.126402 0.000000 0.592321
O O16 0.910153 0.735562 0.616889
O O17 0.935531 0.000000 0.577785
O O18 0.545665 0.000000 0.297536
#
# Coordination Sequence:
#
# PCOD8090104 Si02
#       7
#     8   8   8   8   8   8   8
#     4   8  16  30  50  77 103 128 163 210 259 305
#     4  10  21  36  51  71 106 147 178 206 251 309
#     4  10  19  34  56  77 101 137 175 209 256 314
#     4  10  19  33  55  82 107 129 165 217 262 304
#     4   8  16  33  56  78  98 127 170 214 255 308
#     4   9  17  33  58  80  97 126 171 216 261 314
#     4  11  23  35  48  73 108 141 176 218 256 294
#
# _framework density 18.826964
#
# number of rings (size 3 to 8) (size 9 to 14) (size 15 to 20)
#    0.000    2.571    0.000    3.000    0.000    4.000 
#    0.000    2.857    0.000    4.286    0.000    0.000 
#    0.000    0.000    0.000    0.000    0.000    0.000 
#
# Total GULP energy -346976.534418 kJ/mol
# GULP energy per Si atom -12392.019086 kJ/mol
# Density = 1.878411 g / cm^3
# Si number density = 18.826964 Si / 1000 Ang^3
#
#
#
# Elastic Constant Matrix: (Units=GPa)
#
#
# Indices 1 2 3 4 5 6 
#
# 1 69.8078 34.0570 37.9146 0.0000 -27.7191 0.0000
# 2 34.0570 57.2203 34.4856 0.0000 -19.3138 0.0000
# 3 37.9146 34.4856 105.0960 0.0000 -36.0480 0.0000
# 4 0.0000 0.0000 0.0000 27.1510 0.0000 -5.8678
# 5 -27.7191 -19.3138 -36.0480 0.0000 26.4969 0.0000
# 6 0.0000 0.0000 0.0000 -5.8678 0.0000 21.4250
#
#
#
# Elastic Compliance Matrix: (Units=1/GPa)
#
#
# Indices 1 2 3 4 5 6 
#
# 1 0.027583 -0.009091 0.001231 0.000000 0.023904 0.000000
# 2 -0.009091 0.026840 -0.003898 0.000000 0.004751 0.000000
# 3 0.001231 -0.003898 0.018406 0.000000 0.023488 0.000000
# 4 0.000000 0.000000 0.000000 0.039148 0.000000 0.010722
# 5 0.023904 0.004751 0.023488 0.000000 0.098164 0.000000
# 6 0.000000 0.000000 0.000000 0.010722 0.000000 0.049611
#
#
# Mechanical properties :
#
#
# Convention : Reuss Voigt Hill
#
# Bulk Modulus (GPa) = 20.27818 49.44872 34.86345
# Shear Modulus (GPa) = 16.68302 23.39237 20.03769
#
# Velocity S-wave (km/s) = 2.98001 3.52873 3.26591
# Velocity P-wave (km/s) = 4.75761 6.55167 5.72535
#
# Compressibility (1/GPa) = 0.04931409
#
# Stress axis : x y z
#
# Youngs Moduli (GPa) = 36.25387 37.25809 54.32909
#
# Poissons Ratio (x) = 0.33871 -0.06689
# Poissons Ratio (y) = 0.32958 0.21178
# Poissons Ratio (z) = -0.04463 0.14523
#
# Static dielectric constant tensor:
#      x y z
#    x 3.216750 0.000000 -0.102890 
#    y 0.000000 3.315370 0.000000 
#    z -0.102890 0.000000 4.262180 
# 
# 
# High freq. dielectric constant tensor:
#      x y z
#    x 1.701800 0.000000 -0.013450 
#    y 0.000000 1.720110 0.000000 
#    z -0.013450 0.000000 1.756250 
# 
# From -- ./inp_files/314408.got.cif
#   From: 2010.06.25/outbox.cif.g09.slc.cpg/sg12_158_cif.got.tgz:314408.got - 2010.06.28 00:19:55.
