data_PCOD8090602
_publ_section_title
;
Structure prediction by ZEFSAII (Michael W. Deem and Ramdas Pophale) SiO2 
 PCOD8090602
Probable space group: C 2/M
;
_chemical_formula_sum "Si O2"
_cell_formula_units_Z 56
_cell_length_a 19.402494
_cell_length_b 12.995720
_cell_length_c 12.282114
_cell_angle_alpha 90.000000
_cell_angle_beta 114.365600
_cell_angle_gamma 90.000000
_cell_volume 2821.088809
_symmetry_space_group_name_H-M "C 2/M"
_symmetry_group_IT_number 12
_symmetry_cell_setting 'monoclinic'
loop_
_space_group_symop_operation_xyz
x,y,z
-x,y,-z
-x,-y,-z
x,-y,z
1/2+x,1/2+y,z
1/2-x,1/2+y,-z
1/2-x,1/2-y,-z
1/2+x,1/2-y,z
loop_
_atom_site_type_symbol
_atom_site_label
_atom_site_fract_x
_atom_site_fract_y
_atom_site_fract_z
Si Si1 0.568020 0.730195 0.474816
Si Si2 0.718319 0.769823 0.689578
Si Si3 0.437288 0.756766 0.878821
Si Si4 0.301284 0.881300 0.872815
Si Si5 0.988749 0.621609 0.258881
Si Si6 0.817107 0.618270 0.126121
Si Si7 0.351396 0.378933 0.665306
O O1 0.500000 0.676461 0.500000
O O2 0.631949 0.776833 0.595750
O O3 0.529313 0.824910 0.387482
O O4 0.610267 0.648060 0.425387
O O5 0.740118 0.653213 0.740943
O O6 0.732515 0.831495 0.811115
O O7 0.772753 0.815933 0.630567
O O8 0.373962 0.810373 0.909058
O O9 0.466656 0.846345 0.819525
O O10 0.408710 0.656155 0.796466
O O11 0.500000 0.712646 0.000000
O O12 0.320793 0.000000 0.864396
O O13 0.276031 0.864444 0.982404
O O14 0.994738 0.500000 0.279216
O O15 0.902952 0.661151 0.187033
O O16 0.821156 0.500000 0.157607
O O17 0.335524 0.500000 0.660838
#
# Coordination Sequence:
#
# PCOD8090602 Si02
#       7
#     8   8   8   8   8   8   8
#     4  11  23  41  62  87 117 154 205 255 302 344
#     4  11  22  40  61  84 121 162 197 246 297 357
#     4  10  19  35  61  87 120 155 191 243 293 352
#     4  10  21  35  57  90 121 155 196 238 298 358
#     4  10  20  33  56  91 121 148 188 242 302 351
#     4  10  19  33  57  87 119 152 190 240 295 351
#     4  10  24  42  59  84 118 160 203 243 297 358
#
# _framework density 19.850491999999999
#
# number of rings (size 3 to 8) (size 9 to 14) (size 15 to 20)
#    0.000    1.714    2.857    1.714    0.000    3.143 
#    0.000    0.000    0.000    0.000    0.000    0.000 
#    0.000    0.000    0.000    0.000    0.000    0.000 
#
# Total GULP energy -347098.956314 kJ/mol
# GULP energy per Si atom -12396.391297 kJ/mol
# Density = 1.980531 g / cm^3
# Si number density = 19.850492 Si / 1000 Ang^3
#
#
#
# Elastic Constant Matrix: (Units=GPa)
#
#
# Indices 1 2 3 4 5 6 
#
# 1 103.1199 19.8203 36.0354 0.0000 -8.7475 0.0000
# 2 19.8203 76.0227 34.8435 0.0000 -4.9704 0.0000
# 3 36.0354 34.8435 94.6958 0.0000 3.5825 0.0000
# 4 0.0000 0.0000 0.0000 22.5733 0.0000 -0.6654
# 5 -8.7475 -4.9704 3.5825 0.0000 38.9704 0.0000
# 6 0.0000 0.0000 0.0000 -0.6654 0.0000 17.5574
#
#
#
# Elastic Compliance Matrix: (Units=1/GPa)
#
#
# Indices 1 2 3 4 5 6 
#
# 1 0.011576 -0.000917 -0.004176 0.000000 0.002865 0.000000
# 2 -0.000917 0.016154 -0.005685 0.000000 0.002377 0.000000
# 3 -0.004176 -0.005685 0.014354 0.000000 -0.002982 0.000000
# 4 0.000000 0.000000 0.000000 0.044350 0.000000 0.001681
# 5 0.002865 0.002377 -0.002982 0.000000 0.026881 0.000000
# 6 0.000000 0.000000 0.000000 0.001681 0.000000 0.057020
#
#
# Mechanical properties :
#
#
# Convention : Reuss Voigt Hill
#
# Bulk Modulus (GPa) = 48.71335 50.58187 49.64761
# Shear Modulus (GPa) = 25.15937 28.02950 26.59444
#
# Velocity S-wave (km/s) = 3.56398 3.76178 3.66421
# Velocity P-wave (km/s) = 6.44432 6.66368 6.55492
#
# Compressibility (1/GPa) = 0.02052826
#
# Stress axis : x y z
#
# Youngs Moduli (GPa) = 86.38485 61.90423 69.66699
#
# Poissons Ratio (x) = 0.05674 0.29095
# Poissons Ratio (y) = 0.07918 0.39606
# Poissons Ratio (z) = 0.36077 0.35193
#
# Static dielectric constant tensor:
#      x y z
#    x 3.825620 0.000000 -0.008150 
#    y 0.000000 3.350820 0.000000 
#    z -0.008150 0.000000 3.795270 
# 
# 
# High freq. dielectric constant tensor:
#      x y z
#    x 1.779550 0.000000 -0.008380 
#    y 0.000000 1.753400 0.000000 
#    z -0.008380 0.000000 1.784520 
# 
# From -- ./inp_files/165730.got.cif
#   From: 2010.06.25/outbox.cif.g09.slc.cpg/sg12_83_cif.got.tgz:165730.got - 2010.06.28 00:19:55.
