data_PCOD8090825
_publ_section_title
;
Structure prediction by ZEFSAII (Michael W. Deem and Ramdas Pophale) SiO2 
 PCOD8090825
Probable space group: C 2/M
;
_chemical_formula_sum "Si O2"
_cell_formula_units_Z 60
_cell_length_a 31.008954
_cell_length_b 19.890186
_cell_length_c 5.278744
_cell_angle_alpha 90.000000
_cell_angle_beta 67.401240
_cell_angle_gamma 90.000000
_cell_volume 3005.806896
_symmetry_space_group_name_H-M "C 2/M"
_symmetry_group_IT_number 12
_symmetry_cell_setting 'monoclinic'
loop_
_space_group_symop_operation_xyz
x,y,z
-x,y,-z
-x,-y,-z
x,-y,z
1/2+x,1/2+y,z
1/2-x,1/2+y,-z
1/2-x,1/2-y,-z
1/2+x,1/2-y,z
loop_
_atom_site_type_symbol
_atom_site_label
_atom_site_fract_x
_atom_site_fract_y
_atom_site_fract_z
Si Si1 0.115780 0.579867 0.944765
Si Si2 0.000000 0.897585 0.000000
Si Si3 0.469265 0.827728 0.816788
Si Si4 0.330934 0.079768 0.674963
Si Si5 0.916740 0.073039 0.486560
Si Si6 0.450149 0.314729 0.746598
Si Si7 0.322695 0.422905 0.455247
Si Si8 0.774560 0.080434 0.065753
O O1 0.110879 0.500000 0.953469
O O2 0.063797 0.609342 0.055355
O O3 0.142403 0.605719 0.135291
O O4 0.143382 0.606186 0.635337
O O5 0.029803 0.940133 0.730677
O O6 0.957907 0.851731 0.993066
O O7 0.500000 0.844755 0.500000
O O8 0.435918 0.762559 0.831868
O O9 0.500000 0.814070 0.000000
O O10 0.278257 0.107668 0.795941
O O11 0.329990 0.000000 0.676535
O O12 0.913787 0.138710 0.673424
O O13 0.878749 0.085436 0.350827
O O14 0.904160 0.000000 0.648528
O O15 0.500000 0.311719 0.500000
O O16 0.307252 0.500000 0.480792
O O17 0.304055 0.389761 0.237216
O O18 0.297824 0.390175 0.757619
O O19 0.776077 0.000000 0.059878
#
# Coordination Sequence:
#
# PCOD8090825 Si02
#       8
#     8   4   8   8   8   8   8   8
#     4  10  20  33  53  85 113 137 175 219 264 313
#     4  10  19  34  52  70 101 138 184 218 267 316
#     4  11  22  38  58  77 108 147 181 218 257 309
#     4   9  17  31  51  78 111 139 171 217 264 315
#     4  10  21  33  50  77 108 138 177 228 273 314
#     4   9  20  36  52  71  99 140 187 222 254 314
#     4   9  18  29  45  73 104 135 172 212 262 319
#     4   9  16  29  48  71 104 141 169 207 266 316
#
# _framework density 19.961362000000001
#
# number of rings (size 3 to 8) (size 9 to 14) (size 15 to 20)
#    0.000    2.400    0.667    1.800    1.867    6.667 
#    0.000    0.000    0.000    0.000    0.000    5.600 
#    0.000    0.000    0.000    0.000    0.000    0.000 
#
# Total GULP energy -371662.534114 kJ/mol
# GULP energy per Si atom -12388.751137 kJ/mol
# Density = 1.991593 g / cm^3
# Si number density = 19.961362 Si / 1000 Ang^3
#
#
#
# Elastic Constant Matrix: (Units=GPa)
#
#
# Indices 1 2 3 4 5 6 
#
# 1 110.4895 28.0714 41.4376 0.0000 11.6505 0.0000
# 2 28.0714 43.7519 14.0547 0.0000 -1.1366 0.0000
# 3 41.4376 14.0547 113.5357 0.0000 9.5725 0.0000
# 4 0.0000 0.0000 0.0000 1.8314 0.0000 7.0455
# 5 11.6505 -1.1366 9.5725 0.0000 39.2205 0.0000
# 6 0.0000 0.0000 0.0000 7.0455 0.0000 8.3537
#
#
#
# Elastic Compliance Matrix: (Units=1/GPa)
#
#
# Indices 1 2 3 4 5 6 
#
# 1 0.012420 -0.006951 -0.003415 0.000000 -0.003057 0.000000
# 2 -0.006951 0.027773 -0.001167 0.000000 0.003154 0.000000
# 3 -0.003415 -0.001167 0.010328 0.000000 -0.001540 0.000000
# 4 0.000000 0.000000 0.000000 -0.243265 0.000000 0.205169
# 5 -0.003057 0.003154 -0.001540 0.000000 0.026872 0.000000
# 6 0.000000 0.000000 0.000000 0.205169 0.000000 -0.053331
#
#
# Mechanical properties :
#
#
# Convention : Reuss Voigt Hill
#
# Bulk Modulus (GPa) = 36.42256 48.32270 42.37263
# Shear Modulus (GPa) = -26.73994 22.16203 -2.28895
#
# Velocity S-wave (km/s) = -3.66400 3.33565 -1.07200
# Velocity P-wave (km/s) = 0.62148 6.25269 4.44310
#
# Compressibility (1/GPa) = 0.02745551
#
# Stress axis : x y z
#
# Youngs Moduli (GPa) = 80.51786 36.00645 96.82054
#
# Poissons Ratio (x) = 0.25028 0.33060
# Poissons Ratio (y) = 0.55968 0.11299
# Poissons Ratio (z) = 0.27494 0.04202
#
# Static dielectric constant tensor:
#      x y z
#    x 3.659640 0.000000 0.198550 
#    y 0.000000 3.278630 0.000000 
#    z 0.198550 0.000000 3.838020 
# 
# 
# High freq. dielectric constant tensor:
#      x y z
#    x 1.778640 0.000000 0.012080 
#    y 0.000000 1.721520 0.000000 
#    z 0.012080 0.000000 1.785390 
# 
# From -- ./inp_files/29605.got.cif
#   From: 2010.06.25/outbox.cif.g09.slc.cpg/sg12_15_cif.got.tgz:29605.got - 2010.06.28 00:19:55.
