data_PCOD8090002
_publ_section_title
;
Structure prediction by ZEFSAII (Michael W. Deem and Ramdas Pophale) SiO2 
 PCOD8090002
Probable space group: C 2/M
;
_chemical_formula_sum "Si O2"
_cell_formula_units_Z 64
_cell_length_a 19.878774
_cell_length_b 8.813095
_cell_length_c 25.197761
_cell_angle_alpha 90.000000
_cell_angle_beta 51.772866
_cell_angle_gamma 90.000000
_cell_volume 3467.859871
_symmetry_space_group_name_H-M "C 2/M"
_symmetry_group_IT_number 12
_symmetry_cell_setting 'monoclinic'
loop_
_space_group_symop_operation_xyz
x,y,z
-x,y,-z
-x,-y,-z
x,-y,z
1/2+x,1/2+y,z
1/2-x,1/2+y,-z
1/2-x,1/2-y,-z
1/2+x,1/2-y,z
loop_
_atom_site_type_symbol
_atom_site_label
_atom_site_fract_x
_atom_site_fract_y
_atom_site_fract_z
Si Si1 0.998163 0.822119 0.152083
Si Si2 0.176100 0.678881 0.070976
Si Si3 0.429846 0.821178 0.574285
Si Si4 0.074120 0.673374 0.710433
Si Si5 0.442884 0.175844 0.687692
Si Si6 0.337581 0.824726 0.187114
Si Si7 0.246169 0.825183 0.338315
Si Si8 0.197878 0.175619 0.172804
O O1 0.973784 0.779935 0.224199
O O2 0.924833 0.771412 0.146449
O O3 0.086106 0.740743 0.093222
O O4 0.012084 0.000000 0.141101
O O5 0.177819 0.500000 0.063705
O O6 0.190221 0.720433 0.125326
O O7 0.250000 0.750000 0.000000
O O8 0.500000 0.750123 0.500000
O O9 0.452273 0.766803 0.622868
O O10 0.335481 0.769247 0.602961
O O11 0.432689 0.000000 0.569119
O O12 0.059899 0.500000 0.736682
O O13 0.175560 0.708725 0.659268
O O14 0.034634 0.699396 0.671536
O O15 0.373336 0.279852 0.749900
O O16 0.413903 0.000000 0.704541
O O17 0.274991 0.772717 0.265419
O O18 0.290909 0.797300 0.153903
O O19 0.361780 0.000000 0.183862
O O20 0.219469 0.000000 0.351434
O O21 0.185646 0.000000 0.162914
#
# Coordination Sequence:
#
# PCOD8090002 Si02
#       8
#     8   8   8   8   8   8   8   8
#     4  11  21  34  56  86 116 148 188 232 279 333
#     4  12  25  42  61  84 118 155 190 229 281 337
#     4  10  21  35  51  76 111 148 188 234 286 340
#     4   9  18  33  53  78 107 142 184 233 283 332
#     4  10  19  33  55  79 107 148 190 231 280 335
#     4   9  19  35  56  83 116 148 182 233 286 332
#     4   9  17  32  52  76 105 141 184 229 281 334
#     4  11  21  36  59  88 116 144 188 239 282 332
#
# _framework density 18.455186999999999
#
# number of rings (size 3 to 8) (size 9 to 14) (size 15 to 20)
#    0.000    1.875    2.500    3.375    0.000    3.250 
#    0.000    1.250    0.000    3.750    0.000    0.000 
#    0.000    0.000    0.000    0.000    0.000    0.000 
#
# Total GULP energy -396845.415427 kJ/mol
# GULP energy per Si atom -12401.419232 kJ/mol
# Density = 1.841318 g / cm^3
# Si number density = 18.455187 Si / 1000 Ang^3
#
#
#
# Elastic Constant Matrix: (Units=GPa)
#
#
# Indices 1 2 3 4 5 6 
#
# 1 117.3783 40.2309 42.9482 -0.0001 -15.4825 -0.0002
# 2 40.2309 88.3914 37.9227 -0.0003 -8.8312 -0.0009
# 3 42.9482 37.9227 89.8792 0.0000 -19.2763 -0.0004
# 4 -0.0001 -0.0003 0.0000 25.1219 0.0000 -5.5963
# 5 -15.4825 -8.8312 -19.2763 0.0000 25.7621 -0.0002
# 6 -0.0002 -0.0009 -0.0004 -5.5963 -0.0002 29.9224
#
#
#
# Elastic Compliance Matrix: (Units=1/GPa)
#
#
# Indices 1 2 3 4 5 6 
#
# 1 0.011312 -0.003424 -0.003281 0.000000 0.003169 0.000000
# 2 -0.003424 0.014855 -0.004742 0.000000 -0.000514 0.000000
# 3 -0.003281 -0.004742 0.016584 0.000000 0.008812 0.000000
# 4 0.000000 0.000000 0.000000 0.041536 0.000000 0.007769
# 5 0.003169 -0.000514 0.008812 0.000000 0.047139 0.000000
# 6 0.000000 0.000000 0.000000 0.007769 0.000000 0.034873
#
#
# Mechanical properties :
#
#
# Convention : Reuss Voigt Hill
#
# Bulk Modulus (GPa) = 50.35833 59.76138 55.05986
# Shear Modulus (GPa) = 25.53487 27.79776 26.66632
#
# Velocity S-wave (km/s) = 3.72373 3.88523 3.80534
# Velocity P-wave (km/s) = 6.77010 7.25113 7.01474
#
# Compressibility (1/GPa) = 0.01985769
#
# Stress axis : x y z
#
# Youngs Moduli (GPa) = 88.40543 67.31820 60.29842
#
# Poissons Ratio (x) = 0.23051 0.19781
# Poissons Ratio (y) = 0.30272 0.28591
# Poissons Ratio (z) = 0.29002 0.31919
#
# Static dielectric constant tensor:
#      x y z
#    x 3.760010 0.000000 0.048690 
#    y 0.000000 3.339890 0.000000 
#    z 0.048690 0.000000 3.409340 
# 
# 
# High freq. dielectric constant tensor:
#      x y z
#    x 1.734010 0.000000 -0.006690 
#    y 0.000000 1.714350 0.000000 
#    z -0.006690 0.000000 1.682550 
# 
# From -- ./inp_files/346007.got.cif
#   From: 2010.06.25/outbox.cif.g09.slc.cpg/sg12_174_cif.got.tgz:346007.got - 2010.06.28 00:19:55.
