data_PCOD8090562
_publ_section_title
;
Structure prediction by ZEFSAII (Michael W. Deem and Ramdas Pophale) SiO2 
 PCOD8090562
Probable space group: C 2/M
;
_chemical_formula_sum "Si O2"
_cell_formula_units_Z 48
_cell_length_a 20.326901
_cell_length_b 8.759794
_cell_length_c 31.607979
_cell_angle_alpha 90.000000
_cell_angle_beta 152.522511
_cell_angle_gamma 90.000000
_cell_volume 2596.805712
_symmetry_space_group_name_H-M "C 2/M"
_symmetry_group_IT_number 12
_symmetry_cell_setting 'monoclinic'
loop_
_space_group_symop_operation_xyz
x,y,z
-x,y,-z
-x,-y,-z
x,-y,z
1/2+x,1/2+y,z
1/2-x,1/2+y,-z
1/2-x,1/2-y,-z
1/2+x,1/2-y,z
loop_
_atom_site_type_symbol
_atom_site_label
_atom_site_fract_x
_atom_site_fract_y
_atom_site_fract_z
Si Si1 0.386091 0.678977 0.555271
Si Si2 0.932910 0.321279 0.274962
Si Si3 0.647673 0.678309 0.068378
Si Si4 0.873916 0.675227 0.459272
Si Si5 0.303306 0.818763 0.073945
Si Si6 0.943737 0.176378 0.736697
O O1 0.385469 0.500000 0.562548
O O2 0.250000 0.750000 0.500000
O O3 0.527736 0.751395 0.657165
O O4 0.386247 0.714071 0.506029
O O5 0.967199 0.500000 0.293109
O O6 0.766300 0.288828 0.171645
O O7 0.029146 0.241482 0.294450
O O8 0.622472 0.500000 0.047783
O O9 0.700850 0.742796 0.053370
O O10 0.500000 0.755974 0.000000
O O11 0.888085 0.500000 0.482622
O O12 0.723835 0.699171 0.349307
O O13 0.000000 0.721834 0.500000
O O14 0.464668 0.765225 0.175666
O O15 0.301880 0.000000 0.070549
O O16 0.250000 0.750000 0.000000
O O17 0.988262 0.000000 0.763446
#
# Coordination Sequence:
#
# PCOD8090562 Si02
#       6
#     8   8   8   8   8   8
#     4  12  23  36  58  84 113 147 189 233 277 333
#     4  10  19  33  57  85 112 144 185 231 275 327
#     4   8  16  33  56  81 107 139 179 224 271 320
#     4  10  22  40  59  82 113 149 189 231 280 335
#     4  10  20  35  57  81 109 142 185 230 274 331
#     4  10  19  34  58  82 109 145 186 229 276 332
#
# _framework density 18.484247
#
# number of rings (size 3 to 8) (size 9 to 14) (size 15 to 20)
#    0.000    2.000    1.667    4.000    0.000    1.000 
#    3.000    0.000    0.000   17.000    0.000    0.000 
#    0.000    0.000    0.000    0.000    0.000    0.000 
#
# Total GULP energy -297609.620073 kJ/mol
# GULP energy per Si atom -12400.400836 kJ/mol
# Density = 1.844218 g / cm^3
# Si number density = 18.484247 Si / 1000 Ang^3
#
#
#
# Elastic Constant Matrix: (Units=GPa)
#
#
# Indices 1 2 3 4 5 6 
#
# 1 94.1596 36.9973 73.7203 -0.0001 2.9397 0.0003
# 2 36.9973 90.0222 50.0275 0.0001 -1.6362 0.0006
# 3 73.7203 50.0275 140.6091 0.0001 -2.1821 0.0001
# 4 -0.0001 0.0001 0.0001 31.9571 0.0001 -8.0453
# 5 2.9397 -1.6362 -2.1821 0.0001 38.5499 0.0000
# 6 0.0003 0.0006 0.0001 -8.0453 0.0000 26.4272
#
#
#
# Elastic Compliance Matrix: (Units=1/GPa)
#
#
# Indices 1 2 3 4 5 6 
#
# 1 0.018712 -0.002814 -0.008841 0.000000 -0.002047 0.000000
# 2 -0.002814 0.014273 -0.003593 0.000000 0.000617 0.000000
# 3 -0.008841 -0.003593 0.013045 0.000000 0.001260 0.000000
# 4 0.000000 0.000000 0.000000 0.033889 0.000000 0.010317
# 5 -0.002047 0.000617 0.001260 0.000000 0.026194 0.000000
# 6 0.000000 0.000000 0.000000 0.010317 0.000000 0.040981
#
#
# Mechanical properties :
#
#
# Convention : Reuss Voigt Hill
#
# Bulk Modulus (GPa) = 64.37805 71.80901 68.09353
# Shear Modulus (GPa) = 27.35707 30.32323 28.84015
#
# Velocity S-wave (km/s) = 3.85128 4.05469 3.95429
# Velocity P-wave (km/s) = 7.39464 7.80088 7.60048
#
# Compressibility (1/GPa) = 0.01553325
#
# Stress axis : x y z
#
# Youngs Moduli (GPa) = 53.44229 70.06243 76.65706
#
# Poissons Ratio (x) = 0.19717 0.67772
# Poissons Ratio (y) = 0.15040 0.27544
# Poissons Ratio (z) = 0.47248 0.25174
#
# Static dielectric constant tensor:
#      x y z
#    x 3.471700 0.000000 0.032950 
#    y 0.000000 3.364710 0.000000 
#    z 0.032950 0.000000 3.675400 
# 
# 
# High freq. dielectric constant tensor:
#      x y z
#    x 1.695660 0.000000 -0.003500 
#    y 0.000000 1.714110 0.000000 
#    z -0.003500 0.000000 1.730780 
# 
# From -- ./inp_files/378548.got.cif
#   From: 2010.06.25/outbox.cif.g09.slc.cpg/sg12_190_cif.got.tgz:378548.got - 2010.06.28 00:19:55.
