data_PCOD8090940
_publ_section_title
;
Structure prediction by ZEFSAII (Michael W. Deem and Ramdas Pophale) SiO2 
 PCOD8090940
Probable space group: C 2/M
;
_chemical_formula_sum "Si O2"
_cell_formula_units_Z 36
_cell_length_a 11.208249
_cell_length_b 25.092409
_cell_length_c 10.731334
_cell_angle_alpha 90.000000
_cell_angle_beta 138.612717
_cell_angle_gamma 90.000000
_cell_volume 1995.403797
_symmetry_space_group_name_H-M "C 2/M"
_symmetry_group_IT_number 12
_symmetry_cell_setting 'monoclinic'
loop_
_space_group_symop_operation_xyz
x,y,z
-x,y,-z
-x,-y,-z
x,-y,z
1/2+x,1/2+y,z
1/2-x,1/2+y,-z
1/2-x,1/2-y,-z
1/2+x,1/2-y,z
loop_
_atom_site_type_symbol
_atom_site_label
_atom_site_fract_x
_atom_site_fract_y
_atom_site_fract_z
Si Si1 0.925646 0.144929 0.305079
Si Si2 0.689652 0.769731 0.202147
Si Si3 0.189694 0.648097 0.419689
Si Si4 0.687679 0.059714 0.216146
Si Si5 0.500000 0.187072 0.500000
O O1 0.774925 0.190462 0.162759
O O2 0.834973 0.086420 0.238308
O O3 0.000000 0.159946 0.500000
O O4 0.104781 0.148429 0.359763
O O5 0.654241 0.801147 0.303325
O O6 0.823065 0.721075 0.330816
O O7 0.500000 0.748210 0.000000
O O8 0.166518 0.593065 0.326412
O O9 0.046608 0.649391 0.419409
O O10 0.752280 0.000000 0.299079
O O11 0.500000 0.058796 0.000000
#
# Coordination Sequence:
#
# PCOD8090940 Si02
#       5
#     8   8   8   8   4
#     4   8  15  30  50  75 101 123 168 219 248 292
#     4  10  19  34  54  74 100 140 178 219 252 287
#     4  10  20  34  51  75 109 132 174 217 249 306
#     4   9  17  33  58  81  99 125 167 221 267 300
#     4  12  22  36  47  74 111 148 172 202 252 314
#
# _framework density 18.041461000000002
#
# number of rings (size 3 to 8) (size 9 to 14) (size 15 to 20)
#    0.000    2.889    3.333    3.333    0.000    4.889 
#    4.000    0.556    0.000    0.000    0.000    3.111 
#    0.000    0.000    0.000    0.000    0.000    0.000 
#
# Total GULP energy -223008.232178 kJ/mol
# GULP energy per Si atom -12389.346232 kJ/mol
# Density = 1.800040 g / cm^3
# Si number density = 18.041461 Si / 1000 Ang^3
#
#
#
# Elastic Constant Matrix: (Units=GPa)
#
#
# Indices 1 2 3 4 5 6 
#
# 1 91.2094 23.8507 26.9550 0.0000 7.5973 0.0000
# 2 23.8507 77.1245 26.9375 0.0000 6.1447 0.0000
# 3 26.9550 26.9375 84.3648 0.0000 26.5671 0.0000
# 4 0.0000 0.0000 0.0000 20.8604 0.0000 2.9066
# 5 7.5973 6.1447 26.5671 0.0000 19.0344 0.0000
# 6 0.0000 0.0000 0.0000 2.9066 0.0000 6.9649
#
#
#
# Elastic Compliance Matrix: (Units=1/GPa)
#
#
# Indices 1 2 3 4 5 6 
#
# 1 0.012627 -0.002794 -0.003282 0.000000 0.000442 0.000000
# 2 -0.002794 0.015322 -0.004983 0.000000 0.003125 0.000000
# 3 -0.003282 -0.004983 0.024219 0.000000 -0.030885 0.000000
# 4 0.000000 0.000000 0.000000 0.050897 0.000000 -0.021241
# 5 0.000442 0.003125 -0.030885 0.000000 0.094458 0.000000
# 6 0.000000 0.000000 0.000000 -0.021241 0.000000 0.152442
#
#
# Mechanical properties :
#
#
# Convention : Reuss Voigt Hill
#
# Bulk Modulus (GPa) = 33.27834 45.35391 39.31613
# Shear Modulus (GPa) = 13.08555 21.03562 17.06059
#
# Velocity S-wave (km/s) = 2.69607 3.41832 3.07845
# Velocity P-wave (km/s) = 5.30822 6.38539 5.87156
#
# Compressibility (1/GPa) = 0.03004957
#
# Stress axis : x y z
#
# Youngs Moduli (GPa) = 79.19289 65.26673 41.29016
#
# Poissons Ratio (x) = 0.18236 0.13550
# Poissons Ratio (y) = 0.22127 0.20577
# Poissons Ratio (z) = 0.25989 0.32525
#
# Static dielectric constant tensor:
#      x y z
#    x 3.525650 0.000000 0.608520 
#    y 0.000000 3.332500 0.000000 
#    z 0.608520 0.000000 3.464160 
# 
# 
# High freq. dielectric constant tensor:
#      x y z
#    x 1.672630 0.000000 0.041570 
#    y 0.000000 1.679940 0.000000 
#    z 0.041570 0.000000 1.692410 
# 
# From -- ./inp_files/124018.got.cif
#   From: 2010.06.25/outbox.cif.g09.slc.cpg/sg12_63_cif.got.tgz:124018.got - 2010.06.28 00:19:55.
