data_PCOD8090376
_publ_section_title
;
Structure prediction by ZEFSAII (Michael W. Deem and Ramdas Pophale) SiO2 
 PCOD8090376
Probable space group: C 2/M
;
_chemical_formula_sum "Si O2"
_cell_formula_units_Z 56
_cell_length_a 19.083549
_cell_length_b 9.025513
_cell_length_c 21.447447
_cell_angle_alpha 90.000000
_cell_angle_beta 55.695057
_cell_angle_gamma 90.000000
_cell_volume 3051.496024
_symmetry_space_group_name_H-M "C 2/M"
_symmetry_group_IT_number 12
_symmetry_cell_setting 'monoclinic'
loop_
_space_group_symop_operation_xyz
x,y,z
-x,y,-z
-x,-y,-z
x,-y,z
1/2+x,1/2+y,z
1/2-x,1/2+y,-z
1/2-x,1/2-y,-z
1/2+x,1/2-y,z
loop_
_atom_site_type_symbol
_atom_site_label
_atom_site_fract_x
_atom_site_fract_y
_atom_site_fract_z
Si Si1 0.780536 0.328949 0.795982
Si Si2 0.447764 0.330432 0.693194
Si Si3 0.315637 0.173072 0.921755
Si Si4 0.512709 0.327929 0.184065
Si Si5 0.764475 0.327647 0.398706
Si Si6 0.377899 0.327391 0.440991
Si Si7 0.159242 0.674706 0.768005
O O1 0.768558 0.500000 0.785199
O O2 0.867822 0.273830 0.720581
O O3 0.783231 0.299931 0.868068
O O4 0.701195 0.236987 0.809711
O O5 0.417789 0.500000 0.699449
O O6 0.486623 0.305503 0.742157
O O7 0.522069 0.286807 0.606659
O O8 0.406232 0.249106 0.887154
O O9 0.323292 0.000000 0.933383
O O10 0.250000 0.250000 0.000000
O O11 0.513655 0.500000 0.165031
O O12 0.430505 0.251751 0.196591
O O13 0.779904 0.500000 0.400328
O O14 0.669961 0.282620 0.470573
O O15 0.835924 0.250354 0.403342
O O16 0.776440 0.283692 0.320722
O O17 0.368580 0.500000 0.432031
O O18 0.144953 0.500000 0.781142
#
# Coordination Sequence:
#
# PCOD8090376 Si02
#       7
#     8   8   8   8   8   8   8
#     4  10  22  37  55  78 107 141 176 216 263 315
#     4   9  17  31  52  76 102 137 181 224 266 315
#     4  10  21  39  62  87 111 137 171 213 260 314
#     4  10  19  33  56  83 109 141 179 218 260 312
#     4   9  18  29  46  73 105 139 177 224 271 312
#     4   9  16  29  48  73 102 136 180 226 270 314
#     4  11  21  34  52  78 111 145 181 221 267 316
#
# _framework density 18.351652999999999
#
# number of rings (size 3 to 8) (size 9 to 14) (size 15 to 20)
#    0.000    2.286    1.429    1.714    0.000    3.429 
#    0.000    1.429    0.000    8.571    0.000    0.000 
#    0.000    0.000    0.000    0.000    0.000    0.000 
#
# Total GULP energy -347174.590836 kJ/mol
# GULP energy per Si atom -12399.092530 kJ/mol
# Density = 1.830988 g / cm^3
# Si number density = 18.351653 Si / 1000 Ang^3
#
#
#
# Elastic Constant Matrix: (Units=GPa)
#
#
# Indices 1 2 3 4 5 6 
#
# 1 109.4806 62.6762 45.9112 0.0000 -15.6843 0.0000
# 2 62.6762 101.6916 56.0164 0.0000 -11.5466 0.0002
# 3 45.9112 56.0164 100.6318 0.0000 -26.4588 0.0000
# 4 0.0000 0.0000 0.0000 26.3109 0.0000 -5.7121
# 5 -15.6843 -11.5466 -26.4588 0.0000 22.9020 0.0000
# 6 0.0000 0.0002 0.0000 -5.7121 0.0000 35.3990
#
#
#
# Elastic Compliance Matrix: (Units=1/GPa)
#
#
# Indices 1 2 3 4 5 6 
#
# 1 0.014876 -0.008056 -0.000994 0.000000 0.004978 0.000000
# 2 -0.008056 0.018674 -0.008179 0.000000 -0.005551 0.000000
# 3 -0.000994 -0.008179 0.019649 0.000000 0.017896 0.000000
# 4 0.000000 0.000000 0.000000 0.039387 0.000000 0.006356
# 5 0.004978 -0.005551 0.017896 0.000000 0.064950 0.000000
# 6 0.000000 0.000000 0.000000 0.006356 0.000000 0.029275
#
#
# Mechanical properties :
#
#
# Convention : Reuss Voigt Hill
#
# Bulk Modulus (GPa) = 53.35805 71.22354 62.29079
# Shear Modulus (GPa) = 21.97661 26.73572 24.35617
#
# Velocity S-wave (km/s) = 3.46429 3.82102 3.64702
# Velocity P-wave (km/s) = 6.71864 7.63948 7.19381
#
# Compressibility (1/GPa) = 0.01874132
#
# Stress axis : x y z
#
# Youngs Moduli (GPa) = 67.22333 53.55085 50.89389
#
# Poissons Ratio (x) = 0.43140 0.05057
# Poissons Ratio (y) = 0.54155 0.41626
# Poissons Ratio (z) = 0.06679 0.43799
#
# Static dielectric constant tensor:
#      x y z
#    x 3.881320 -0.000010 -0.412730 
#    y -0.000010 3.522290 0.000000 
#    z -0.412730 0.000000 3.623460 
# 
# 
# High freq. dielectric constant tensor:
#      x y z
#    x 1.696490 0.000000 -0.018890 
#    y 0.000000 1.719510 0.000000 
#    z -0.018890 0.000000 1.705650 
# 
# From -- ./inp_files/313730.got.cif
#   From: 2010.06.25/outbox.cif.g09.slc.cpg/sg12_157_cif.got.tgz:313730.got - 2010.06.28 00:19:55.
