data_PCOD8090026
_publ_section_title
;
Structure prediction by ZEFSAII (Michael W. Deem and Ramdas Pophale) SiO2 
 PCOD8090026
Probable space group: C 2/M
;
_chemical_formula_sum "Si O2"
_cell_formula_units_Z 64
_cell_length_a 20.702656
_cell_length_b 8.987901
_cell_length_c 21.394451
_cell_angle_alpha 90.000000
_cell_angle_beta 59.830621
_cell_angle_gamma 90.000000
_cell_volume 3441.694740
_symmetry_space_group_name_H-M "C 2/M"
_symmetry_group_IT_number 12
_symmetry_cell_setting 'monoclinic'
loop_
_space_group_symop_operation_xyz
x,y,z
-x,y,-z
-x,-y,-z
x,-y,z
1/2+x,1/2+y,z
1/2-x,1/2+y,-z
1/2-x,1/2-y,-z
1/2+x,1/2-y,z
loop_
_atom_site_type_symbol
_atom_site_label
_atom_site_fract_x
_atom_site_fract_y
_atom_site_fract_z
Si Si1 0.460026 0.674114 0.832301
Si Si2 0.796591 0.176444 0.183839
Si Si3 0.794450 0.827694 0.665040
Si Si4 0.711696 0.173158 0.576891
Si Si5 0.552778 0.323598 0.665587
Si Si6 0.927279 0.667747 0.658112
Si Si7 0.536218 0.322631 0.919087
Si Si8 0.163366 0.664218 0.169962
O O1 0.455077 0.500000 0.840190
O O2 0.514770 0.721401 0.749671
O O3 0.490609 0.741682 0.882164
O O4 0.375790 0.730915 0.861758
O O5 0.767831 0.257161 0.259746
O O6 0.879091 0.233523 0.128072
O O7 0.746598 0.218879 0.147349
O O8 0.792650 0.000000 0.198602
O O9 0.767149 0.805233 0.607936
O O10 0.875492 0.749379 0.631987
O O11 0.803824 0.000000 0.678249
O O12 0.750000 0.250000 0.500000
O O13 0.633875 0.252889 0.628064
O O14 0.697176 0.000000 0.570222
O O15 0.558394 0.500000 0.654060
O O16 0.504590 0.256896 0.631414
O O17 0.945250 0.500000 0.626630
O O18 0.882188 0.665056 0.743953
O O19 0.534347 0.500000 0.920513
O O20 0.500000 0.258066 0.000000
O O21 0.165563 0.500000 0.139601
#
# Coordination Sequence:
#
# PCOD8090026 Si02
#       8
#     8   8   8   8   8   8   8   8
#     4   9  17  29  49  75  98 126 164 205 249 295
#     4   9  17  31  52  75  97 128 170 209 251 303
#     4  10  20  34  54  80 106 133 168 212 259 303
#     4  11  24  39  54  75 105 139 174 212 255 304
#     4  10  19  33  55  80 106 135 170 214 259 305
#     4   9  17  31  53  80 107 134 167 208 255 307
#     4   9  17  30  48  70  97 130 171 214 249 290
#     4   8  15  27  45  70  98 126 157 200 249 297
#
# _framework density 18.595490000000002
#
# number of rings (size 3 to 8) (size 9 to 14) (size 15 to 20)
#    0.000    2.625    0.000    3.000    0.000    6.500 
#    0.000    1.875    0.000    5.250    0.000    0.000 
#    0.000    0.000    0.000    0.000    0.000    0.000 
#
# Total GULP energy -396733.778133 kJ/mol
# GULP energy per Si atom -12397.930567 kJ/mol
# Density = 1.855317 g / cm^3
# Si number density = 18.595490 Si / 1000 Ang^3
#
#
#
# Elastic Constant Matrix: (Units=GPa)
#
#
# Indices 1 2 3 4 5 6 
#
# 1 145.6398 51.1329 49.1104 -0.0002 19.7034 -0.0013
# 2 51.1329 78.3419 38.9516 -0.0005 7.3625 -0.0026
# 3 49.1104 38.9516 70.5620 -0.0001 15.2320 0.0000
# 4 -0.0002 -0.0005 -0.0001 15.3172 0.0002 0.8712
# 5 19.7034 7.3625 15.2320 0.0002 8.4309 -0.0003
# 6 -0.0013 -0.0026 0.0000 0.8712 -0.0003 34.5120
#
#
#
# Elastic Compliance Matrix: (Units=1/GPa)
#
#
# Indices 1 2 3 4 5 6 
#
# 1 0.011972 -0.005470 -0.000499 0.000000 -0.022301 0.000000
# 2 -0.005470 0.020159 -0.010296 0.000000 0.013781 0.000001
# 3 -0.000499 -0.010296 0.029525 0.000001 -0.043185 -0.000001
# 4 0.000000 0.000000 0.000001 0.065380 -0.000004 -0.001650
# 5 -0.022301 0.013781 -0.043185 -0.000004 0.236717 0.000003
# 6 0.000000 0.000001 -0.000001 -0.001650 0.000003 0.029017
#
#
# Mechanical properties :
#
#
# Convention : Reuss Voigt Hill
#
# Bulk Modulus (GPa) = 34.33317 63.65930 48.99623
# Shear Modulus (GPa) = 11.49405 22.00861 16.75133
#
# Velocity S-wave (km/s) = 2.48888 3.44400 3.00463
# Velocity P-wave (km/s) = 5.17326 7.07975 6.20022
#
# Compressibility (1/GPa) = 0.02912635
#
# Stress axis : x y z
#
# Youngs Moduli (GPa) = 83.52778 49.60603 33.86995
#
# Poissons Ratio (x) = 0.27136 0.01689
# Poissons Ratio (y) = 0.45692 0.34872
# Poissons Ratio (z) = 0.04165 0.51073
#
# Static dielectric constant tensor:
#      x y z
#    x 3.857450 0.000000 0.014150 
#    y 0.000000 3.415420 0.000000 
#    z 0.014150 0.000000 3.014410 
# 
# 
# High freq. dielectric constant tensor:
#      x y z
#    x 1.743370 0.000000 0.002170 
#    y 0.000000 1.712910 0.000000 
#    z 0.002170 0.000000 1.684400 
# 
# From -- ./inp_files/319791.got.cif
#   From: 2010.06.25/outbox.cif.g09.slc.cpg/sg12_160_cif.got.tgz:319791.got - 2010.06.28 00:19:55.
