data_PCOD8090311
_publ_section_title
;
Structure prediction by ZEFSAII (Michael W. Deem and Ramdas Pophale) SiO2 
 PCOD8090311
Probable space group: C 2/M
;
_chemical_formula_sum "Si O2"
_cell_formula_units_Z 64
_cell_length_a 27.309351
_cell_length_b 12.628486
_cell_length_c 14.913647
_cell_angle_alpha 90.000000
_cell_angle_beta 139.046027
_cell_angle_gamma 90.000000
_cell_volume 3371.225303
_symmetry_space_group_name_H-M "C 2/M"
_symmetry_group_IT_number 12
_symmetry_cell_setting 'monoclinic'
loop_
_space_group_symop_operation_xyz
x,y,z
-x,y,-z
-x,-y,-z
x,-y,z
1/2+x,1/2+y,z
1/2-x,1/2+y,-z
1/2-x,1/2-y,-z
1/2+x,1/2-y,z
loop_
_atom_site_type_symbol
_atom_site_label
_atom_site_fract_x
_atom_site_fract_y
_atom_site_fract_z
Si Si1 0.564807 0.381460 0.660783
Si Si2 0.325168 0.124803 0.044950
Si Si3 0.027689 0.750108 0.780270
Si Si4 0.526140 0.622094 0.135412
Si Si5 0.823987 0.767296 0.662379
Si Si6 0.393060 0.885070 0.639790
Si Si7 0.699515 0.766523 0.805405
Si Si8 0.261681 0.881637 0.318158
O O1 0.500000 0.386330 0.500000
O O2 0.596332 0.500000 0.722175
O O3 0.533717 0.335593 0.710146
O O4 0.627658 0.307378 0.706145
O O5 0.407931 0.162658 0.136337
O O6 0.301538 0.151168 0.113973
O O7 0.317798 0.000000 0.017778
O O8 0.270961 0.190110 0.904745
O O9 0.028865 0.812497 0.875530
O O10 0.950252 0.687702 0.664419
O O11 0.510237 0.500000 0.130974
O O12 0.614568 0.642652 0.279572
O O13 0.500000 0.656045 0.000000
O O14 0.750000 0.750000 0.500000
O O15 0.871001 0.659491 0.708877
O O16 0.800651 0.797517 0.731879
O O17 0.320994 0.893270 0.478551
O O18 0.428632 0.000000 0.705553
O O19 0.700290 0.837345 0.718019
O O20 0.227886 0.000000 0.253324
#
# Coordination Sequence:
#
# PCOD8090311 Si02
#       8
#     8   8   8   8   8   8   8   8
#     4  10  20  35  55  80 111 144 179 224 279 336
#     4  10  21  37  54  75 107 146 182 221 273 331
#     4  10  20  35  57  79 107 147 184 227 275 334
#     4  10  21  36  57  86 116 147 190 243 292 339
#     4   9  19  35  55  80 114 149 184 230 284 341
#     4   9  18  34  55  80 108 140 178 223 274 330
#     4  10  21  35  54  79 107 139 182 230 270 326
#     4  10  19  33  56  81 106 137 179 230 278 321
#
# _framework density 18.984196000000001
#
# number of rings (size 3 to 8) (size 9 to 14) (size 15 to 20)
#    0.000    2.250    0.000    2.625    1.750    0.500 
#    0.000    2.500    0.000   10.125    0.000    0.000 
#    0.000    0.000    0.000    0.000    0.000    0.000 
#
# Total GULP energy -396474.279563 kJ/mol
# GULP energy per Si atom -12389.821236 kJ/mol
# Density = 1.894099 g / cm^3
# Si number density = 18.984196 Si / 1000 Ang^3
#
#
#
# Elastic Constant Matrix: (Units=GPa)
#
#
# Indices 1 2 3 4 5 6 
#
# 1 119.0785 56.4289 24.4038 0.0000 -11.5312 0.0000
# 2 56.4289 122.7073 30.1651 0.0000 -16.6856 0.0000
# 3 24.4038 30.1651 47.8015 0.0000 0.5829 0.0000
# 4 0.0000 0.0000 0.0000 21.5672 0.0000 -3.9461
# 5 -11.5312 -16.6856 0.5829 0.0000 26.0435 0.0000
# 6 0.0000 0.0000 0.0000 -3.9461 0.0000 25.5184
#
#
#
# Elastic Compliance Matrix: (Units=1/GPa)
#
#
# Indices 1 2 3 4 5 6 
#
# 1 0.011202 -0.004030 -0.003205 0.000000 0.002449 0.000000
# 2 -0.004030 0.012261 -0.005755 0.000000 0.006200 0.000000
# 3 -0.003205 -0.005755 0.026257 0.000000 -0.005694 0.000000
# 4 0.000000 0.000000 0.000000 0.047717 0.000000 0.007379
# 5 0.002449 0.006200 -0.005694 0.000000 0.043581 0.000000
# 6 0.000000 0.000000 0.000000 0.007379 0.000000 0.040328
#
#
# Mechanical properties :
#
#
# Convention : Reuss Voigt Hill
#
# Bulk Modulus (GPa) = 42.12583 56.84254 49.48419
# Shear Modulus (GPa) = 23.22985 26.53181 24.88083
#
# Velocity S-wave (km/s) = 3.50185 3.74247 3.62416
# Velocity P-wave (km/s) = 6.21199 6.97723 6.60570
#
# Compressibility (1/GPa) = 0.02373840
#
# Stress axis : x y z
#
# Youngs Moduli (GPa) = 89.27154 81.56180 38.08452
#
# Poissons Ratio (x) = 0.32872 0.12207
# Poissons Ratio (y) = 0.35979 0.21918
# Poissons Ratio (z) = 0.28614 0.46940
#
# Static dielectric constant tensor:
#      x y z
#    x 3.631010 0.000000 0.124170 
#    y 0.000000 3.783100 0.000000 
#    z 0.124170 0.000000 3.372570 
# 
# 
# High freq. dielectric constant tensor:
#      x y z
#    x 1.746640 0.000000 0.012140 
#    y 0.000000 1.746560 0.000000 
#    z 0.012140 0.000000 1.722160 
# 
# From -- ./inp_files/245977.got.cif
#   From: 2010.06.25/outbox.cif.g09.slc.cpg/sg12_123_cif.got.tgz:245977.got - 2010.06.28 00:19:55.
