data_PCOD8090594
_publ_section_title
;
Structure prediction by ZEFSAII (Michael W. Deem and Ramdas Pophale) SiO2 
 PCOD8090594
Probable space group: C 2/M
;
_chemical_formula_sum "Si O2"
_cell_formula_units_Z 64
_cell_length_a 8.861857
_cell_length_b 24.815455
_cell_length_c 16.116984
_cell_angle_alpha 90.000000
_cell_angle_beta 101.131144
_cell_angle_gamma 90.000000
_cell_volume 3477.626415
_symmetry_space_group_name_H-M "C 2/M"
_symmetry_group_IT_number 12
_symmetry_cell_setting 'monoclinic'
loop_
_space_group_symop_operation_xyz
x,y,z
-x,y,-z
-x,-y,-z
x,-y,z
1/2+x,1/2+y,z
1/2-x,1/2+y,-z
1/2-x,1/2-y,-z
1/2+x,1/2-y,z
loop_
_atom_site_type_symbol
_atom_site_label
_atom_site_fract_x
_atom_site_fract_y
_atom_site_fract_z
Si Si1 0.528992 0.331680 0.167254
Si Si2 0.891119 0.563831 0.414951
Si Si3 0.246565 0.692585 0.040475
Si Si4 0.101300 0.712227 0.202213
Si Si5 0.040470 0.060386 0.409675
Si Si6 0.317225 0.626425 0.281658
Si Si7 0.017488 0.437047 0.251592
Si Si8 0.840622 0.360073 0.130943
O O1 0.424162 0.320520 0.076266
O O2 0.587498 0.275806 0.216332
O O3 0.435628 0.369891 0.218647
O O4 0.672302 0.365008 0.150967
O O5 0.904788 0.500000 0.417463
O O6 0.714482 0.581208 0.412181
O O7 0.000000 0.587575 0.500000
O O8 0.951078 0.586129 0.332234
O O9 0.152733 0.695134 0.115356
O O10 0.250000 0.750000 0.000000
O O11 0.168664 0.649951 0.969093
O O12 0.222841 0.683761 0.279523
O O13 0.930545 0.687404 0.190595
O O14 0.000000 0.053405 0.500000
O O15 0.923143 0.107275 0.368556
O O16 0.018701 0.000000 0.366585
O O17 0.193313 0.579546 0.255379
O O18 0.004255 0.500000 0.250081
O O19 0.922938 0.416009 0.161766
#
# Coordination Sequence:
#
# PCOD8090594 Si02
#       8
#     8   8   8   8   8   8   8   8
#     4  11  20  33  51  80 109 140 176 231 284 325
#     4   9  17  31  54  82 109 140 180 224 270 313
#     4  11  19  31  53  79 111 136 171 231 278 324
#     4  10  20  33  51  78 111 142 174 221 284 328
#     4  10  19  33  57  87 116 145 180 227 272 316
#     4  10  21  34  53  79 111 144 186 222 276 333
#     4  10  21  37  53  74 111 152 186 225 272 330
#     4  11  20  30  52  79 108 141 181 222 277 328
#
# _framework density 18.403357
#
# number of rings (size 3 to 8) (size 9 to 14) (size 15 to 20)
#    0.000    1.750    2.500    3.375    0.000    2.000 
#    0.000    0.625    0.000   18.750    0.000    4.375 
#    0.000    0.000    0.000    0.000    0.000    0.000 
#
# Total GULP energy -396515.182161 kJ/mol
# GULP energy per Si atom -12391.099443 kJ/mol
# Density = 1.836147 g / cm^3
# Si number density = 18.403357 Si / 1000 Ang^3
#
#
#
# Elastic Constant Matrix: (Units=GPa)
#
#
# Indices 1 2 3 4 5 6 
#
# 1 130.5465 30.6537 40.8148 0.0000 7.0022 0.0000
# 2 30.6537 60.3107 47.1210 0.0000 5.4244 0.0000
# 3 40.8148 47.1210 83.6570 0.0000 11.9383 0.0000
# 4 0.0000 0.0000 0.0000 22.4394 0.0000 -0.8511
# 5 7.0022 5.4244 11.9383 0.0000 36.7655 0.0000
# 6 0.0000 0.0000 0.0000 -0.8511 0.0000 26.6341
#
#
#
# Elastic Compliance Matrix: (Units=1/GPa)
#
#
# Indices 1 2 3 4 5 6 
#
# 1 0.009188 -0.002100 -0.003245 0.000000 -0.000387 0.000000
# 2 -0.002100 0.030135 -0.016119 0.000000 0.001188 0.000000
# 3 -0.003245 -0.016119 0.023266 0.000000 -0.004559 0.000000
# 4 0.000000 0.000000 0.000000 0.044619 0.000000 0.001426
# 5 -0.000387 0.001188 -0.004559 0.000000 0.028578 0.000000
# 6 0.000000 0.000000 0.000000 0.001426 0.000000 0.037591
#
#
# Mechanical properties :
#
#
# Convention : Reuss Voigt Hill
#
# Bulk Modulus (GPa) = 50.85895 56.85480 53.85688
# Shear Modulus (GPa) = 22.43560 27.56279 24.99919
#
# Velocity S-wave (km/s) = 3.49535 3.87422 3.68965
# Velocity P-wave (km/s) = 6.63217 7.13957 6.89054
#
# Compressibility (1/GPa) = 0.01966222
#
# Stress axis : x y z
#
# Youngs Moduli (GPa) = 108.83235 33.18373 42.98040
#
# Poissons Ratio (x) = 0.06969 0.13946
# Poissons Ratio (y) = 0.22858 0.69280
# Poissons Ratio (z) = 0.35313 0.53489
#
# Static dielectric constant tensor:
#      x y z
#    x 3.745750 0.000000 0.005320 
#    y 0.000000 3.246770 0.000000 
#    z 0.005320 0.000000 4.249900 
# 
# 
# High freq. dielectric constant tensor:
#      x y z
#    x 1.745080 0.000000 0.004820 
#    y 0.000000 1.678980 0.000000 
#    z 0.004820 0.000000 1.691090 
# 
# From -- ./inp_files/199867.got.cif
#   From: 2010.06.25/outbox.cif.g09.slc.cpg/sg12_100_cif.got.tgz:199867.got - 2010.06.28 00:19:55.
