data_PCOD8090212
_publ_section_title
;
Structure prediction by ZEFSAII (Michael W. Deem and Ramdas Pophale) SiO2 
 PCOD8090212
Probable space group: C 2/M
;
_chemical_formula_sum "Si O2"
_cell_formula_units_Z 56
_cell_length_a 14.618985
_cell_length_b 21.510675
_cell_length_c 19.754909
_cell_angle_alpha 90.000000
_cell_angle_beta 151.274548
_cell_angle_gamma 90.000000
_cell_volume 2985.670616
_symmetry_space_group_name_H-M "C 2/M"
_symmetry_group_IT_number 12
_symmetry_cell_setting 'monoclinic'
loop_
_space_group_symop_operation_xyz
x,y,z
-x,y,-z
-x,-y,-z
x,-y,z
1/2+x,1/2+y,z
1/2-x,1/2+y,-z
1/2-x,1/2-y,-z
1/2+x,1/2-y,z
loop_
_atom_site_type_symbol
_atom_site_label
_atom_site_fract_x
_atom_site_fract_y
_atom_site_fract_z
Si Si1 0.512588 0.929272 0.580569
Si Si2 0.138588 0.073829 0.531780
Si Si3 0.644748 0.729926 0.032583
Si Si4 0.558879 0.069123 0.838463
Si Si5 0.590927 0.571745 0.350621
Si Si6 0.724978 0.390760 0.140985
Si Si7 0.845836 0.158825 0.095395
O O1 0.500000 0.896262 0.500000
O O2 0.317791 0.923569 0.494503
O O3 0.687686 0.895178 0.728772
O O4 0.577391 0.000000 0.613360
O O5 0.351777 0.098182 0.686253
O O6 0.051459 0.094376 0.402187
O O7 0.000000 0.100244 0.500000
O O8 0.147009 0.000000 0.537526
O O9 0.784385 0.677383 0.152472
O O10 0.761408 0.791442 0.092848
O O11 0.500000 0.745095 0.000000
O O12 0.561806 0.696374 0.909136
O O13 0.680200 0.059851 0.848181
O O14 0.539769 0.000000 0.858661
O O15 0.669480 0.114754 0.960799
O O16 0.524727 0.500000 0.294876
O O17 0.498355 0.616794 0.234483
O O18 0.500000 0.400729 0.000000
#
# Coordination Sequence:
#
# PCOD8090212 Si02
#       7
#     8   8   8   8   8   8   8
#     4  10  21  33  51  85 125 153 177 222 285 348
#     4   9  18  34  54  77 112 154 187 220 274 333
#     4   9  21  39  58  77 107 149 196 239 277 317
#     4  10  19  33  55  84 114 145 183 229 279 346
#     4  10  20  36  57  87 123 148 177 232 293 344
#     4  10  20  35  57  81 113 154 192 225 274 342
#     4  10  21  37  59  83 108 147 192 234 285 332
#
# _framework density 18.756254999999999
#
# number of rings (size 3 to 8) (size 9 to 14) (size 15 to 20)
#    0.000    2.286    1.429    0.857    6.000    2.286 
#    0.000    0.714    0.000    5.571    0.000    0.000 
#    0.000    0.000    0.000    0.000    0.000    0.000 
#
# Total GULP energy -346871.446437 kJ/mol
# GULP energy per Si atom -12388.265944 kJ/mol
# Density = 1.871356 g / cm^3
# Si number density = 18.756255 Si / 1000 Ang^3
#
#
#
# Elastic Constant Matrix: (Units=GPa)
#
#
# Indices 1 2 3 4 5 6 
#
# 1 122.6801 31.0647 49.0407 0.0052 -10.6320 -0.0006
# 2 31.0647 73.2532 46.1918 0.0038 -3.4713 0.0013
# 3 49.0407 46.1918 137.5676 0.0092 -10.6294 0.0006
# 4 0.0052 0.0038 0.0092 11.8630 0.0051 -6.8945
# 5 -10.6320 -3.4713 -10.6294 0.0051 29.6933 -0.0005
# 6 -0.0006 0.0013 0.0006 -6.8945 -0.0005 26.2382
#
#
#
# Elastic Compliance Matrix: (Units=1/GPa)
#
#
# Indices 1 2 3 4 5 6 
#
# 1 0.010013 -0.002535 -0.002534 -0.000003 0.002382 0.000000
# 2 -0.002535 0.017960 -0.005178 -0.000001 -0.000662 -0.000001
# 3 -0.002534 -0.005178 0.010073 -0.000007 0.002093 -0.000002
# 4 -0.000003 -0.000001 -0.000007 0.099489 -0.000020 0.026142
# 5 0.002382 -0.000662 0.002093 -0.000020 0.035202 -0.000005
# 6 0.000000 -0.000001 -0.000002 0.026142 -0.000005 0.044982
#
#
# Mechanical properties :
#
#
# Convention : Reuss Voigt Hill
#
# Bulk Modulus (GPa) = 56.97644 65.12170 61.04907
# Shear Modulus (GPa) = 20.48652 27.37250 23.92951
#
# Velocity S-wave (km/s) = 3.30851 3.82433 3.57573
# Velocity P-wave (km/s) = 6.71105 7.36858 7.04749
#
# Compressibility (1/GPa) = 0.01755111
#
# Stress axis : x y z
#
# Youngs Moduli (GPa) = 99.87390 55.67887 99.27689
#
# Poissons Ratio (x) = 0.14116 0.25157
# Poissons Ratio (y) = 0.25321 0.51405
# Poissons Ratio (z) = 0.25308 0.28830
#
# Static dielectric constant tensor:
#      x y z
#    x 3.710170 0.000000 -0.191620 
#    y 0.000000 3.313510 -0.000010 
#    z -0.191620 -0.000010 3.356580 
# 
# 
# High freq. dielectric constant tensor:
#      x y z
#    x 1.735130 0.000000 -0.013240 
#    y 0.000000 1.705050 0.000000 
#    z -0.013240 0.000000 1.720860 
# 
# From -- ./inp_files/79068.got.cif
#   From: 2010.06.25/outbox.cif.g09.slc.cpg/sg12_40_cif.got.tgz:79068.got - 2010.06.28 00:19:55.
