data_PCOD8090179
_publ_section_title
;
Structure prediction by ZEFSAII (Michael W. Deem and Ramdas Pophale) SiO2 
 PCOD8090179
Probable space group: C 2/M
;
_chemical_formula_sum "Si O2"
_cell_formula_units_Z 56
_cell_length_a 22.575444
_cell_length_b 8.800616
_cell_length_c 29.662515
_cell_angle_alpha 90.000000
_cell_angle_beta 28.815104
_cell_angle_gamma 90.000000
_cell_volume 2840.472333
_symmetry_space_group_name_H-M "C 2/M"
_symmetry_group_IT_number 12
_symmetry_cell_setting 'monoclinic'
loop_
_space_group_symop_operation_xyz
x,y,z
-x,y,-z
-x,-y,-z
x,-y,z
1/2+x,1/2+y,z
1/2-x,1/2+y,-z
1/2-x,1/2-y,-z
1/2+x,1/2-y,z
loop_
_atom_site_type_symbol
_atom_site_label
_atom_site_fract_x
_atom_site_fract_y
_atom_site_fract_z
Si Si1 0.733021 0.323145 0.234084
Si Si2 0.740474 0.320432 0.614301
Si Si3 0.432934 0.176001 0.342625
Si Si4 0.282140 0.824678 0.848882
Si Si5 0.885691 0.179626 0.210440
Si Si6 0.662669 0.320323 0.021167
Si Si7 0.547810 0.678502 0.576172
O O1 0.757016 0.500000 0.223347
O O2 0.762621 0.274715 0.163349
O O3 0.823821 0.236366 0.206296
O O4 0.593144 0.279237 0.339994
O O5 0.761265 0.500000 0.600111
O O6 0.643855 0.276169 0.640566
O O7 0.689505 0.261720 0.696161
O O8 0.870409 0.236037 0.520132
O O9 0.574880 0.202325 0.236096
O O10 0.403558 0.233394 0.412365
O O11 0.394431 0.000000 0.364402
O O12 0.206221 0.768554 0.942637
O O13 0.256505 0.000000 0.854416
O O14 0.888081 0.000000 0.207518
O O15 0.024875 0.241484 0.120554
O O16 0.670806 0.500000 0.020384
O O17 0.750000 0.250000 0.000000
O O18 0.564102 0.500000 0.573264
#
# Coordination Sequence:
#
# PCOD8090179 Si02
#       7
#     8   8   8   8   8   8   8
#     4  10  22  39  59  82 108 141 185 231 274 319
#     4  11  22  35  53  79 110 147 185 224 273 326
#     4  10  19  33  55  83 112 143 180 225 273 324
#     4   9  19  36  59  83 111 147 183 221 271 325
#     4  10  23  40  57  79 112 149 183 222 271 326
#     4  10  21  38  60  87 115 146 181 220 269 324
#     4  10  21  37  56  79 108 143 182 228 276 325
#
# _framework density 19.715029999999999
#
# number of rings (size 3 to 8) (size 9 to 14) (size 15 to 20)
#    0.000    2.000    0.000    3.000    0.000    5.714 
#    0.000    5.714    0.000    0.000    0.000    0.000 
#    0.000    0.000    0.000    0.000    0.000    0.000 
#
# Total GULP energy -347328.863453 kJ/mol
# GULP energy per Si atom -12404.602266 kJ/mol
# Density = 1.967016 g / cm^3
# Si number density = 19.715030 Si / 1000 Ang^3
#
#
#
# Elastic Constant Matrix: (Units=GPa)
#
#
# Indices 1 2 3 4 5 6 
#
# 1 99.6094 6.2715 71.3965 -0.0098 -4.7474 -0.0121
# 2 6.2715 19.2321 33.6053 0.0025 1.1918 -0.0666
# 3 71.3965 33.6053 139.3313 0.0037 19.0008 0.0181
# 4 -0.0098 0.0025 0.0037 25.3026 0.0119 -1.2777
# 5 -4.7474 1.1918 19.0008 0.0119 29.4702 -0.0293
# 6 -0.0121 -0.0666 0.0181 -1.2777 -0.0293 31.4977
#
#
#
# Elastic Compliance Matrix: (Units=1/GPa)
#
#
# Indices 1 2 3 4 5 6 
#
# 1 0.025023 0.029881 -0.022382 0.000007 0.017254 0.000102
# 2 0.029881 0.129151 -0.050880 0.000009 0.032396 0.000344
# 3 -0.022382 -0.050880 0.034130 -0.000006 -0.023553 -0.000158
# 4 0.000007 0.000009 -0.000006 0.039603 -0.000010 0.001606
# 5 0.017254 0.032396 -0.023553 -0.000010 0.050588 0.000135
# 6 0.000102 0.000344 -0.000158 0.001606 0.000135 0.031814
#
#
# Mechanical properties :
#
#
# Convention : Reuss Voigt Hill
#
# Bulk Modulus (GPa) = 9.84807 53.41328 31.63068
# Shear Modulus (GPa) = 11.60311 27.04740 19.32526
#
# Velocity S-wave (km/s) = 2.42862 3.70796 3.13426
# Velocity P-wave (km/s) = 3.58752 6.74414 5.40156
#
# Compressibility (1/GPa) = 0.10154274
#
# Stress axis : x y z
#
# Youngs Moduli (GPa) = 39.96302 7.74287 29.29960
#
# Poissons Ratio (x) = -0.23137 0.65580
# Poissons Ratio (y) = -1.19415 1.49076
# Poissons Ratio (z) = 0.89447 0.39396
#
# Static dielectric constant tensor:
#      x y z
#    x 3.567990 -0.000140 0.197010 
#    y -0.000140 3.518330 -0.000080 
#    z 0.197010 -0.000080 4.003640 
# 
# 
# High freq. dielectric constant tensor:
#      x y z
#    x 1.765400 0.000000 0.002850 
#    y 0.000000 1.767010 0.000000 
#    z 0.002850 0.000000 1.781040 
# 
# From -- ./inp_files/231002.got.cif
#   From: 2010.06.25/outbox.cif.g09.slc.cpg/sg12_116_cif.got.tgz:231002.got - 2010.06.28 00:19:55.
