data_PCOD8090283
_publ_section_title
;
Structure prediction by ZEFSAII (Michael W. Deem and Ramdas Pophale) SiO2 
 PCOD8090283
Probable space group: C 2/M
;
_chemical_formula_sum "Si O2"
_cell_formula_units_Z 64
_cell_length_a 13.552056
_cell_length_b 13.246089
_cell_length_c 20.341648
_cell_angle_alpha 90.000000
_cell_angle_beta 68.804458
_cell_angle_gamma 90.000000
_cell_volume 3404.543345
_symmetry_space_group_name_H-M "C 2/M"
_symmetry_group_IT_number 12
_symmetry_cell_setting 'monoclinic'
loop_
_space_group_symop_operation_xyz
x,y,z
-x,y,-z
-x,-y,-z
x,-y,z
1/2+x,1/2+y,z
1/2-x,1/2+y,-z
1/2-x,1/2-y,-z
1/2+x,1/2-y,z
loop_
_atom_site_type_symbol
_atom_site_label
_atom_site_fract_x
_atom_site_fract_y
_atom_site_fract_z
Si Si1 0.402379 0.697589 0.229777
Si Si2 0.654416 0.883537 0.463856
Si Si3 0.118126 0.116047 0.981528
Si Si4 0.117114 0.885800 0.132165
Si Si5 0.999681 0.693196 0.396989
Si Si6 0.519644 0.113581 0.249666
Si Si7 0.232151 0.704855 0.161092
Si Si8 0.108890 0.884653 0.624701
O O1 0.493723 0.642706 0.166428
O O2 0.433332 0.812569 0.238619
O O3 0.296535 0.699027 0.212840
O O4 0.379421 0.634189 0.300651
O O5 0.605366 0.857046 0.546556
O O6 0.598576 0.813316 0.422616
O O7 0.778823 0.861858 0.436609
O O8 0.631256 0.000000 0.451662
O O9 0.198233 0.179933 0.918839
O O10 0.121673 0.000000 0.957433
O O11 0.153492 0.128237 0.048327
O O12 0.000000 0.159233 0.000000
O O13 0.187607 0.818021 0.163471
O O14 0.133576 0.000000 0.151805
O O15 0.978677 0.811217 0.385975
O O16 0.029624 0.632984 0.324612
O O17 0.634137 0.128247 0.188793
O O18 0.481667 0.000000 0.245157
O O19 0.073148 0.000000 0.621020
#
# Coordination Sequence:
#
# PCOD8090283 Si02
#       8
#     8   8   8   8   8   8   8   8
#     4  10  21  35  53  76 105 137 172 214 258 306
#     4  10  19  33  56  80 103 138 179 217 260 309
#     4  10  19  33  56  80 103 134 173 215 258 304
#     4  10  21  36  54  78 106 138 172 211 261 310
#     4  10  19  34  54  78 107 136 172 218 261 307
#     4  10  21  35  53  78 105 134 171 214 260 307
#     4  11  21  35  56  79 104 136 174 216 256 306
#     4  10  21  35  53  77 106 139 176 215 258 307
#
# _framework density 18.798410000000001
#
# number of rings (size 3 to 8) (size 9 to 14) (size 15 to 20)
#    0.000    1.875    1.250    3.750    0.000    3.000 
#    0.000    1.250    0.000    9.375    0.000    0.000 
#    0.000    0.000    0.000    0.000    0.000    0.000 
#
# Total GULP energy -396920.210651 kJ/mol
# GULP energy per Si atom -12403.756583 kJ/mol
# Density = 1.875562 g / cm^3
# Si number density = 18.798410 Si / 1000 Ang^3
#
#
#
# Elastic Constant Matrix: (Units=GPa)
#
#
# Indices 1 2 3 4 5 6 
#
# 1 46.4782 26.8328 0.9398 0.0000 -0.6989 0.0000
# 2 26.8328 116.9778 21.2045 0.0000 -2.0048 0.0000
# 3 0.9398 21.2045 66.4856 0.0000 -8.7786 0.0000
# 4 0.0000 0.0000 0.0000 24.3666 0.0000 -1.8753
# 5 -0.6989 -2.0048 -8.7786 0.0000 26.9888 0.0000
# 6 0.0000 0.0000 0.0000 -1.8753 0.0000 19.4027
#
#
#
# Elastic Compliance Matrix: (Units=1/GPa)
#
#
# Indices 1 2 3 4 5 6 
#
# 1 0.024966 -0.006016 0.001663 0.000000 0.000741 0.000000
# 2 -0.006016 0.010525 -0.003332 0.000000 -0.000458 0.000000
# 3 0.001663 -0.003332 0.016773 0.000000 0.005251 0.000000
# 4 0.000000 0.000000 0.000000 0.041347 0.000000 0.003996
# 5 0.000741 -0.000458 0.005251 0.000000 0.038746 0.000000
# 6 0.000000 0.000000 0.000000 0.003996 0.000000 0.051925
#
#
# Mechanical properties :
#
#
# Convention : Reuss Voigt Hill
#
# Bulk Modulus (GPa) = 27.10350 36.43285 31.76818
# Shear Modulus (GPa) = 23.59052 26.21592 24.90322
#
# Velocity S-wave (km/s) = 3.54633 3.73846 3.64366
# Velocity P-wave (km/s) = 5.58730 6.16909 5.88539
#
# Compressibility (1/GPa) = 0.03689560
#
# Stress axis : x y z
#
# Youngs Moduli (GPa) = 40.05462 95.01479 59.61811
#
# Poissons Ratio (x) = 0.57157 -0.09917
# Poissons Ratio (y) = 0.24095 0.19865
# Poissons Ratio (z) = -0.06663 0.31660
#
# Static dielectric constant tensor:
#      x y z
#    x 3.224360 0.000000 -0.162380 
#    y 0.000000 3.425750 0.000000 
#    z -0.162380 0.000000 3.571330 
# 
# 
# High freq. dielectric constant tensor:
#      x y z
#    x 1.713890 0.000000 -0.012120 
#    y 0.000000 1.728830 0.000000 
#    z -0.012120 0.000000 1.744510 
# 
# From -- ./inp_files/309865.got.cif
#   From: 2010.06.25/outbox.cif.g09.slc.cpg/sg12_155_cif.got.tgz:309865.got - 2010.06.28 00:19:55.
