data_PCOD8090447
_publ_section_title
;
Structure prediction by ZEFSAII (Michael W. Deem and Ramdas Pophale) SiO2 
 PCOD8090447
Probable space group: C 2/M
;
_chemical_formula_sum "Si O2"
_cell_formula_units_Z 56
_cell_length_a 27.371876
_cell_length_b 9.129403
_cell_length_c 17.306413
_cell_angle_alpha 90.000000
_cell_angle_beta 135.693517
_cell_angle_gamma 90.000000
_cell_volume 3020.773007
_symmetry_space_group_name_H-M "C 2/M"
_symmetry_group_IT_number 12
_symmetry_cell_setting 'monoclinic'
loop_
_space_group_symop_operation_xyz
x,y,z
-x,y,-z
-x,-y,-z
x,-y,z
1/2+x,1/2+y,z
1/2-x,1/2+y,-z
1/2-x,1/2-y,-z
1/2+x,1/2-y,z
loop_
_atom_site_type_symbol
_atom_site_label
_atom_site_fract_x
_atom_site_fract_y
_atom_site_fract_z
Si Si1 0.584615 0.830088 0.943502
Si Si2 0.314705 0.169222 0.367154
Si Si3 0.575093 0.166174 0.195843
Si Si4 0.047715 0.831515 0.753054
Si Si5 0.342135 0.326994 0.838972
Si Si6 0.574997 0.668308 0.610752
Si Si7 0.091976 0.667863 0.386792
O O1 0.507472 0.806481 0.890542
O O2 0.589879 0.761230 0.864190
O O3 0.604224 0.000000 0.960143
O O4 0.640145 0.749166 0.060201
O O5 0.235325 0.224816 0.272449
O O6 0.361741 0.250721 0.358382
O O7 0.340579 0.198314 0.483992
O O8 0.319403 0.000000 0.350856
O O9 0.604577 0.277680 0.166962
O O10 0.611668 0.198293 0.319840
O O11 0.589849 0.000000 0.185016
O O12 0.086558 0.813846 0.715410
O O13 0.968933 0.774224 0.653507
O O14 0.044620 0.000000 0.775956
O O15 0.348324 0.500000 0.855753
O O16 0.500000 0.735448 0.500000
O O17 0.577427 0.500000 0.587412
O O18 0.065175 0.500000 0.364092
#
# Coordination Sequence:
#
# PCOD8090447 Si02
#       7
#     8   8   8   8   8   8   8
#     4  10  21  38  59  81 107 142 186 226 268 325
#     4  10  22  37  54  79 113 149 184 222 266 323
#     4   9  19  35  56  80 106 140 184 227 270 323
#     4  10  19  33  56  85 113 137 173 227 275 315
#     4  11  23  37  53  79 112 145 185 229 271 316
#     4  10  20  35  56  85 114 140 176 222 271 324
#     4   9  18  34  54  79 111 145 181 220 266 322
#
# _framework density 18.538302000000002
#
# number of rings (size 3 to 8) (size 9 to 14) (size 15 to 20)
#    0.000    2.143    1.429    2.571    0.000    7.714 
#    0.000    0.714    0.000    0.000    0.000    0.000 
#    0.000    0.000    0.000    0.000    0.000    0.000 
#
# Total GULP energy -347275.128987 kJ/mol
# GULP energy per Si atom -12402.683178 kJ/mol
# Density = 1.849611 g / cm^3
# Si number density = 18.538302 Si / 1000 Ang^3
#
#
#
# Elastic Constant Matrix: (Units=GPa)
#
#
# Indices 1 2 3 4 5 6 
#
# 1 42.5477 26.5840 24.0527 0.0000 -12.2962 0.0000
# 2 26.5840 82.1073 46.0033 0.0000 -7.8143 0.0000
# 3 24.0527 46.0033 123.5563 0.0000 -15.0866 0.0000
# 4 0.0000 0.0000 0.0000 30.0801 0.0000 -4.2105
# 5 -12.2962 -7.8143 -15.0866 0.0000 21.0531 0.0000
# 6 0.0000 0.0000 0.0000 -4.2105 0.0000 32.8732
#
#
#
# Elastic Compliance Matrix: (Units=1/GPa)
#
#
# Indices 1 2 3 4 5 6 
#
# 1 0.034400 -0.008800 -0.001497 0.000000 0.015753 0.000000
# 2 -0.008800 0.017700 -0.005154 0.000000 -0.002263 0.000000
# 3 -0.001497 -0.005154 0.010919 0.000000 0.005037 0.000000
# 4 0.000000 0.000000 0.000000 0.033852 0.000000 0.004336
# 5 0.015753 -0.002263 0.005037 0.000000 0.059469 0.000000
# 6 0.000000 0.000000 0.000000 0.004336 0.000000 0.030975
#
#
# Mechanical properties :
#
#
# Convention : Reuss Voigt Hill
#
# Bulk Modulus (GPa) = 31.13452 49.05457 40.09455
# Shear Modulus (GPa) = 21.84153 26.90604 24.37378
#
# Velocity S-wave (km/s) = 3.43619 3.81383 3.62992
# Velocity P-wave (km/s) = 5.70740 6.77586 6.26445
#
# Compressibility (1/GPa) = 0.03211869
#
# Stress axis : x y z
#
# Youngs Moduli (GPa) = 29.06985 56.49578 91.58571
#
# Poissons Ratio (x) = 0.49716 0.13708
# Poissons Ratio (y) = 0.25581 0.47199
# Poissons Ratio (z) = 0.04351 0.29115
#
# Static dielectric constant tensor:
#      x y z
#    x 3.191470 0.000000 -0.172180 
#    y 0.000000 3.431330 0.000000 
#    z -0.172180 0.000000 3.617890 
# 
# 
# High freq. dielectric constant tensor:
#      x y z
#    x 1.702440 0.000000 -0.020790 
#    y 0.000000 1.723870 0.000000 
#    z -0.020790 0.000000 1.724190 
# 
# From -- ./inp_files/288244.got.cif
#   From: 2010.06.25/outbox.cif.g09.slc.cpg/sg12_145_cif.got.tgz:288244.got - 2010.06.28 00:19:55.
