data_PCOD8090379
_publ_section_title
;
Structure prediction by ZEFSAII (Michael W. Deem and Ramdas Pophale) SiO2 
 PCOD8090379
Probable space group: C 2/M
;
_chemical_formula_sum "Si O2"
_cell_formula_units_Z 64
_cell_length_a 30.583361
_cell_length_b 13.111611
_cell_length_c 17.981143
_cell_angle_alpha 90.000000
_cell_angle_beta 152.247580
_cell_angle_gamma 90.000000
_cell_volume 3357.530298
_symmetry_space_group_name_H-M "C 2/M"
_symmetry_group_IT_number 12
_symmetry_cell_setting 'monoclinic'
loop_
_space_group_symop_operation_xyz
x,y,z
-x,y,-z
-x,-y,-z
x,-y,z
1/2+x,1/2+y,z
1/2-x,1/2+y,-z
1/2-x,1/2-y,-z
1/2+x,1/2-y,z
loop_
_atom_site_type_symbol
_atom_site_label
_atom_site_fract_x
_atom_site_fract_y
_atom_site_fract_z
Si Si1 0.907056 0.310752 0.113739
Si Si2 0.069111 0.380161 0.008168
Si Si3 0.566181 0.385583 0.763625
Si Si4 0.749933 0.617065 0.434907
Si Si5 0.427459 0.728213 0.452523
Si Si6 0.367466 0.190431 0.745117
Si Si7 0.400389 0.115600 0.537936
Si Si8 0.713990 0.615709 0.861741
O O1 0.929269 0.190984 0.159613
O O2 0.996252 0.377090 0.271690
O O3 0.880641 0.335012 0.988933
O O4 0.819212 0.343198 0.032414
O O5 0.047669 0.500000 0.968543
O O6 0.137606 0.359634 0.180663
O O7 0.972046 0.319218 0.870823
O O8 0.551442 0.500000 0.771900
O O9 0.479624 0.358235 0.579428
O O10 0.662905 0.376320 0.863904
O O11 0.718161 0.500000 0.376498
O O12 0.659315 0.689818 0.291167
O O13 0.794941 0.629707 0.584192
O O14 0.825479 0.651763 0.486732
O O15 0.500000 0.771513 0.500000
O O16 0.390907 0.819111 0.449064
O O17 0.336640 0.681001 0.277780
O O18 0.380270 0.000000 0.484644
O O19 0.716067 0.500000 0.836323
#
# Coordination Sequence:
#
# PCOD8090379 Si02
#       8
#     8   8   8   8   8   8   8   8
#     4  11  21  34  55  82 111 142 183 227 270 325
#     4  11  21  37  59  85 113 140 175 229 283 320
#     4   9  19  37  56  76 111 152 183 219 272 327
#     4  10  20  38  59  81 110 146 183 222 273 328
#     4   9  19  34  55  81 112 145 183 228 271 321
#     4  10  21  36  61  83 106 142 182 224 272 331
#     4  10  20  35  55  77 111 151 181 221 275 322
#     4  10  19  33  56  83 109 142 185 231 273 313
#
# _framework density 19.061630000000001
#
# number of rings (size 3 to 8) (size 9 to 14) (size 15 to 20)
#    0.000    2.000    1.250    3.375    1.750    1.750 
#    0.000    3.125    0.000    0.000    0.000    0.000 
#    0.000    0.000    0.000    0.000    0.000    0.000 
#
# Total GULP energy -396865.300558 kJ/mol
# GULP energy per Si atom -12402.040642 kJ/mol
# Density = 1.901825 g / cm^3
# Si number density = 19.061630 Si / 1000 Ang^3
#
#
#
# Elastic Constant Matrix: (Units=GPa)
#
#
# Indices 1 2 3 4 5 6 
#
# 1 65.0696 55.8350 31.1041 0.0000 -10.0663 0.0000
# 2 55.8350 132.3748 42.8289 0.0000 -1.5448 0.0000
# 3 31.1041 42.8289 64.1550 0.0000 1.8034 0.0000
# 4 0.0000 0.0000 0.0000 25.1446 0.0000 0.8983
# 5 -10.0663 -1.5448 1.8034 0.0000 29.2967 0.0000
# 6 0.0000 0.0000 0.0000 0.8983 0.0000 31.2141
#
#
#
# Elastic Compliance Matrix: (Units=1/GPa)
#
#
# Indices 1 2 3 4 5 6 
#
# 1 0.028816 -0.009476 -0.007923 0.000000 0.009889 0.000000
# 2 -0.009476 0.012775 -0.003869 0.000000 -0.002344 0.000000
# 3 -0.007923 -0.003869 0.022132 0.000000 -0.004289 0.000000
# 4 0.000000 0.000000 0.000000 0.039811 0.000000 -0.001146
# 5 0.009889 -0.002344 -0.004289 0.000000 0.037672 0.000000
# 6 0.000000 0.000000 0.000000 -0.001146 0.000000 0.032070
#
#
# Mechanical properties :
#
#
# Convention : Reuss Voigt Hill
#
# Bulk Modulus (GPa) = 47.19524 57.90391 52.54958
# Shear Modulus (GPa) = 22.43420 25.91984 24.17702
#
# Velocity S-wave (km/s) = 3.43436 3.69154 3.56527
# Velocity P-wave (km/s) = 6.36706 6.97231 6.67655
#
# Compressibility (1/GPa) = 0.02118858
#
# Stress axis : x y z
#
# Youngs Moduli (GPa) = 34.70259 78.27508 45.18375
#
# Poissons Ratio (x) = 0.74171 0.35799
# Poissons Ratio (y) = 0.32883 0.17480
# Poissons Ratio (z) = 0.27495 0.30283
#
# Static dielectric constant tensor:
#      x y z
#    x 3.527700 0.000000 -0.029840 
#    y 0.000000 3.479670 0.000000 
#    z -0.029840 0.000000 3.351080 
# 
# 
# High freq. dielectric constant tensor:
#      x y z
#    x 1.739520 0.000000 0.000030 
#    y 0.000000 1.741040 0.000000 
#    z 0.000030 0.000000 1.730740 
# 
# From -- ./inp_files/296513.got.cif
#   From: 2010.06.25/outbox.cif.g09.slc.cpg/sg12_149_cif.got.tgz:296513.got - 2010.06.28 00:19:55.
