data_PCOD8090157
_publ_section_title
;
Structure prediction by ZEFSAII (Michael W. Deem and Ramdas Pophale) SiO2 
 PCOD8090157
Probable space group: C 2/M
;
_chemical_formula_sum "Si O2"
_cell_formula_units_Z 56
_cell_length_a 24.931094
_cell_length_b 8.570943
_cell_length_c 14.915975
_cell_angle_alpha 90.000000
_cell_angle_beta 105.602003
_cell_angle_gamma 90.000000
_cell_volume 3069.848520
_symmetry_space_group_name_H-M "C 2/M"
_symmetry_group_IT_number 12
_symmetry_cell_setting 'monoclinic'
loop_
_space_group_symop_operation_xyz
x,y,z
-x,y,-z
-x,-y,-z
x,-y,z
1/2+x,1/2+y,z
1/2-x,1/2+y,-z
1/2-x,1/2-y,-z
1/2+x,1/2-y,z
loop_
_atom_site_type_symbol
_atom_site_label
_atom_site_fract_x
_atom_site_fract_y
_atom_site_fract_z
Si Si1 0.428099 0.679441 0.618847
Si Si2 0.537267 0.818313 0.897603
Si Si3 0.870708 0.179878 0.407702
Si Si4 0.650281 0.181674 0.270859
Si Si5 0.244013 0.317931 0.596023
Si Si6 0.075895 0.181944 0.091732
Si Si7 0.447575 0.683099 0.279394
O O1 0.419714 0.500000 0.644798
O O2 0.412864 0.704302 0.508689
O O3 0.388261 0.785247 0.660932
O O4 0.491521 0.733466 0.659007
O O5 0.479336 0.724290 0.876898
O O6 0.567482 0.773555 0.818704
O O7 0.523367 0.000000 0.895176
O O8 0.577215 0.773451 0.998136
O O9 0.817332 0.289091 0.393716
O O10 0.902476 0.233449 0.332635
O O11 0.851530 0.000000 0.393867
O O12 0.712819 0.235800 0.318096
O O13 0.629545 0.272316 0.173500
O O14 0.649320 0.000000 0.249176
O O15 0.257306 0.500000 0.597810
O O16 0.250000 0.250000 0.500000
O O17 0.076207 0.000000 0.070859
O O18 0.445073 0.500000 0.260139
#
# Coordination Sequence:
#
# PCOD8090157 Si02
#       7
#     8   8   8   8   8   8   8
#     4  10  19  33  55  82 115 153 189 226 276 336
#     4  11  21  34  54  83 117 149 186 233 280 333
#     4  10  21  37  57  82 114 153 196 236 277 332
#     4  12  23  36  57  85 115 147 185 236 287 337
#     4  12  24  39  58  81 111 150 193 239 284 330
#     4  11  21  36  57  82 112 148 187 231 285 342
#     4  10  20  35  56  83 117 156 191 228 280 341
#
# _framework density 18.241942999999999
#
# number of rings (size 3 to 8) (size 9 to 14) (size 15 to 20)
#    0.000    1.143    2.857    6.429    0.000    2.286 
#    0.000    0.000    0.000    3.429    0.000    0.000 
#    0.000    0.000    0.000    0.000    0.000    0.000 
#
# Total GULP energy -347370.957636 kJ/mol
# GULP energy per Si atom -12406.105630 kJ/mol
# Density = 1.820042 g / cm^3
# Si number density = 18.241943 Si / 1000 Ang^3
#
#
#
# Elastic Constant Matrix: (Units=GPa)
#
#
# Indices 1 2 3 4 5 6 
#
# 1 87.0682 19.2824 44.2564 0.0000 -7.2515 0.0000
# 2 19.2824 75.8639 20.3105 0.0000 -5.5959 0.0000
# 3 44.2564 20.3105 120.0289 0.0000 -3.2420 0.0000
# 4 0.0000 0.0000 0.0000 26.5110 0.0000 1.5007
# 5 -7.2515 -5.5959 -3.2420 0.0000 26.6725 0.0000
# 6 0.0000 0.0000 0.0000 1.5007 0.0000 26.6072
#
#
#
# Elastic Compliance Matrix: (Units=1/GPa)
#
#
# Indices 1 2 3 4 5 6 
#
# 1 0.014752 -0.002197 -0.004988 0.000000 0.002944 0.000000
# 2 -0.002197 0.014319 -0.001553 0.000000 0.002218 0.000000
# 3 -0.004988 -0.001553 0.010422 0.000000 -0.000415 0.000000
# 4 0.000000 0.000000 0.000000 0.037841 0.000000 -0.002134
# 5 0.002944 0.002218 -0.000415 0.000000 0.038707 0.000000
# 6 0.000000 0.000000 0.000000 -0.002134 0.000000 0.037704
#
#
# Mechanical properties :
#
#
# Convention : Reuss Voigt Hill
#
# Bulk Modulus (GPa) = 45.41869 50.07328 47.74598
# Shear Modulus (GPa) = 28.00156 29.23227 28.61691
#
# Velocity S-wave (km/s) = 3.92217 4.00744 3.96503
# Velocity P-wave (km/s) = 6.74264 6.99442 6.86968
#
# Compressibility (1/GPa) = 0.02201737
#
# Stress axis : x y z
#
# Youngs Moduli (GPa) = 67.78549 69.83576 95.94990
#
# Poissons Ratio (x) = 0.15343 0.47861
# Poissons Ratio (y) = 0.14893 0.14901
# Poissons Ratio (z) = 0.33812 0.10846
#
# Static dielectric constant tensor:
#      x y z
#    x 3.220320 0.000000 0.077600 
#    y 0.000000 3.379250 0.000000 
#    z 0.077600 0.000000 3.494400 
# 
# 
# High freq. dielectric constant tensor:
#      x y z
#    x 1.681730 0.000000 0.004160 
#    y 0.000000 1.712990 0.000000 
#    z 0.004160 0.000000 1.715230 
# 
# From -- ./inp_files/237876.got.cif
#   From: 2010.06.25/outbox.cif.g09.slc.cpg/sg12_119_cif.got.tgz:237876.got - 2010.06.28 00:19:55.
