data_PCOD8090393
_publ_section_title
;
Structure prediction by ZEFSAII (Michael W. Deem and Ramdas Pophale) SiO2 
 PCOD8090393
Probable space group: C 2/M
;
_chemical_formula_sum "Si O2"
_cell_formula_units_Z 48
_cell_length_a 27.765085
_cell_length_b 9.250770
_cell_length_c 9.808517
_cell_angle_alpha 90.000000
_cell_angle_beta 89.798111
_cell_angle_gamma 90.000000
_cell_volume 2519.286409
_symmetry_space_group_name_H-M "C 2/M"
_symmetry_group_IT_number 12
_symmetry_cell_setting 'monoclinic'
loop_
_space_group_symop_operation_xyz
x,y,z
-x,y,-z
-x,-y,-z
x,-y,z
1/2+x,1/2+y,z
1/2-x,1/2+y,-z
1/2-x,1/2-y,-z
1/2+x,1/2-y,z
loop_
_atom_site_type_symbol
_atom_site_label
_atom_site_fract_x
_atom_site_fract_y
_atom_site_fract_z
Si Si1 0.052939 0.333339 0.451051
Si Si2 0.800147 0.332071 0.841174
Si Si3 0.205342 0.666799 0.840976
Si Si4 0.607610 0.332486 0.225400
Si Si5 0.395321 0.166026 0.273108
Si Si6 0.948774 0.166381 0.046351
O O1 0.052395 0.500000 0.403406
O O2 0.067500 0.233135 0.325222
O O3 0.091761 0.308546 0.570005
O O4 0.000000 0.285879 0.500000
O O5 0.801279 0.500000 0.802512
O O6 0.749516 0.265899 0.792875
O O7 0.842302 0.252278 0.758051
O O8 0.807397 0.305398 0.001408
O O9 0.219372 0.500000 0.816891
O O10 0.159647 0.715514 0.751378
O O11 0.615401 0.500000 0.261347
O O12 0.590125 0.311847 0.071447
O O13 0.432502 0.253512 0.181761
O O14 0.400958 0.000000 0.229649
O O15 0.955228 0.000000 0.086078
O O16 0.000000 0.231727 0.000000
#
# Coordination Sequence:
#
# PCOD8090393 Si02
#       6
#     8   8   8   8   8   8
#     4  10  22  39  58  81 112 150 189 228 274 329
#     4  10  19  33  56  83 112 144 180 226 279 331
#     4   9  18  33  54  82 113 142 178 226 279 331
#     4  11  22  36  56  82 113 148 186 228 275 328
#     4  10  20  36  57  82 110 144 184 228 276 326
#     4  10  21  35  53  80 111 142 182 231 276 323
#
# _framework density 19.053013
#
# number of rings (size 3 to 8) (size 9 to 14) (size 15 to 20)
#    0.000    2.000    1.667    2.000    0.000    3.333 
#    0.000    0.833    0.000    0.000    0.000    0.000 
#    0.000    0.000    0.000    0.000    0.000    0.000 
#
# Total GULP energy -297713.487826 kJ/mol
# GULP energy per Si atom -12404.728659 kJ/mol
# Density = 1.900965 g / cm^3
# Si number density = 19.053013 Si / 1000 Ang^3
#
#
#
# Elastic Constant Matrix: (Units=GPa)
#
#
# Indices 1 2 3 4 5 6 
#
# 1 109.4930 44.5730 4.8100 0.0000 -2.9199 0.0000
# 2 44.5730 86.4815 19.0765 0.0000 -15.1587 0.0000
# 3 4.8100 19.0765 27.3747 0.0000 -5.1377 0.0000
# 4 0.0000 0.0000 0.0000 18.0554 0.0000 -5.0666
# 5 -2.9199 -15.1587 -5.1377 0.0000 33.5251 0.0000
# 6 0.0000 0.0000 0.0000 -5.0666 0.0000 35.1527
#
#
#
# Elastic Compliance Matrix: (Units=1/GPa)
#
#
# Indices 1 2 3 4 5 6 
#
# 1 0.011796 -0.006918 0.002423 0.000000 -0.001729 0.000000
# 2 -0.006918 0.018535 -0.010544 0.000000 0.006162 0.000000
# 3 0.002423 -0.010544 0.043858 0.000000 0.002165 0.000000
# 4 0.000000 0.000000 0.000000 0.057720 0.000000 0.008319
# 5 -0.001729 0.006162 0.002165 0.000000 0.032796 0.000000
# 6 0.000000 0.000000 0.000000 0.008319 0.000000 0.029646
#
#
# Mechanical properties :
#
#
# Convention : Reuss Voigt Hill
#
# Bulk Modulus (GPa) = 22.66916 40.02980 31.34948
# Shear Modulus (GPa) = 20.90893 27.67260 24.29076
#
# Velocity S-wave (km/s) = 3.31631 3.81517 3.57445
# Velocity P-wave (km/s) = 5.15632 6.36103 5.79009
#
# Compressibility (1/GPa) = 0.04411279
#
# Stress axis : x y z
#
# Youngs Moduli (GPa) = 84.77091 53.95331 22.80065
#
# Poissons Ratio (x) = 0.37323 -0.05525
# Poissons Ratio (y) = 0.58641 0.24041
# Poissons Ratio (z) = -0.20543 0.56889
#
# Static dielectric constant tensor:
#      x y z
#    x 3.590300 0.000000 0.109390 
#    y 0.000000 3.456930 0.000000 
#    z 0.109390 0.000000 3.212210 
# 
# 
# High freq. dielectric constant tensor:
#      x y z
#    x 1.754960 0.000000 0.003240 
#    y 0.000000 1.740670 0.000000 
#    z 0.003240 0.000000 1.716880 
# 
# From -- ./inp_files/108677.got.cif
#   From: 2010.06.25/outbox.cif.g09.slc.cpg/sg12_55_cif.got.tgz:108677.got - 2010.06.28 00:19:55.
