data_PCOD8090384
_publ_section_title
;
Structure prediction by ZEFSAII (Michael W. Deem and Ramdas Pophale) SiO2 
 PCOD8090384
Probable space group: C 2/M
;
_chemical_formula_sum "Si O2"
_cell_formula_units_Z 64
_cell_length_a 17.934733
_cell_length_b 8.758431
_cell_length_c 32.342887
_cell_angle_alpha 90.000000
_cell_angle_beta 140.575005
_cell_angle_gamma 90.000000
_cell_volume 3226.412836
_symmetry_space_group_name_H-M "C 2/M"
_symmetry_group_IT_number 12
_symmetry_cell_setting 'monoclinic'
loop_
_space_group_symop_operation_xyz
x,y,z
-x,y,-z
-x,-y,-z
x,-y,z
1/2+x,1/2+y,z
1/2-x,1/2+y,-z
1/2-x,1/2-y,-z
1/2+x,1/2-y,z
loop_
_atom_site_type_symbol
_atom_site_label
_atom_site_fract_x
_atom_site_fract_y
_atom_site_fract_z
Si Si1 0.063650 0.671475 0.983564
Si Si2 0.710199 0.822689 0.256782
Si Si3 0.228007 0.321891 0.886718
Si Si4 0.307610 0.323852 0.485683
Si Si5 0.975900 0.176875 0.375241
Si Si6 0.147388 0.822015 0.145508
Si Si7 0.406875 0.178961 0.653074
Si Si8 0.982921 0.178328 0.769780
O O1 0.073660 0.500000 0.970275
O O2 0.987966 0.773481 0.919486
O O3 0.193148 0.741042 0.044456
O O4 0.000000 0.673388 0.000000
O O5 0.841756 0.787968 0.328802
O O6 0.701766 0.777179 0.205392
O O7 0.625882 0.719798 0.248034
O O8 0.677905 0.000000 0.248553
O O9 0.235012 0.500000 0.898337
O O10 0.274151 0.282357 0.860699
O O11 0.096130 0.265074 0.835566
O O12 0.281572 0.500000 0.478805
O O13 0.250000 0.250000 0.500000
O O14 0.447667 0.289383 0.549614
O O15 0.232197 0.273164 0.412881
O O16 0.018564 0.282738 0.355925
O O17 0.991689 0.000000 0.368683
O O18 0.151498 0.000000 0.158447
O O19 0.457333 0.275849 0.712011
O O20 0.421669 0.000000 0.669791
O O21 0.007912 0.000000 0.782689
#
# Coordination Sequence:
#
# PCOD8090384 Si02
#       8
#     8   8   8   8   8   8   8   8
#     4   9  17  31  54  84 114 142 176 217 261 310
#     4  11  23  38  55  76 106 143 182 224 270 319
#     4  10  20  36  59  85 112 141 177 220 266 317
#     4   8  15  29  51  80 109 136 170 215 265 316
#     4   9  18  34  57  83 109 139 177 220 267 320
#     4  10  20  35  57  84 112 142 177 218 265 316
#     4  10  19  33  56  83 110 140 176 219 267 319
#     4  12  25  39  54  74 106 145 184 225 269 318
#
# _framework density 19.836272000000001
#
# number of rings (size 3 to 8) (size 9 to 14) (size 15 to 20)
#    0.000    2.125    0.000    3.750    0.000    6.500 
#    0.000    1.250    0.000    3.750    0.000    0.000 
#    0.000    0.000    0.000    0.000    0.000    0.000 
#
# Total GULP energy -396651.607546 kJ/mol
# GULP energy per Si atom -12395.362736 kJ/mol
# Density = 1.979112 g / cm^3
# Si number density = 19.836272 Si / 1000 Ang^3
#
#
#
# Elastic Constant Matrix: (Units=GPa)
#
#
# Indices 1 2 3 4 5 6 
#
# 1 49.4759 13.0587 21.8918 0.0000 20.2473 0.0000
# 2 13.0587 47.5354 16.6737 -0.0001 3.4972 0.0003
# 3 21.8918 16.6737 104.6421 0.0000 38.0439 0.0000
# 4 0.0000 -0.0001 0.0000 30.2967 0.0000 0.4119
# 5 20.2473 3.4972 38.0439 0.0000 23.6702 0.0000
# 6 0.0000 0.0003 0.0000 0.4119 0.0000 26.0600
#
#
#
# Elastic Compliance Matrix: (Units=1/GPa)
#
#
# Indices 1 2 3 4 5 6 
#
# 1 0.038673 -0.011174 0.012309 0.000000 -0.051213 0.000000
# 2 -0.011174 0.025848 -0.009304 0.000000 0.020693 0.000000
# 3 0.012309 -0.009304 0.028369 0.000000 -0.054750 0.000000
# 4 0.000000 0.000000 0.000000 0.033014 0.000000 -0.000522
# 5 -0.051213 0.020693 -0.054750 0.000000 0.170993 0.000000
# 6 0.000000 0.000000 0.000000 -0.000522 0.000000 0.038381
#
#
# Mechanical properties :
#
#
# Convention : Reuss Voigt Hill
#
# Bulk Modulus (GPa) = 13.06319 33.87798 23.47059
# Shear Modulus (GPa) = 13.25794 26.00735 19.63264
#
# Velocity S-wave (km/s) = 2.58809 3.62484 3.14942
# Velocity P-wave (km/s) = 3.94090 5.88517 5.00829
#
# Compressibility (1/GPa) = 0.07655097
#
# Stress axis : x y z
#
# Youngs Moduli (GPa) = 25.85803 38.68812 35.25004
#
# Poissons Ratio (x) = 0.43229 -0.43389
# Poissons Ratio (y) = 0.28893 0.32797
# Poissons Ratio (z) = -0.31828 0.35996
#
# Static dielectric constant tensor:
#      x y z
#    x 3.213790 0.000000 0.256080 
#    y 0.000000 3.568480 0.000000 
#    z 0.256080 0.000000 4.224960 
# 
# 
# High freq. dielectric constant tensor:
#      x y z
#    x 1.729780 0.000000 0.019020 
#    y 0.000000 1.781230 0.000000 
#    z 0.019020 0.000000 1.797870 
# 
# From -- ./inp_files/378411.got.cif
#   From: 2010.06.25/outbox.cif.g09.slc.cpg/sg12_190_cif.got.tgz:378411.got - 2010.06.28 00:19:55.
