data_PCOD8090956
_publ_section_title
;
Structure prediction by ZEFSAII (Michael W. Deem and Ramdas Pophale) SiO2 
 PCOD8090956
Probable space group: C 2/M
;
_chemical_formula_sum "Si O2"
_cell_formula_units_Z 48
_cell_length_a 17.078089
_cell_length_b 19.409788
_cell_length_c 9.223355
_cell_angle_alpha 90.000000
_cell_angle_beta 54.136939
_cell_angle_gamma 90.000000
_cell_volume 2477.757943
_symmetry_space_group_name_H-M "C 2/M"
_symmetry_group_IT_number 12
_symmetry_cell_setting 'monoclinic'
loop_
_space_group_symop_operation_xyz
x,y,z
-x,y,-z
-x,-y,-z
x,-y,z
1/2+x,1/2+y,z
1/2-x,1/2+y,-z
1/2-x,1/2-y,-z
1/2+x,1/2-y,z
loop_
_atom_site_type_symbol
_atom_site_label
_atom_site_fract_x
_atom_site_fract_y
_atom_site_fract_z
Si Si1 0.826610 0.294895 0.004907
Si Si2 0.303963 0.580906 0.869575
Si Si3 0.381647 0.629754 0.495391
Si Si4 0.970126 0.921289 0.883900
Si Si5 0.974567 0.280736 0.370402
Si Si6 0.693054 0.808224 0.641889
O O1 0.929257 0.277018 0.827437
O O2 0.750000 0.250000 0.000000
O O3 0.795038 0.375390 0.023917
O O4 0.833185 0.279482 0.169321
O O5 0.277426 0.500000 0.900711
O O6 0.379089 0.597446 0.657894
O O7 0.367546 0.606892 0.937796
O O8 0.442463 0.582247 0.323969
O O9 0.428209 0.705908 0.448251
O O10 0.268511 0.628564 0.569035
O O11 0.950481 0.000000 0.940979
O O12 0.000000 0.881722 0.000000
O O13 0.900668 0.327289 0.354442
O O14 0.000000 0.314197 0.500000
O O15 0.750000 0.750000 0.500000
#
# Coordination Sequence:
#
# PCOD8090956 Si02
#       6
#     8   8   8   8   8   8
#     4  11  21  35  56  81 110 142 182 227 273 322
#     4  10  21  37  56  78 108 146 183 219 265 323
#     4  10  19  34  54  75 104 138 178 216 266 320
#     4  10  20  31  47  75 106 135 170 214 264 317
#     4  11  21  34  53  80 108 137 177 225 273 322
#     4   9  20  34  50  77 108 138 176 224 272 321
#
# _framework density 19.372353
#
# number of rings (size 3 to 8) (size 9 to 14) (size 15 to 20)
#    0.000    1.833    0.000    6.500    0.000    8.000 
#    0.000    0.000    0.000    9.500    0.000    0.000 
#    0.000    0.000    0.000    0.000    0.000    0.000 
#
# Total GULP energy -297348.951783 kJ/mol
# GULP energy per Si atom -12389.539658 kJ/mol
# Density = 1.932826 g / cm^3
# Si number density = 19.372353 Si / 1000 Ang^3
#
#
#
# Elastic Constant Matrix: (Units=GPa)
#
#
# Indices 1 2 3 4 5 6 
#
# 1 161.6456 23.4854 53.3478 0.0000 15.3343 0.0000
# 2 23.4854 52.6537 10.4566 0.0000 1.8915 0.0000
# 3 53.3478 10.4566 77.0737 0.0000 6.8028 0.0000
# 4 0.0000 0.0000 0.0000 25.3558 0.0000 -2.8486
# 5 15.3343 1.8915 6.8028 0.0000 40.5326 0.0000
# 6 0.0000 0.0000 0.0000 -2.8486 0.0000 18.7577
#
#
#
# Elastic Compliance Matrix: (Units=1/GPa)
#
#
# Indices 1 2 3 4 5 6 
#
# 1 0.008554 -0.002671 -0.005363 0.000000 -0.002211 0.000000
# 2 -0.002671 0.020361 -0.000933 0.000000 0.000217 0.000000
# 3 -0.005363 -0.000933 0.016881 0.000000 -0.000761 0.000000
# 4 0.000000 0.000000 0.000000 0.040123 0.000000 0.006093
# 5 -0.002211 0.000217 -0.000761 0.000000 0.025626 0.000000
# 6 0.000000 0.000000 0.000000 0.006093 0.000000 0.054237
#
#
# Mechanical properties :
#
#
# Convention : Reuss Voigt Hill
#
# Bulk Modulus (GPa) = 35.89183 51.77250 43.83217
# Shear Modulus (GPa) = 25.90635 30.53477 28.22056
#
# Velocity S-wave (km/s) = 3.66086 3.97445 3.82087
# Velocity P-wave (km/s) = 6.03629 6.91698 6.49159
#
# Compressibility (1/GPa) = 0.02786149
#
# Stress axis : x y z
#
# Youngs Moduli (GPa) = 116.90011 49.11400 59.23937
#
# Poissons Ratio (x) = 0.13118 0.31773
# Poissons Ratio (y) = 0.31223 0.05526
# Poissons Ratio (z) = 0.62699 0.04581
#
# Static dielectric constant tensor:
#      x y z
#    x 5.325170 0.000000 0.094290 
#    y 0.000000 3.513850 0.000000 
#    z 0.094290 0.000000 3.697920 
# 
# 
# High freq. dielectric constant tensor:
#      x y z
#    x 1.776600 0.000000 0.011940 
#    y 0.000000 1.709950 0.000000 
#    z 0.011940 0.000000 1.759030 
# 
# From -- ./inp_files/78661.got.cif
#   From: 2010.06.25/outbox.cif.g09.slc.cpg/sg12_40_cif.got.tgz:78661.got - 2010.06.28 00:19:55.
