data_PCOD8090590
_publ_section_title
;
Structure prediction by ZEFSAII (Michael W. Deem and Ramdas Pophale) SiO2 
 PCOD8090590
Probable space group: C 2/M
;
_chemical_formula_sum "Si O2"
_cell_formula_units_Z 64
_cell_length_a 30.528954
_cell_length_b 13.466897
_cell_length_c 13.268358
_cell_angle_alpha 90.000000
_cell_angle_beta 38.084053
_cell_angle_gamma 90.000000
_cell_volume 3364.750418
_symmetry_space_group_name_H-M "C 2/M"
_symmetry_group_IT_number 12
_symmetry_cell_setting 'monoclinic'
loop_
_space_group_symop_operation_xyz
x,y,z
-x,y,-z
-x,-y,-z
x,-y,z
1/2+x,1/2+y,z
1/2-x,1/2+y,-z
1/2-x,1/2-y,-z
1/2+x,1/2-y,z
loop_
_atom_site_type_symbol
_atom_site_label
_atom_site_fract_x
_atom_site_fract_y
_atom_site_fract_z
Si Si1 0.247352 0.760942 0.829857
Si Si2 0.795238 0.890778 0.423489
Si Si3 0.129478 0.387949 0.714147
Si Si4 0.218823 0.116343 0.065059
Si Si5 0.134049 0.763117 0.543586
Si Si6 0.563162 0.613159 0.324414
Si Si7 0.873535 0.773254 0.115987
Si Si8 0.006357 0.885524 0.208067
O O1 0.240438 0.664755 0.914690
O O2 0.322149 0.766647 0.634859
O O3 0.177615 0.754881 0.886458
O O4 0.249662 0.856623 0.899007
O O5 0.713138 0.892675 0.547250
O O6 0.807505 0.816888 0.493118
O O7 0.836639 0.856013 0.250489
O O8 0.822874 0.000000 0.402690
O O9 0.097544 0.500000 0.778254
O O10 0.101412 0.331027 0.664429
O O11 0.110893 0.328389 0.850417
O O12 0.138735 0.160860 0.213974
O O13 0.223626 0.000000 0.069843
O O14 0.071013 0.839087 0.632288
O O15 0.500000 0.668508 0.500000
O O16 0.566492 0.500000 0.356188
O O17 0.551297 0.619119 0.227811
O O18 0.950194 0.818875 0.949672
O O19 0.998262 0.000000 0.186086
#
# Coordination Sequence:
#
# PCOD8090590 Si02
#       8
#     8   8   8   8   8   8   8   8
#     4  11  21  36  59  84 116 153 195 240 286 336
#     4  10  19  33  57  86 119 151 188 237 290 345
#     4  10  21  37  58  83 111 156 202 241 284 331
#     4  10  22  36  55  85 116 148 194 243 287 342
#     4  11  21  38  56  88 119 152 195 240 287 345
#     4   9  17  32  52  79 114 148 180 222 284 349
#     4  11  20  38  57  86 119 153 194 239 287 343
#     4  11  23  36  58  88 119 153 184 232 304 359
#
# _framework density 19.020727000000001
#
# number of rings (size 3 to 8) (size 9 to 14) (size 15 to 20)
#    0.000    1.625    3.750    2.250    0.000    5.500 
#    0.000    4.375    0.000    0.000    0.000    0.875 
#    0.000    0.000    0.000    0.000    0.000    0.000 
#
# Total GULP energy -396691.219821 kJ/mol
# GULP energy per Si atom -12396.600619 kJ/mol
# Density = 1.897743 g / cm^3
# Si number density = 19.020727 Si / 1000 Ang^3
#
#
#
# Elastic Constant Matrix: (Units=GPa)
#
#
# Indices 1 2 3 4 5 6 
#
# 1 42.4881 8.7098 14.7502 0.0000 5.2084 0.0000
# 2 8.7098 102.0027 24.6374 0.0000 3.8444 0.0000
# 3 14.7502 24.6374 105.7751 0.0000 3.8222 0.0000
# 4 0.0000 0.0000 0.0000 25.6893 0.0000 -3.2799
# 5 5.2084 3.8444 3.8222 0.0000 29.9698 0.0000
# 6 0.0000 0.0000 0.0000 -3.2799 0.0000 17.1992
#
#
#
# Elastic Compliance Matrix: (Units=1/GPa)
#
#
# Indices 1 2 3 4 5 6 
#
# 1 0.025344 -0.001271 -0.003099 0.000000 -0.003846 0.000000
# 2 -0.001271 0.010483 -0.002234 0.000000 -0.000839 0.000000
# 3 -0.003099 -0.002234 0.010425 0.000000 -0.000504 0.000000
# 4 0.000000 0.000000 0.000000 0.039898 0.000000 0.007609
# 5 -0.003846 -0.000839 -0.000504 0.000000 0.034207 0.000000
# 6 0.000000 0.000000 0.000000 0.007609 0.000000 0.059593
#
#
# Mechanical properties :
#
#
# Convention : Reuss Voigt Hill
#
# Bulk Modulus (GPa) = 30.26273 38.49564 34.37918
# Shear Modulus (GPa) = 24.48894 28.04956 26.26925
#
# Velocity S-wave (km/s) = 3.59205 3.84433 3.72033
# Velocity P-wave (km/s) = 5.75749 6.32360 6.04717
#
# Compressibility (1/GPa) = 0.03304395
#
# Stress axis : x y z
#
# Youngs Moduli (GPa) = 39.45726 95.38847 95.92459
#
# Poissons Ratio (x) = 0.12119 0.29729
# Poissons Ratio (y) = 0.05013 0.21433
# Poissons Ratio (z) = 0.12229 0.21313
#
# Static dielectric constant tensor:
#      x y z
#    x 3.434050 0.000000 0.035690 
#    y 0.000000 3.658480 0.000000 
#    z 0.035690 0.000000 3.558550 
# 
# 
# High freq. dielectric constant tensor:
#      x y z
#    x 1.732560 0.000000 0.006690 
#    y 0.000000 1.727660 0.000000 
#    z 0.006690 0.000000 1.744630 
# 
# From -- ./inp_files/189416.got.cif
#   From: 2010.06.25/outbox.cif.g09.slc.cpg/sg12_95_cif.got.tgz:189416.got - 2010.06.28 00:19:55.
