data_PCOD8090075
_publ_section_title
;
Structure prediction by ZEFSAII (Michael W. Deem and Ramdas Pophale) SiO2 
 PCOD8090075
Probable space group: C 2/M
;
_chemical_formula_sum "Si O2"
_cell_formula_units_Z 32
_cell_length_a 19.873134
_cell_length_b 9.042410
_cell_length_c 24.908188
_cell_angle_alpha 90.000000
_cell_angle_beta 23.325805
_cell_angle_gamma 90.000000
_cell_volume 1772.323659
_symmetry_space_group_name_H-M "C 2/M"
_symmetry_group_IT_number 12
_symmetry_cell_setting 'monoclinic'
loop_
_space_group_symop_operation_xyz
x,y,z
-x,y,-z
-x,-y,-z
x,-y,z
1/2+x,1/2+y,z
1/2-x,1/2+y,-z
1/2-x,1/2-y,-z
1/2+x,1/2-y,z
loop_
_atom_site_type_symbol
_atom_site_label
_atom_site_fract_x
_atom_site_fract_y
_atom_site_fract_z
Si Si1 0.194995 0.172736 0.855771
Si Si2 0.307145 0.171126 0.655053
Si Si3 0.990446 0.673266 0.183925
Si Si4 0.696195 0.326578 0.120337
O O1 0.274623 0.214221 0.740380
O O2 0.301537 0.262720 0.821506
O O3 0.210254 0.000000 0.857981
O O4 0.000000 0.224672 0.000000
O O5 0.500000 0.208097 0.500000
O O6 0.192359 0.269011 0.700146
O O7 0.262209 0.000000 0.677989
O O8 0.982090 0.500000 0.200787
O O9 0.040948 0.752311 0.202296
O O10 0.126362 0.714117 0.038357
O O11 0.663735 0.500000 0.146098
#
# Coordination Sequence:
#
# PCOD8090075 Si02
#       4
#     8   8   8   8
#     4  10  19  33  55  81 108 139 178 222 265 313
#     4  10  21  37  56  79 110 145 178 216 266 321
#     4  10  20  34  54  80 110 142 178 221 268 317
#     4  10  20  33  54  82 110 139 177 225 269 313
#
# _framework density 18.055391
#
# number of rings (size 3 to 8) (size 9 to 14) (size 15 to 20)
#    0.000    2.000    2.500    1.500    0.000    4.000 
#    0.000    1.250    0.000    0.000    0.000    0.000 
#    0.000    0.000    0.000    0.000    0.000    0.000 
#
# Total GULP energy -198493.681031 kJ/mol
# GULP energy per Si atom -12405.855064 kJ/mol
# Density = 1.801430 g / cm^3
# Si number density = 18.055391 Si / 1000 Ang^3
#
#
#
# Elastic Constant Matrix: (Units=GPa)
#
#
# Indices 1 2 3 4 5 6 
#
# 1 157.1193 70.1055 64.6330 -0.0015 -12.2338 -0.0006
# 2 70.1055 81.1135 40.7780 -0.0004 -11.8789 -0.0009
# 3 64.6330 40.7780 97.6748 0.0082 1.4141 0.0020
# 4 -0.0015 -0.0004 0.0082 16.6644 0.0001 -8.2765
# 5 -12.2338 -11.8789 1.4141 0.0001 24.7886 0.0003
# 6 -0.0006 -0.0009 0.0020 -8.2765 0.0003 39.8302
#
#
#
# Elastic Compliance Matrix: (Units=1/GPa)
#
#
# Indices 1 2 3 4 5 6 
#
# 1 0.011860 -0.007487 -0.004759 0.000004 0.002537 0.000001
# 2 -0.007487 0.022023 -0.004343 0.000002 0.007107 0.000001
# 3 -0.004759 -0.004343 0.015278 -0.000009 -0.005302 -0.000003
# 4 0.000004 0.000002 -0.000009 0.066914 0.000003 0.013904
# 5 0.002537 0.007107 -0.005302 0.000003 0.045301 0.000001
# 6 0.000001 0.000001 -0.000003 0.013904 0.000001 0.027996
#
#
# Mechanical properties :
#
#
# Convention : Reuss Voigt Hill
#
# Bulk Modulus (GPa) = 62.56843 76.32673 69.44758
# Shear Modulus (GPa) = 21.94152 26.94938 24.44545
#
# Velocity S-wave (km/s) = 3.48980 3.86760 3.68355
# Velocity P-wave (km/s) = 7.13913 7.89366 7.52586
#
# Compressibility (1/GPa) = 0.01598250
#
# Stress axis : x y z
#
# Youngs Moduli (GPa) = 84.31370 45.40665 65.45568
#
# Poissons Ratio (x) = 0.33994 0.31153
# Poissons Ratio (y) = 0.63122 0.28430
# Poissons Ratio (z) = 0.40129 0.19722
#
# Static dielectric constant tensor:
#      x y z
#    x 3.349450 0.000000 -0.013480 
#    y 0.000000 3.263940 0.000010 
#    z -0.013480 0.000010 3.123950 
# 
# 
# High freq. dielectric constant tensor:
#      x y z
#    x 1.710290 0.000000 -0.007110 
#    y 0.000000 1.702600 0.000000 
#    z -0.007110 0.000000 1.673210 
# 
# From -- ./inp_files/81673.got.cif
#   From: 2010.06.25/outbox.cif.g09.slc.cpg/sg12_41_cif.got.tgz:81673.got - 2010.06.28 00:19:55.
