data_PCOD8090545
_publ_section_title
;
Structure prediction by ZEFSAII (Michael W. Deem and Ramdas Pophale) SiO2 
 PCOD8090545
Probable space group: C 2/M
;
_chemical_formula_sum "Si O2"
_cell_formula_units_Z 56
_cell_length_a 19.390379
_cell_length_b 9.277798
_cell_length_c 23.914469
_cell_angle_alpha 90.000000
_cell_angle_beta 45.790534
_cell_angle_gamma 90.000000
_cell_volume 3083.806877
_symmetry_space_group_name_H-M "C 2/M"
_symmetry_group_IT_number 12
_symmetry_cell_setting 'monoclinic'
loop_
_space_group_symop_operation_xyz
x,y,z
-x,y,-z
-x,-y,-z
x,-y,z
1/2+x,1/2+y,z
1/2-x,1/2+y,-z
1/2-x,1/2-y,-z
1/2+x,1/2-y,z
loop_
_atom_site_type_symbol
_atom_site_label
_atom_site_fract_x
_atom_site_fract_y
_atom_site_fract_z
Si Si1 0.217385 0.834719 0.464976
Si Si2 0.169284 0.665717 0.301962
Si Si3 0.544132 0.669205 0.854906
Si Si4 0.176316 0.169899 0.001286
Si Si5 0.533998 0.840309 0.543915
Si Si6 0.317082 0.333613 0.127040
Si Si7 0.811747 0.666828 0.296968
O O1 0.250000 0.750000 0.500000
O O2 0.113733 0.779778 0.504970
O O3 0.296418 0.813156 0.371781
O O4 0.206092 0.000000 0.487477
O O5 0.187924 0.500000 0.309693
O O6 0.214581 0.693823 0.215083
O O7 0.219112 0.767805 0.318813
O O8 0.055782 0.698859 0.364774
O O9 0.565016 0.500000 0.836226
O O10 0.431826 0.704195 0.918152
O O11 0.596139 0.725941 0.882651
O O12 0.590906 0.751204 0.775796
O O13 0.198623 0.000000 0.991001
O O14 0.250000 0.250000 0.000000
O O15 0.186679 0.235867 0.932615
O O16 0.500000 0.840569 0.500000
O O17 0.573592 0.000000 0.537343
O O18 0.339229 0.500000 0.104317
O O19 0.820707 0.500000 0.275398
#
# Coordination Sequence:
#
# PCOD8090545 Si02
#       7
#     8   8   8   8   8   8   8
#     4  11  24  39  55  77 109 148 186 226 272 323
#     4   9  17  32  56  83 107 139 179 219 265 317
#     4   9  18  34  58  80 100 135 182 221 261 315
#     4  10  20  35  54  78 109 141 173 214 264 319
#     4  10  19  33  57  84 111 142 179 222 267 322
#     4   8  15  31  56  80 101 133 179 220 250 300
#     4  10  20  34  54  81 109 137 176 226 273 315
#
# _framework density 18.159372999999999
#
# number of rings (size 3 to 8) (size 9 to 14) (size 15 to 20)
#    0.000    2.429    1.429    2.143    0.000    4.857 
#    2.571    2.857    0.000    4.286    0.000    0.000 
#    0.000    0.000    0.000    0.000    0.000    0.000 
#
# Total GULP energy -347126.747116 kJ/mol
# GULP energy per Si atom -12397.383826 kJ/mol
# Density = 1.811804 g / cm^3
# Si number density = 18.159373 Si / 1000 Ang^3
#
#
#
# Elastic Constant Matrix: (Units=GPa)
#
#
# Indices 1 2 3 4 5 6 
#
# 1 94.1610 49.1119 65.1679 0.0000 -0.5993 -0.0001
# 2 49.1119 89.7814 65.3024 0.0001 4.4307 -0.0004
# 3 65.1679 65.3024 130.7916 0.0000 -6.7214 0.0000
# 4 0.0000 0.0001 0.0000 25.1770 0.0000 0.4178
# 5 -0.5993 4.4307 -6.7214 0.0000 25.9714 0.0000
# 6 -0.0001 -0.0004 0.0000 0.4178 0.0000 28.4207
#
#
#
# Elastic Compliance Matrix: (Units=1/GPa)
#
#
# Indices 1 2 3 4 5 6 
#
# 1 0.017582 -0.005049 -0.006258 0.000000 -0.000352 0.000000
# 2 -0.005049 0.019694 -0.007597 0.000000 -0.005443 0.000000
# 3 -0.006258 -0.007597 0.014813 0.000000 0.004985 0.000000
# 4 0.000000 0.000000 0.000000 0.039729 0.000000 -0.000584
# 5 -0.000352 -0.005443 0.004985 0.000000 0.040715 0.000000
# 6 0.000000 0.000000 0.000000 -0.000584 0.000000 0.035194
#
#
# Mechanical properties :
#
#
# Convention : Reuss Voigt Hill
#
# Bulk Modulus (GPa) = 70.01771 74.87759 72.44765
# Shear Modulus (GPa) = 23.77614 24.92393 24.35004
#
# Velocity S-wave (km/s) = 3.62236 3.70876 3.66581
# Velocity P-wave (km/s) = 7.49242 7.72418 7.60918
#
# Compressibility (1/GPa) = 0.01428210
#
# Stress axis : x y z
#
# Youngs Moduli (GPa) = 56.87609 50.77614 67.50770
#
# Poissons Ratio (x) = 0.25635 0.42245
# Poissons Ratio (y) = 0.28715 0.51287
# Poissons Ratio (z) = 0.35592 0.38576
#
# Static dielectric constant tensor:
#      x y z
#    x 3.015150 0.000000 0.100390 
#    y 0.000000 3.315070 0.000000 
#    z 0.100390 0.000000 3.604940 
# 
# 
# High freq. dielectric constant tensor:
#      x y z
#    x 1.682240 0.000000 -0.002470 
#    y 0.000000 1.687480 0.000000 
#    z -0.002470 0.000000 1.720680 
# 
# From -- ./inp_files/342284.got.cif
#   From: 2010.06.25/outbox.cif.g09.slc.cpg/sg12_172_cif.got.tgz:342284.got - 2010.06.28 00:19:55.
