data_PCOD8090567
_publ_section_title
;
Structure prediction by ZEFSAII (Michael W. Deem and Ramdas Pophale) SiO2 
 PCOD8090567
Probable space group: C 2/M
;
_chemical_formula_sum "Si O2"
_cell_formula_units_Z 56
_cell_length_a 20.502668
_cell_length_b 8.608487
_cell_length_c 20.354504
_cell_angle_alpha 90.000000
_cell_angle_beta 51.648780
_cell_angle_gamma 90.000000
_cell_volume 2817.323729
_symmetry_space_group_name_H-M "C 2/M"
_symmetry_group_IT_number 12
_symmetry_cell_setting 'monoclinic'
loop_
_space_group_symop_operation_xyz
x,y,z
-x,y,-z
-x,-y,-z
x,-y,z
1/2+x,1/2+y,z
1/2-x,1/2+y,-z
1/2-x,1/2-y,-z
1/2+x,1/2-y,z
loop_
_atom_site_type_symbol
_atom_site_label
_atom_site_fract_x
_atom_site_fract_y
_atom_site_fract_z
Si Si1 0.084218 0.682449 0.762970
Si Si2 0.311121 0.315723 0.780843
Si Si3 0.498541 0.316055 0.690094
Si Si4 0.797768 0.683246 0.031747
Si Si5 0.931976 0.184627 0.491487
Si Si6 0.524433 0.317712 0.057538
Si Si7 0.229820 0.815879 0.336803
O O1 0.077183 0.500000 0.781278
O O2 0.179896 0.735471 0.693881
O O3 0.034990 0.725579 0.728736
O O4 0.049589 0.772783 0.847509
O O5 0.307530 0.500000 0.779957
O O6 0.403424 0.262716 0.742608
O O7 0.245847 0.251240 0.875049
O O8 0.286601 0.245440 0.725408
O O9 0.506535 0.500000 0.696497
O O10 0.548095 0.259436 0.594547
O O11 0.791072 0.500000 0.033227
O O12 0.750000 0.750000 0.000000
O O13 0.893115 0.732257 0.969956
O O14 0.840718 0.247129 0.569110
O O15 0.000000 0.251882 0.500000
O O16 0.936147 0.000000 0.491285
O O17 0.540866 0.500000 0.049518
O O18 0.500000 0.261538 0.000000
O O19 0.222725 0.000000 0.337188
#
# Coordination Sequence:
#
# PCOD8090567 Si02
#       7
#     8   8   8   8   8   8   8
#     4  11  23  37  55  81 116 153 186 228 287 353
#     4   9  17  31  53  80 106 138 184 236 279 322
#     4  10  19  33  57  85 114 147 186 234 281 330
#     4  11  22  36  57  85 118 155 196 242 292 347
#     4   9  15  28  54  86 113 141 186 236 280 325
#     4  11  24  42  62  83 112 150 196 249 302 355
#     4   9  17  31  52  81 111 140 185 236 275 326
#
# _framework density 19.877020000000002
#
# number of rings (size 3 to 8) (size 9 to 14) (size 15 to 20)
#    0.000    2.000    1.429    3.000    0.000    4.000 
#    0.000    0.714    0.000    3.000    0.000    0.000 
#    0.000    0.000    0.000    0.000    0.000    0.000 
#
# Total GULP energy -347241.757267 kJ/mol
# GULP energy per Si atom -12401.491331 kJ/mol
# Density = 1.983178 g / cm^3
# Si number density = 19.877020 Si / 1000 Ang^3
#
#
#
# Elastic Constant Matrix: (Units=GPa)
#
#
# Indices 1 2 3 4 5 6 
#
# 1 106.9965 16.2585 25.6032 0.0000 -2.3033 0.0001
# 2 16.2585 29.5569 14.2057 0.0001 2.3283 -0.0001
# 3 25.6032 14.2057 119.7740 0.0000 -5.4414 0.0000
# 4 0.0000 0.0001 0.0000 16.5724 0.0000 1.0086
# 5 -2.3033 2.3283 -5.4414 0.0000 41.2194 0.0000
# 6 0.0001 -0.0001 0.0000 1.0086 0.0000 18.3946
#
#
#
# Elastic Compliance Matrix: (Units=1/GPa)
#
#
# Indices 1 2 3 4 5 6 
#
# 1 0.010516 -0.005059 -0.001618 0.000000 0.000660 0.000000
# 2 -0.005059 0.038592 -0.003629 0.000000 -0.002942 0.000000
# 3 -0.001618 -0.003629 0.009186 0.000000 0.001327 0.000000
# 4 0.000000 0.000000 0.000000 0.060543 0.000000 -0.003320
# 5 0.000660 -0.002942 0.001327 0.000000 0.024639 0.000000
# 6 0.000000 0.000000 0.000000 -0.003320 0.000000 0.054546
#
#
# Mechanical properties :
#
#
# Convention : Reuss Voigt Hill
#
# Bulk Modulus (GPa) = 26.53854 40.94025 33.73940
# Shear Modulus (GPa) = 21.62680 28.58796 25.10738
#
# Velocity S-wave (km/s) = 3.30211 3.79653 3.55792
# Velocity P-wave (km/s) = 5.28384 6.31345 5.82145
#
# Compressibility (1/GPa) = 0.03768105
#
# Stress axis : x y z
#
# Youngs Moduli (GPa) = 95.09124 25.91215 108.86520
#
# Poissons Ratio (x) = 0.13109 0.17614
# Poissons Ratio (y) = 0.48107 0.39511
# Poissons Ratio (z) = 0.15386 0.09404
#
# Static dielectric constant tensor:
#      x y z
#    x 3.682210 0.000000 -0.015450 
#    y 0.000000 3.160250 0.000000 
#    z -0.015450 0.000000 3.981360 
# 
# 
# High freq. dielectric constant tensor:
#      x y z
#    x 1.785470 0.000000 -0.002250 
#    y 0.000000 1.731270 0.000000 
#    z -0.002250 0.000000 1.794830 
# 
# From -- ./inp_files/319731.got.cif
#   From: 2010.06.25/outbox.cif.g09.slc.cpg/sg12_160_cif.got.tgz:319731.got - 2010.06.28 00:19:55.
