data_PCOD8090824
_publ_section_title
;
Structure prediction by ZEFSAII (Michael W. Deem and Ramdas Pophale) SiO2 
 PCOD8090824
Probable space group: C 2/M
;
_chemical_formula_sum "Si O2"
_cell_formula_units_Z 64
_cell_length_a 23.506418
_cell_length_b 9.101955
_cell_length_c 21.213431
_cell_angle_alpha 90.000000
_cell_angle_beta 52.564115
_cell_angle_gamma 90.000000
_cell_volume 3603.887167
_symmetry_space_group_name_H-M "C 2/M"
_symmetry_group_IT_number 12
_symmetry_cell_setting 'monoclinic'
loop_
_space_group_symop_operation_xyz
x,y,z
-x,y,-z
-x,-y,-z
x,-y,z
1/2+x,1/2+y,z
1/2-x,1/2+y,-z
1/2-x,1/2-y,-z
1/2+x,1/2-y,z
loop_
_atom_site_type_symbol
_atom_site_label
_atom_site_fract_x
_atom_site_fract_y
_atom_site_fract_z
Si Si1 0.967202 0.669751 0.090041
Si Si2 0.026125 0.161540 0.159516
Si Si3 0.074633 0.673881 0.598813
Si Si4 0.370485 0.662497 0.325341
Si Si5 0.324308 0.673740 0.224296
Si Si6 0.921303 0.828944 0.530621
Si Si7 0.316222 0.330530 0.715229
Si Si8 0.431997 0.328640 0.737061
O O1 0.951545 0.500000 0.113348
O O2 0.893308 0.756920 0.144493
O O3 0.025693 0.724285 0.102209
O O4 0.000000 0.698778 0.000000
O O5 0.079539 0.208612 0.180688
O O6 0.949251 0.155019 0.243724
O O7 0.046784 0.000000 0.119361
O O8 0.073677 0.500000 0.598833
O O9 0.130699 0.726628 0.614953
O O10 0.102601 0.734173 0.513381
O O11 0.995028 0.733079 0.664445
O O12 0.347098 0.500000 0.364331
O O13 0.319924 0.717188 0.301786
O O14 0.330969 0.500000 0.212234
O O15 0.253923 0.730896 0.237083
O O16 0.866170 0.790948 0.622813
O O17 0.000000 0.780831 0.500000
O O18 0.920539 0.000000 0.512848
O O19 0.292819 0.500000 0.728892
O O20 0.358303 0.293132 0.751165
O O21 0.453160 0.500000 0.713598
#
# Coordination Sequence:
#
# PCOD8090824 Si02
#       8
#     8   8   8   8   8   8   8   8
#     4  10  20  34  55  82 109 135 165 203 245 296
#     4   8  15  28  50  77 103 130 165 210 250 292
#     4  11  20  28  46  75 101 126 166 224 267 291
#     4   8  16  32  50  67  94 133 169 203 252 309
#     4  10  21  36  54  77 105 134 166 209 254 302
#     4  10  19  34  52  69  96 137 178 211 255 312
#     4  10  20  34  54  74  98 137 175 209 251 307
#     4   9  17  32  50  71 100 136 174 206 249 306
#
# _framework density 17.758603000000001
#
# number of rings (size 3 to 8) (size 9 to 14) (size 15 to 20)
#    0.000    2.500    1.250    3.375    0.000    7.250 
#    0.000    0.625    0.000    0.750    0.000    0.000 
#    0.000    0.000    0.000    0.000    0.000    0.000 
#
# Total GULP energy -396711.351365 kJ/mol
# GULP energy per Si atom -12397.229730 kJ/mol
# Density = 1.771818 g / cm^3
# Si number density = 17.758603 Si / 1000 Ang^3
#
#
#
# Elastic Constant Matrix: (Units=GPa)
#
#
# Indices 1 2 3 4 5 6 
#
# 1 122.2455 57.4821 53.8306 -0.0001 21.1256 0.0004
# 2 57.4821 101.1919 54.9035 -0.0002 13.6601 0.0000
# 3 53.8306 54.9035 74.8961 -0.0001 19.8083 0.0004
# 4 -0.0001 -0.0002 -0.0001 23.2645 0.0000 3.8387
# 5 21.1256 13.6601 19.8083 0.0000 26.8099 -0.0002
# 6 0.0004 0.0000 0.0004 3.8387 -0.0002 20.0665
#
#
#
# Elastic Compliance Matrix: (Units=1/GPa)
#
#
# Indices 1 2 3 4 5 6 
#
# 1 0.013182 -0.003960 -0.005417 0.000000 -0.004368 0.000000
# 2 -0.003960 0.017607 -0.010581 0.000000 0.001967 0.000000
# 3 -0.005417 -0.010581 0.027899 0.000000 -0.010953 -0.000001
# 4 0.000000 0.000000 0.000000 0.044385 0.000000 -0.008491
# 5 -0.004368 0.001967 -0.010953 0.000000 0.047832 0.000001
# 6 0.000000 0.000000 -0.000001 -0.008491 0.000001 0.051459
#
#
# Mechanical properties :
#
#
# Convention : Reuss Voigt Hill
#
# Bulk Modulus (GPa) = 53.26941 70.08509 61.67725
# Shear Modulus (GPa) = 20.11780 22.83599 21.47690
#
# Velocity S-wave (km/s) = 3.36943 3.58985 3.48139
# Velocity P-wave (km/s) = 6.72302 7.53219 7.13907
#
# Compressibility (1/GPa) = 0.01877250
#
# Stress axis : x y z
#
# Youngs Moduli (GPa) = 75.85997 56.79539 35.84398
#
# Poissons Ratio (x) = 0.22489 0.19416
# Poissons Ratio (y) = 0.30037 0.37928
# Poissons Ratio (z) = 0.41091 0.60097
#
# Static dielectric constant tensor:
#      x y z
#    x 3.674320 0.000000 0.468070 
#    y 0.000000 3.248570 0.000000 
#    z 0.468070 0.000000 3.066730 
# 
# 
# High freq. dielectric constant tensor:
#      x y z
#    x 1.685470 0.000000 0.031070 
#    y 0.000000 1.684950 0.000000 
#    z 0.031070 0.000000 1.654860 
# 
# From -- ./inp_files/323645.got.cif
#   From: 2010.06.25/outbox.cif.g09.slc.cpg/sg12_162_cif.got.tgz:323645.got - 2010.06.28 00:19:55.
