data_PCOD8090056
_publ_section_title
;
Structure prediction by ZEFSAII (Michael W. Deem and Ramdas Pophale) SiO2 
 PCOD8090056
Probable space group: C 2/M
;
_chemical_formula_sum "Si O2"
_cell_formula_units_Z 64
_cell_length_a 15.361356
_cell_length_b 9.037818
_cell_length_c 33.596541
_cell_angle_alpha 90.000000
_cell_angle_beta 134.996727
_cell_angle_gamma 90.000000
_cell_volume 3298.355946
_symmetry_space_group_name_H-M "C 2/M"
_symmetry_group_IT_number 12
_symmetry_cell_setting 'monoclinic'
loop_
_space_group_symop_operation_xyz
x,y,z
-x,y,-z
-x,-y,-z
x,-y,z
1/2+x,1/2+y,z
1/2-x,1/2+y,-z
1/2-x,1/2-y,-z
1/2+x,1/2-y,z
loop_
_atom_site_type_symbol
_atom_site_label
_atom_site_fract_x
_atom_site_fract_y
_atom_site_fract_z
Si Si1 0.481884 0.671866 0.891342
Si Si2 0.662415 0.171183 0.502899
Si Si3 0.744207 0.824277 0.390603
Si Si4 0.348168 0.328932 0.124159
Si Si5 0.295137 0.175879 0.187431
Si Si6 0.398922 0.173752 0.998696
Si Si7 0.100239 0.329424 0.621034
Si Si8 0.466656 0.824424 0.313412
O O1 0.485018 0.500000 0.903020
O O2 0.527294 0.698387 0.860752
O O3 0.344059 0.735751 0.851917
O O4 0.577007 0.750812 0.951370
O O5 0.750000 0.250000 0.500000
O O6 0.673169 0.248527 0.548937
O O7 0.523112 0.188336 0.444099
O O8 0.700599 0.000000 0.518425
O O9 0.793110 0.770276 0.363717
O O10 0.604416 0.767761 0.349814
O O11 0.754936 0.000000 0.397911
O O12 0.332150 0.500000 0.130848
O O13 0.355237 0.234330 0.166392
O O14 0.233570 0.276577 0.060236
O O15 0.376053 0.237520 0.250139
O O16 0.297200 0.000000 0.187287
O O17 0.407338 0.000000 0.008134
O O18 0.500000 0.229790 0.000000
O O19 0.143109 0.500000 0.635722
O O20 0.079169 0.266850 0.658635
O O21 0.467159 0.000000 0.313787
#
# Coordination Sequence:
#
# PCOD8090056 Si02
#       8
#     8   8   8   8   8   8   8   8
#     4  10  21  35  55  83 110 140 183 230 272 324
#     4  11  21  36  60  88 118 152 188 228 283 341
#     4  11  22  38  59  86 116 150 188 233 281 335
#     4  10  21  37  55  81 114 143 178 228 280 330
#     4  10  21  38  59  80 105 146 191 230 274 327
#     4  10  19  33  55  80 111 148 176 215 281 339
#     4  10  21  39  60  84 115 152 186 229 284 337
#     4   9  20  40  59  77 111 151 187 228 282 333
#
# _framework density 19.403606
#
# number of rings (size 3 to 8) (size 9 to 14) (size 15 to 20)
#    0.000    1.875    2.500    1.500    0.000    4.750 
#    0.000    3.125    0.000    0.000    0.000    0.000 
#    0.000    0.000    0.000    0.000    0.000    0.000 
#
# Total GULP energy -396910.122785 kJ/mol
# GULP energy per Si atom -12403.441337 kJ/mol
# Density = 1.935944 g / cm^3
# Si number density = 19.403606 Si / 1000 Ang^3
#
#
#
# Elastic Constant Matrix: (Units=GPa)
#
#
# Indices 1 2 3 4 5 6 
#
# 1 125.1484 35.8580 49.7303 0.0000 -23.2600 0.0000
# 2 35.8580 53.1006 35.2498 0.0000 -7.3758 0.0000
# 3 49.7303 35.2498 130.4224 0.0000 -19.0731 0.0000
# 4 0.0000 0.0000 0.0000 22.8964 0.0000 -7.6649
# 5 -23.2600 -7.3758 -19.0731 0.0000 20.6441 0.0000
# 6 0.0000 0.0000 0.0000 -7.6649 0.0000 33.7318
#
#
#
# Elastic Compliance Matrix: (Units=1/GPa)
#
#
# Indices 1 2 3 4 5 6 
#
# 1 0.012161 -0.005738 -0.001598 0.000000 0.010175 0.000000
# 2 -0.005738 0.025803 -0.005068 0.000000 -0.001928 0.000000
# 3 -0.001598 -0.005068 0.010543 0.000000 0.006129 0.000000
# 4 0.000000 0.000000 0.000000 0.047271 0.000000 0.010741
# 5 0.010175 -0.001928 0.006129 0.000000 0.064878 0.000000
# 6 0.000000 0.000000 0.000000 0.010741 0.000000 0.032086
#
#
# Mechanical properties :
#
#
# Convention : Reuss Voigt Hill
#
# Bulk Modulus (GPa) = 42.19587 61.14975 51.67281
# Shear Modulus (GPa) = 22.17785 27.97667 25.07726
#
# Velocity S-wave (km/s) = 3.38446 3.80126 3.59890
# Velocity P-wave (km/s) = 6.08822 7.13086 6.63007
#
# Compressibility (1/GPa) = 0.02369900
#
# Stress axis : x y z
#
# Youngs Moduli (GPa) = 82.23225 38.75472 94.85065
#
# Poissons Ratio (x) = 0.22236 0.15158
# Poissons Ratio (y) = 0.47182 0.48072
# Poissons Ratio (z) = 0.13142 0.19641
#
# Static dielectric constant tensor:
#      x y z
#    x 3.735650 0.000000 -0.001230 
#    y 0.000000 3.341980 0.000000 
#    z -0.001230 0.000000 3.653840 
# 
# 
# High freq. dielectric constant tensor:
#      x y z
#    x 1.770340 0.000000 -0.004050 
#    y 0.000000 1.735690 0.000000 
#    z -0.004050 0.000000 1.752530 
# 
# From -- ./inp_files/375651.got.cif
#   From: 2010.06.25/outbox.cif.g09.slc.cpg/sg12_188_cif.got.tgz:375651.got - 2010.06.28 00:19:55.
