data_PCOD8090688
_publ_section_title
;
Structure prediction by ZEFSAII (Michael W. Deem and Ramdas Pophale) SiO2 
 PCOD8090688
Probable space group: C 2/M
;
_chemical_formula_sum "Si O2"
_cell_formula_units_Z 56
_cell_length_a 18.515406
_cell_length_b 13.794063
_cell_length_c 12.600280
_cell_angle_alpha 90.000000
_cell_angle_beta 60.382981
_cell_angle_gamma 90.000000
_cell_volume 2797.688682
_symmetry_space_group_name_H-M "C 2/M"
_symmetry_group_IT_number 12
_symmetry_cell_setting 'monoclinic'
loop_
_space_group_symop_operation_xyz
x,y,z
-x,y,-z
-x,-y,-z
x,-y,z
1/2+x,1/2+y,z
1/2-x,1/2+y,-z
1/2-x,1/2-y,-z
1/2+x,1/2-y,z
loop_
_atom_site_type_symbol
_atom_site_label
_atom_site_fract_x
_atom_site_fract_y
_atom_site_fract_z
Si Si1 0.803769 0.681817 0.536219
Si Si2 0.116880 0.887654 0.149463
Si Si3 0.757273 0.607331 0.897856
Si Si4 0.989845 0.755554 0.129206
Si Si5 0.112791 0.267707 0.311896
Si Si6 0.472380 0.113144 0.326023
Si Si7 0.842650 0.105009 0.234872
O O1 0.750000 0.750000 0.500000
O O2 0.847582 0.740755 0.600688
O O3 0.874613 0.625416 0.420352
O O4 0.740568 0.605761 0.633467
O O5 0.100897 0.841775 0.277773
O O6 0.060804 0.832188 0.104738
O O7 0.091304 0.000000 0.172884
O O8 0.213692 0.875207 0.043861
O O9 0.797605 0.500000 0.864372
O O10 0.828971 0.683075 0.820201
O O11 0.682058 0.615102 0.869325
O O12 0.994269 0.657656 0.195023
O O13 0.902846 0.807214 0.220793
O O14 0.000000 0.724749 0.000000
O O15 0.026787 0.329006 0.375096
O O16 0.495480 0.000000 0.310764
O O17 0.885563 0.000000 0.222725
#
# Coordination Sequence:
#
# PCOD8090688 Si02
#       7
#     8   8   8   8   8   8   8
#     4  11  22  41  64  86 119 156 207 256 310 360
#     4  10  20  34  55  85 122 163 202 241 299 365
#     4   9  17  31  55  85 115 154 203 247 293 354
#     4  11  21  36  61  90 125 160 197 247 301 362
#     4  10  22  37  61  85 121 158 204 256 306 361
#     4  11  24  42  64  91 123 162 205 252 308 368
#     4  10  19  33  58  89 117 151 199 254 298 348
#
# _framework density 20.016522999999999
#
# number of rings (size 3 to 8) (size 9 to 14) (size 15 to 20)
#    0.000    1.714    2.857    2.143    0.000    3.143 
#    0.000    1.429    0.000    1.714    0.000    0.000 
#    0.000    0.000    0.000    0.000    0.000    0.000 
#
# Total GULP energy -347105.451364 kJ/mol
# GULP energy per Si atom -12396.623263 kJ/mol
# Density = 1.997096 g / cm^3
# Si number density = 20.016523 Si / 1000 Ang^3
#
#
#
# Elastic Constant Matrix: (Units=GPa)
#
#
# Indices 1 2 3 4 5 6 
#
# 1 83.8813 24.5481 33.9780 0.0000 5.2224 0.0000
# 2 24.5481 94.2297 41.5258 0.0000 5.4048 0.0000
# 3 33.9780 41.5258 86.2586 0.0000 2.6104 0.0000
# 4 0.0000 0.0000 0.0000 15.1584 0.0000 -6.5033
# 5 5.2224 5.4048 2.6104 0.0000 38.4752 0.0000
# 6 0.0000 0.0000 0.0000 -6.5033 0.0000 19.7705
#
#
#
# Elastic Compliance Matrix: (Units=1/GPa)
#
#
# Indices 1 2 3 4 5 6 
#
# 1 0.014445 -0.001515 -0.004918 0.000000 -0.001414 0.000000
# 2 -0.001515 0.013711 -0.005964 0.000000 -0.001316 0.000000
# 3 -0.004918 -0.005964 0.016390 0.000000 0.000393 0.000000
# 4 0.000000 0.000000 0.000000 0.076809 0.000000 0.025266
# 5 -0.001414 -0.001316 0.000393 0.000000 0.026341 0.000000
# 6 0.000000 0.000000 0.000000 0.025266 0.000000 0.058891
#
#
# Mechanical properties :
#
#
# Convention : Reuss Voigt Hill
#
# Bulk Modulus (GPa) = 50.62823 51.60815 51.11819
# Shear Modulus (GPa) = 21.01153 25.63533 23.32343
#
# Velocity S-wave (km/s) = 3.24344 3.58258 3.41722
# Velocity P-wave (km/s) = 6.27492 6.55377 6.41586
#
# Compressibility (1/GPa) = 0.01975182
#
# Stress axis : x y z
#
# Youngs Moduli (GPa) = 69.22756 72.93574 61.01451
#
# Poissons Ratio (x) = 0.11048 0.30007
# Poissons Ratio (y) = 0.10486 0.36389
# Poissons Ratio (z) = 0.34047 0.43499
#
# Static dielectric constant tensor:
#      x y z
#    x 3.600280 0.000000 -0.100300 
#    y 0.000000 3.487100 0.000000 
#    z -0.100300 0.000000 3.635740 
# 
# 
# High freq. dielectric constant tensor:
#      x y z
#    x 1.776470 0.000000 -0.014210 
#    y 0.000000 1.770120 0.000000 
#    z -0.014210 0.000000 1.781920 
# 
# From -- ./inp_files/156523.got.cif
#   From: 2010.06.25/outbox.cif.g09.slc.cpg/sg12_79_cif.got.tgz:156523.got - 2010.06.28 00:19:55.
