data_PCOD8090105
_publ_section_title
;
Structure prediction by ZEFSAII (Michael W. Deem and Ramdas Pophale) SiO2 
 PCOD8090105
Probable space group: C 2/M
;
_chemical_formula_sum "Si O2"
_cell_formula_units_Z 56
_cell_length_a 27.752965
_cell_length_b 9.010101
_cell_length_c 17.542381
_cell_angle_alpha 90.000000
_cell_angle_beta 43.832319
_cell_angle_gamma 90.000000
_cell_volume 3037.937527
_symmetry_space_group_name_H-M "C 2/M"
_symmetry_group_IT_number 12
_symmetry_cell_setting 'monoclinic'
loop_
_space_group_symop_operation_xyz
x,y,z
-x,y,-z
-x,-y,-z
x,-y,z
1/2+x,1/2+y,z
1/2-x,1/2+y,-z
1/2-x,1/2-y,-z
1/2+x,1/2-y,z
loop_
_atom_site_type_symbol
_atom_site_label
_atom_site_fract_x
_atom_site_fract_y
_atom_site_fract_z
Si Si1 0.318372 0.823266 0.387729
Si Si2 0.564770 0.175993 0.629751
Si Si3 0.409705 0.173979 0.830533
Si Si4 0.196423 0.171741 0.750619
Si Si5 0.173821 0.328726 0.926596
Si Si6 0.855478 0.671769 0.607787
Si Si7 0.830067 0.172946 0.787694
O O1 0.250000 0.750000 0.500000
O O2 0.383738 0.767885 0.363032
O O3 0.332524 0.767204 0.286344
O O4 0.309644 0.000000 0.399328
O O5 0.487571 0.238228 0.732754
O O6 0.590965 0.231005 0.517117
O O7 0.564633 0.000000 0.630894
O O8 0.358477 0.253743 0.831246
O O9 0.406450 0.000000 0.816571
O O10 0.385109 0.207926 0.944372
O O11 0.158584 0.228365 0.870286
O O12 0.278688 0.198526 0.662599
O O13 0.178473 0.000000 0.758315
O O14 0.172187 0.500000 0.903174
O O15 0.248562 0.288707 0.877011
O O16 0.867690 0.500000 0.613248
O O17 0.869230 0.763135 0.668846
O O18 0.844843 0.000000 0.774449
#
# Coordination Sequence:
#
# PCOD8090105 Si02
#       7
#     8   8   8   8   8   8   8
#     4  11  20  34  56  82 109 136 172 216 262 312
#     4   9  19  35  54  77 105 137 177 217 255 310
#     4  10  20  36  56  75 101 141 182 217 256 307
#     4  10  19  33  55  82 107 136 174 217 264 308
#     4   9  19  35  55  79 104 136 179 220 259 305
#     4   9  17  33  53  75 103 135 175 214 256 311
#     4  10  20  33  51  78 108 134 171 220 267 310
#
# _framework density 18.43356
#
# number of rings (size 3 to 8) (size 9 to 14) (size 15 to 20)
#    0.000    2.286    1.429    1.714    0.000    2.286 
#    0.000    5.714    0.000    4.286    0.000    0.000 
#    0.000    0.000    0.000    0.000    0.000    0.000 
#
# Total GULP energy -347266.583915 kJ/mol
# GULP energy per Si atom -12402.377997 kJ/mol
# Density = 1.839160 g / cm^3
# Si number density = 18.433560 Si / 1000 Ang^3
#
#
#
# Elastic Constant Matrix: (Units=GPa)
#
#
# Indices 1 2 3 4 5 6 
#
# 1 49.2962 27.5968 26.3348 0.0035 12.4843 0.0053
# 2 27.5968 60.9630 30.6908 0.0082 9.1747 0.0076
# 3 26.3348 30.6908 119.3505 0.0100 9.5666 0.0021
# 4 0.0035 0.0082 0.0100 24.6395 0.0020 8.5538
# 5 12.4843 9.1747 9.5666 0.0020 23.8496 -0.0053
# 6 0.0053 0.0076 0.0021 8.5538 -0.0053 30.0532
#
#
#
# Elastic Compliance Matrix: (Units=1/GPa)
#
#
# Indices 1 2 3 4 5 6 
#
# 1 0.030656 -0.010679 -0.003163 0.000003 -0.010670 -0.000005
# 2 -0.010679 0.023283 -0.003473 -0.000004 -0.001974 -0.000003
# 3 -0.003163 -0.003473 0.010053 -0.000003 -0.001041 0.000001
# 4 0.000003 -0.000004 -0.000003 0.045035 -0.000006 -0.012818
# 5 -0.010670 -0.001974 -0.001041 -0.000006 0.048692 0.000013
# 6 -0.000005 -0.000003 0.000001 -0.012818 0.000013 0.036923
#
#
# Mechanical properties :
#
#
# Convention : Reuss Voigt Hill
#
# Bulk Modulus (GPa) = 34.05710 44.31716 39.18713
# Shear Modulus (GPa) = 20.91548 25.37429 23.14489
#
# Velocity S-wave (km/s) = 3.37210 3.71418 3.54727
# Velocity P-wave (km/s) = 5.80320 6.51823 6.17108
#
# Compressibility (1/GPa) = 0.02936245
#
# Stress axis : x y z
#
# Youngs Moduli (GPa) = 32.62033 42.94998 99.47311
#
# Poissons Ratio (x) = 0.45867 0.31461
# Poissons Ratio (y) = 0.34836 0.34543
# Poissons Ratio (z) = 0.10317 0.14915
#
# Static dielectric constant tensor:
#      x y z
#    x 3.390610 -0.000010 0.081580 
#    y -0.000010 3.290280 0.000010 
#    z 0.081580 0.000010 3.538480 
# 
# 
# High freq. dielectric constant tensor:
#      x y z
#    x 1.708650 0.000000 0.017160 
#    y 0.000000 1.703400 0.000000 
#    z 0.017160 0.000000 1.715730 
# 
# From -- ./inp_files/288197.got.cif
#   From: 2010.06.25/outbox.cif.g09.slc.cpg/sg12_145_cif.got.tgz:288197.got - 2010.06.28 00:19:55.
