data_PCOD8090928
_publ_section_title
;
Structure prediction by ZEFSAII (Michael W. Deem and Ramdas Pophale) SiO2 
 PCOD8090928
Probable space group: C 2/M
;
_chemical_formula_sum "Si O2"
_cell_formula_units_Z 56
_cell_length_a 12.656081
_cell_length_b 14.983690
_cell_length_c 25.953404
_cell_angle_alpha 90.000000
_cell_angle_beta 142.262513
_cell_angle_gamma 90.000000
_cell_volume 3012.280508
_symmetry_space_group_name_H-M "C 2/M"
_symmetry_group_IT_number 12
_symmetry_cell_setting 'monoclinic'
loop_
_space_group_symop_operation_xyz
x,y,z
-x,y,-z
-x,-y,-z
x,-y,z
1/2+x,1/2+y,z
1/2-x,1/2+y,-z
1/2-x,1/2-y,-z
1/2+x,1/2-y,z
loop_
_atom_site_type_symbol
_atom_site_label
_atom_site_fract_x
_atom_site_fract_y
_atom_site_fract_z
Si Si1 0.934067 0.398177 0.603413
Si Si2 0.929649 0.898637 0.028766
Si Si3 0.533869 0.601693 0.453936
Si Si4 0.321072 0.761944 0.340370
Si Si5 0.970639 0.398246 0.141128
Si Si6 0.992798 0.309932 0.734885
Si Si7 0.661369 0.742865 0.170836
O O1 0.989836 0.500000 0.617326
O O2 0.732103 0.384770 0.515282
O O3 0.036289 0.340389 0.599306
O O4 0.978711 0.371279 0.679179
O O5 0.018308 0.830499 0.101905
O O6 0.977591 0.000000 0.063298
O O7 0.726594 0.883675 0.950033
O O8 0.000000 0.876306 0.000000
O O9 0.500000 0.628394 0.500000
O O10 0.474022 0.500000 0.420973
O O11 0.419181 0.666679 0.374439
O O12 0.222776 0.784997 0.250567
O O13 0.173073 0.757529 0.327721
O O14 0.027617 0.500000 0.156664
O O15 0.010405 0.370281 0.215217
O O16 0.078816 0.341207 0.141285
O O17 0.173701 0.255918 0.803884
#
# Coordination Sequence:
#
# PCOD8090928 Si02
#       7
#     8   8   8   8   8   8   8
#     4  10  20  34  56  82 109 143 184 226 271 321
#     4  10  19  34  58  85 108 140 183 231 274 316
#     4  10  19  34  58  85 108 140 183 231 274 316
#     4  10  21  34  53  83 114 144 178 226 276 322
#     4  10  20  34  56  82 109 143 184 226 271 321
#     4  10  19  34  53  82 112 146 181 224 273 318
#     4  10  21  34  53  83 114 144 178 226 276 322
#
# _framework density 18.590567
#
# number of rings (size 3 to 8) (size 9 to 14) (size 15 to 20)
#    0.000    2.000    2.857    1.286    0.000    4.571 
#    0.000    0.714    0.000    2.571    0.000    0.000 
#    0.000    0.000    0.000    0.000    0.000    0.000 
#
# Total GULP energy -347074.588908 kJ/mol
# GULP energy per Si atom -12395.521032 kJ/mol
# Density = 1.854825 g / cm^3
# Si number density = 18.590567 Si / 1000 Ang^3
#
#
#
# Elastic Constant Matrix: (Units=GPa)
#
#
# Indices 1 2 3 4 5 6 
#
# 1 57.8489 55.7227 18.2931 0.0000 24.4748 0.0000
# 2 55.7227 111.9681 31.7040 0.0000 13.6435 0.0000
# 3 18.2931 31.7040 57.5348 0.0000 6.3428 0.0000
# 4 0.0000 0.0000 0.0000 33.5621 0.0000 -3.0861
# 5 24.4748 13.6435 6.3428 0.0000 27.2660 0.0000
# 6 0.0000 0.0000 0.0000 -3.0861 0.0000 27.5930
#
#
#
# Elastic Compliance Matrix: (Units=1/GPa)
#
#
# Indices 1 2 3 4 5 6 
#
# 1 0.055900 -0.022863 -0.000928 0.000000 -0.038522 0.000000
# 2 -0.022863 0.020386 -0.005236 0.000000 0.011540 0.000000
# 3 -0.000928 -0.005236 0.020712 0.000000 -0.001365 0.000000
# 4 0.000000 0.000000 0.000000 0.030105 0.000000 0.003367
# 5 -0.038522 0.011540 -0.001365 0.000000 0.065797 0.000000
# 6 0.000000 0.000000 0.000000 0.003367 0.000000 0.036618
#
#
# Mechanical properties :
#
#
# Convention : Reuss Voigt Hill
#
# Bulk Modulus (GPa) = 25.67870 48.75460 37.21665
# Shear Modulus (GPa) = 16.63598 25.79303 21.21450
#
# Velocity S-wave (km/s) = 2.99467 3.72886 3.38175
# Velocity P-wave (km/s) = 5.07938 6.69489 5.94229
#
# Compressibility (1/GPa) = 0.03894279
#
# Stress axis : x y z
#
# Youngs Moduli (GPa) = 17.88899 49.05399 48.28163
#
# Poissons Ratio (x) = 1.12151 0.04482
# Poissons Ratio (y) = 0.40899 0.25282
# Poissons Ratio (z) = 0.01661 0.25686
#
# Static dielectric constant tensor:
#      x y z
#    x 3.652480 0.000000 0.460170 
#    y 0.000000 3.503840 0.000000 
#    z 0.460170 0.000000 3.581100 
# 
# 
# High freq. dielectric constant tensor:
#      x y z
#    x 1.706300 0.000000 0.027460 
#    y 0.000000 1.713220 0.000000 
#    z 0.027460 0.000000 1.730590 
# 
# From -- ./inp_files/262855.got.cif
#   From: 2010.06.25/outbox.cif.g09.slc.cpg/sg12_132_cif.got.tgz:262855.got - 2010.06.28 00:19:55.
