data_PCOD8090807
_publ_section_title
;
Structure prediction by ZEFSAII (Michael W. Deem and Ramdas Pophale) SiO2 
 PCOD8090807
Probable space group: C 2/M
;
_chemical_formula_sum "Si O2"
_cell_formula_units_Z 48
_cell_length_a 15.235896
_cell_length_b 31.574592
_cell_length_c 5.874312
_cell_angle_alpha 90.000000
_cell_angle_beta 116.122907
_cell_angle_gamma 90.000000
_cell_volume 2537.273739
_symmetry_space_group_name_H-M "C 2/M"
_symmetry_group_IT_number 12
_symmetry_cell_setting 'monoclinic'
loop_
_space_group_symop_operation_xyz
x,y,z
-x,y,-z
-x,-y,-z
x,-y,z
1/2+x,1/2+y,z
1/2-x,1/2+y,-z
1/2-x,1/2-y,-z
1/2+x,1/2-y,z
loop_
_atom_site_type_symbol
_atom_site_label
_atom_site_fract_x
_atom_site_fract_y
_atom_site_fract_z
Si Si1 0.790867 0.614903 0.090894
Si Si2 0.105861 0.858144 0.644135
Si Si3 0.950830 0.450356 0.194387
Si Si4 0.595311 0.715729 0.959917
Si Si5 0.757447 0.168499 0.581106
Si Si6 0.392761 0.189865 0.946670
O O1 0.845007 0.571746 0.086462
O O2 0.791195 0.626724 0.357885
O O3 0.847337 0.654221 0.048677
O O4 0.677926 0.612909 0.879327
O O5 0.087092 0.811030 0.721102
O O6 0.154148 0.851675 0.457171
O O7 0.000000 0.881068 0.500000
O O8 0.932738 0.500000 0.169034
O O9 0.000000 0.438202 0.500000
O O10 0.000000 0.437661 0.000000
O O11 0.602612 0.765639 0.913603
O O12 0.500000 0.706020 0.000000
O O13 0.696672 0.701673 0.191388
O O14 0.675458 0.194555 0.352580
O O15 0.500000 0.174674 0.000000
#
# Coordination Sequence:
#
# PCOD8090807 Si02
#       6
#     8   8   8   8   8   8
#     4  10  23  35  57  84 114 145 192 242 296 357
#     4  10  20  36  55  76 107 150 200 246 292 343
#     4  10  23  43  70  97 127 161 191 231 290 366
#     4  10  19  34  51  72 104 151 203 244 290 344
#     4  10  21  34  52  74 106 151 191 251 285 347
#     4  10  22  34  48  77 109 151 193 242 300 344
#
# _framework density 18.917943000000001
#
# number of rings (size 3 to 8) (size 9 to 14) (size 15 to 20)
#    0.000    2.000    1.667    1.000    7.000    7.333 
#    0.000    0.000    0.000    0.500    0.000    1.167 
#    0.000    0.000    0.000    0.000    0.000    0.000 
#
# Total GULP energy -297324.265727 kJ/mol
# GULP energy per Si atom -12388.511072 kJ/mol
# Density = 1.887488 g / cm^3
# Si number density = 18.917943 Si / 1000 Ang^3
#
#
#
# Elastic Constant Matrix: (Units=GPa)
#
#
# Indices 1 2 3 4 5 6 
#
# 1 118.8191 38.2397 48.7661 0.0000 12.9945 0.0000
# 2 38.2397 50.6899 24.5948 0.0000 4.2770 0.0000
# 3 48.7661 24.5948 81.4263 0.0000 1.8073 0.0000
# 4 0.0000 0.0000 0.0000 22.5204 0.0000 -20.9619
# 5 12.9945 4.2770 1.8073 0.0000 39.1896 0.0000
# 6 0.0000 0.0000 0.0000 -20.9619 0.0000 102.4309
#
#
#
# Elastic Compliance Matrix: (Units=1/GPa)
#
#
# Indices 1 2 3 4 5 6 
#
# 1 0.013455 -0.007017 -0.005863 0.000000 -0.003425 0.000000
# 2 -0.007017 0.026966 -0.003933 0.000000 -0.000435 0.000000
# 3 -0.005863 -0.003933 0.016945 0.000000 0.001592 0.000000
# 4 0.000000 0.000000 0.000000 0.054853 0.000000 0.011225
# 5 -0.003425 -0.000435 0.001592 0.000000 0.026627 0.000000
# 6 0.000000 0.000000 0.000000 0.011225 0.000000 0.012060
#
#
# Mechanical properties :
#
#
# Convention : Reuss Voigt Hill
#
# Bulk Modulus (GPa) = 42.12146 52.68184 47.40165
# Shear Modulus (GPa) = 25.98146 42.11717 34.04932
#
# Velocity S-wave (km/s) = 3.70993 4.72350 4.24706
# Velocity P-wave (km/s) = 6.37692 7.59319 7.01148
#
# Compressibility (1/GPa) = 0.02374087
#
# Stress axis : x y z
#
# Youngs Moduli (GPa) = 74.32049 37.08341 59.01443
#
# Poissons Ratio (x) = 0.26020 0.34600
# Poissons Ratio (y) = 0.52149 0.23211
# Poissons Ratio (z) = 0.43573 0.14586
#
# Static dielectric constant tensor:
#      x y z
#    x 4.051170 0.000000 0.159190 
#    y 0.000000 3.127100 0.000000 
#    z 0.159190 0.000000 3.992240 
# 
# 
# High freq. dielectric constant tensor:
#      x y z
#    x 1.753450 0.000000 -0.001050 
#    y 0.000000 1.688660 0.000000 
#    z -0.001050 0.000000 1.743780 
# 
# From -- ./inp_files/12776.got.cif
#   From: 2010.06.25/outbox.cif.g09.slc.cpg/sg12_7_cif.got.tgz:12776.got - 2010.06.28 00:19:55.
