data_PCOD8090248
_publ_section_title
;
Structure prediction by ZEFSAII (Michael W. Deem and Ramdas Pophale) SiO2 
 PCOD8090248
Probable space group: C 2/M
;
_chemical_formula_sum "Si O2"
_cell_formula_units_Z 64
_cell_length_a 15.277371
_cell_length_b 8.668352
_cell_length_c 30.860366
_cell_angle_alpha 90.000000
_cell_angle_beta 51.032997
_cell_angle_gamma 90.000000
_cell_volume 3177.541630
_symmetry_space_group_name_H-M "C 2/M"
_symmetry_group_IT_number 12
_symmetry_cell_setting 'monoclinic'
loop_
_space_group_symop_operation_xyz
x,y,z
-x,y,-z
-x,-y,-z
x,-y,z
1/2+x,1/2+y,z
1/2-x,1/2+y,-z
1/2-x,1/2-y,-z
1/2+x,1/2-y,z
loop_
_atom_site_type_symbol
_atom_site_label
_atom_site_fract_x
_atom_site_fract_y
_atom_site_fract_z
Si Si1 0.301124 0.181565 0.864837
Si Si2 0.323474 0.821982 0.328872
Si Si3 0.436979 0.319216 0.745009
Si Si4 0.148713 0.182366 0.059204
Si Si5 0.077015 0.176637 0.554388
Si Si6 0.371285 0.320204 0.671960
Si Si7 0.451587 0.682928 0.059979
Si Si8 0.778384 0.674949 0.558756
O O1 0.381074 0.222444 0.800396
O O2 0.350240 0.260529 0.892191
O O3 0.175428 0.244164 0.893799
O O4 0.300594 0.000000 0.872935
O O5 0.429748 0.709658 0.296375
O O6 0.254486 0.789453 0.306028
O O7 0.240173 0.785102 0.394414
O O8 0.361613 0.000000 0.319447
O O9 0.413841 0.500000 0.759082
O O10 0.384356 0.254451 0.716485
O O11 0.030684 0.238271 0.074814
O O12 0.159224 0.000000 0.054532
O O13 0.250000 0.250000 0.000000
O O14 0.109471 0.272516 0.501502
O O15 0.171748 0.192977 0.561136
O O16 0.963567 0.250836 0.610163
O O17 0.060745 0.000000 0.545157
O O18 0.400822 0.500000 0.665337
O O19 0.450765 0.500000 0.057573
O O20 0.500000 0.751511 0.000000
O O21 0.793459 0.500000 0.569949
#
# Coordination Sequence:
#
# PCOD8090248 Si02
#       8
#     8   8   8   8   8   8   8   8
#     4  11  23  41  63  90 121 158 201 245 294 350
#     4  11  22  38  62  89 115 153 200 245 297 356
#     4  11  23  44  64  84 118 156 197 247 299 349
#     4  11  21  37  62  93 126 162 198 239 290 345
#     4   9  17  34  57  81 112 153 196 239 295 357
#     4   9  20  39  62  84 113 155 199 244 295 355
#     4   9  18  36  61  88 123 161 194 236 289 344
#     4  10  19  33  55  85 119 153 192 242 298 354
#
# _framework density 20.141356999999999
#
# number of rings (size 3 to 8) (size 9 to 14) (size 15 to 20)
#    0.000    1.875    2.500    1.875    0.000    2.000 
#    0.000   11.875    0.000    0.000    0.000    0.000 
#    0.000    0.000    0.000    0.000    0.000    0.000 
#
# Total GULP energy -396849.788490 kJ/mol
# GULP energy per Si atom -12401.555890 kJ/mol
# Density = 2.009551 g / cm^3
# Si number density = 20.141357 Si / 1000 Ang^3
#
#
#
# Elastic Constant Matrix: (Units=GPa)
#
#
# Indices 1 2 3 4 5 6 
#
# 1 132.3365 30.5726 51.9887 0.0004 12.5467 0.0009
# 2 30.5726 51.4293 12.6216 0.0024 3.1318 0.0017
# 3 51.9887 12.6216 113.5844 0.0006 16.4446 0.0007
# 4 0.0004 0.0024 0.0006 30.8643 0.0007 0.2157
# 5 12.5467 3.1318 16.4446 0.0007 14.3611 0.0009
# 6 0.0009 0.0017 0.0007 0.2157 0.0009 24.4006
#
#
#
# Elastic Compliance Matrix: (Units=1/GPa)
#
#
# Indices 1 2 3 4 5 6 
#
# 1 0.010565 -0.005136 -0.003705 0.000000 -0.003868 0.000000
# 2 -0.005136 0.022543 -0.000110 -0.000002 -0.000303 -0.000001
# 3 -0.003705 -0.000110 0.012035 0.000000 -0.010520 0.000000
# 4 0.000000 -0.000002 0.000000 0.032402 -0.000002 -0.000286
# 5 -0.003868 -0.000303 -0.010520 -0.000002 0.085124 -0.000003
# 6 0.000000 -0.000001 0.000000 -0.000286 -0.000003 0.040985
#
#
# Mechanical properties :
#
#
# Convention : Reuss Voigt Hill
#
# Bulk Modulus (GPa) = 36.71012 54.19068 45.45040
# Shear Modulus (GPa) = 21.67910 27.40303 24.54106
#
# Velocity S-wave (km/s) = 3.28433 3.69254 3.49440
# Velocity P-wave (km/s) = 5.71387 6.71889 6.23665
#
# Compressibility (1/GPa) = 0.02724044
#
# Stress axis : x y z
#
# Youngs Moduli (GPa) = 94.64994 44.36022 83.08902
#
# Poissons Ratio (x) = 0.22782 0.30786
# Poissons Ratio (y) = 0.48610 0.00918
# Poissons Ratio (z) = 0.35069 0.00490
#
# Static dielectric constant tensor:
#      x y z
#    x 3.865370 0.000000 0.036000 
#    y 0.000000 3.451370 0.000000 
#    z 0.036000 0.000000 3.779840 
# 
# 
# High freq. dielectric constant tensor:
#      x y z
#    x 1.794370 0.000000 0.001800 
#    y 0.000000 1.766260 0.000000 
#    z 0.001800 0.000000 1.786070 
# 
# From -- ./inp_files/375508.got.cif
#   From: 2010.06.25/outbox.cif.g09.slc.cpg/sg12_188_cif.got.tgz:375508.got - 2010.06.28 00:19:55.
