data_PCOD8090264
_publ_section_title
;
Structure prediction by ZEFSAII (Michael W. Deem and Ramdas Pophale) SiO2 
 PCOD8090264
Probable space group: C 2/M
;
_chemical_formula_sum "Si O2"
_cell_formula_units_Z 64
_cell_length_a 18.201106
_cell_length_b 13.744933
_cell_length_c 14.920989
_cell_angle_alpha 90.000000
_cell_angle_beta 51.926389
_cell_angle_gamma 90.000000
_cell_volume 2938.553861
_symmetry_space_group_name_H-M "C 2/M"
_symmetry_group_IT_number 12
_symmetry_cell_setting 'monoclinic'
loop_
_space_group_symop_operation_xyz
x,y,z
-x,y,-z
-x,-y,-z
x,-y,z
1/2+x,1/2+y,z
1/2-x,1/2+y,-z
1/2-x,1/2-y,-z
1/2+x,1/2-y,z
loop_
_atom_site_type_symbol
_atom_site_label
_atom_site_fract_x
_atom_site_fract_y
_atom_site_fract_z
Si Si1 0.897152 0.895896 0.780682
Si Si2 0.894221 0.107348 0.582611
Si Si3 0.322393 0.888253 0.639391
Si Si4 0.606803 0.885530 0.905950
Si Si5 0.413924 0.185610 0.750456
Si Si6 0.783553 0.285311 0.333888
Si Si7 0.205113 0.390415 0.008561
Si Si8 0.892203 0.392727 0.393570
O O1 0.853155 0.901111 0.714136
O O2 0.955511 0.795554 0.735400
O O3 0.952039 0.000000 0.755834
O O4 0.816583 0.887877 0.915674
O O5 0.822313 0.173795 0.582489
O O6 0.000000 0.151059 0.500000
O O7 0.897364 0.000000 0.535519
O O8 0.376331 0.832153 0.678379
O O9 0.227526 0.829421 0.682870
O O10 0.389244 0.886301 0.503054
O O11 0.297496 0.000000 0.685437
O O12 0.647079 0.834412 0.788271
O O13 0.620209 0.000000 0.882450
O O14 0.500000 0.856022 0.000000
O O15 0.660351 0.845786 0.952698
O O16 0.325590 0.171275 0.882224
O O17 0.498697 0.116187 0.713648
O O18 0.828749 0.308276 0.396998
O O19 0.168747 0.500000 0.050066
O O20 0.858934 0.500000 0.385673
#
# Coordination Sequence:
#
# PCOD8090264 Si02
#       8
#     8   8   8   8   8   8   8   8
#     4  10  21  37  57  88 126 159 204 261 310 361
#     4  10  20  35  60  93 124 159 202 249 308 372
#     4  11  25  43  61  87 123 168 214 255 305 369
#     4  10  19  33  59  94 129 160 196 250 316 376
#     4  12  22  39  65  90 124 168 212 253 312 375
#     4  12  22  41  66  92 124 166 206 256 320 370
#     4  10  19  33  55  88 123 159 206 258 310 367
#     4  11  25  42  64  94 125 160 208 263 314 369
#
# _framework density 21.779419999999998
#
# number of rings (size 3 to 8) (size 9 to 14) (size 15 to 20)
#    0.000    1.250    2.500    4.125    1.750    2.000 
#    0.000    0.625    0.000    0.375    0.000    0.000 
#    0.000    0.000    0.000    0.000    0.000    0.000 
#
# Total GULP energy -396578.052581 kJ/mol
# GULP energy per Si atom -12393.064143 kJ/mol
# Density = 2.172985 g / cm^3
# Si number density = 21.779420 Si / 1000 Ang^3
#
#
#
# Elastic Constant Matrix: (Units=GPa)
#
#
# Indices 1 2 3 4 5 6 
#
# 1 68.8708 24.9763 28.0486 0.0000 -0.6509 0.0000
# 2 24.9763 130.5569 31.4120 0.0000 -3.2737 0.0000
# 3 28.0486 31.4120 97.8181 0.0000 -2.9413 0.0000
# 4 0.0000 0.0000 0.0000 19.2550 0.0000 0.0381
# 5 -0.6509 -3.2737 -2.9413 0.0000 27.2724 0.0000
# 6 0.0000 0.0000 0.0000 0.0381 0.0000 27.4425
#
#
#
# Elastic Compliance Matrix: (Units=1/GPa)
#
#
# Indices 1 2 3 4 5 6 
#
# 1 0.017035 -0.002264 -0.004167 0.000000 -0.000315 0.000000
# 2 -0.002264 0.008616 -0.002095 0.000000 0.000754 0.000000
# 3 -0.004167 -0.002095 0.012119 0.000000 0.000956 0.000000
# 4 0.000000 0.000000 0.000000 0.051935 0.000000 -0.000072
# 5 -0.000315 0.000754 0.000956 0.000000 0.036853 0.000000
# 6 0.000000 0.000000 0.000000 -0.000072 0.000000 0.036440
#
#
# Mechanical properties :
#
#
# Convention : Reuss Voigt Hill
#
# Bulk Modulus (GPa) = 48.26717 51.79107 50.02912
# Shear Modulus (GPa) = 26.74422 28.98123 27.86273
#
# Velocity S-wave (km/s) = 3.50803 3.65179 3.58063
# Velocity P-wave (km/s) = 6.21436 6.45075 6.33366
#
# Compressibility (1/GPa) = 0.02071801
#
# Stress axis : x y z
#
# Youngs Moduli (GPa) = 58.70202 116.06902 82.51256
#
# Poissons Ratio (x) = 0.26281 0.34384
# Poissons Ratio (y) = 0.13291 0.17284
# Poissons Ratio (z) = 0.24462 0.24314
#
# Static dielectric constant tensor:
#      x y z
#    x 3.531030 0.000000 0.085150 
#    y 0.000000 4.241920 0.000000 
#    z 0.085150 0.000000 3.876550 
# 
# 
# High freq. dielectric constant tensor:
#      x y z
#    x 1.814930 0.000000 0.006060 
#    y 0.000000 1.865220 0.000000 
#    z 0.006060 0.000000 1.862210 
# 
# From -- ./inp_files/225664.got.cif
#   From: 2010.06.25/outbox.cif.g09.slc.cpg/sg12_113_cif.got.tgz:225664.got - 2010.06.28 00:19:55.
