data_PCOD8090785
_publ_section_title
;
Structure prediction by ZEFSAII (Michael W. Deem and Ramdas Pophale) SiO2 
 PCOD8090785
Probable space group: C 2/M
;
_chemical_formula_sum "Si O2"
_cell_formula_units_Z 56
_cell_length_a 20.136022
_cell_length_b 9.221957
_cell_length_c 18.604262
_cell_angle_alpha 90.000000
_cell_angle_beta 84.302256
_cell_angle_gamma 90.000000
_cell_volume 3437.623095
_symmetry_space_group_name_H-M "C 2/M"
_symmetry_group_IT_number 12
_symmetry_cell_setting 'monoclinic'
loop_
_space_group_symop_operation_xyz
x,y,z
-x,y,-z
-x,-y,-z
x,-y,z
1/2+x,1/2+y,z
1/2-x,1/2+y,-z
1/2-x,1/2-y,-z
1/2+x,1/2-y,z
loop_
_atom_site_type_symbol
_atom_site_label
_atom_site_fract_x
_atom_site_fract_y
_atom_site_fract_z
Si Si1 0.990042 0.336028 0.777822
Si Si2 0.195003 0.831411 0.550951
Si Si3 0.890642 0.171779 0.190805
Si Si4 0.229971 0.171569 0.703669
Si Si5 0.620721 0.827877 0.320043
Si Si6 0.572530 0.668447 0.466496
Si Si7 0.468978 0.835816 0.075843
O O1 0.007761 0.500000 0.751425
O O2 0.926276 0.278329 0.740967
O O3 0.054355 0.232396 0.757636
O O4 0.975460 0.333582 0.865892
O O5 0.250000 0.750000 0.500000
O O6 0.198162 0.773435 0.632230
O O7 0.122010 0.799624 0.527252
O O8 0.212935 0.000000 0.545368
O O9 0.817619 0.222704 0.225814
O O10 0.905069 0.242021 0.110417
O O11 0.897276 0.000000 0.185419
O O12 0.305030 0.232574 0.705048
O O13 0.232080 0.000000 0.703319
O O14 0.593785 0.760828 0.395930
O O15 0.621760 0.000000 0.329184
O O16 0.500000 0.719523 0.500000
O O17 0.572906 0.500000 0.444439
O O18 0.444792 0.000000 0.062673
O O19 0.500000 0.767057 0.000000
#
# Coordination Sequence:
#
# PCOD8090785 Si02
#       7
#     8   8   8   8   8   8   8
#     4   8  17  31  47  70  93 120 156 188 227 274
#     4  10  19  34  50  66  90 123 161 196 235 284
#     4   9  17  29  49  75  97 122 154 192 233 276
#     4   9  18  31  49  69  93 126 158 192 238 282
#     4  10  19  34  51  66  91 124 160 196 229 279
#     4  10  22  34  47  68  93 120 154 199 246 285
#     4   8  15  30  50  72  99 126 153 188 229 273
#
# _framework density 16.290327000000001
#
# number of rings (size 3 to 8) (size 9 to 14) (size 15 to 20)
#    0.857    2.000    1.429    0.000    2.000    1.143 
#    0.000    2.857    0.000    0.857    0.000    0.000 
#    0.000    0.000    0.000    0.000    0.000    0.000 
#
# Total GULP energy -346911.453526 kJ/mol
# GULP energy per Si atom -12389.694769 kJ/mol
# Density = 1.625325 g / cm^3
# Si number density = 16.290327 Si / 1000 Ang^3
#
#
#
# Elastic Constant Matrix: (Units=GPa)
#
#
# Indices 1 2 3 4 5 6 
#
# 1 121.5178 30.0392 50.5943 0.0000 -21.4410 0.0000
# 2 30.0392 39.6812 25.3394 0.0000 -11.4387 0.0000
# 3 50.5943 25.3394 90.2594 0.0000 -26.8533 0.0000
# 4 0.0000 0.0000 0.0000 23.8208 0.0000 -3.1198
# 5 -21.4410 -11.4387 -26.8533 0.0000 27.8345 0.0000
# 6 0.0000 0.0000 0.0000 -3.1198 0.0000 20.1413
#
#
#
# Elastic Compliance Matrix: (Units=1/GPa)
#
#
# Indices 1 2 3 4 5 6 
#
# 1 0.011846 -0.005431 -0.004298 0.000000 0.002746 0.000000
# 2 -0.005431 0.033936 -0.005019 0.000000 0.004920 0.000000
# 3 -0.004298 -0.005019 0.018653 0.000000 0.012622 0.000000
# 4 0.000000 0.000000 0.000000 0.042849 0.000000 0.006637
# 5 0.002746 0.004920 0.012622 0.000000 0.052241 0.000000
# 6 0.000000 0.000000 0.000000 0.006637 0.000000 0.050677
#
#
# Mechanical properties :
#
#
# Convention : Reuss Voigt Hill
#
# Bulk Modulus (GPa) = 28.62250 51.48934 40.05592
# Shear Modulus (GPa) = 19.89303 24.05835 21.97569
#
# Velocity S-wave (km/s) = 3.49830 3.84715 3.67686
# Velocity P-wave (km/s) = 5.82459 7.17008 6.53207
#
# Compressibility (1/GPa) = 0.03493755
#
# Stress axis : x y z
#
# Youngs Moduli (GPa) = 84.41643 29.46763 53.61153
#
# Poissons Ratio (x) = 0.16004 0.23045
# Poissons Ratio (y) = 0.45847 0.26907
# Poissons Ratio (z) = 0.36286 0.14789
#
# Static dielectric constant tensor:
#      x y z
#    x 3.130640 0.000000 -0.008500 
#    y 0.000000 2.928430 0.000000 
#    z -0.008500 0.000000 3.100520 
# 
# 
# High freq. dielectric constant tensor:
#      x y z
#    x 1.618390 0.000000 -0.003550 
#    y 0.000000 1.613610 0.000000 
#    z -0.003550 0.000000 1.615190 
# 
# From -- ./inp_files/276052.got.cif
#   From: 2010.06.25/outbox.cif.g09.slc.cpg/sg12_139_cif.got.tgz:276052.got - 2010.06.28 00:19:55.
