data_PCOD8090466
_publ_section_title
;
Structure prediction by ZEFSAII (Michael W. Deem and Ramdas Pophale) SiO2 
 PCOD8090466
Probable space group: C 2/M
;
_chemical_formula_sum "Si O2"
_cell_formula_units_Z 64
_cell_length_a 23.072823
_cell_length_b 13.442273
_cell_length_c 12.544222
_cell_angle_alpha 90.000000
_cell_angle_beta 110.341524
_cell_angle_gamma 90.000000
_cell_volume 3647.976493
_symmetry_space_group_name_H-M "C 2/M"
_symmetry_group_IT_number 12
_symmetry_cell_setting 'monoclinic'
loop_
_space_group_symop_operation_xyz
x,y,z
-x,y,-z
-x,-y,-z
x,-y,z
1/2+x,1/2+y,z
1/2-x,1/2+y,-z
1/2-x,1/2-y,-z
1/2+x,1/2-y,z
loop_
_atom_site_type_symbol
_atom_site_label
_atom_site_fract_x
_atom_site_fract_y
_atom_site_fract_z
Si Si1 0.929410 0.316070 0.995539
Si Si2 0.884011 0.888373 0.672548
Si Si3 0.642237 0.114229 0.622392
Si Si4 0.556689 0.113789 0.759931
Si Si5 0.347856 0.887515 0.755903
Si Si6 0.263345 0.719836 0.628819
Si Si7 0.571013 0.192995 0.382637
Si Si8 0.070850 0.106213 0.067204
O O1 0.885385 0.378315 0.889799
O O2 0.904518 0.201468 0.982447
O O3 0.922938 0.361163 0.107800
O O4 0.000000 0.320751 0.000000
O O5 0.812717 0.869244 0.657186
O O6 0.909624 0.809574 0.602721
O O7 0.923398 0.871022 0.804106
O O8 0.891302 0.000000 0.631564
O O9 0.616392 0.130794 0.724426
O O10 0.702009 0.182867 0.647646
O O11 0.588395 0.144611 0.505994
O O12 0.660729 0.000000 0.614397
O O13 0.501847 0.184355 0.683959
O O14 0.533661 0.000000 0.738760
O O15 0.289192 0.813797 0.712467
O O16 0.393215 0.863539 0.687884
O O17 0.323268 0.000000 0.729876
O O18 0.250000 0.750000 0.500000
O O19 0.104688 0.000000 0.060081
O O20 0.000000 0.091298 0.000000
#
# Coordination Sequence:
#
# PCOD8090466 Si02
#       8
#     8   8   8   8   8   8   8   8
#     4  11  19  34  56  86 118 143 181 234 284 340
#     4  10  19  33  56  86 112 139 184 232 277 326
#     4  11  23  39  57  81 115 153 191 228 274 335
#     4  11  23  36  57  85 116 153 182 223 287 345
#     4  11  21  33  56  87 116 141 180 237 290 328
#     4  11  21  37  55  82 110 144 190 233 274 319
#     4  11  19  35  56  87 117 144 181 231 284 333
#     4   9  16  29  50  78 110 141 174 220 275 324
#
# _framework density 17.543973000000001
#
# number of rings (size 3 to 8) (size 9 to 14) (size 15 to 20)
#    0.000    1.375    6.250    3.000    0.000    2.000 
#    0.000    0.625    0.000    3.750    0.000    0.000 
#    0.000    0.000    0.000    0.000    0.000    0.000 
#
# Total GULP energy -396746.464702 kJ/mol
# GULP energy per Si atom -12398.327022 kJ/mol
# Density = 1.750404 g / cm^3
# Si number density = 17.543973 Si / 1000 Ang^3
#
#
#
# Elastic Constant Matrix: (Units=GPa)
#
#
# Indices 1 2 3 4 5 6 
#
# 1 64.7770 48.4777 36.0058 0.0000 -6.1661 0.0000
# 2 48.4777 129.7694 33.5403 0.0000 -4.1240 0.0000
# 3 36.0058 33.5403 104.7530 0.0000 -2.2384 0.0000
# 4 0.0000 0.0000 0.0000 33.8461 0.0000 12.2604
# 5 -6.1661 -4.1240 -2.2384 0.0000 25.5796 0.0000
# 6 0.0000 0.0000 0.0000 12.2604 0.0000 39.7766
#
#
#
# Elastic Compliance Matrix: (Units=1/GPa)
#
#
# Indices 1 2 3 4 5 6 
#
# 1 0.024881 -0.007602 -0.006027 0.000000 0.004245 0.000000
# 2 -0.007602 0.010756 -0.000835 0.000000 -0.000171 0.000000
# 3 -0.006027 -0.000835 0.011874 0.000000 -0.000548 0.000000
# 4 0.000000 0.000000 0.000000 0.033259 0.000000 -0.010251
# 5 0.004245 -0.000171 -0.000548 0.000000 0.040041 0.000000
# 6 0.000000 0.000000 0.000000 -0.010251 0.000000 0.028300
#
#
# Mechanical properties :
#
#
# Convention : Reuss Voigt Hill
#
# Bulk Modulus (GPa) = 53.81374 59.48302 56.64838
# Shear Modulus (GPa) = 27.13944 31.92548 29.53246
#
# Velocity S-wave (km/s) = 3.93738 4.27047 4.10730
# Velocity P-wave (km/s) = 7.17014 7.63509 7.40626
#
# Compressibility (1/GPa) = 0.01858261
#
# Stress axis : x y z
#
# Youngs Moduli (GPa) = 40.19109 92.97022 84.22100
#
# Poissons Ratio (x) = 0.70677 0.50763
# Poissons Ratio (y) = 0.30554 0.07029
# Poissons Ratio (z) = 0.24225 0.07759
#
# Static dielectric constant tensor:
#      x y z
#    x 3.018940 0.000000 0.157360 
#    y 0.000000 3.732500 0.000000 
#    z 0.157360 0.000000 3.275630 
# 
# 
# High freq. dielectric constant tensor:
#      x y z
#    x 1.640300 0.000000 0.022430 
#    y 0.000000 1.694010 0.000000 
#    z 0.022430 0.000000 1.683180 
# 
# From -- ./inp_files/167303.got.cif
#   From: 2010.06.25/outbox.cif.g09.slc.cpg/sg12_84_cif.got.tgz:167303.got - 2010.06.28 00:19:55.
