data_PCOD8090151
_publ_section_title
;
Structure prediction by ZEFSAII (Michael W. Deem and Ramdas Pophale) SiO2 
 PCOD8090151
Probable space group: C 2/M
;
_chemical_formula_sum "Si O2"
_cell_formula_units_Z 32
_cell_length_a 8.394192
_cell_length_b 22.890681
_cell_length_c 11.454902
_cell_angle_alpha 90.000000
_cell_angle_beta 143.650946
_cell_angle_gamma 90.000000
_cell_volume 1304.566092
_symmetry_space_group_name_H-M "C 2/M"
_symmetry_group_IT_number 12
_symmetry_cell_setting 'monoclinic'
loop_
_space_group_symop_operation_xyz
x,y,z
-x,y,-z
-x,-y,-z
x,-y,z
1/2+x,1/2+y,z
1/2-x,1/2+y,-z
1/2-x,1/2-y,-z
1/2+x,1/2-y,z
loop_
_atom_site_type_symbol
_atom_site_label
_atom_site_fract_x
_atom_site_fract_y
_atom_site_fract_z
Si Si1 0.739033 0.597674 0.765559
Si Si2 0.831660 0.564023 0.563233
Si Si3 0.127623 0.719660 0.201385
Si Si4 0.210363 0.330719 0.788246
O O1 0.807006 0.562994 0.688490
O O2 0.468706 0.573829 0.667526
O O3 0.669829 0.665125 0.692644
O O4 0.000000 0.592086 0.000000
O O5 0.935287 0.500000 0.583893
O O6 0.037261 0.613914 0.641486
O O7 0.271884 0.782804 0.307855
O O8 0.916018 0.703439 0.175735
O O9 0.000000 0.730994 0.000000
O O10 0.500000 0.355428 0.000000
#
# Coordination Sequence:
#
# PCOD8090151 Si02
#       4
#     8   8   8   8
#     4   9  18  34  57  82 109 143 186 237 280 322
#     4  10  21  34  52  82 113 148 191 223 269 340
#     4   9  17  31  55  84 109 141 184 230 285 334
#     4  10  19  33  55  82 114 147 182 231 280 330
#
# _framework density 24.529230999999999
#
# number of rings (size 3 to 8) (size 9 to 14) (size 15 to 20)
#    0.000    2.500    0.000    4.500    0.000    3.500 
#    0.000    0.000    0.000   22.500    0.000   31.500 
#    0.000    1.000    0.000    0.000    0.000    0.000 
#
# Total GULP energy -198209.929922 kJ/mol
# GULP energy per Si atom -12388.120620 kJ/mol
# Density = 2.447340 g / cm^3
# Si number density = 24.529231 Si / 1000 Ang^3
#
#
#
# Elastic Constant Matrix: (Units=GPa)
#
#
# Indices 1 2 3 4 5 6 
#
# 1 54.4994 34.7769 30.0228 0.0000 24.7636 0.0000
# 2 34.7769 224.7664 67.5606 0.0000 33.7159 0.0000
# 3 30.0228 67.5606 153.3627 0.0000 13.3744 0.0000
# 4 0.0000 0.0000 0.0000 24.0929 0.0000 -3.2401
# 5 24.7636 33.7159 13.3744 0.0000 28.2165 0.0000
# 6 0.0000 0.0000 0.0000 -3.2401 0.0000 4.4582
#
#
#
# Elastic Compliance Matrix: (Units=1/GPa)
#
#
# Indices 1 2 3 4 5 6 
#
# 1 0.032805 0.000242 -0.004165 0.000000 -0.027106 0.000000
# 2 0.000242 0.006012 -0.002139 0.000000 -0.006382 0.000000
# 3 -0.004165 -0.002139 0.008070 0.000000 0.002386 0.000000
# 4 0.000000 0.000000 0.000000 0.046002 0.000000 0.033433
# 5 -0.027106 -0.006382 0.002386 0.000000 0.065724 0.000000
# 6 0.000000 0.000000 0.000000 0.033433 0.000000 0.248602
#
#
# Mechanical properties :
#
#
# Convention : Reuss Voigt Hill
#
# Bulk Modulus (GPa) = 28.76607 77.48324 53.12466
# Shear Modulus (GPa) = 11.60289 31.37140 21.48715
#
# Velocity S-wave (km/s) = 2.17727 3.58011 2.96291
# Velocity P-wave (km/s) = 4.25128 6.98185 5.78012
#
# Compressibility (1/GPa) = 0.03476318
#
# Stress axis : x y z
#
# Youngs Moduli (GPa) = 30.48308 166.33439 123.91377
#
# Poissons Ratio (x) = -0.04027 0.51608
# Poissons Ratio (y) = -0.00738 0.26509
# Poissons Ratio (z) = 0.12696 0.35583
#
# Static dielectric constant tensor:
#      x y z
#    x 4.108220 0.000000 0.207460 
#    y 0.000000 4.846160 0.000000 
#    z 0.207460 0.000000 4.354640 
# 
# 
# High freq. dielectric constant tensor:
#      x y z
#    x 1.950760 0.000000 0.009440 
#    y 0.000000 1.987080 0.000000 
#    z 0.009440 0.000000 1.969400 
# 
# From -- ./inp_files/200063.got.cif
#   From: 2010.06.25/outbox.cif.g09.slc.cpg/sg12_101_cif.got.tgz:200063.got - 2010.06.28 00:19:55.
