data_PCOD8090540
_publ_section_title
;
Structure prediction by ZEFSAII (Michael W. Deem and Ramdas Pophale) SiO2 
 PCOD8090540
Probable space group: C 2/M
;
_chemical_formula_sum "Si O2"
_cell_formula_units_Z 48
_cell_length_a 20.290928
_cell_length_b 8.927462
_cell_length_c 23.045194
_cell_angle_alpha 90.000000
_cell_angle_beta 38.976813
_cell_angle_gamma 90.000000
_cell_volume 2625.820073
_symmetry_space_group_name_H-M "C 2/M"
_symmetry_group_IT_number 12
_symmetry_cell_setting 'monoclinic'
loop_
_space_group_symop_operation_xyz
x,y,z
-x,y,-z
-x,-y,-z
x,-y,z
1/2+x,1/2+y,z
1/2-x,1/2+y,-z
1/2-x,1/2-y,-z
1/2+x,1/2-y,z
loop_
_atom_site_type_symbol
_atom_site_label
_atom_site_fract_x
_atom_site_fract_y
_atom_site_fract_z
Si Si1 0.359419 0.671807 0.934024
Si Si2 0.858083 0.323415 0.445124
Si Si3 0.827331 0.672609 0.265040
Si Si4 0.395449 0.328788 0.538476
Si Si5 0.543955 0.325815 0.724246
Si Si6 0.480215 0.677346 0.079419
O O1 0.334349 0.500000 0.961585
O O2 0.428374 0.698202 0.829332
O O3 0.422689 0.732715 0.947028
O O4 0.250000 0.750000 0.000000
O O5 0.849793 0.500000 0.443305
O O6 0.750000 0.250000 0.500000
O O7 0.884696 0.283128 0.492459
O O8 0.950337 0.259751 0.340823
O O9 0.861950 0.500000 0.245400
O O10 0.701735 0.689698 0.350608
O O11 0.869160 0.759512 0.292396
O O12 0.873853 0.744133 0.174342
O O13 0.500000 0.281983 0.500000
O O14 0.401125 0.500000 0.511843
O O15 0.569604 0.500000 0.697896
O O16 0.464904 0.500000 0.096041
O O17 0.500000 0.727161 0.000000
#
# Coordination Sequence:
#
# PCOD8090540 Si02
#       6
#     8   8   8   8   8   8
#     4   9  19  35  56  81 110 144 177 222 280 325
#     4  12  23  36  59  87 113 146 190 235 277 334
#     4  10  19  33  57  84 109 144 187 230 278 331
#     4  10  22  40  58  80 117 154 184 229 286 334
#     4  10  20  36  58  83 112 148 187 229 278 331
#     4   9  19  37  58  78 106 145 186 228 276 328
#
# _framework density 18.280003000000001
#
# number of rings (size 3 to 8) (size 9 to 14) (size 15 to 20)
#    0.000    2.000    1.667    3.500    0.000    4.667 
#    3.000    0.000    0.000    0.000    0.000    0.000 
#    0.000    0.000    0.000    0.000    0.000    0.000 
#
# Total GULP energy -297637.896707 kJ/mol
# GULP energy per Si atom -12401.579029 kJ/mol
# Density = 1.823840 g / cm^3
# Si number density = 18.280003 Si / 1000 Ang^3
#
#
#
# Elastic Constant Matrix: (Units=GPa)
#
#
# Indices 1 2 3 4 5 6 
#
# 1 95.8811 49.1588 71.8295 0.0000 -2.2811 0.0001
# 2 49.1588 109.4668 63.9181 0.0002 2.2112 0.0000
# 3 71.8295 63.9181 133.8224 0.0001 5.3860 0.0000
# 4 0.0000 0.0002 0.0001 34.2509 0.0000 2.7135
# 5 -2.2811 2.2112 5.3860 0.0000 36.2936 0.0000
# 6 0.0001 0.0000 0.0000 2.7135 0.0000 26.7264
#
#
#
# Elastic Compliance Matrix: (Units=1/GPa)
#
#
# Indices 1 2 3 4 5 6 
#
# 1 0.018584 -0.003484 -0.008417 0.000000 0.002629 0.000000
# 2 -0.003484 0.013322 -0.004478 0.000000 -0.000366 0.000000
# 3 -0.008417 -0.004478 0.014224 0.000000 -0.002367 0.000000
# 4 0.000000 0.000000 0.000000 0.029433 0.000000 -0.002988
# 5 0.002629 -0.000366 -0.002367 0.000000 0.028092 0.000000
# 6 0.000000 0.000000 0.000000 -0.002988 0.000000 0.037720
#
#
# Mechanical properties :
#
#
# Convention : Reuss Voigt Hill
#
# Bulk Modulus (GPa) = 74.78085 78.77592 76.77839
# Shear Modulus (GPa) = 27.99706 29.73843 28.86775
#
# Velocity S-wave (km/s) = 3.91777 4.03777 3.97822
# Velocity P-wave (km/s) = 7.83981 8.05765 7.94948
#
# Compressibility (1/GPa) = 0.01337241
#
# Stress axis : x y z
#
# Youngs Moduli (GPa) = 53.81044 75.06336 70.30163
#
# Poissons Ratio (x) = 0.26153 0.59170
# Poissons Ratio (y) = 0.18748 0.31483
# Poissons Ratio (z) = 0.45290 0.33615
#
# Static dielectric constant tensor:
#      x y z
#    x 3.367380 0.000000 0.159500 
#    y 0.000000 3.427850 0.000000 
#    z 0.159500 0.000000 3.695850 
# 
# 
# High freq. dielectric constant tensor:
#      x y z
#    x 1.686040 0.000000 0.003370 
#    y 0.000000 1.714520 0.000000 
#    z 0.003370 0.000000 1.720430 
# 
# From -- ./inp_files/345385.got.cif
#   From: 2010.06.25/outbox.cif.g09.slc.cpg/sg12_173_cif.got.tgz:345385.got - 2010.06.28 00:19:55.
