data_PCOD8090839
_publ_section_title
;
Structure prediction by ZEFSAII (Michael W. Deem and Ramdas Pophale) SiO2 
 PCOD8090839
Probable space group: C 2/M
;
_chemical_formula_sum "Si O2"
_cell_formula_units_Z 56
_cell_length_a 23.697647
_cell_length_b 9.086343
_cell_length_c 15.738265
_cell_angle_alpha 90.000000
_cell_angle_beta 63.164307
_cell_angle_gamma 90.000000
_cell_volume 3023.879073
_symmetry_space_group_name_H-M "C 2/M"
_symmetry_group_IT_number 12
_symmetry_cell_setting 'monoclinic'
loop_
_space_group_symop_operation_xyz
x,y,z
-x,y,-z
-x,-y,-z
x,-y,z
1/2+x,1/2+y,z
1/2-x,1/2+y,-z
1/2-x,1/2-y,-z
1/2+x,1/2-y,z
loop_
_atom_site_type_symbol
_atom_site_label
_atom_site_fract_x
_atom_site_fract_y
_atom_site_fract_z
Si Si1 0.152453 0.327445 0.075781
Si Si2 0.037159 0.828626 0.230594
Si Si3 0.767139 0.826603 0.116258
Si Si4 0.606003 0.326605 0.665987
Si Si5 0.719295 0.326314 0.702855
Si Si6 0.153017 0.326961 0.465044
Si Si7 0.064062 0.167183 0.405481
O O1 0.148092 0.500000 0.063450
O O2 0.082727 0.265322 0.139838
O O3 0.198530 0.288414 0.123489
O O4 0.178025 0.253461 0.973070
O O5 0.051354 0.788146 0.317775
O O6 0.964946 0.783124 0.258977
O O7 0.048574 0.000000 0.204537
O O8 0.770076 0.761768 0.209916
O O9 0.780256 0.000000 0.103357
O O10 0.611234 0.500000 0.646566
O O11 0.652660 0.272351 0.709195
O O12 0.625297 0.252765 0.565201
O O13 0.720586 0.500000 0.711099
O O14 0.774623 0.277264 0.600594
O O15 0.146642 0.500000 0.482763
O O16 0.115123 0.280151 0.406830
O O17 0.000000 0.186338 0.500000
O O18 0.089211 0.000000 0.396265
#
# Coordination Sequence:
#
# PCOD8090839 Si02
#       7
#     8   8   8   8   8   8   8
#     4  10  20  34  56  83 110 135 164 212 273 322
#     4  10  20  34  54  77 104 140 180 215 256 310
#     4   9  18  36  58  80 105 133 173 218 261 314
#     4  10  20  37  55  73 104 146 185 218 255 309
#     4   9  19  35  56  78 103 138 181 225 263 307
#     4  11  21  33  52  81 110 139 176 221 272 313
#     4  10  19  34  52  74 105 140 177 216 255 305
#
# _framework density 18.519258000000001
#
# number of rings (size 3 to 8) (size 9 to 14) (size 15 to 20)
#    0.000    2.143    1.429    2.143    0.000    3.143 
#    0.000    3.571    0.000    4.286    0.000    0.000 
#    0.000    0.000    0.000    0.000    0.000    0.000 
#
# Total GULP energy -347237.198967 kJ/mol
# GULP energy per Si atom -12401.328535 kJ/mol
# Density = 1.847711 g / cm^3
# Si number density = 18.519258 Si / 1000 Ang^3
#
#
#
# Elastic Constant Matrix: (Units=GPa)
#
#
# Indices 1 2 3 4 5 6 
#
# 1 116.5818 34.1742 42.4023 0.0000 -14.9327 0.0000
# 2 34.1742 44.9250 32.9808 0.0001 -11.3088 -0.0001
# 3 42.4023 32.9808 72.3139 0.0000 -22.1467 0.0000
# 4 0.0000 0.0001 0.0000 49.2848 0.0000 -43.3943
# 5 -14.9327 -11.3088 -22.1467 0.0000 28.0801 0.0000
# 6 0.0000 -0.0001 0.0000 -43.3943 0.0000 95.8712
#
#
#
# Elastic Compliance Matrix: (Units=1/GPa)
#
#
# Indices 1 2 3 4 5 6 
#
# 1 0.011867 -0.005861 -0.004055 0.000000 0.000752 0.000000
# 2 -0.005861 0.036435 -0.012712 0.000000 0.001531 0.000000
# 3 -0.004055 -0.012712 0.026073 0.000000 0.013288 0.000000
# 4 0.000000 0.000000 0.000000 0.033734 0.000000 0.015269
# 5 0.000752 0.001531 0.013288 0.000000 0.047109 0.000000
# 6 0.000000 0.000000 0.000000 0.015269 0.000000 0.017342
#
#
# Mechanical properties :
#
#
# Convention : Reuss Voigt Hill
#
# Bulk Modulus (GPa) = 34.34018 50.32612 42.33315
# Shear Modulus (GPa) = 21.97577 42.93146 32.45362
#
# Velocity S-wave (km/s) = 3.44851 4.82000 4.19074
# Velocity P-wave (km/s) = 5.86852 7.62958 6.80625
#
# Compressibility (1/GPa) = 0.02912040
#
# Stress axis : x y z
#
# Youngs Moduli (GPa) = 84.26821 27.44600 38.35325
#
# Poissons Ratio (x) = 0.16086 0.15552
# Poissons Ratio (y) = 0.49389 0.48754
# Poissons Ratio (z) = 0.34170 0.34889
#
# Static dielectric constant tensor:
#      x y z
#    x 3.651300 0.000000 -0.005270 
#    y 0.000000 3.227440 0.000000 
#    z -0.005270 0.000000 3.430530 
# 
# 
# High freq. dielectric constant tensor:
#      x y z
#    x 1.719840 0.000000 -0.006820 
#    y 0.000000 1.702420 0.000000 
#    z -0.006820 0.000000 1.718360 
# 
# From -- ./inp_files/238323.got.cif
#   From: 2010.06.25/outbox.cif.g09.slc.cpg/sg12_120_cif.got.tgz:238323.got - 2010.06.28 00:19:55.
