data_PCOD8090370
_publ_section_title
;
Structure prediction by ZEFSAII (Michael W. Deem and Ramdas Pophale) SiO2 
 PCOD8090370
Probable space group: C 2/M
;
_chemical_formula_sum "Si O2"
_cell_formula_units_Z 64
_cell_length_a 31.986064
_cell_length_b 9.508438
_cell_length_c 24.357535
_cell_angle_alpha 90.000000
_cell_angle_beta 27.213173
_cell_angle_gamma 90.000000
_cell_volume 3387.714471
_symmetry_space_group_name_H-M "C 2/M"
_symmetry_group_IT_number 12
_symmetry_cell_setting 'monoclinic'
loop_
_space_group_symop_operation_xyz
x,y,z
-x,y,-z
-x,-y,-z
x,-y,z
1/2+x,1/2+y,z
1/2-x,1/2+y,-z
1/2-x,1/2-y,-z
1/2+x,1/2-y,z
loop_
_atom_site_type_symbol
_atom_site_label
_atom_site_fract_x
_atom_site_fract_y
_atom_site_fract_z
Si Si1 0.385733 0.664697 0.991084
Si Si2 0.520875 0.663686 0.231490
Si Si3 0.819152 0.665217 0.758179
Si Si4 0.962510 0.332588 0.679240
Si Si5 0.483053 0.163199 0.083117
Si Si6 0.352500 0.835762 0.597282
Si Si7 0.277401 0.158885 0.318545
Si Si8 0.316400 0.658396 0.458146
O O1 0.392650 0.500000 0.997237
O O2 0.411899 0.693089 0.897447
O O3 0.452046 0.744846 0.954811
O O4 0.283553 0.725860 0.118147
O O5 0.520251 0.500000 0.249748
O O6 0.553609 0.757143 0.244129
O O7 0.419870 0.711684 0.330617
O O8 0.813050 0.500000 0.773154
O O9 0.882940 0.724746 0.732089
O O10 0.866026 0.702824 0.645368
O O11 0.958586 0.500000 0.692134
O O12 0.058828 0.286775 0.540030
O O13 0.378605 0.205638 0.218734
O O14 0.502177 0.000000 0.073609
O O15 0.500000 0.198897 0.000000
O O16 0.261156 0.757675 0.684075
O O17 0.334575 0.000000 0.610349
O O18 0.208922 0.171739 0.448975
O O19 0.281555 0.000000 0.290635
O O20 0.306259 0.500000 0.448464
O O21 0.250000 0.750000 0.500000
#
# Coordination Sequence:
#
# PCOD8090370 Si02
#       8
#     8   8   8   8   8   8   8   8
#     4  10  21  37  57  79 107 146 184 221 267 317
#     4  10  21  37  54  77 111 143 176 223 270 314
#     4   9  19  36  56  80 109 139 178 227 273 316
#     4  10  20  35  57  82 107 141 181 222 271 322
#     4  10  21  36  54  79 111 144 179 221 268 319
#     4  10  19  33  56  83 108 137 178 226 269 318
#     4  10  20  34  52  75 107 143 171 211 272 320
#     4  10  20  33  50  72 101 135 171 213 257 306
#
# _framework density 18.891793
#
# number of rings (size 3 to 8) (size 9 to 14) (size 15 to 20)
#    0.000    2.125    1.250    1.875    0.000    4.250 
#    0.000    1.250    0.000    1.500    0.000    0.000 
#    0.000    0.000    0.000    0.000    0.000    0.000 
#
# Total GULP energy -396858.230610 kJ/mol
# GULP energy per Si atom -12401.819707 kJ/mol
# Density = 1.884879 g / cm^3
# Si number density = 18.891793 Si / 1000 Ang^3
#
#
#
# Elastic Constant Matrix: (Units=GPa)
#
#
# Indices 1 2 3 4 5 6 
#
# 1 136.5932 60.5179 41.7188 -0.0080 -14.9344 0.0060
# 2 60.5179 54.5980 30.8270 -0.0385 -7.5139 0.0163
# 3 41.7188 30.8270 96.4056 -0.0210 -5.6789 0.0154
# 4 -0.0080 -0.0385 -0.0210 17.0810 0.0070 0.3919
# 5 -14.9344 -7.5139 -5.6789 0.0070 31.4636 -0.0030
# 6 0.0060 0.0163 0.0154 0.3919 -0.0030 32.7298
#
#
#
# Elastic Compliance Matrix: (Units=1/GPa)
#
#
# Indices 1 2 3 4 5 6 
#
# 1 0.014833 -0.015239 -0.001360 -0.000031 0.003156 0.000006
# 2 -0.015239 0.038541 -0.005674 0.000073 0.000947 -0.000015
# 3 -0.001360 -0.005674 0.012794 0.000002 0.000309 -0.000003
# 4 -0.000031 0.000073 0.000002 0.058561 -0.000010 -0.000701
# 5 0.003156 0.000947 0.000309 -0.000010 0.033563 0.000002
# 6 0.000006 -0.000015 -0.000003 -0.000701 0.000002 0.030562
#
#
# Mechanical properties :
#
#
# Convention : Reuss Voigt Hill
#
# Bulk Modulus (GPa) = 46.24889 61.52491 53.88690
# Shear Modulus (GPa) = 20.78082 26.55709 23.66896
#
# Velocity S-wave (km/s) = 3.32021 3.75340 3.54343
# Velocity P-wave (km/s) = 6.26358 7.17089 6.73254
#
# Compressibility (1/GPa) = 0.02162214
#
# Stress axis : x y z
#
# Youngs Moduli (GPa) = 67.41598 25.94633 78.16286
#
# Poissons Ratio (x) = 0.39541 0.10631
# Poissons Ratio (y) = 1.02738 0.44346
# Poissons Ratio (z) = 0.09169 0.14721
#
# Static dielectric constant tensor:
#      x y z
#    x 3.451190 0.000010 0.038510 
#    y 0.000010 3.293990 0.000030 
#    z 0.038510 0.000030 3.799710 
# 
# 
# High freq. dielectric constant tensor:
#      x y z
#    x 1.737070 0.000000 -0.000300 
#    y 0.000000 1.711920 0.000000 
#    z -0.000300 0.000000 1.747650 
# 
# From -- ./inp_files/250094.got.cif
#   From: 2010.06.25/outbox.cif.g09.slc.cpg/sg12_126_cif.got.tgz:250094.got - 2010.06.28 00:19:55.
