data_PCOD8090228
_publ_section_title
;
Structure prediction by ZEFSAII (Michael W. Deem and Ramdas Pophale) SiO2 
 PCOD8090228
Probable space group: C 2/M
;
_chemical_formula_sum "Si O2"
_cell_formula_units_Z 48
_cell_length_a 9.664858
_cell_length_b 20.294868
_cell_length_c 12.234220
_cell_angle_alpha 90.000000
_cell_angle_beta 71.006948
_cell_angle_gamma 90.000000
_cell_volume 2269.061099
_symmetry_space_group_name_H-M "C 2/M"
_symmetry_group_IT_number 12
_symmetry_cell_setting 'monoclinic'
loop_
_space_group_symop_operation_xyz
x,y,z
-x,y,-z
-x,-y,-z
x,-y,z
1/2+x,1/2+y,z
1/2-x,1/2+y,-z
1/2-x,1/2-y,-z
1/2+x,1/2-y,z
loop_
_atom_site_type_symbol
_atom_site_label
_atom_site_fract_x
_atom_site_fract_y
_atom_site_fract_z
Si Si1 0.020398 0.927120 0.878643
Si Si2 0.715343 0.704802 0.611838
Si Si3 0.955197 0.374128 0.836482
Si Si4 0.732084 0.120842 0.901700
Si Si5 0.399750 0.263541 0.757820
Si Si6 0.794106 0.576467 0.678278
O O1 0.865356 0.930766 0.855861
O O2 0.147134 0.895124 0.774088
O O3 0.080503 0.000000 0.887433
O O4 0.000000 0.888998 0.000000
O O5 0.750000 0.750000 0.500000
O O6 0.539264 0.698915 0.669177
O O7 0.786459 0.740722 0.696182
O O8 0.795665 0.631343 0.580049
O O9 0.962897 0.297138 0.810135
O O10 0.923197 0.416115 0.734473
O O11 0.113426 0.396392 0.839945
O O12 0.834253 0.386432 0.960279
O O13 0.809218 0.191489 0.865252
O O14 0.789424 0.500000 0.636878
#
# Coordination Sequence:
#
# PCOD8090228 Si02
#       6
#     8   8   8   8   8   8
#     4  10  19  33  55  84 119 163 204 237 291 364
#     4  11  23  40  66  88 115 156 207 261 315 367
#     4  10  22  34  54  87 126 164 200 239 300 368
#     4  11  20  34  54  86 127 165 201 237 299 361
#     4  11  21  39  56  87 120 155 198 258 308 358
#     4  10  21  39  62  88 122 160 204 255 305 362
#
# _framework density 21.154123999999999
#
# number of rings (size 3 to 8) (size 9 to 14) (size 15 to 20)
#    0.000    1.500    5.000    1.000    0.000    0.667 
#    3.000    1.667    0.000   11.000    0.000    0.000 
#    0.000    0.000    0.000    0.000    0.000    0.000 
#
# Total GULP energy -297346.909360 kJ/mol
# GULP energy per Si atom -12389.454557 kJ/mol
# Density = 2.110598 g / cm^3
# Si number density = 21.154124 Si / 1000 Ang^3
#
#
#
# Elastic Constant Matrix: (Units=GPa)
#
#
# Indices 1 2 3 4 5 6 
#
# 1 114.5784 13.3525 15.5823 0.0000 0.0553 0.0000
# 2 13.3525 104.2503 20.4765 0.0000 13.2392 0.0000
# 3 15.5823 20.4765 41.4056 0.0000 10.1704 0.0000
# 4 0.0000 0.0000 0.0000 18.6168 0.0000 3.4950
# 5 0.0553 13.2392 10.1704 0.0000 18.8336 0.0000
# 6 0.0000 0.0000 0.0000 3.4950 0.0000 25.7908
#
#
#
# Elastic Compliance Matrix: (Units=1/GPa)
#
#
# Indices 1 2 3 4 5 6 
#
# 1 0.009327 -0.000782 -0.003749 0.000000 0.002547 0.000000
# 2 -0.000782 0.011177 -0.003809 0.000000 -0.005798 0.000000
# 3 -0.003749 -0.003809 0.030882 0.000000 -0.013988 0.000000
# 4 0.000000 0.000000 0.000000 0.055117 0.000000 -0.007469
# 5 0.002547 -0.005798 -0.013988 0.000000 0.064718 0.000000
# 6 0.000000 0.000000 0.000000 -0.007469 0.000000 0.039786
#
#
# Mechanical properties :
#
#
# Convention : Reuss Voigt Hill
#
# Bulk Modulus (GPa) = 28.81334 39.89519 34.35426
# Shear Modulus (GPa) = 20.89814 26.70312 23.80063
#
# Velocity S-wave (km/s) = 3.14650 3.55676 3.35790
# Velocity P-wave (km/s) = 5.18178 5.98060 5.59546
#
# Compressibility (1/GPa) = 0.03470615
#
# Stress axis : x y z
#
# Youngs Moduli (GPa) = 107.21114 89.47077 32.38145
#
# Poissons Ratio (x) = 0.06994 0.12140
# Poissons Ratio (y) = 0.08380 0.12334
# Poissons Ratio (z) = 0.40195 0.34080
#
# Static dielectric constant tensor:
#      x y z
#    x 4.097720 0.000000 0.011120 
#    y 0.000000 3.827720 0.000000 
#    z 0.011120 0.000000 3.715950 
# 
# 
# High freq. dielectric constant tensor:
#      x y z
#    x 1.849350 0.000000 -0.003670 
#    y 0.000000 1.821180 0.000000 
#    z -0.003670 0.000000 1.795590 
# 
# From -- ./inp_files/122414.got.cif
#   From: 2010.06.25/outbox.cif.g09.slc.cpg/sg12_62_cif.got.tgz:122414.got - 2010.06.28 00:19:55.
