data_PCOD8090041
_publ_section_title
;
Structure prediction by ZEFSAII (Michael W. Deem and Ramdas Pophale) SiO2 
 PCOD8090041
Probable space group: C 2/M
;
_chemical_formula_sum "Si O2"
_cell_formula_units_Z 56
_cell_length_a 13.526318
_cell_length_b 13.859029
_cell_length_c 29.093166
_cell_angle_alpha 90.000000
_cell_angle_beta 147.509697
_cell_angle_gamma 90.000000
_cell_volume 2929.574247
_symmetry_space_group_name_H-M "C 2/M"
_symmetry_group_IT_number 12
_symmetry_cell_setting 'monoclinic'
loop_
_space_group_symop_operation_xyz
x,y,z
-x,y,-z
-x,-y,-z
x,-y,z
1/2+x,1/2+y,z
1/2-x,1/2+y,-z
1/2-x,1/2-y,-z
1/2+x,1/2-y,z
loop_
_atom_site_type_symbol
_atom_site_label
_atom_site_fract_x
_atom_site_fract_y
_atom_site_fract_z
Si Si1 0.640742 0.605937 0.596038
Si Si2 0.355005 0.390103 0.106416
Si Si3 0.435975 0.743994 0.692813
Si Si4 0.234040 0.111642 0.300744
Si Si5 0.380358 0.611867 0.011815
Si Si6 0.459925 0.739538 0.598454
Si Si7 0.265890 0.715642 0.886437
O O1 0.500000 0.597369 0.500000
O O2 0.707033 0.500000 0.637550
O O3 0.807558 0.663629 0.639719
O O4 0.557131 0.656540 0.607757
O O5 0.305928 0.500000 0.100154
O O6 0.574132 0.371481 0.199974
O O7 0.308947 0.368182 0.035081
O O8 0.228705 0.323005 0.089086
O O9 0.339969 0.654761 0.680561
O O10 0.475595 0.706629 0.657301
O O11 0.613878 0.785543 0.787857
O O12 0.426284 0.160933 0.362098
O O13 0.278186 0.000000 0.325451
O O14 0.440483 0.500000 0.030116
O O15 0.545905 0.685176 0.064604
O O16 0.224411 0.640236 0.912593
O O17 0.250000 0.750000 0.500000
#
# Coordination Sequence:
#
# PCOD8090041 Si02
#       7
#     8   8   8   8   8   8   8
#     4  10  21  37  54  76 105 135 170 216 267 317
#     4   9  18  35  56  78 107 143 180 218 263 316
#     4  10  21  36  56  78 106 141 175 223 264 316
#     4   9  20  36  55  80 107 139 180 221 265 317
#     4  10  20  34  54  81 112 141 180 224 258 312
#     4  11  21  35  55  76 105 135 176 219 266 316
#     4  10  19  33  55  80 107 141 179 216 270 309
#
# _framework density 19.115406
#
# number of rings (size 3 to 8) (size 9 to 14) (size 15 to 20)
#    0.000    2.143    1.429    2.143    0.000    2.857 
#    0.000    2.143    0.000    1.714    0.000    0.000 
#    0.000    0.000    0.000    0.000    0.000    0.000 
#
# Total GULP energy -347059.910351 kJ/mol
# GULP energy per Si atom -12394.996798 kJ/mol
# Density = 1.907190 g / cm^3
# Si number density = 19.115406 Si / 1000 Ang^3
#
#
#
# Elastic Constant Matrix: (Units=GPa)
#
#
# Indices 1 2 3 4 5 6 
#
# 1 86.7995 33.1263 23.7543 0.0000 -20.8332 0.0000
# 2 33.1263 108.4358 19.2045 0.0000 -6.6715 0.0000
# 3 23.7543 19.2045 78.5667 0.0000 -18.3545 0.0000
# 4 0.0000 0.0000 0.0000 28.6713 0.0000 0.2562
# 5 -20.8332 -6.6715 -18.3545 0.0000 30.3183 0.0000
# 6 0.0000 0.0000 0.0000 0.2562 0.0000 24.6292
#
#
#
# Elastic Compliance Matrix: (Units=1/GPa)
#
#
# Indices 1 2 3 4 5 6 
#
# 1 0.015601 -0.003923 -0.001695 0.000000 0.008831 0.000000
# 2 -0.003923 0.010643 -0.001745 0.000000 -0.001410 0.000000
# 3 -0.001695 -0.001745 0.015497 0.000000 0.007833 0.000000
# 4 0.000000 0.000000 0.000000 0.034881 0.000000 -0.000363
# 5 0.008831 -0.001410 0.007833 0.000000 0.043483 0.000000
# 6 0.000000 0.000000 0.000000 -0.000363 0.000000 0.040606
#
#
# Mechanical properties :
#
#
# Convention : Reuss Voigt Hill
#
# Bulk Modulus (GPa) = 37.01512 47.33022 42.17267
# Shear Modulus (GPa) = 27.10880 29.90488 28.50684
#
# Velocity S-wave (km/s) = 3.76994 3.95959 3.86593
# Velocity P-wave (km/s) = 6.19322 6.76154 6.48361
#
# Compressibility (1/GPa) = 0.02701599
#
# Stress axis : x y z
#
# Youngs Moduli (GPa) = 64.09722 93.96168 64.52882
#
# Poissons Ratio (x) = 0.36857 0.10938
# Poissons Ratio (y) = 0.25142 0.11259
# Poissons Ratio (z) = 0.10865 0.16395
#
# Static dielectric constant tensor:
#      x y z
#    x 3.407340 0.000000 -0.150330 
#    y 0.000000 3.772670 0.000000 
#    z -0.150330 0.000000 3.706800 
# 
# 
# High freq. dielectric constant tensor:
#      x y z
#    x 1.739570 0.000000 -0.015760 
#    y 0.000000 1.746860 0.000000 
#    z -0.015760 0.000000 1.744620 
# 
# From -- ./inp_files/376407.got.cif
#   From: 2010.06.25/outbox.cif.g09.slc.cpg/sg12_189_cif.got.tgz:376407.got - 2010.06.28 00:19:55.
