data_PCOD8090134
_publ_section_title
;
Structure prediction by ZEFSAII (Michael W. Deem and Ramdas Pophale) SiO2 
 PCOD8090134
Probable space group: C 2/M
;
_chemical_formula_sum "Si O2"
_cell_formula_units_Z 64
_cell_length_a 24.311383
_cell_length_b 8.856758
_cell_length_c 31.941832
_cell_angle_alpha 90.000000
_cell_angle_beta 151.822330
_cell_angle_gamma 90.000000
_cell_volume 3247.707600
_symmetry_space_group_name_H-M "C 2/M"
_symmetry_group_IT_number 12
_symmetry_cell_setting 'monoclinic'
loop_
_space_group_symop_operation_xyz
x,y,z
-x,y,-z
-x,-y,-z
x,-y,z
1/2+x,1/2+y,z
1/2-x,1/2+y,-z
1/2-x,1/2-y,-z
1/2+x,1/2-y,z
loop_
_atom_site_type_symbol
_atom_site_label
_atom_site_fract_x
_atom_site_fract_y
_atom_site_fract_z
Si Si1 0.597243 0.322830 0.864639
Si Si2 0.444184 0.821886 0.692113
Si Si3 0.735242 0.820004 0.744446
Si Si4 0.359343 0.177371 0.021373
Si Si5 0.869728 0.321833 0.411785
Si Si6 0.293964 0.821681 0.452138
Si Si7 0.020446 0.678546 0.653072
Si Si8 0.985361 0.821735 0.942111
O O1 0.582217 0.500000 0.859897
O O2 0.499365 0.262739 0.768181
O O3 0.575207 0.249188 0.895029
O O4 0.723470 0.277784 0.931423
O O5 0.311147 0.770798 0.598054
O O6 0.511939 0.771046 0.695601
O O7 0.451689 0.000000 0.704001
O O8 0.702786 0.758249 0.676450
O O9 0.639582 0.756722 0.713174
O O10 0.861774 0.758780 0.842501
O O11 0.736193 0.000000 0.746153
O O12 0.410724 0.243623 0.013300
O O13 0.377842 0.000000 0.035278
O O14 0.882013 0.500000 0.414923
O O15 0.801610 0.279849 0.408248
O O16 0.000000 0.251835 0.500000
O O17 0.410226 0.762028 0.552812
O O18 0.274769 0.000000 0.445976
O O19 0.020480 0.500000 0.649309
O O20 0.996073 0.000000 0.943121
O O21 0.000000 0.775246 0.000000
#
# Coordination Sequence:
#
# PCOD8090134 Si02
#       8
#     8   8   8   8   8   8   8   8
#     4  10  22  41  63  85 109 147 194 239 288 351
#     4  11  23  35  54  83 115 151 188 236 290 339
#     4   9  17  31  51  80 112 144 190 241 281 329
#     4  10  22  41  63  86 116 148 184 239 300 351
#     4   9  15  27  51  81 107 136 185 241 285 327
#     4  10  19  33  55  82 111 147 190 237 286 339
#     4   9  18  33  53  78 112 152 194 237 282 333
#     4  10  22  36  57  88 120 157 197 237 280 339
#
# _framework density 19.706206999999999
#
# number of rings (size 3 to 8) (size 9 to 14) (size 15 to 20)
#    0.000    2.250    1.250    1.500    3.500    1.750 
#    0.000    0.625    0.000    1.125    0.000    0.000 
#    0.000    0.000    0.000    0.000    0.000    0.000 
#
# Total GULP energy -396856.756481 kJ/mol
# GULP energy per Si atom -12401.773640 kJ/mol
# Density = 1.966135 g / cm^3
# Si number density = 19.706207 Si / 1000 Ang^3
#
#
#
# Elastic Constant Matrix: (Units=GPa)
#
#
# Indices 1 2 3 4 5 6 
#
# 1 104.8723 34.1635 23.5160 0.0006 -4.2968 -0.0011
# 2 34.1635 32.0348 19.0469 0.0026 -3.8240 -0.0031
# 3 23.5160 19.0469 94.4665 0.0010 -8.3904 -0.0004
# 4 0.0006 0.0026 0.0010 18.3742 0.0000 5.4480
# 5 -4.2968 -3.8240 -8.3904 0.0000 30.8338 0.0007
# 6 -0.0011 -0.0031 -0.0004 5.4480 0.0007 23.6131
#
#
#
# Elastic Compliance Matrix: (Units=1/GPa)
#
#
# Indices 1 2 3 4 5 6 
#
# 1 0.014638 -0.015276 -0.000565 0.000002 -0.000008 -0.000002
# 2 -0.015276 0.051601 -0.006376 -0.000009 0.002536 0.000008
# 3 -0.000565 -0.006376 0.012230 0.000000 0.002459 -0.000001
# 4 0.000002 -0.000009 0.000000 0.058421 0.000000 -0.013479
# 5 -0.000008 0.002536 0.002459 0.000000 0.033414 -0.000001
# 6 -0.000002 0.000008 -0.000001 -0.013479 -0.000001 0.045459
#
#
# Mechanical properties :
#
#
# Convention : Reuss Voigt Hill
#
# Bulk Modulus (GPa) = 29.38092 42.75850 36.06971
# Shear Modulus (GPa) = 18.41333 24.87401 21.64367
#
# Velocity S-wave (km/s) = 3.06010 3.55666 3.31768
# Velocity P-wave (km/s) = 5.23712 6.21382 5.74626
#
# Compressibility (1/GPa) = 0.03403570
#
# Stress axis : x y z
#
# Youngs Moduli (GPa) = 68.31513 19.37949 81.76427
#
# Poissons Ratio (x) = 0.29604 0.04617
# Poissons Ratio (y) = 1.04358 0.52134
# Poissons Ratio (z) = 0.03857 0.12357
#
# Static dielectric constant tensor:
#      x y z
#    x 3.771850 0.000000 -0.020930 
#    y 0.000000 3.126000 0.000000 
#    z -0.020930 0.000000 3.732000 
# 
# 
# High freq. dielectric constant tensor:
#      x y z
#    x 1.781860 0.000000 -0.002560 
#    y 0.000000 1.722940 0.000000 
#    z -0.002560 0.000000 1.776680 
# 
# From -- ./inp_files/382557.got.cif
#   From: 2010.06.25/outbox.cif.g09.slc.cpg/sg12_192_cif.got.tgz:382557.got - 2010.06.28 00:19:55.
