data_PCOD8090191
_publ_section_title
;
Structure prediction by ZEFSAII (Michael W. Deem and Ramdas Pophale) SiO2 
 PCOD8090191
Probable space group: C 2/M
;
_chemical_formula_sum "Si O2"
_cell_formula_units_Z 56
_cell_length_a 28.537386
_cell_length_b 9.431225
_cell_length_c 11.458395
_cell_angle_alpha 90.000000
_cell_angle_beta 109.935587
_cell_angle_gamma 90.000000
_cell_volume 2899.140722
_symmetry_space_group_name_H-M "C 2/M"
_symmetry_group_IT_number 12
_symmetry_cell_setting 'monoclinic'
loop_
_space_group_symop_operation_xyz
x,y,z
-x,y,-z
-x,-y,-z
x,-y,z
1/2+x,1/2+y,z
1/2-x,1/2+y,-z
1/2-x,1/2-y,-z
1/2+x,1/2-y,z
loop_
_atom_site_type_symbol
_atom_site_label
_atom_site_fract_x
_atom_site_fract_y
_atom_site_fract_z
Si Si1 0.043019 0.835459 0.622946
Si Si2 0.075298 0.664415 0.121156
Si Si3 0.299685 0.337562 0.049389
Si Si4 0.154307 0.163545 0.666807
Si Si5 0.734748 0.167450 0.601913
Si Si6 0.524301 0.165370 0.838803
Si Si7 0.167817 0.161415 0.173461
O O1 0.095476 0.810006 0.602369
O O2 0.041782 0.751864 0.742365
O O3 0.000000 0.779953 0.500000
O O4 0.035492 0.000000 0.647219
O O5 0.088239 0.500000 0.129182
O O6 0.125494 0.745898 0.200036
O O7 0.033709 0.696866 0.183311
O O8 0.056295 0.714005 0.977914
O O9 0.282881 0.500000 0.037164
O O10 0.331746 0.296238 0.188955
O O11 0.250000 0.250000 0.000000
O O12 0.333627 0.306174 0.965564
O O13 0.182898 0.267635 0.603382
O O14 0.168202 0.000000 0.650524
O O15 0.750000 0.250000 0.500000
O O16 0.777306 0.198808 0.733255
O O17 0.728006 0.000000 0.572137
O O18 0.532500 0.000000 0.820803
O O19 0.154703 0.000000 0.191329
#
# Coordination Sequence:
#
# PCOD8090191 Si02
#       7
#     8   8   8   8   8   8   8
#     4  10  22  39  59  83 113 150 192 237 284 333
#     4   9  19  35  57  84 115 148 182 228 284 337
#     4  10  19  33  55  83 114 144 180 229 280 333
#     4  10  21  38  60  85 115 149 186 235 288 337
#     4  11  24  41  59  80 112 151 191 232 277 335
#     4   9  19  37  57  82 115 148 186 232 281 335
#     4  10  21  36  55  84 116 146 185 231 278 335
#
# _framework density 19.316067
#
# number of rings (size 3 to 8) (size 9 to 14) (size 15 to 20)
#    0.000    2.143    1.429    2.143    0.000    6.000 
#    0.000    5.714    0.000    0.000    0.000    0.000 
#    0.000    0.000    0.000    0.000    0.000    0.000 
#
# Total GULP energy -347255.352130 kJ/mol
# GULP energy per Si atom -12401.976862 kJ/mol
# Density = 1.927210 g / cm^3
# Si number density = 19.316067 Si / 1000 Ang^3
#
#
#
# Elastic Constant Matrix: (Units=GPa)
#
#
# Indices 1 2 3 4 5 6 
#
# 1 116.9821 57.3185 35.0638 0.0000 5.4529 0.0000
# 2 57.3185 74.7287 35.7657 0.0000 -5.1779 0.0000
# 3 35.0638 35.7657 68.8542 0.0000 -8.4260 0.0000
# 4 0.0000 0.0000 0.0000 29.8248 0.0000 -1.8945
# 5 5.4529 -5.1779 -8.4260 0.0000 33.4361 0.0000
# 6 0.0000 0.0000 0.0000 -1.8945 0.0000 37.6085
#
#
#
# Elastic Compliance Matrix: (Units=1/GPa)
#
#
# Indices 1 2 3 4 5 6 
#
# 1 0.014574 -0.010216 -0.002682 0.000000 -0.004635 0.000000
# 2 -0.010216 0.024976 -0.007320 0.000000 0.003689 0.000000
# 3 -0.002682 -0.007320 0.020230 0.000000 0.004402 0.000000
# 4 0.000000 0.000000 0.000000 0.033637 0.000000 0.001694
# 5 -0.004635 0.003689 0.004402 0.000000 0.032344 0.000000
# 6 0.000000 0.000000 0.000000 0.001694 0.000000 0.026675
#
#
# Mechanical properties :
#
#
# Convention : Reuss Voigt Hill
#
# Bulk Modulus (GPa) = 51.69431 57.42898 54.56164
# Shear Modulus (GPa) = 25.08514 29.00170 27.04342
#
# Velocity S-wave (km/s) = 3.60761 3.87903 3.74578
# Velocity P-wave (km/s) = 6.64632 7.06104 6.85682
#
# Compressibility (1/GPa) = 0.01934449
#
# Stress axis : x y z
#
# Youngs Moduli (GPa) = 68.61607 40.03764 49.43058
#
# Poissons Ratio (x) = 0.40902 0.13259
# Poissons Ratio (y) = 0.70097 0.36183
# Poissons Ratio (z) = 0.18405 0.29307
#
# Static dielectric constant tensor:
#      x y z
#    x 3.738280 0.000000 0.129580 
#    y 0.000000 3.452960 0.000000 
#    z 0.129580 0.000000 3.527230 
# 
# 
# High freq. dielectric constant tensor:
#      x y z
#    x 1.759300 0.000000 0.001760 
#    y 0.000000 1.747460 0.000000 
#    z 0.001760 0.000000 1.745020 
# 
# From -- ./inp_files/181030.got.cif
#   From: 2010.06.25/outbox.cif.g09.slc.cpg/sg12_91_cif.got.tgz:181030.got - 2010.06.28 00:19:55.
