data_PCOD8090355
_publ_section_title
;
Structure prediction by ZEFSAII (Michael W. Deem and Ramdas Pophale) SiO2 
 PCOD8090355
Probable space group: C 2/M
;
_chemical_formula_sum "Si O2"
_cell_formula_units_Z 64
_cell_length_a 29.041252
_cell_length_b 9.424105
_cell_length_c 13.969635
_cell_angle_alpha 90.000000
_cell_angle_beta 60.757231
_cell_angle_gamma 90.000000
_cell_volume 3336.066116
_symmetry_space_group_name_H-M "C 2/M"
_symmetry_group_IT_number 12
_symmetry_cell_setting 'monoclinic'
loop_
_space_group_symop_operation_xyz
x,y,z
-x,y,-z
-x,-y,-z
x,-y,z
1/2+x,1/2+y,z
1/2-x,1/2+y,-z
1/2-x,1/2-y,-z
1/2+x,1/2-y,z
loop_
_atom_site_type_symbol
_atom_site_label
_atom_site_fract_x
_atom_site_fract_y
_atom_site_fract_z
Si Si1 0.622613 0.661877 0.457019
Si Si2 0.795515 0.330944 0.898980
Si Si3 0.947089 0.662458 0.602126
Si Si4 0.289531 0.661832 0.394096
Si Si5 0.213083 0.340001 0.312713
Si Si6 0.092288 0.163111 0.696423
Si Si7 0.500727 0.831679 0.109953
Si Si8 0.590037 0.837661 0.155355
O O1 0.631350 0.500000 0.419918
O O2 0.599536 0.741686 0.389107
O O3 0.678929 0.736338 0.415545
O O4 0.586310 0.677318 0.587703
O O5 0.790260 0.500000 0.917808
O O6 0.787697 0.288777 0.796086
O O7 0.851990 0.271693 0.882341
O O8 0.750000 0.250000 0.000000
O O9 0.936339 0.500000 0.583558
O O10 0.948651 0.680448 0.714392
O O11 0.000000 0.719793 0.500000
O O12 0.289906 0.500000 0.432953
O O13 0.250000 0.750000 0.500000
O O14 0.271135 0.666844 0.301357
O O15 0.349439 0.719545 0.334505
O O16 0.190322 0.500000 0.341466
O O17 0.049155 0.260452 0.789617
O O18 0.084101 0.000000 0.736938
O O19 0.556045 0.774509 0.100827
O O20 0.495758 0.000000 0.130258
O O21 0.500000 0.788704 0.000000
O O22 0.601508 0.000000 0.121440
#
# Coordination Sequence:
#
# PCOD8090355 Si02
#       8
#     8   8   8   8   8   8   8   8
#     4  11  21  33  53  82 118 148 179 232 286 335
#     4  10  21  38  58  82 113 148 188 234 282 334
#     4  10  19  33  56  82 109 150 193 225 275 343
#     4  10  20  35  56  83 116 153 193 235 281 340
#     4  10  20  36  58  80 108 151 194 229 274 338
#     4  10  22  38  55  83 121 154 184 230 293 345
#     4  10  22  40  62  86 109 144 199 246 279 328
#     4   9  18  36  58  81 113 146 182 235 283 327
#
# _framework density 19.184272
#
# number of rings (size 3 to 8) (size 9 to 14) (size 15 to 20)
#    0.000    2.000    2.500    1.125    0.000    4.500 
#    0.000    1.250    0.000    0.000    0.000    0.000 
#    0.000    0.000    0.000    0.000    0.000    0.000 
#
# Total GULP energy -396637.277591 kJ/mol
# GULP energy per Si atom -12394.914925 kJ/mol
# Density = 1.914061 g / cm^3
# Si number density = 19.184272 Si / 1000 Ang^3
#
#
#
# Elastic Constant Matrix: (Units=GPa)
#
#
# Indices 1 2 3 4 5 6 
#
# 1 138.4872 25.4036 52.5739 0.0000 5.6570 0.0000
# 2 25.4036 53.7999 33.7981 0.0000 -1.5862 0.0000
# 3 52.5739 33.7981 95.4331 0.0000 -5.2415 0.0000
# 4 0.0000 0.0000 0.0000 27.8440 0.0000 -12.2565
# 5 5.6570 -1.5862 -5.2415 0.0000 33.1391 0.0000
# 6 0.0000 0.0000 0.0000 -12.2565 0.0000 16.9029
#
#
#
# Elastic Compliance Matrix: (Units=1/GPa)
#
#
# Indices 1 2 3 4 5 6 
#
# 1 0.009414 -0.001511 -0.004785 0.000000 -0.002436 0.000000
# 2 -0.001511 0.024150 -0.007710 0.000000 0.000194 0.000000
# 3 -0.004785 -0.007710 0.016009 0.000000 0.002980 0.000000
# 4 0.000000 0.000000 0.000000 0.052752 0.000000 0.038251
# 5 -0.002436 0.000194 0.002980 0.000000 0.031072 0.000000
# 6 0.000000 0.000000 0.000000 0.038251 0.000000 0.086897
#
#
# Mechanical properties :
#
#
# Convention : Reuss Voigt Hill
#
# Bulk Modulus (GPa) = 46.37917 56.80796 51.59356
# Shear Modulus (GPa) = 19.57007 27.30685 23.43846
#
# Velocity S-wave (km/s) = 3.19738 3.77689 3.49915
# Velocity P-wave (km/s) = 6.15297 6.97824 6.57856
#
# Compressibility (1/GPa) = 0.02156140
#
# Stress axis : x y z
#
# Youngs Moduli (GPa) = 106.22424 41.40778 62.46649
#
# Poissons Ratio (x) = 0.06257 0.29889
# Poissons Ratio (y) = 0.16052 0.48160
# Poissons Ratio (z) = 0.50826 0.31924
#
# Static dielectric constant tensor:
#      x y z
#    x 3.977250 0.000000 0.097380 
#    y 0.000000 3.327190 0.000000 
#    z 0.097380 0.000000 3.360520 
# 
# 
# High freq. dielectric constant tensor:
#      x y z
#    x 1.764600 0.000000 0.007160 
#    y 0.000000 1.725340 0.000000 
#    z 0.007160 0.000000 1.732190 
# 
# From -- ./inp_files/248952.got.cif
#   From: 2010.06.25/outbox.cif.g09.slc.cpg/sg12_125_cif.got.tgz:248952.got - 2010.06.28 00:19:55.
