data_PCOD8090835
_publ_section_title
;
Structure prediction by ZEFSAII (Michael W. Deem and Ramdas Pophale) SiO2 
 PCOD8090835
Probable space group: C 2/M
;
_chemical_formula_sum "Si O2"
_cell_formula_units_Z 56
_cell_length_a 9.085322
_cell_length_b 26.297262
_cell_length_c 16.475775
_cell_angle_alpha 90.000000
_cell_angle_beta 125.695669
_cell_angle_gamma 90.000000
_cell_volume 3196.840720
_symmetry_space_group_name_H-M "C 2/M"
_symmetry_group_IT_number 12
_symmetry_cell_setting 'monoclinic'
loop_
_space_group_symop_operation_xyz
x,y,z
-x,y,-z
-x,-y,-z
x,-y,z
1/2+x,1/2+y,z
1/2-x,1/2+y,-z
1/2-x,1/2-y,-z
1/2+x,1/2-y,z
loop_
_atom_site_type_symbol
_atom_site_label
_atom_site_fract_x
_atom_site_fract_y
_atom_site_fract_z
Si Si1 0.191973 0.209927 0.094755
Si Si2 0.208140 0.355117 0.450998
Si Si3 0.865835 0.690629 0.308852
Si Si4 0.468514 0.185716 0.902549
Si Si5 0.300459 0.364916 0.294785
Si Si6 0.899105 0.212275 0.634322
Si Si7 0.444443 0.444260 0.574444
O O1 0.261850 0.175711 0.192575
O O2 0.343453 0.208046 0.072823
O O3 0.165447 0.266802 0.122068
O O4 0.000000 0.188457 0.000000
O O5 0.280926 0.352468 0.383084
O O6 0.285761 0.304052 0.518457
O O7 0.276308 0.404736 0.522566
O O8 0.987049 0.356850 0.380617
O O9 0.727726 0.711918 0.328594
O O10 0.024402 0.731322 0.343805
O O11 0.385694 0.143217 0.815002
O O12 0.500000 0.158642 0.000000
O O13 0.438258 0.326336 0.297533
O O14 0.386617 0.421752 0.318035
O O15 0.500000 0.451183 0.500000
O O16 0.391727 0.500000 0.593073
#
# Coordination Sequence:
#
# PCOD8090835 Si02
#       7
#     8   8   8   8   8   8   8
#     4  11  22  34  49  67  98 143 177 213 244 284
#     4  10  20  34  48  74 103 131 169 203 248 303
#     4  12  21  33  48  69 105 139 175 210 244 291
#     4  11  21  34  51  69 101 135 179 214 247 289
#     4  10  19  34  52  74 100 132 169 211 252 302
#     4  11  22  31  47  68 104 142 171 202 244 294
#     4   8  16  32  56  79 102 127 159 205 258 313
#
# _framework density 17.517295000000001
#
# number of rings (size 3 to 8) (size 9 to 14) (size 15 to 20)
#    0.000    1.571    2.857    5.571    2.000    1.143 
#    0.000    0.000    0.000    7.286    0.000    0.000 
#    0.000    1.143    0.000    0.000    0.000    0.000 
#
# Total GULP energy -346964.307876 kJ/mol
# GULP energy per Si atom -12391.582424 kJ/mol
# Density = 1.747742 g / cm^3
# Si number density = 17.517295 Si / 1000 Ang^3
#
#
#
# Elastic Constant Matrix: (Units=GPa)
#
#
# Indices 1 2 3 4 5 6 
#
# 1 101.1363 22.8183 34.6610 0.0000 -3.9416 0.0000
# 2 22.8183 61.0727 36.4175 0.0000 11.9378 0.0000
# 3 34.6610 36.4175 130.0438 0.0000 11.9254 0.0000
# 4 0.0000 0.0000 0.0000 13.8008 0.0000 4.6222
# 5 -3.9416 11.9378 11.9254 0.0000 29.1556 0.0000
# 6 0.0000 0.0000 0.0000 4.6222 0.0000 10.8333
#
#
#
# Elastic Compliance Matrix: (Units=1/GPa)
#
#
# Indices 1 2 3 4 5 6 
#
# 1 0.011731 -0.003719 -0.002463 0.000000 0.004116 0.000000
# 2 -0.003719 0.021909 -0.004442 0.000000 -0.007657 0.000000
# 3 -0.002463 -0.004442 0.009822 0.000000 -0.002532 0.000000
# 4 0.000000 0.000000 0.000000 0.084541 0.000000 -0.036071
# 5 0.004116 -0.007657 -0.002532 0.000000 0.039026 0.000000
# 6 0.000000 0.000000 0.000000 -0.036071 0.000000 0.107698
#
#
# Mechanical properties :
#
#
# Convention : Reuss Voigt Hill
#
# Bulk Modulus (GPa) = 45.01538 53.33848 49.17693
# Shear Modulus (GPa) = 16.48102 23.98167 20.23135
#
# Velocity S-wave (km/s) = 3.07064 3.70405 3.40212
# Velocity P-wave (km/s) = 6.19074 6.98631 6.60052
#
# Compressibility (1/GPa) = 0.02221463
#
# Stress axis : x y z
#
# Youngs Moduli (GPa) = 85.24295 45.64369 101.81015
#
# Poissons Ratio (x) = 0.16975 0.25073
# Poissons Ratio (y) = 0.31703 0.45224
# Poissons Ratio (z) = 0.20993 0.20275
#
# Static dielectric constant tensor:
#      x y z
#    x 3.312890 0.000000 0.189080 
#    y 0.000000 3.248980 0.000000 
#    z 0.189080 0.000000 3.575610 
# 
# 
# High freq. dielectric constant tensor:
#      x y z
#    x 1.682100 0.000000 0.008080 
#    y 0.000000 1.617140 0.000000 
#    z 0.008080 0.000000 1.686220 
# 
# From -- ./inp_files/199933.got.cif
#   From: 2010.06.25/outbox.cif.g09.slc.cpg/sg12_100_cif.got.tgz:199933.got - 2010.06.28 00:19:55.
