data_PCOD8090636
_publ_section_title
;
Structure prediction by ZEFSAII (Michael W. Deem and Ramdas Pophale) SiO2 
 PCOD8090636
Probable space group: C 2/M
;
_chemical_formula_sum "Si O2"
_cell_formula_units_Z 56
_cell_length_a 15.617604
_cell_length_b 22.377129
_cell_length_c 17.625607
_cell_angle_alpha 90.000000
_cell_angle_beta 150.660274
_cell_angle_gamma 90.000000
_cell_volume 3018.195708
_symmetry_space_group_name_H-M "C 2/M"
_symmetry_group_IT_number 12
_symmetry_cell_setting 'monoclinic'
loop_
_space_group_symop_operation_xyz
x,y,z
-x,y,-z
-x,-y,-z
x,-y,z
1/2+x,1/2+y,z
1/2-x,1/2+y,-z
1/2-x,1/2-y,-z
1/2+x,1/2-y,z
loop_
_atom_site_type_symbol
_atom_site_label
_atom_site_fract_x
_atom_site_fract_y
_atom_site_fract_z
Si Si1 0.548573 0.622925 0.117495
Si Si2 0.276025 0.295773 0.629317
Si Si3 0.865871 0.218363 0.181124
Si Si4 0.210109 0.343482 0.929047
Si Si5 0.569699 0.323065 0.475148
Si Si6 0.096488 0.500000 0.452937
Si Si7 0.239990 0.000000 0.255972
Si Si8 0.851157 0.619299 0.594018
O O1 0.691877 0.662721 0.272532
O O2 0.624354 0.558429 0.155921
O O3 0.500000 0.654271 0.000000
O O4 0.373450 0.614982 0.032163
O O5 0.456051 0.276638 0.729651
O O6 0.178427 0.236255 0.579760
O O7 0.153660 0.329062 0.473550
O O8 0.783011 0.284354 0.118955
O O9 0.904137 0.193112 0.294094
O O10 0.730795 0.174309 0.033644
O O11 0.031027 0.379037 0.779640
O O12 0.500000 0.350657 0.500000
O O13 0.689855 0.372560 0.527149
O O14 0.183821 0.500000 0.601653
O O15 0.165705 0.556289 0.459815
O O16 0.888010 0.500000 0.304720
#
# Coordination Sequence:
#
# PCOD8090636 Si02
#       8
#     8   8   8   8   8   4   4   8
#     4  11  23  34  53  84 128 158 189 240 290 340
#     4  10  19  36  57  81 119 155 194 238 288 359
#     4   9  18  35  53  82 116 156 190 226 294 355
#     4  10  19  33  58  79 116 160 188 227 288 362
#     4  11  22  35  60  88 117 150 198 253 291 347
#     4  11  24  38  69  80 114 159 207 245 289 348
#     4  11  23  42  54  92 119 155 202 249 282 355
#     4  11  20  41  59  85 110 160 201 240 292 355
#
# _framework density 18.554131999999999
#
# number of rings (size 3 to 8) (size 9 to 14) (size 15 to 20)
#    0.000    1.571    4.286    1.929    2.000    1.714 
#    0.000    1.071    0.000    0.000    0.000    1.000 
#    0.000    0.000    0.000    0.000    0.000    0.000 
#
# Total GULP energy -347238.850403 kJ/mol
# GULP energy per Si atom -12401.387514 kJ/mol
# Density = 1.851190 g / cm^3
# Si number density = 18.554132 Si / 1000 Ang^3
#
#
#
# Elastic Constant Matrix: (Units=GPa)
#
#
# Indices 1 2 3 4 5 6 
#
# 1 104.0627 39.4229 30.0111 0.0006 -9.7181 -0.0011
# 2 39.4229 73.8230 14.6052 0.0019 8.4676 0.0007
# 3 30.0111 14.6052 96.0442 0.0082 -12.0402 0.0012
# 4 0.0006 0.0019 0.0082 32.7630 0.0026 -0.0717
# 5 -9.7181 8.4676 -12.0402 0.0026 26.7186 0.0005
# 6 -0.0011 0.0007 0.0012 -0.0717 0.0005 25.7345
#
#
#
# Elastic Compliance Matrix: (Units=1/GPa)
#
#
# Indices 1 2 3 4 5 6 
#
# 1 0.013766 -0.007617 -0.002345 0.000000 0.006364 0.000001
# 2 -0.007617 0.019053 -0.001718 0.000000 -0.009583 -0.000001
# 3 -0.002345 -0.001718 0.012048 -0.000003 0.005121 -0.000001
# 4 0.000000 0.000000 -0.000003 0.030522 -0.000004 0.000085
# 5 0.006364 -0.009583 0.005121 -0.000004 0.045086 0.000000
# 6 0.000001 -0.000001 -0.000001 0.000085 0.000000 0.038859
#
#
# Mechanical properties :
#
#
# Convention : Reuss Voigt Hill
#
# Bulk Modulus (GPa) = 46.50152 49.11201 47.80677
# Shear Modulus (GPa) = 26.33452 29.70261 28.01856
#
# Velocity S-wave (km/s) = 3.77149 4.00542 3.89021
# Velocity P-wave (km/s) = 6.63947 6.92230 6.78236
#
# Compressibility (1/GPa) = 0.02150467
#
# Stress axis : x y z
#
# Youngs Moduli (GPa) = 72.64267 52.48547 83.00136
#
# Poissons Ratio (x) = 0.39980 0.19467
# Poissons Ratio (y) = 0.55334 0.14264
# Poissons Ratio (z) = 0.17037 0.09020
#
# Static dielectric constant tensor:
#      x y z
#    x 3.244580 0.000000 -0.152700 
#    y 0.000000 3.195840 -0.000010 
#    z -0.152700 -0.000010 3.740760 
# 
# 
# High freq. dielectric constant tensor:
#      x y z
#    x 1.696290 0.000000 -0.012060 
#    y 0.000000 1.692640 0.000000 
#    z -0.012060 0.000000 1.742590 
# 
# From -- ./inp_files/272432.got.cif
#   From: 2010.06.25/outbox.cif.g09.slc.cpg/sg12_137_cif.got.tgz:272432.got - 2010.06.28 00:19:55.
