data_PCOD8090147
_publ_section_title
;
Structure prediction by ZEFSAII (Michael W. Deem and Ramdas Pophale) SiO2 
 PCOD8090147
Probable space group: C 2/M
;
_chemical_formula_sum "Si O2"
_cell_formula_units_Z 64
_cell_length_a 15.136895
_cell_length_b 9.134919
_cell_length_c 24.347279
_cell_angle_alpha 90.000000
_cell_angle_beta 82.779183
_cell_angle_gamma 90.000000
_cell_volume 3339.903001
_symmetry_space_group_name_H-M "C 2/M"
_symmetry_group_IT_number 12
_symmetry_cell_setting 'monoclinic'
loop_
_space_group_symop_operation_xyz
x,y,z
-x,y,-z
-x,-y,-z
x,-y,z
1/2+x,1/2+y,z
1/2-x,1/2+y,-z
1/2-x,1/2-y,-z
1/2+x,1/2-y,z
loop_
_atom_site_type_symbol
_atom_site_label
_atom_site_fract_x
_atom_site_fract_y
_atom_site_fract_z
Si Si1 0.648627 0.828208 0.827409
Si Si2 0.691915 0.173921 0.240169
Si Si3 0.627304 0.835070 0.045011
Si Si4 0.355519 0.828070 0.633856
Si Si5 0.667457 0.664893 0.939384
Si Si6 0.512392 0.328576 0.561378
Si Si7 0.051700 0.671046 0.162795
Si Si8 0.286184 0.670668 0.444140
O O1 0.714482 0.748918 0.780414
O O2 0.656373 0.764604 0.887352
O O3 0.549554 0.796625 0.812321
O O4 0.669621 0.000000 0.828071
O O5 0.663120 0.223094 0.302914
O O6 0.617291 0.235684 0.204026
O O7 0.704084 0.000000 0.234965
O O8 0.730189 0.836845 0.052489
O O9 0.573280 0.764365 0.100567
O O10 0.594784 0.000000 0.034148
O O11 0.609490 0.734876 0.993204
O O12 0.444805 0.751834 0.606624
O O13 0.270873 0.779807 0.604015
O O14 0.371573 0.000000 0.629117
O O15 0.633655 0.500000 0.930448
O O16 0.500000 0.272378 0.500000
O O17 0.492464 0.500000 0.566207
O O18 0.611144 0.288200 0.574465
O O19 0.071732 0.500000 0.157043
O O20 0.276408 0.500000 0.456699
O O21 0.250000 0.750000 0.500000
#
# Coordination Sequence:
#
# PCOD8090147 Si02
#       8
#     8   8   8   8   8   8   8   8
#     4  11  22  36  58  85 109 143 191 234 273 334
#     4  10  21  42  61  78 111 150 187 231 284 332
#     4   9  17  33  56  79 106 147 189 226 275 339
#     4  10  22  37  59  86 112 146 189 235 277 327
#     4  10  19  33  55  82 113 147 181 229 287 336
#     4  10  20  35  56  82 116 153 183 221 276 332
#     4   9  19  37  59  79 107 149 188 224 278 342
#     4  10  20  35  55  84 116 150 185 224 274 329
#
# _framework density 19.162234000000002
#
# number of rings (size 3 to 8) (size 9 to 14) (size 15 to 20)
#    0.000    2.125    2.500    0.750    0.000    3.250 
#    0.000    5.000    0.000    0.000    0.000    0.000 
#    0.000    0.000    0.000    0.000    0.000    0.000 
#
# Total GULP energy -396843.101035 kJ/mol
# GULP energy per Si atom -12401.346907 kJ/mol
# Density = 1.911862 g / cm^3
# Si number density = 19.162234 Si / 1000 Ang^3
#
#
#
# Elastic Constant Matrix: (Units=GPa)
#
#
# Indices 1 2 3 4 5 6 
#
# 1 112.0223 43.1317 70.3940 0.0000 -25.0225 0.0000
# 2 43.1317 53.7267 48.1824 0.0000 -8.5637 0.0000
# 3 70.3940 48.1824 153.5105 0.0000 -27.8011 0.0000
# 4 0.0000 0.0000 0.0000 27.8198 0.0000 -8.6940
# 5 -25.0225 -8.5637 -27.8011 0.0000 19.9636 0.0000
# 6 0.0000 0.0000 0.0000 -8.6940 0.0000 25.2939
#
#
#
# Elastic Compliance Matrix: (Units=1/GPa)
#
#
# Indices 1 2 3 4 5 6 
#
# 1 0.017229 -0.009449 -0.002351 0.000000 0.014268 0.000000
# 2 -0.009449 0.031088 -0.006893 0.000000 -0.008107 0.000000
# 3 -0.002351 -0.006893 0.011616 0.000000 0.010273 0.000000
# 4 0.000000 0.000000 0.000000 0.040271 0.000000 0.013842
# 5 0.014268 -0.008107 0.010273 0.000000 0.078804 0.000000
# 6 0.000000 0.000000 0.000000 0.013842 0.000000 0.044293
#
#
# Mechanical properties :
#
#
# Convention : Reuss Voigt Hill
#
# Bulk Modulus (GPa) = 44.35016 71.40842 57.87929
# Shear Modulus (GPa) = 18.64263 25.11888 21.88075
#
# Velocity S-wave (km/s) = 3.12249 3.62450 3.38282
# Velocity P-wave (km/s) = 6.01621 7.40689 6.74747
#
# Compressibility (1/GPa) = 0.02254784
#
# Stress axis : x y z
#
# Youngs Moduli (GPa) = 58.04040 32.16714 86.08734
#
# Poissons Ratio (x) = 0.30395 0.20239
# Poissons Ratio (y) = 0.54843 0.59336
# Poissons Ratio (z) = 0.13645 0.22171
#
# Static dielectric constant tensor:
#      x y z
#    x 3.595110 0.000000 0.048430 
#    y 0.000000 3.426990 0.000000 
#    z 0.048430 0.000000 3.611570 
# 
# 
# High freq. dielectric constant tensor:
#      x y z
#    x 1.752360 0.000000 -0.001580 
#    y 0.000000 1.728690 0.000000 
#    z -0.001580 0.000000 1.745670 
# 
# From -- ./inp_files/338844.got.cif
#   From: 2010.06.25/outbox.cif.g09.slc.cpg/sg12_170_cif.got.tgz:338844.got - 2010.06.28 00:19:55.
