data_PCOD8090814
_publ_section_title
;
Structure prediction by ZEFSAII (Michael W. Deem and Ramdas Pophale) SiO2 
 PCOD8090814
Probable space group: C 2/M
;
_chemical_formula_sum "Si O2"
_cell_formula_units_Z 64
_cell_length_a 31.497590
_cell_length_b 10.858543
_cell_length_c 9.315486
_cell_angle_alpha 90.000000
_cell_angle_beta 87.914430
_cell_angle_gamma 90.000000
_cell_volume 3183.952812
_symmetry_space_group_name_H-M "C 2/M"
_symmetry_group_IT_number 12
_symmetry_cell_setting 'monoclinic'
loop_
_space_group_symop_operation_xyz
x,y,z
-x,y,-z
-x,-y,-z
x,-y,z
1/2+x,1/2+y,z
1/2-x,1/2+y,-z
1/2-x,1/2-y,-z
1/2+x,1/2-y,z
loop_
_atom_site_type_symbol
_atom_site_label
_atom_site_fract_x
_atom_site_fract_y
_atom_site_fract_z
Si Si1 0.617976 0.769486 0.133421
Si Si2 0.911761 0.354740 0.159278
Si Si3 0.557286 0.361293 0.359470
Si Si4 0.191909 0.131524 0.004325
Si Si5 0.458527 0.642231 0.314896
Si Si6 0.184852 0.639554 0.336321
Si Si7 0.257295 0.204259 0.212655
Si Si8 0.336122 0.863684 0.362720
O O1 0.584629 0.729057 0.257763
O O2 0.643665 0.655762 0.061259
O O3 0.653741 0.853878 0.204035
O O4 0.594188 0.845218 0.011636
O O5 0.923965 0.500000 0.190079
O O6 0.945921 0.251649 0.205547
O O7 0.868848 0.306185 0.244115
O O8 0.573632 0.500000 0.333455
O O9 0.561948 0.326776 0.527179
O O10 0.508909 0.350248 0.317571
O O11 0.223410 0.117945 0.137278
O O12 0.191649 0.000000 0.924335
O O13 0.209116 0.237358 0.901445
O O14 0.446007 0.500000 0.269869
O O15 0.193943 0.500000 0.375649
O O16 0.231197 0.692933 0.300430
O O17 0.163943 0.704110 0.481136
O O18 0.287377 0.129374 0.315456
O O19 0.353821 0.000000 0.382618
#
# Coordination Sequence:
#
# PCOD8090814 Si02
#       8
#     8   8   8   8   8   8   8   8
#     4  11  21  36  56  82 116 150 193 231 285 343
#     4  11  23  39  58  86 123 159 196 241 292 347
#     4   9  19  39  66  90 118 150 189 238 292 352
#     4  10  20  32  50  77 109 142 184 232 285 341
#     4   9  20  41  66  92 117 151 192 237 293 351
#     4  10  21  35  54  77 107 148 191 240 287 339
#     4  10  19  34  51  76 104 144 186 236 290 336
#     4  10  20  36  55  77 108 147 192 237 290 342
#
# _framework density 20.100798999999999
#
# number of rings (size 3 to 8) (size 9 to 14) (size 15 to 20)
#    0.000    2.000    1.250    3.375    0.000    1.500 
#    0.000    5.000    0.000    5.250    0.000    0.000 
#    0.000    0.000    0.000    0.000    0.000    0.000 
#
# Total GULP energy -396456.492773 kJ/mol
# GULP energy per Si atom -12389.265399 kJ/mol
# Density = 2.005505 g / cm^3
# Si number density = 20.100799 Si / 1000 Ang^3
#
#
#
# Elastic Constant Matrix: (Units=GPa)
#
#
# Indices 1 2 3 4 5 6 
#
# 1 52.7280 18.1999 11.0912 0.0000 -9.6451 0.0000
# 2 18.1999 82.2179 16.4366 0.0000 0.8540 0.0000
# 3 11.0912 16.4366 81.5660 0.0000 -3.8034 0.0000
# 4 0.0000 0.0000 0.0000 24.3706 0.0000 -3.4336
# 5 -9.6451 0.8540 -3.8034 0.0000 38.9982 0.0000
# 6 0.0000 0.0000 0.0000 -3.4336 0.0000 13.4434
#
#
#
# Elastic Compliance Matrix: (Units=1/GPa)
#
#
# Indices 1 2 3 4 5 6 
#
# 1 0.021889 -0.004538 -0.001813 0.000000 0.005336 0.000000
# 2 -0.004538 0.013625 -0.002205 0.000000 -0.001636 0.000000
# 3 -0.001813 -0.002205 0.012991 0.000000 0.000867 0.000000
# 4 0.000000 0.000000 0.000000 0.042565 0.000000 0.010872
# 5 0.005336 -0.001636 0.000867 0.000000 0.027082 0.000000
# 6 0.000000 0.000000 0.000000 0.010872 0.000000 0.077162
#
#
# Mechanical properties :
#
#
# Convention : Reuss Voigt Hill
#
# Bulk Modulus (GPa) = 31.85412 34.21859 33.03635
# Shear Modulus (GPa) = 22.43236 26.74806 24.59021
#
# Velocity S-wave (km/s) = 3.34427 3.65183 3.50143
# Velocity P-wave (km/s) = 5.54922 5.90268 5.72867
#
# Compressibility (1/GPa) = 0.03139312
#
# Stress axis : x y z
#
# Youngs Moduli (GPa) = 45.68450 73.39343 76.97472
#
# Poissons Ratio (x) = 0.33309 0.13956
# Poissons Ratio (y) = 0.20733 0.16971
# Poissons Ratio (z) = 0.08283 0.16182
#
# Static dielectric constant tensor:
#      x y z
#    x 3.508830 0.000000 -0.076610 
#    y 0.000000 3.435520 0.000000 
#    z -0.076610 0.000000 3.797640 
# 
# 
# High freq. dielectric constant tensor:
#      x y z
#    x 1.777240 0.000000 -0.006390 
#    y 0.000000 1.768790 0.000000 
#    z -0.006390 0.000000 1.789830 
# 
# From -- ./inp_files/110455.got.cif
#   From: 2010.06.25/outbox.cif.g09.slc.cpg/sg12_56_cif.got.tgz:110455.got - 2010.06.28 00:19:55.
