data_PCOD8090213
_publ_section_title
;
Structure prediction by ZEFSAII (Michael W. Deem and Ramdas Pophale) SiO2 
 PCOD8090213
Probable space group: C 2/M
;
_chemical_formula_sum "Si O2"
_cell_formula_units_Z 64
_cell_length_a 20.440154
_cell_length_b 9.054433
_cell_length_c 21.628818
_cell_angle_alpha 90.000000
_cell_angle_beta 117.994758
_cell_angle_gamma 90.000000
_cell_volume 3534.551065
_symmetry_space_group_name_H-M "C 2/M"
_symmetry_group_IT_number 12
_symmetry_cell_setting 'monoclinic'
loop_
_space_group_symop_operation_xyz
x,y,z
-x,y,-z
-x,-y,-z
x,-y,z
1/2+x,1/2+y,z
1/2-x,1/2+y,-z
1/2-x,1/2-y,-z
1/2+x,1/2-y,z
loop_
_atom_site_type_symbol
_atom_site_label
_atom_site_fract_x
_atom_site_fract_y
_atom_site_fract_z
Si Si1 0.645555 0.331474 0.312483
Si Si2 0.543579 0.672160 0.956378
Si Si3 0.171810 0.171173 0.463160
Si Si4 0.924930 0.326046 0.825128
Si Si5 0.200839 0.325875 0.029833
Si Si6 0.226760 0.328836 0.179804
Si Si7 0.201176 0.670176 0.682149
Si Si8 0.414174 0.172424 0.468341
O O1 0.627135 0.500000 0.285722
O O2 0.634368 0.304613 0.379912
O O3 0.590142 0.221730 0.252190
O O4 0.730206 0.293688 0.332431
O O5 0.559008 0.500000 0.951463
O O6 0.496674 0.738205 0.879339
O O7 0.500000 0.700717 0.000000
O O8 0.619636 0.759262 0.992832
O O9 0.250000 0.250000 0.500000
O O10 0.115334 0.236602 0.487152
O O11 0.185435 0.000000 0.483043
O O12 0.939788 0.500000 0.836119
O O13 0.854821 0.274693 0.835442
O O14 0.195848 0.500000 0.015460
O O15 0.238239 0.291996 0.112845
O O16 0.250000 0.250000 0.000000
O O17 0.233538 0.500000 0.196787
O O18 0.290854 0.252108 0.248612
O O19 0.196434 0.500000 0.697146
O O20 0.127474 0.721998 0.613160
O O21 0.500000 0.209323 0.500000
O O22 0.398955 0.000000 0.474039
#
# Coordination Sequence:
#
# PCOD8090213 Si02
#       8
#     8   8   8   8   8   8   8   8
#     4   9  18  33  52  79 112 144 185 235 285 334
#     4  11  22  36  58  86 114 147 187 229 281 336
#     4  11  21  35  57  83 113 146 187 233 281 334
#     4  10  19  33  55  84 114 146 186 232 284 334
#     4  11  23  40  59  83 116 151 191 236 284 338
#     4   9  19  34  54  81 111 144 184 231 279 330
#     4   9  17  32  54  79 107 143 187 231 278 334
#     4  10  21  38  57  81 115 152 190 234 283 336
#
# _framework density 18.106967999999998
#
# number of rings (size 3 to 8) (size 9 to 14) (size 15 to 20)
#    0.000    2.000    2.500    1.500    0.000    3.750 
#    0.000    1.250    0.000    6.000    0.000    0.000 
#    0.000    0.000    0.000    0.000    0.000    0.000 
#
# Total GULP energy -396871.415841 kJ/mol
# GULP energy per Si atom -12402.231745 kJ/mol
# Density = 1.806576 g / cm^3
# Si number density = 18.106968 Si / 1000 Ang^3
#
#
#
# Elastic Constant Matrix: (Units=GPa)
#
#
# Indices 1 2 3 4 5 6 
#
# 1 88.8625 59.6480 66.6539 0.0000 -3.0226 0.0000
# 2 59.6480 94.2995 72.2516 0.0000 -3.6077 0.0000
# 3 66.6539 72.2516 146.1567 0.0000 4.5062 0.0000
# 4 0.0000 0.0000 0.0000 35.7779 0.0000 -1.2983
# 5 -3.0226 -3.6077 4.5062 0.0000 27.3240 0.0000
# 6 0.0000 0.0000 0.0000 -1.2983 0.0000 27.6717
#
#
#
# Elastic Compliance Matrix: (Units=1/GPa)
#
#
# Indices 1 2 3 4 5 6 
#
# 1 0.021702 -0.009694 -0.005166 0.000000 0.001973 0.000000
# 2 -0.009694 0.021773 -0.006431 0.000000 0.002863 0.000000
# 3 -0.005166 -0.006431 0.012484 0.000000 -0.003479 0.000000
# 4 0.000000 0.000000 0.000000 0.027998 0.000000 0.001314
# 5 0.001973 0.002863 -0.003479 0.000000 0.037768 0.000000
# 6 0.000000 0.000000 0.000000 0.001314 0.000000 0.036200
#
#
# Mechanical properties :
#
#
# Convention : Reuss Voigt Hill
#
# Bulk Modulus (GPa) = 74.74832 80.71397 77.73114
# Shear Modulus (GPa) = 24.39438 26.87240 25.63339
#
# Velocity S-wave (km/s) = 3.67445 3.85657 3.76661
# Velocity P-wave (km/s) = 7.70541 8.03143 7.87011
#
# Compressibility (1/GPa) = 0.01337823
#
# Stress axis : x y z
#
# Youngs Moduli (GPa) = 46.07831 45.92828 80.10198
#
# Poissons Ratio (x) = 0.44523 0.41379
# Poissons Ratio (y) = 0.44668 0.51512
# Poissons Ratio (z) = 0.23803 0.29535
#
# Static dielectric constant tensor:
#      x y z
#    x 3.166860 0.000000 -0.004800 
#    y 0.000000 3.409510 0.000000 
#    z -0.004800 0.000000 3.530150 
# 
# 
# High freq. dielectric constant tensor:
#      x y z
#    x 1.671960 0.000000 0.001150 
#    y 0.000000 1.707870 0.000000 
#    z 0.001150 0.000000 1.715940 
# 
# From -- ./inp_files/320189.got.cif
#   From: 2010.06.25/outbox.cif.g09.slc.cpg/sg12_161_cif.got.tgz:320189.got - 2010.06.28 00:19:55.
