data_PCOD8090215
_publ_section_title
;
Structure prediction by ZEFSAII (Michael W. Deem and Ramdas Pophale) SiO2 
 PCOD8090215
Probable space group: C 2/M
;
_chemical_formula_sum "Si O2"
_cell_formula_units_Z 56
_cell_length_a 23.580131
_cell_length_b 10.543164
_cell_length_c 12.547384
_cell_angle_alpha 90.000000
_cell_angle_beta 117.168932
_cell_angle_gamma 90.000000
_cell_volume 2775.213698
_symmetry_space_group_name_H-M "C 2/M"
_symmetry_group_IT_number 12
_symmetry_cell_setting 'monoclinic'
loop_
_space_group_symop_operation_xyz
x,y,z
-x,y,-z
-x,-y,-z
x,-y,z
1/2+x,1/2+y,z
1/2-x,1/2+y,-z
1/2-x,1/2-y,-z
1/2+x,1/2-y,z
loop_
_atom_site_type_symbol
_atom_site_label
_atom_site_fract_x
_atom_site_fract_y
_atom_site_fract_z
Si Si1 0.524315 0.649478 0.826804
Si Si2 0.788828 0.249964 0.782914
Si Si3 0.328178 0.352076 0.426194
Si Si4 0.058526 0.851397 0.615968
Si Si5 0.780670 0.638844 0.091607
Si Si6 0.619696 0.353277 0.309849
Si Si7 0.614189 0.858959 0.969743
O O1 0.532704 0.500000 0.866843
O O2 0.552256 0.677264 0.734644
O O3 0.451733 0.698414 0.770443
O O4 0.563604 0.743756 0.939039
O O5 0.745727 0.329207 0.663886
O O6 0.738290 0.159857 0.801548
O O7 0.838249 0.167159 0.758333
O O8 0.828573 0.340274 0.896078
O O9 0.338624 0.500000 0.445319
O O10 0.374685 0.297200 0.373066
O O11 0.348057 0.289897 0.557398
O O12 0.000000 0.788905 0.500000
O O13 0.056717 0.000000 0.594258
O O14 0.753409 0.500000 0.034923
O O15 0.855664 0.643006 0.124659
O O16 0.750000 0.750000 0.000000
O O17 0.611237 0.500000 0.325047
O O18 0.584089 0.000000 0.963846
#
# Coordination Sequence:
#
# PCOD8090215 Si02
#       7
#     8   8   8   8   8   8   8
#     4  10  20  36  60  88 113 145 190 238 282 329
#     4  11  21  35  55  81 112 155 191 224 277 346
#     4  10  19  33  55  84 115 145 185 237 285 333
#     4   9  15  29  56  87 112 137 177 235 287 323
#     4   9  19  35  56  80 109 143 184 232 281 331
#     4  10  21  36  55  82 114 144 186 242 285 326
#     4  10  22  39  57  81 115 151 188 234 283 337
#
# _framework density 20.178626000000001
#
# number of rings (size 3 to 8) (size 9 to 14) (size 15 to 20)
#    0.000    2.143    1.429    2.143    0.000    4.000 
#    0.000    6.429    0.000    2.143    0.000    0.000 
#    0.000    0.000    0.000    0.000    0.000    0.000 
#
# Total GULP energy -346872.114924 kJ/mol
# GULP energy per Si atom -12388.289819 kJ/mol
# Density = 2.013270 g / cm^3
# Si number density = 20.178626 Si / 1000 Ang^3
#
#
#
# Elastic Constant Matrix: (Units=GPa)
#
#
# Indices 1 2 3 4 5 6 
#
# 1 105.4263 27.4592 48.2952 0.0000 9.2200 0.0000
# 2 27.4592 80.3133 34.4331 0.0000 15.6592 0.0000
# 3 48.2952 34.4331 84.7706 0.0000 19.3329 0.0000
# 4 0.0000 0.0000 0.0000 20.6232 0.0000 4.6870
# 5 9.2200 15.6592 19.3329 0.0000 32.0003 0.0000
# 6 0.0000 0.0000 0.0000 4.6870 0.0000 25.2445
#
#
#
# Elastic Compliance Matrix: (Units=1/GPa)
#
#
# Indices 1 2 3 4 5 6 
#
# 1 0.013036 -0.001698 -0.007040 0.000000 0.001328 0.000000
# 2 -0.001698 0.015817 -0.004412 0.000000 -0.004586 0.000000
# 3 -0.007040 -0.004412 0.019305 0.000000 -0.007475 0.000000
# 4 0.000000 0.000000 0.000000 0.050625 0.000000 -0.009399
# 5 0.001328 -0.004586 -0.007475 0.000000 0.037627 0.000000
# 6 0.000000 0.000000 0.000000 -0.009399 0.000000 0.041358
#
#
# Mechanical properties :
#
#
# Convention : Reuss Voigt Hill
#
# Bulk Modulus (GPa) = 45.74911 54.54280 50.14596
# Shear Modulus (GPa) = 23.65696 26.26179 24.95937
#
# Velocity S-wave (km/s) = 3.42771 3.61150 3.52080
# Velocity P-wave (km/s) = 6.19572 6.66927 6.43685
#
# Compressibility (1/GPa) = 0.02185835
#
# Stress axis : x y z
#
# Youngs Moduli (GPa) = 76.70775 63.22206 51.80136
#
# Poissons Ratio (x) = 0.10733 0.36470
# Poissons Ratio (y) = 0.13022 0.22854
# Poissons Ratio (z) = 0.54005 0.27893
#
# Static dielectric constant tensor:
#      x y z
#    x 3.966260 0.000000 -0.115820 
#    y 0.000000 3.370830 0.000000 
#    z -0.115820 0.000000 3.613420 
# 
# 
# High freq. dielectric constant tensor:
#      x y z
#    x 1.797360 0.000000 -0.004330 
#    y 0.000000 1.750180 0.000000 
#    z -0.004330 0.000000 1.779230 
# 
# From -- ./inp_files/174822.got.cif
#   From: 2010.06.25/outbox.cif.g09.slc.cpg/sg12_88_cif.got.tgz:174822.got - 2010.06.28 00:19:55.
