data_PCOD8090436
_publ_section_title
;
Structure prediction by ZEFSAII (Michael W. Deem and Ramdas Pophale) SiO2 
 PCOD8090436
Probable space group: C 2/M
;
_chemical_formula_sum "Si O2"
_cell_formula_units_Z 56
_cell_length_a 29.725947
_cell_length_b 11.464866
_cell_length_c 24.088040
_cell_angle_alpha 90.000000
_cell_angle_beta 19.012896
_cell_angle_gamma 90.000000
_cell_volume 2674.433764
_symmetry_space_group_name_H-M "C 2/M"
_symmetry_group_IT_number 12
_symmetry_cell_setting 'monoclinic'
loop_
_space_group_symop_operation_xyz
x,y,z
-x,y,-z
-x,-y,-z
x,-y,z
1/2+x,1/2+y,z
1/2-x,1/2+y,-z
1/2-x,1/2-y,-z
1/2+x,1/2-y,z
loop_
_atom_site_type_symbol
_atom_site_label
_atom_site_fract_x
_atom_site_fract_y
_atom_site_fract_z
Si Si1 0.113477 0.726300 0.092791
Si Si2 0.168952 0.368201 0.577602
Si Si3 0.203220 0.125120 0.680465
Si Si4 0.095053 0.131283 0.008999
Si Si5 0.906464 0.865414 0.774094
Si Si6 0.942695 0.869839 0.510341
Si Si7 0.151133 0.710349 0.839155
O O1 0.156179 0.814182 0.993743
O O2 0.058818 0.796247 0.210329
O O3 0.988697 0.643654 0.217940
O O4 0.243533 0.645148 0.953210
O O5 0.221158 0.500000 0.537391
O O6 0.250000 0.250000 0.500000
O O7 0.168041 0.368396 0.511484
O O8 0.210092 0.224995 0.716977
O O9 0.070358 0.135620 0.795111
O O10 0.199076 0.000000 0.716610
O O11 0.152035 0.000000 0.937494
O O12 0.141891 0.200427 0.900087
O O13 0.994756 0.812146 0.618941
O O14 0.945858 0.000000 0.737876
O O15 0.774604 0.879147 0.707857
O O16 0.000000 0.806826 0.500000
O O17 0.003077 0.000000 0.440322
O O18 0.000000 0.654354 0.000000
#
# Coordination Sequence:
#
# PCOD8090436 Si02
#       7
#     8   8   8   8   8   8   8
#     4  11  21  36  59  85 118 154 200 248 292 357
#     4  11  22  37  59  88 122 156 196 246 301 358
#     4   9  18  34  55  82 117 153 189 234 297 361
#     4  10  19  33  56  84 115 153 195 241 300 365
#     4  10  22  38  58  83 114 158 203 246 300 360
#     4  10  21  39  60  79 110 157 200 241 299 366
#     4  10  20  35  59  86 115 145 194 251 300 356
#
# _framework density 20.939012000000002
#
# number of rings (size 3 to 8) (size 9 to 14) (size 15 to 20)
#    0.000    1.857    1.429    3.000    0.000    2.571 
#    0.000    1.429    0.000   10.286    0.000    0.000 
#    0.000    0.000    0.000    0.000    0.000    0.000 
#
# Total GULP energy -346872.841828 kJ/mol
# GULP energy per Si atom -12388.315780 kJ/mol
# Density = 2.089135 g / cm^3
# Si number density = 20.939012 Si / 1000 Ang^3
#
#
#
# Elastic Constant Matrix: (Units=GPa)
#
#
# Indices 1 2 3 4 5 6 
#
# 1 91.2719 24.2556 19.0890 0.0006 9.7824 0.0000
# 2 24.2556 84.3341 19.2554 0.0020 1.1911 -0.0009
# 3 19.0890 19.2554 89.3629 0.0024 -3.3430 -0.0006
# 4 0.0006 0.0020 0.0024 21.5463 -0.0010 -1.7658
# 5 9.7824 1.1911 -3.3430 -0.0010 36.2639 0.0000
# 6 0.0000 -0.0009 -0.0006 -1.7658 0.0000 6.7834
#
#
#
# Elastic Compliance Matrix: (Units=1/GPa)
#
#
# Indices 1 2 3 4 5 6 
#
# 1 0.012602 -0.003082 -0.002159 0.000000 -0.003497 -0.000001
# 2 -0.003082 0.013241 -0.002187 -0.000001 0.000195 0.000001
# 3 -0.002159 -0.002187 0.012189 -0.000001 0.001778 0.000001
# 4 0.000000 -0.000001 -0.000001 0.047423 0.000001 0.012345
# 5 -0.003497 0.000195 0.001778 0.000001 0.028676 0.000000
# 6 -0.000001 0.000001 0.000001 0.012345 0.000000 0.150632
#
#
# Mechanical properties :
#
#
# Convention : Reuss Voigt Hill
#
# Bulk Modulus (GPa) = 43.14907 43.35209 43.25058
# Shear Modulus (GPa) = 17.40073 26.41000 21.90536
#
# Velocity S-wave (km/s) = 2.88587 3.55531 3.23793
# Velocity P-wave (km/s) = 5.63525 6.13209 5.88891
#
# Compressibility (1/GPa) = 0.02317547
#
# Stress axis : x y z
#
# Youngs Moduli (GPa) = 79.35488 75.52450 82.03957
#
# Poissons Ratio (x) = 0.23278 0.17709
# Poissons Ratio (y) = 0.24458 0.17945
# Poissons Ratio (z) = 0.17129 0.16520
#
# Static dielectric constant tensor:
#      x y z
#    x 3.754230 0.000000 0.133680 
#    y 0.000000 3.650650 0.000000 
#    z 0.133680 0.000000 3.767020 
# 
# 
# High freq. dielectric constant tensor:
#      x y z
#    x 1.813460 0.000000 0.015250 
#    y 0.000000 1.802960 0.000000 
#    z 0.015250 0.000000 1.822390 
# 
# From -- ./inp_files/353939.got.cif
#   From: 2010.06.25/outbox.cif.g09.slc.cpg/sg12_177_cif.got.tgz:353939.got - 2010.06.28 00:19:55.
