data_PCOD8090695
_publ_section_title
;
Structure prediction by ZEFSAII (Michael W. Deem and Ramdas Pophale) SiO2 
 PCOD8090695
Probable space group: C 2/M
;
_chemical_formula_sum "Si O2"
_cell_formula_units_Z 56
_cell_length_a 15.085450
_cell_length_b 9.133607
_cell_length_c 24.227868
_cell_angle_alpha 90.000000
_cell_angle_beta 119.351944
_cell_angle_gamma 90.000000
_cell_volume 2909.682411
_symmetry_space_group_name_H-M "C 2/M"
_symmetry_group_IT_number 12
_symmetry_cell_setting 'monoclinic'
loop_
_space_group_symop_operation_xyz
x,y,z
-x,y,-z
-x,-y,-z
x,-y,z
1/2+x,1/2+y,z
1/2-x,1/2+y,-z
1/2-x,1/2-y,-z
1/2+x,1/2-y,z
loop_
_atom_site_type_symbol
_atom_site_label
_atom_site_fract_x
_atom_site_fract_y
_atom_site_fract_z
Si Si1 0.603009 0.828364 0.503030
Si Si2 0.674779 0.169476 0.936463
Si Si3 0.731651 0.331479 0.357900
Si Si4 0.741002 0.672694 0.155808
Si Si5 0.673313 0.673851 0.712224
Si Si6 0.945577 0.168287 0.618795
Si Si7 0.466712 0.830215 0.927939
O O1 0.500000 0.772801 0.500000
O O2 0.695531 0.780429 0.570146
O O3 0.613681 0.753626 0.447030
O O4 0.601693 0.000000 0.492203
O O5 0.698431 0.214427 0.881131
O O6 0.558347 0.209300 0.914470
O O7 0.694895 0.000000 0.952966
O O8 0.750000 0.250000 0.000000
O O9 0.754349 0.500000 0.348756
O O10 0.748316 0.230019 0.310017
O O11 0.615783 0.310369 0.342710
O O12 0.739875 0.500000 0.166521
O O13 0.800267 0.754021 0.221953
O O14 0.625925 0.728289 0.117666
O O15 0.681545 0.500000 0.720005
O O16 0.559928 0.726445 0.661728
O O17 0.946501 0.000000 0.601280
O O18 0.434421 0.000000 0.913250
O O19 0.500000 0.791909 0.000000
#
# Coordination Sequence:
#
# PCOD8090695 Si02
#       7
#     8   8   8   8   8   8   8
#     4  10  19  33  58  89 118 153 193 241 297 348
#     4  10  21  37  60  90 120 152 189 232 286 342
#     4  10  21  39  60  85 119 154 195 243 294 349
#     4  11  24  40  60  87 119 154 195 240 288 347
#     4  11  24  41  59  82 114 155 199 241 292 348
#     4  10  22  38  59  86 117 153 196 245 293 347
#     4  10  20  37  62  90 121 153 187 234 287 340
#
# _framework density 19.246086999999999
#
# number of rings (size 3 to 8) (size 9 to 14) (size 15 to 20)
#    0.000    1.714    2.857    1.286    0.000    4.571 
#    0.000    2.857    0.000    0.000    0.000    0.000 
#    0.000    0.000    0.000    0.000    0.000    0.000 
#
# Total GULP energy -347325.103110 kJ/mol
# GULP energy per Si atom -12404.467968 kJ/mol
# Density = 1.920228 g / cm^3
# Si number density = 19.246087 Si / 1000 Ang^3
#
#
#
# Elastic Constant Matrix: (Units=GPa)
#
#
# Indices 1 2 3 4 5 6 
#
# 1 113.1169 38.2953 43.9951 0.0000 -18.4454 0.0000
# 2 38.2953 68.0636 52.5675 0.0000 -12.4759 0.0000
# 3 43.9951 52.5675 109.1703 0.0000 -20.8631 0.0000
# 4 0.0000 0.0000 0.0000 37.4327 0.0000 -1.7278
# 5 -18.4454 -12.4759 -20.8631 0.0000 25.1895 0.0000
# 6 0.0000 0.0000 0.0000 -1.7278 0.0000 28.6004
#
#
#
# Elastic Compliance Matrix: (Units=1/GPa)
#
#
# Indices 1 2 3 4 5 6 
#
# 1 0.011815 -0.004440 -0.001652 0.000000 0.005085 0.000000
# 2 -0.004440 0.025213 -0.010201 0.000000 0.000788 0.000000
# 3 -0.001652 -0.010201 0.016087 0.000000 0.007062 0.000000
# 4 0.000000 0.000000 0.000000 0.026789 0.000000 0.001618
# 5 0.005085 0.000788 0.007062 0.000000 0.049662 0.000000
# 6 0.000000 0.000000 0.000000 0.001618 0.000000 0.035062
#
#
# Mechanical properties :
#
#
# Convention : Reuss Voigt Hill
#
# Bulk Modulus (GPa) = 48.70849 62.22963 55.46906
# Shear Modulus (GPa) = 24.50298 28.61070 26.55684
#
# Velocity S-wave (km/s) = 3.57198 3.85979 3.71867
# Velocity P-wave (km/s) = 6.50963 7.22965 6.87907
#
# Compressibility (1/GPa) = 0.02053030
#
# Stress axis : x y z
#
# Youngs Moduli (GPa) = 84.63743 39.66236 62.16149
#
# Poissons Ratio (x) = 0.17610 0.10268
# Poissons Ratio (y) = 0.37578 0.63409
# Poissons Ratio (z) = 0.13981 0.40458
#
# Static dielectric constant tensor:
#      x y z
#    x 3.786140 0.000000 -0.002130 
#    y 0.000000 3.448220 0.000000 
#    z -0.002130 0.000000 3.456600 
# 
# 
# High freq. dielectric constant tensor:
#      x y z
#    x 1.763820 0.000000 -0.003240 
#    y 0.000000 1.745550 0.000000 
#    z -0.003240 0.000000 1.744090 
# 
# From -- ./inp_files/309015.got.cif
#   From: 2010.06.25/outbox.cif.g09.slc.cpg/sg12_155_cif.got.tgz:309015.got - 2010.06.28 00:19:55.
