data_PCOD8090031
_publ_section_title
;
Structure prediction by ZEFSAII (Michael W. Deem and Ramdas Pophale) SiO2 
 PCOD8090031
Probable space group: C 2/M
;
_chemical_formula_sum "Si O2"
_cell_formula_units_Z 56
_cell_length_a 21.944331
_cell_length_b 8.681950
_cell_length_c 17.954670
_cell_angle_alpha 90.000000
_cell_angle_beta 119.923263
_cell_angle_gamma 90.000000
_cell_volume 2964.715236
_symmetry_space_group_name_H-M "C 2/M"
_symmetry_group_IT_number 12
_symmetry_cell_setting 'monoclinic'
loop_
_space_group_symop_operation_xyz
x,y,z
-x,y,-z
-x,-y,-z
x,-y,z
1/2+x,1/2+y,z
1/2-x,1/2+y,-z
1/2-x,1/2-y,-z
1/2+x,1/2-y,z
loop_
_atom_site_type_symbol
_atom_site_label
_atom_site_fract_x
_atom_site_fract_y
_atom_site_fract_z
Si Si1 0.672371 0.174540 0.539676
Si Si2 0.039592 0.320886 0.952712
Si Si3 0.922743 0.680359 0.252756
Si Si4 0.429889 0.321599 0.415078
Si Si5 0.670600 0.326941 0.387089
Si Si6 0.327587 0.818742 0.056509
Si Si7 0.967321 0.825015 0.776853
O O1 0.633482 0.297408 0.566865
O O2 0.655304 0.206211 0.443010
O O3 0.754472 0.201654 0.605045
O O4 0.649026 0.000000 0.544055
O O5 0.048555 0.500000 0.974044
O O6 0.117142 0.256589 0.974053
O O7 0.986706 0.293862 0.852893
O O8 0.000000 0.242751 0.000000
O O9 0.939024 0.500000 0.256184
O O10 0.908377 0.724381 0.329173
O O11 0.858273 0.723431 0.157347
O O12 0.991016 0.779021 0.272297
O O13 0.500000 0.261390 0.500000
O O14 0.437581 0.500000 0.398115
O O15 0.666249 0.500000 0.417927
O O16 0.615010 0.304745 0.287520
O O17 0.320505 0.000000 0.043571
O O18 0.250000 0.750000 0.000000
O O19 0.986056 0.000000 0.811242
#
# Coordination Sequence:
#
# PCOD8090031 Si02
#       7
#     8   8   8   8   8   8   8
#     4  10  20  34  53  75 104 140 178 218 260 314
#     4   9  19  37  57  79 110 141 179 228 272 322
#     4  10  21  37  56  80 109 142 182 222 264 321
#     4  11  23  37  53  77 109 142 179 225 272 314
#     4   9  19  35  52  74 106 139 173 217 266 313
#     4   9  19  36  58  82 109 144 181 224 277 330
#     4  10  19  33  55  80 106 137 174 217 266 317
#
# _framework density 18.888829999999999
#
# number of rings (size 3 to 8) (size 9 to 14) (size 15 to 20)
#    0.000    2.286    0.000    3.429    0.000    9.429 
#    2.571    0.000    0.000    0.000    0.000    0.000 
#    0.000    0.000    0.000    0.000    0.000    0.000 
#
# Total GULP energy -347057.793078 kJ/mol
# GULP energy per Si atom -12394.921181 kJ/mol
# Density = 1.884584 g / cm^3
# Si number density = 18.888830 Si / 1000 Ang^3
#
#
#
# Elastic Constant Matrix: (Units=GPa)
#
#
# Indices 1 2 3 4 5 6 
#
# 1 128.1262 26.4212 68.5135 0.0000 5.0065 0.0000
# 2 26.4212 34.2228 23.1129 0.0000 5.8513 0.0000
# 3 68.5135 23.1129 92.1233 0.0000 13.5414 0.0000
# 4 0.0000 0.0000 0.0000 25.8189 0.0000 -2.6366
# 5 5.0065 5.8513 13.5414 0.0000 23.1222 0.0000
# 6 0.0000 0.0000 0.0000 -2.6366 0.0000 24.4846
#
#
#
# Elastic Compliance Matrix: (Units=1/GPa)
#
#
# Indices 1 2 3 4 5 6 
#
# 1 0.013787 -0.004811 -0.009614 0.000000 0.003863 0.000000
# 2 -0.004811 0.037217 -0.004954 0.000000 -0.005475 0.000000
# 3 -0.009614 -0.004954 0.020525 0.000000 -0.008685 0.000000
# 4 0.000000 0.000000 0.000000 0.039162 0.000000 0.004217
# 5 0.003863 -0.005475 -0.008685 0.000000 0.048884 0.000000
# 6 0.000000 0.000000 0.000000 0.004217 0.000000 0.041296
#
#
# Mechanical properties :
#
#
# Convention : Reuss Voigt Hill
#
# Bulk Modulus (GPa) = 30.51680 54.50747 42.51213
# Shear Modulus (GPa) = 19.95577 23.78014 21.86795
#
# Velocity S-wave (km/s) = 3.25389 3.55202 3.40622
# Velocity P-wave (km/s) = 5.50528 6.76329 6.16645
#
# Compressibility (1/GPa) = 0.03276884
#
# Stress axis : x y z
#
# Youngs Moduli (GPa) = 72.53096 26.86951 48.72102
#
# Poissons Ratio (x) = 0.12928 0.46843
# Poissons Ratio (y) = 0.34898 0.24138
# Poissons Ratio (z) = 0.69734 0.13312
#
# Static dielectric constant tensor:
#      x y z
#    x 3.676290 0.000000 0.045210 
#    y 0.000000 3.398420 0.000000 
#    z 0.045210 0.000000 3.391420 
# 
# 
# High freq. dielectric constant tensor:
#      x y z
#    x 1.735280 0.000000 0.004620 
#    y 0.000000 1.731520 0.000000 
#    z 0.004620 0.000000 1.724530 
# 
# From -- ./inp_files/281741.got.cif
#   From: 2010.06.25/outbox.cif.g09.slc.cpg/sg12_141_cif.got.tgz:281741.got - 2010.06.28 00:19:55.
