data_PCOD8090205
_publ_section_title
;
Structure prediction by ZEFSAII (Michael W. Deem and Ramdas Pophale) SiO2 
 PCOD8090205
Probable space group: C 2/M
;
_chemical_formula_sum "Si O2"
_cell_formula_units_Z 56
_cell_length_a 23.999093
_cell_length_b 9.042055
_cell_length_c 13.639484
_cell_angle_alpha 90.000000
_cell_angle_beta 94.280299
_cell_angle_gamma 90.000000
_cell_volume 2951.528026
_symmetry_space_group_name_H-M "C 2/M"
_symmetry_group_IT_number 12
_symmetry_cell_setting 'monoclinic'
loop_
_space_group_symop_operation_xyz
x,y,z
-x,y,-z
-x,-y,-z
x,-y,z
1/2+x,1/2+y,z
1/2-x,1/2+y,-z
1/2-x,1/2-y,-z
1/2+x,1/2-y,z
loop_
_atom_site_type_symbol
_atom_site_label
_atom_site_fract_x
_atom_site_fract_y
_atom_site_fract_z
Si Si1 0.118510 0.829202 0.352031
Si Si2 0.525930 0.170970 0.231422
Si Si3 0.195075 0.827612 0.179019
Si Si4 0.193560 0.172096 0.757004
Si Si5 0.079429 0.173238 0.851877
Si Si6 0.102010 0.671818 0.053963
Si Si7 0.195991 0.827434 0.534602
O O1 0.064358 0.729419 0.325212
O O2 0.167265 0.794150 0.280294
O O3 0.141927 0.786483 0.462072
O O4 0.100517 0.000000 0.342680
O O5 0.468858 0.263119 0.224298
O O6 0.557519 0.197948 0.133655
O O7 0.512435 0.000000 0.247526
O O8 0.257367 0.764780 0.186671
O O9 0.160594 0.748327 0.088355
O O10 0.196874 0.000000 0.154675
O O11 0.137939 0.208473 0.808749
O O12 0.184036 0.223276 0.643757
O O13 0.209479 0.000000 0.763981
O O14 0.070004 0.000000 0.866302
O O15 0.075890 0.254658 0.954960
O O16 0.112959 0.500000 0.035877
O O17 0.250000 0.750000 0.500000
O O18 0.208018 0.000000 0.528748
#
# Coordination Sequence:
#
# PCOD8090205 Si02
#       7
#     8   8   8   8   8   8   8
#     4   9  18  33  55  84 111 138 177 224 270 318
#     4  10  21  37  58  82 107 140 182 227 274 321
#     4  10  19  33  55  84 112 141 181 226 271 321
#     4  10  22  37  54  79 114 149 181 219 271 328
#     4  11  23  38  55  78 109 148 186 223 269 323
#     4  10  21  37  58  82 108 141 182 228 276 324
#     4  10  19  34  57  84 112 142 179 222 269 322
#
# _framework density 18.973223000000001
#
# number of rings (size 3 to 8) (size 9 to 14) (size 15 to 20)
#    0.000    2.000    1.429    2.143    0.000    6.286 
#    0.000    0.714    0.000    4.286    0.000    0.000 
#    0.000    0.000    0.000    0.000    0.000    0.000 
#
# Total GULP energy -347334.861396 kJ/mol
# GULP energy per Si atom -12404.816478 kJ/mol
# Density = 1.893004 g / cm^3
# Si number density = 18.973223 Si / 1000 Ang^3
#
#
#
# Elastic Constant Matrix: (Units=GPa)
#
#
# Indices 1 2 3 4 5 6 
#
# 1 107.1096 58.3414 16.7002 0.0000 26.3333 0.0000
# 2 58.3414 90.2197 19.7639 0.0000 10.5643 0.0000
# 3 16.7002 19.7639 41.7462 0.0000 18.0352 0.0000
# 4 0.0000 0.0000 0.0000 25.2109 0.0000 6.9394
# 5 26.3333 10.5643 18.0352 0.0000 24.7454 0.0000
# 6 0.0000 0.0000 0.0000 6.9394 0.0000 37.5120
#
#
#
# Elastic Compliance Matrix: (Units=1/GPa)
#
#
# Indices 1 2 3 4 5 6 
#
# 1 0.019955 -0.011918 0.006766 0.000000 -0.021079 0.000000
# 2 -0.011918 0.019522 -0.009273 0.000000 0.011107 0.000000
# 3 0.006766 -0.009273 0.039464 0.000000 -0.032004 0.000000
# 4 0.000000 0.000000 0.000000 0.041793 0.000000 -0.007731
# 5 -0.021079 0.011107 -0.032004 0.000000 0.081427 0.000000
# 6 0.000000 0.000000 0.000000 -0.007731 0.000000 0.028088
#
#
# Mechanical properties :
#
#
# Convention : Reuss Voigt Hill
#
# Bulk Modulus (GPa) = 19.96362 47.63183 33.79773
# Shear Modulus (GPa) = 18.12924 27.11166 22.62045
#
# Velocity S-wave (km/s) = 3.09450 3.78424 3.45661
# Velocity P-wave (km/s) = 4.82833 6.65231 5.81231
#
# Compressibility (1/GPa) = 0.05009110
#
# Stress axis : x y z
#
# Youngs Moduli (GPa) = 50.11178 51.22462 25.33945
#
# Poissons Ratio (x) = 0.61051 -0.17145
# Poissons Ratio (y) = 0.59725 0.23497
# Poissons Ratio (z) = -0.33906 0.47500
#
# Static dielectric constant tensor:
#      x y z
#    x 3.460510 0.000000 0.193810 
#    y 0.000000 3.516100 0.000000 
#    z 0.193810 0.000000 3.507540 
# 
# 
# High freq. dielectric constant tensor:
#      x y z
#    x 1.735360 0.000000 0.020380 
#    y 0.000000 1.743450 0.000000 
#    z 0.020380 0.000000 1.729640 
# 
# From -- ./inp_files/230957.got.cif
#   From: 2010.06.25/outbox.cif.g09.slc.cpg/sg12_116_cif.got.tgz:230957.got - 2010.06.28 00:19:55.
