data_PCOD8090399
_publ_section_title
;
Structure prediction by ZEFSAII (Michael W. Deem and Ramdas Pophale) SiO2 
 PCOD8090399
Probable space group: C 2/M
;
_chemical_formula_sum "Si O2"
_cell_formula_units_Z 64
_cell_length_a 16.813081
_cell_length_b 31.888759
_cell_length_c 9.069596
_cell_angle_alpha 90.000000
_cell_angle_beta 137.830727
_cell_angle_gamma 90.000000
_cell_volume 3264.408705
_symmetry_space_group_name_H-M "C 2/M"
_symmetry_group_IT_number 12
_symmetry_cell_setting 'monoclinic'
loop_
_space_group_symop_operation_xyz
x,y,z
-x,y,-z
-x,-y,-z
x,-y,z
1/2+x,1/2+y,z
1/2-x,1/2+y,-z
1/2-x,1/2-y,-z
1/2+x,1/2-y,z
loop_
_atom_site_type_symbol
_atom_site_label
_atom_site_fract_x
_atom_site_fract_y
_atom_site_fract_z
Si Si1 0.915359 0.773707 0.019350
Si Si2 0.227169 0.705542 0.545550
Si Si3 0.202893 0.874654 0.538154
Si Si4 0.967593 0.299571 0.290021
Si Si5 0.708379 0.872783 0.016558
Si Si6 0.165579 0.453766 0.347831
Si Si7 0.910486 0.454171 0.093910
Si Si8 0.535229 0.347152 0.707810
O O1 0.892331 0.735603 0.100312
O O2 0.979885 0.810233 0.196502
O O3 0.787794 0.790214 0.789429
O O4 0.000000 0.760277 0.000000
O O5 0.250000 0.750000 0.500000
O O6 0.286783 0.667523 0.541104
O O7 0.089597 0.694347 0.369131
O O8 0.280995 0.867661 0.792621
O O9 0.241997 0.915809 0.499665
O O10 0.064188 0.881910 0.387552
O O11 0.000000 0.285700 0.500000
O O12 0.888972 0.341213 0.181473
O O13 0.834152 0.867022 0.108965
O O14 0.661207 0.919334 0.912678
O O15 0.218310 0.500000 0.461762
O O16 0.050760 0.444391 0.290442
O O17 0.131342 0.454431 0.130920
O O18 0.885629 0.500000 0.130581
O O19 0.500000 0.328461 0.500000
#
# Coordination Sequence:
#
# PCOD8090399 Si02
#       8
#     8   8   8   8   8   8   8   8
#     4  12  23  40  59  79 109 151 186 231 283 330
#     4  12  23  37  57  84 109 140 192 232 276 338
#     4  10  19  33  56  83 112 149 191 237 276 333
#     4  12  26  40  57  84 114 145 188 239 283 333
#     4  10  21  35  56  81 115 152 186 233 289 329
#     4   8  14  26  48  80 115 146 182 230 284 333
#     4   8  14  28  50  79 112 148 184 225 282 339
#     4  10  21  38  56  80 112 151 193 228 281 339
#
# _framework density 19.605388000000001
#
# number of rings (size 3 to 8) (size 9 to 14) (size 15 to 20)
#    0.000    1.750    2.500    3.375    0.000    5.000 
#    0.000    0.625    0.000    4.125    0.000    4.375 
#    0.000    0.000    0.000    0.000    0.000    0.125 
#
# Total GULP energy -396679.982038 kJ/mol
# GULP energy per Si atom -12396.249439 kJ/mol
# Density = 1.956077 g / cm^3
# Si number density = 19.605388 Si / 1000 Ang^3
#
#
#
# Elastic Constant Matrix: (Units=GPa)
#
#
# Indices 1 2 3 4 5 6 
#
# 1 84.8802 57.9684 37.0505 0.0000 17.7241 0.0000
# 2 57.9684 155.5642 50.5253 0.0000 10.7313 0.0000
# 3 37.0505 50.5253 86.3385 0.0000 11.6094 0.0000
# 4 0.0000 0.0000 0.0000 22.5158 0.0000 4.7603
# 5 17.7241 10.7313 11.6094 0.0000 33.4718 0.0000
# 6 0.0000 0.0000 0.0000 4.7603 0.0000 21.6785
#
#
#
# Elastic Compliance Matrix: (Units=1/GPa)
#
#
# Indices 1 2 3 4 5 6 
#
# 1 0.018419 -0.005094 -0.004019 0.000000 -0.006726 0.000000
# 2 -0.005094 0.009376 -0.003419 0.000000 0.000877 0.000000
# 3 -0.004019 -0.003419 0.015602 0.000000 -0.002187 0.000000
# 4 0.000000 0.000000 0.000000 0.046576 0.000000 -0.010227
# 5 -0.006726 0.000877 -0.002187 0.000000 0.033915 0.000000
# 6 0.000000 0.000000 0.000000 -0.010227 0.000000 0.048374
#
#
# Mechanical properties :
#
#
# Convention : Reuss Voigt Hill
#
# Bulk Modulus (GPa) = 54.54481 68.65238 61.59859
# Shear Modulus (GPa) = 24.57761 27.61579 26.09670
#
# Velocity S-wave (km/s) = 3.54448 3.75718 3.65238
# Velocity P-wave (km/s) = 6.68078 7.34268 7.01954
#
# Compressibility (1/GPa) = 0.01833355
#
# Stress axis : x y z
#
# Youngs Moduli (GPa) = 54.29136 106.64999 64.09585
#
# Poissons Ratio (x) = 0.54332 0.25757
# Poissons Ratio (y) = 0.27658 0.21914
# Poissons Ratio (z) = 0.21817 0.36463
#
# Static dielectric constant tensor:
#      x y z
#    x 3.528360 0.000000 0.189960 
#    y 0.000000 3.805490 0.000000 
#    z 0.189960 0.000000 3.646130 
# 
# 
# High freq. dielectric constant tensor:
#      x y z
#    x 1.756290 0.000000 0.014490 
#    y 0.000000 1.756430 0.000000 
#    z 0.014490 0.000000 1.749690 
# 
# From -- ./inp_files/80750.got.cif
#   From: 2010.06.25/outbox.cif.g09.slc.cpg/sg12_41_cif.got.tgz:80750.got - 2010.06.28 00:19:55.
