data_PCOD8090581
_publ_section_title
;
Structure prediction by ZEFSAII (Michael W. Deem and Ramdas Pophale) SiO2 
 PCOD8090581
Probable space group: C 2/M
;
_chemical_formula_sum "Si O2"
_cell_formula_units_Z 56
_cell_length_a 9.660629
_cell_length_b 17.858422
_cell_length_c 18.371323
_cell_angle_alpha 90.000000
_cell_angle_beta 110.859266
_cell_angle_gamma 90.000000
_cell_volume 2961.751648
_symmetry_space_group_name_H-M "C 2/M"
_symmetry_group_IT_number 12
_symmetry_cell_setting 'monoclinic'
loop_
_space_group_symop_operation_xyz
x,y,z
-x,y,-z
-x,-y,-z
x,-y,z
1/2+x,1/2+y,z
1/2-x,1/2+y,-z
1/2-x,1/2-y,-z
1/2+x,1/2-y,z
loop_
_atom_site_type_symbol
_atom_site_label
_atom_site_fract_x
_atom_site_fract_y
_atom_site_fract_z
Si Si1 0.774865 0.416584 0.641610
Si Si2 0.925815 0.828367 0.194060
Si Si3 0.614110 0.819674 0.212088
Si Si4 0.540873 0.582524 0.343640
Si Si5 0.444009 0.914785 0.064983
Si Si6 0.115357 0.085694 0.962504
Si Si7 0.158498 0.825102 0.492252
O O1 0.846380 0.500000 0.649352
O O2 0.875760 0.360987 0.708236
O O3 0.616495 0.424305 0.648248
O O4 0.755865 0.382423 0.557944
O O5 0.031684 0.757987 0.205833
O O6 0.019832 0.888091 0.257830
O O7 0.774864 0.805612 0.206821
O O8 0.885807 0.862708 0.108574
O O9 0.512492 0.871525 0.144254
O O10 0.614702 0.500000 0.353892
O O11 0.642098 0.638597 0.409369
O O12 0.501223 0.000000 0.081403
O O13 0.500000 0.879050 0.000000
O O14 0.268397 0.908530 0.034302
O O15 0.082343 0.000000 0.932926
O O16 0.000000 0.116160 0.000000
O O17 0.250000 0.750000 0.500000
O O18 0.000000 0.808069 0.500000
#
# Coordination Sequence:
#
# PCOD8090581 Si02
#       7
#     8   8   8   8   8   8   8
#     4   9  18  34  57  83 109 141 187 230 263 312
#     4  11  23  37  55  80 112 145 181 227 276 327
#     4  11  23  36  55  81 111 146 181 226 278 323
#     4   9  18  34  58  83 107 142 188 228 264 315
#     4  10  20  37  59  80 104 139 186 227 267 326
#     4  10  22  39  59  81 107 141 181 228 277 324
#     4  10  19  33  57  86 115 145 177 220 271 321
#
# _framework density 18.907730000000001
#
# number of rings (size 3 to 8) (size 9 to 14) (size 15 to 20)
#    0.000    2.000    1.429    2.143    2.000    4.000 
#    0.000    0.000    0.000    3.429    0.000    0.000 
#    0.000    0.000    0.000    0.000    0.000    0.000 
#
# Total GULP energy -347202.696656 kJ/mol
# GULP energy per Si atom -12400.096309 kJ/mol
# Density = 1.886470 g / cm^3
# Si number density = 18.907730 Si / 1000 Ang^3
#
#
#
# Elastic Constant Matrix: (Units=GPa)
#
#
# Indices 1 2 3 4 5 6 
#
# 1 69.1423 35.3299 24.8214 0.0000 1.2962 0.0000
# 2 35.3299 120.9834 48.0876 0.0000 11.5321 0.0000
# 3 24.8214 48.0876 111.8018 0.0000 11.3698 0.0000
# 4 0.0000 0.0000 0.0000 18.5386 0.0000 7.9798
# 5 1.2962 11.5321 11.3698 0.0000 18.5816 0.0000
# 6 0.0000 0.0000 0.0000 7.9798 0.0000 23.1062
#
#
#
# Elastic Compliance Matrix: (Units=1/GPa)
#
#
# Indices 1 2 3 4 5 6 
#
# 1 0.017516 -0.004501 -0.002253 0.000000 0.002950 0.000000
# 2 -0.004501 0.011385 -0.003424 0.000000 -0.004657 0.000000
# 3 -0.002253 -0.003424 0.011394 0.000000 -0.004690 0.000000
# 4 0.000000 0.000000 0.000000 0.063360 0.000000 -0.021882
# 5 0.002950 -0.004657 -0.004690 0.000000 0.059371 0.000000
# 6 0.000000 0.000000 0.000000 -0.021882 0.000000 0.050835
#
#
# Mechanical properties :
#
#
# Convention : Reuss Voigt Hill
#
# Bulk Modulus (GPa) = 50.15121 57.60058 53.87589
# Shear Modulus (GPa) = 20.75867 24.95785 22.85826
#
# Velocity S-wave (km/s) = 3.31704 3.63710 3.48075
# Velocity P-wave (km/s) = 6.42278 6.94033 6.68656
#
# Compressibility (1/GPa) = 0.01993970
#
# Stress axis : x y z
#
# Youngs Moduli (GPa) = 57.08995 87.83688 87.76390
#
# Poissons Ratio (x) = 0.39534 0.19773
# Poissons Ratio (y) = 0.25695 0.30050
# Poissons Ratio (z) = 0.12862 0.30075
#
# Static dielectric constant tensor:
#      x y z
#    x 3.394920 0.000000 -0.091150 
#    y 0.000000 3.713640 0.000000 
#    z -0.091150 0.000000 3.841630 
# 
# 
# High freq. dielectric constant tensor:
#      x y z
#    x 1.707420 0.000000 0.006490 
#    y 0.000000 1.741300 0.000000 
#    z 0.006490 0.000000 1.750310 
# 
# From -- ./inp_files/257182.got.cif
#   From: 2010.06.25/outbox.cif.g09.slc.cpg/sg12_129_cif.got.tgz:257182.got - 2010.06.28 00:19:55.
