data_PCOD8090840
_publ_section_title
;
Structure prediction by ZEFSAII (Michael W. Deem and Ramdas Pophale) SiO2 
 PCOD8090840
Probable space group: C 2/M
;
_chemical_formula_sum "Si O2"
_cell_formula_units_Z 48
_cell_length_a 25.228112
_cell_length_b 7.726907
_cell_length_c 24.524467
_cell_angle_alpha 90.000000
_cell_angle_beta 144.740950
_cell_angle_gamma 90.000000
_cell_volume 2759.765244
_symmetry_space_group_name_H-M "C 2/M"
_symmetry_group_IT_number 12
_symmetry_cell_setting 'monoclinic'
loop_
_space_group_symop_operation_xyz
x,y,z
-x,y,-z
-x,-y,-z
x,-y,z
1/2+x,1/2+y,z
1/2-x,1/2+y,-z
1/2-x,1/2-y,-z
1/2+x,1/2-y,z
loop_
_atom_site_type_symbol
_atom_site_label
_atom_site_fract_x
_atom_site_fract_y
_atom_site_fract_z
Si Si1 0.220800 0.197259 0.216001
Si Si2 0.942856 0.000000 0.535236
Si Si3 0.574145 0.200298 0.019216
Si Si4 0.858775 0.000000 0.348798
Si Si5 0.863658 0.695552 0.536402
Si Si6 0.152534 0.796041 0.359004
Si Si7 0.573286 0.703238 0.180713
O O1 0.307029 0.324342 0.288379
O O2 0.149560 0.269888 0.201748
O O3 0.253273 0.000000 0.254863
O O4 0.169720 0.203110 0.113737
O O5 0.874708 0.000000 0.426750
O O6 0.927652 0.826705 0.557391
O O7 0.047495 0.000000 0.605366
O O8 0.530402 0.239383 0.923016
O O9 0.594166 0.000000 0.043311
O O10 0.500000 0.271454 0.000000
O O11 0.881867 0.500000 0.530795
O O12 0.886093 0.703122 0.619671
O O13 0.758646 0.752240 0.438339
O O14 0.095393 0.723381 0.259360
O O15 0.141360 0.000000 0.357755
O O16 0.579955 0.500000 0.188097
#
# Coordination Sequence:
#
# PCOD8090840 Si02
#       7
#     8   4   8   4   8   8   8
#     4  10  19  34  52  74 106 141 175 211 252 306
#     4  11  24  40  54  74 106 132 173 229 256 290
#     4   9  16  27  44  71 108 141 169 203 253 308
#     4  11  24  38  55  76  96 138 185 214 258 301
#     4  10  20  35  54  75 104 140 170 208 260 309
#     4   9  17  31  50  78 110 137 170 203 252 317
#     4   9  17  27  46  77 111 142 168 206 255 307
#
# _framework density 17.392785
#
# number of rings (size 3 to 8) (size 9 to 14) (size 15 to 20)
#    0.000    2.333    1.667    1.500    2.333    5.333 
#    0.000    1.667    0.000    0.000    0.000    1.167 
#    0.000    0.000    0.000    0.000    0.000    0.000 
#
# Total GULP energy -297519.122832 kJ/mol
# GULP energy per Si atom -12396.630118 kJ/mol
# Density = 1.735320 g / cm^3
# Si number density = 17.392785 Si / 1000 Ang^3
#
#
#
# Elastic Constant Matrix: (Units=GPa)
#
#
# Indices 1 2 3 4 5 6 
#
# 1 66.9082 34.7088 45.5935 0.0001 -10.0995 0.0001
# 2 34.7088 84.5478 36.3418 0.0002 2.6466 0.0005
# 3 45.5935 36.3418 126.1005 0.0000 -21.8358 0.0000
# 4 0.0001 0.0002 0.0000 25.7637 0.0000 1.1212
# 5 -10.0995 2.6466 -21.8358 0.0000 25.1213 0.0001
# 6 0.0001 0.0005 0.0000 1.1212 0.0001 19.0435
#
#
#
# Elastic Compliance Matrix: (Units=1/GPa)
#
#
# Indices 1 2 3 4 5 6 
#
# 1 0.023255 -0.007437 -0.005309 0.000000 0.005518 0.000000
# 2 -0.007437 0.016597 -0.003431 0.000000 -0.007721 0.000000
# 3 -0.005309 -0.003431 0.012398 0.000000 0.009003 0.000000
# 4 0.000000 0.000000 0.000000 0.038914 0.000000 -0.002291
# 5 0.005518 -0.007721 0.009003 0.000000 0.050664 0.000000
# 6 0.000000 0.000000 0.000000 -0.002291 0.000000 0.052646
#
#
# Mechanical properties :
#
#
# Convention : Reuss Voigt Hill
#
# Bulk Modulus (GPa) = 50.26550 56.76052 53.51301
# Shear Modulus (GPa) = 21.41684 24.71321 23.06502
#
# Velocity S-wave (km/s) = 3.51289 3.77356 3.64555
# Velocity P-wave (km/s) = 6.73920 7.18969 6.96809
#
# Compressibility (1/GPa) = 0.01989436
#
# Stress axis : x y z
#
# Youngs Moduli (GPa) = 43.00212 60.25057 80.65993
#
# Poissons Ratio (x) = 0.44810 0.42824
# Poissons Ratio (y) = 0.31982 0.27677
# Poissons Ratio (z) = 0.22831 0.20674
#
# Static dielectric constant tensor:
#      x y z
#    x 2.923920 0.000000 -0.355110 
#    y 0.000000 3.197100 0.000000 
#    z -0.355110 0.000000 3.469050 
# 
# 
# High freq. dielectric constant tensor:
#      x y z
#    x 1.616270 0.000000 -0.030200 
#    y 0.000000 1.682900 0.000000 
#    z -0.030200 0.000000 1.674520 
# 
# From -- ./inp_files/345731.got.cif
#   From: 2010.06.25/outbox.cif.g09.slc.cpg/sg12_173_cif.got.tgz:345731.got - 2010.06.28 00:19:55.
