data_PCOD8090298
_publ_section_title
;
Structure prediction by ZEFSAII (Michael W. Deem and Ramdas Pophale) SiO2 
 PCOD8090298
Probable space group: C 2/M
;
_chemical_formula_sum "Si O2"
_cell_formula_units_Z 64
_cell_length_a 14.308972
_cell_length_b 9.415347
_cell_length_c 26.661282
_cell_angle_alpha 90.000000
_cell_angle_beta 107.165173
_cell_angle_gamma 90.000000
_cell_volume 3431.921633
_symmetry_space_group_name_H-M "C 2/M"
_symmetry_group_IT_number 12
_symmetry_cell_setting 'monoclinic'
loop_
_space_group_symop_operation_xyz
x,y,z
-x,y,-z
-x,-y,-z
x,-y,z
1/2+x,1/2+y,z
1/2-x,1/2+y,-z
1/2-x,1/2-y,-z
1/2+x,1/2-y,z
loop_
_atom_site_type_symbol
_atom_site_label
_atom_site_fract_x
_atom_site_fract_y
_atom_site_fract_z
Si Si1 0.372041 0.163878 0.721286
Si Si2 0.912253 0.160261 0.093095
Si Si3 0.779741 0.333206 0.553756
Si Si4 0.612742 0.160125 0.005420
Si Si5 0.479533 0.164557 0.636275
Si Si6 0.390915 0.331204 0.823584
Si Si7 0.828758 0.164896 0.363429
Si Si8 0.275237 0.161721 0.879644
O O1 0.446646 0.195259 0.687904
O O2 0.402969 0.268628 0.770323
O O3 0.260623 0.197755 0.688176
O O4 0.380705 0.000000 0.739638
O O5 0.840627 0.168117 0.129565
O O6 0.016451 0.217118 0.128376
O O7 0.922341 0.000000 0.074893
O O8 0.865691 0.249477 0.040599
O O9 0.773509 0.500000 0.542422
O O10 0.750000 0.250000 0.500000
O O11 0.890422 0.290487 0.585858
O O12 0.704667 0.290563 0.586040
O O13 0.671097 0.221553 0.062166
O O14 0.647917 0.000000 0.000124
O O15 0.500000 0.168280 0.000000
O O16 0.576104 0.250372 0.638126
O O17 0.504145 0.000000 0.632972
O O18 0.379938 0.500000 0.818273
O O19 0.297116 0.262037 0.835736
O O20 0.855731 0.000000 0.366184
O O21 0.309601 0.000000 0.873694
#
# Coordination Sequence:
#
# PCOD8090298 Si02
#       8
#     8   8   8   8   8   8   8   8
#     4   9  20  39  58  75 103 142 176 216 271 322
#     4  10  22  37  54  77 106 138 170 210 262 314
#     4   9  19  35  53  79 116 152 185 222 266 316
#     4  10  19  33  56  81 103 134 175 212 252 311
#     4   9  19  36  57  81 109 143 184 225 268 317
#     4  11  23  37  54  80 107 133 173 221 264 312
#     4   9  19  36  57  80 107 142 183 223 267 318
#     4  10  21  38  56  76 106 141 172 208 261 319
#
# _framework density 18.648444999999999
#
# number of rings (size 3 to 8) (size 9 to 14) (size 15 to 20)
#    0.000    2.375    1.250    2.250    0.000    5.250 
#    0.000    8.750    0.000    0.000    0.000    0.000 
#    0.000    0.000    0.000    0.000    0.000    0.000 
#
# Total GULP energy -396812.516866 kJ/mol
# GULP energy per Si atom -12400.391152 kJ/mol
# Density = 1.860600 g / cm^3
# Si number density = 18.648445 Si / 1000 Ang^3
#
#
#
# Elastic Constant Matrix: (Units=GPa)
#
#
# Indices 1 2 3 4 5 6 
#
# 1 105.9842 46.1033 28.7466 0.0000 -11.5456 0.0000
# 2 46.1033 79.1010 55.8440 0.0000 -7.6927 0.0000
# 3 28.7466 55.8440 98.2429 0.0000 -10.8173 0.0000
# 4 0.0000 0.0000 0.0000 36.2567 0.0000 -3.1068
# 5 -11.5456 -7.6927 -10.8173 0.0000 17.1683 0.0000
# 6 0.0000 0.0000 0.0000 -3.1068 0.0000 34.2168
#
#
#
# Elastic Compliance Matrix: (Units=1/GPa)
#
#
# Indices 1 2 3 4 5 6 
#
# 1 0.013259 -0.008132 0.001422 0.000000 0.006169 0.000000
# 2 -0.008132 0.026170 -0.012687 0.000000 -0.001737 0.000000
# 3 0.001422 -0.012687 0.017681 0.000000 0.006411 0.000000
# 4 0.000000 0.000000 0.000000 0.027797 0.000000 0.002524
# 5 0.006169 -0.001737 0.006411 0.000000 0.065657 0.000000
# 6 0.000000 0.000000 0.000000 0.002524 0.000000 0.029455
#
#
# Mechanical properties :
#
#
# Convention : Reuss Voigt Hill
#
# Bulk Modulus (GPa) = 54.60064 60.52398 57.56231
# Shear Modulus (GPa) = 22.23028 27.70397 24.96712
#
# Velocity S-wave (km/s) = 3.45638 3.85852 3.66297
# Velocity P-wave (km/s) = 6.72839 7.23717 6.98741
#
# Compressibility (1/GPa) = 0.01831480
#
# Stress axis : x y z
#
# Youngs Moduli (GPa) = 75.41995 38.21184 56.55896
#
# Poissons Ratio (x) = 0.31073 -0.08042
# Poissons Ratio (y) = 0.61330 0.71759
# Poissons Ratio (z) = -0.10724 0.48481
#
# Static dielectric constant tensor:
#      x y z
#    x 3.423700 0.000000 0.009050 
#    y 0.000000 3.330970 0.000000 
#    z 0.009050 0.000000 3.335730 
# 
# 
# High freq. dielectric constant tensor:
#      x y z
#    x 1.730360 0.000000 -0.002570 
#    y 0.000000 1.718250 0.000000 
#    z -0.002570 0.000000 1.718990 
# 
# From -- ./inp_files/359872.got.cif
#   From: 2010.06.25/outbox.cif.g09.slc.cpg/sg12_180_cif.got.tgz:359872.got - 2010.06.28 00:19:55.
