data_PCOD8090341
_publ_section_title
;
Structure prediction by ZEFSAII (Michael W. Deem and Ramdas Pophale) SiO2 
 PCOD8090341
Probable space group: C 2/M
;
_chemical_formula_sum "Si O2"
_cell_formula_units_Z 56
_cell_length_a 22.122262
_cell_length_b 22.526427
_cell_length_c 12.697494
_cell_angle_alpha 90.000000
_cell_angle_beta 26.181058
_cell_angle_gamma 90.000000
_cell_volume 2791.800717
_symmetry_space_group_name_H-M "C 2/M"
_symmetry_group_IT_number 12
_symmetry_cell_setting 'monoclinic'
loop_
_space_group_symop_operation_xyz
x,y,z
-x,y,-z
-x,-y,-z
x,-y,z
1/2+x,1/2+y,z
1/2-x,1/2+y,-z
1/2-x,1/2-y,-z
1/2+x,1/2-y,z
loop_
_atom_site_type_symbol
_atom_site_label
_atom_site_fract_x
_atom_site_fract_y
_atom_site_fract_z
Si Si1 0.443334 0.619321 0.200773
Si Si2 0.303876 0.782245 0.068866
Si Si3 0.787735 0.066425 0.130850
Si Si4 0.575622 0.187834 0.743471
Si Si5 0.283301 0.712207 0.579351
Si Si6 0.654750 0.830802 0.217310
Si Si7 0.675366 0.934149 0.536226
O O1 0.397796 0.676183 0.337568
O O2 0.315960 0.575083 0.381071
O O3 0.500000 0.641397 0.000000
O O4 0.556597 0.585451 0.091969
O O5 0.195915 0.802645 0.328348
O O6 0.257969 0.718583 0.099552
O O7 0.439650 0.776158 0.927282
O O8 0.333138 0.828232 0.928871
O O9 0.710866 0.105797 0.163994
O O10 0.700475 0.070055 0.373102
O O11 0.789055 0.000000 0.083220
O O12 0.693075 0.217755 0.483906
O O13 0.628793 0.194902 0.781212
O O14 0.565316 0.117161 0.735985
O O15 0.500000 0.819388 0.500000
O O16 0.618333 0.000000 0.654074
#
# Coordination Sequence:
#
# PCOD8090341 Si02
#       7
#     8   8   8   8   8   8   8
#     4   9  18  33  55  85 115 142 174 215 270 329
#     4  11  22  38  57  77 108 144 180 220 271 328
#     4  10  19  33  56  82 108 141 184 229 266 308
#     4  10  20  34  55  84 112 136 174 222 271 327
#     4  10  20  33  57  87 113 138 169 219 277 326
#     4  11  24  39  55  77 107 145 187 228 268 315
#     4   9  17  31  54  83 114 144 175 218 270 323
#
# _framework density 20.058738999999999
#
# number of rings (size 3 to 8) (size 9 to 14) (size 15 to 20)
#    0.000    2.000    0.000    4.286    0.000    7.714 
#    0.000    0.714    0.000   12.857    0.000    0.000 
#    0.000    0.000    0.000    0.000    0.000    0.000 
#
# Total GULP energy -347012.959849 kJ/mol
# GULP energy per Si atom -12393.319995 kJ/mol
# Density = 2.001308 g / cm^3
# Si number density = 20.058739 Si / 1000 Ang^3
#
#
#
# Elastic Constant Matrix: (Units=GPa)
#
#
# Indices 1 2 3 4 5 6 
#
# 1 107.8524 51.2810 38.9951 -0.0017 17.6403 0.0012
# 2 51.2810 126.5225 27.8243 -0.0060 4.6632 0.0022
# 3 38.9951 27.8243 39.3938 -0.0092 5.3945 0.0041
# 4 -0.0017 -0.0060 -0.0092 22.6678 0.0010 -4.7994
# 5 17.6403 4.6632 5.3945 0.0010 39.8817 -0.0019
# 6 0.0012 0.0022 0.0041 -4.7994 -0.0019 25.2540
#
#
#
# Elastic Compliance Matrix: (Units=1/GPa)
#
#
# Indices 1 2 3 4 5 6 
#
# 1 0.016603 -0.003647 -0.013155 -0.000005 -0.005138 0.000000
# 2 -0.003647 0.010160 -0.003693 0.000001 0.000925 0.000000
# 3 -0.013155 -0.003693 0.040917 0.000014 0.000716 -0.000003
# 4 -0.000005 0.000001 0.000014 0.045965 -0.000001 0.008735
# 5 -0.005138 0.000925 0.000716 -0.000001 0.027142 0.000002
# 6 0.000000 0.000000 -0.000003 0.008735 0.000002 0.041258
#
#
# Mechanical properties :
#
#
# Convention : Reuss Voigt Hill
#
# Bulk Modulus (GPa) = 37.46736 56.66329 47.06532
# Shear Modulus (GPa) = 21.55819 27.93858 24.74838
#
# Velocity S-wave (km/s) = 3.28190 3.73612 3.51635
# Velocity P-wave (km/s) = 5.75157 6.84993 6.32463
#
# Compressibility (1/GPa) = 0.02668990
#
# Stress axis : x y z
#
# Youngs Moduli (GPa) = 60.23123 98.42667 24.43965
#
# Poissons Ratio (x) = 0.35894 0.32151
# Poissons Ratio (y) = 0.21965 0.09025
# Poissons Ratio (z) = 0.79236 0.36346
#
# Static dielectric constant tensor:
#      x y z
#    x 3.725400 -0.000010 0.035440 
#    y -0.000010 3.632370 0.000020 
#    z 0.035440 0.000020 3.562430 
# 
# 
# High freq. dielectric constant tensor:
#      x y z
#    x 1.783340 0.000000 -0.002870 
#    y 0.000000 1.771570 0.000000 
#    z -0.002870 0.000000 1.770480 
# 
# From -- ./inp_files/170287.got.cif
#   From: 2010.06.25/outbox.cif.g09.slc.cpg/sg12_86_cif.got.tgz:170287.got - 2010.06.28 00:19:55.
