data_PCOD8090448
_publ_section_title
;
Structure prediction by ZEFSAII (Michael W. Deem and Ramdas Pophale) SiO2 
 PCOD8090448
Probable space group: C 2/M
;
_chemical_formula_sum "Si O2"
_cell_formula_units_Z 64
_cell_length_a 20.484566
_cell_length_b 9.056556
_cell_length_c 24.202454
_cell_angle_alpha 90.000000
_cell_angle_beta 127.994600
_cell_angle_gamma 90.000000
_cell_volume 3538.452479
_symmetry_space_group_name_H-M "C 2/M"
_symmetry_group_IT_number 12
_symmetry_cell_setting 'monoclinic'
loop_
_space_group_symop_operation_xyz
x,y,z
-x,y,-z
-x,-y,-z
x,-y,z
1/2+x,1/2+y,z
1/2-x,1/2+y,-z
1/2-x,1/2-y,-z
1/2+x,1/2-y,z
loop_
_atom_site_type_symbol
_atom_site_label
_atom_site_fract_x
_atom_site_fract_y
_atom_site_fract_z
Si Si1 0.469723 0.172867 0.798287
Si Si2 0.119001 0.827504 0.929708
Si Si3 0.755142 0.328959 0.419732
Si Si4 0.204521 0.826870 0.274836
Si Si5 0.626137 0.828827 0.425643
Si Si6 0.792276 0.829018 0.220567
Si Si7 0.539260 0.170434 0.713854
Si Si8 0.270228 0.169062 0.931368
O O1 0.534688 0.240488 0.875221
O O2 0.382178 0.245958 0.764517
O O3 0.498187 0.207585 0.751104
O O4 0.462032 0.000000 0.805570
O O5 0.182711 0.788851 0.913696
O O6 0.099506 0.000000 0.923291
O O7 0.157324 0.773270 0.007751
O O8 0.739085 0.500000 0.421025
O O9 0.761861 0.292686 0.358320
O O10 0.675119 0.250082 0.402403
O O11 0.839191 0.279501 0.495892
O O12 0.254232 0.768663 0.248644
O O13 0.188076 0.000000 0.259351
O O14 0.528561 0.794515 0.369229
O O15 0.641724 0.000000 0.423284
O O16 0.885292 0.778818 0.257159
O O17 0.736439 0.804238 0.137279
O O18 0.793508 0.000000 0.238443
O O19 0.568713 0.000000 0.726835
O O20 0.292268 0.000000 0.957049
#
# Coordination Sequence:
#
# PCOD8090448 Si02
#       8
#     8   8   8   8   8   8   8   8
#     4  11  21  35  57  85 114 146 185 229 275 324
#     4  10  19  33  56  85 113 142 179 227 277 326
#     4   9  18  32  53  80 111 145 181 227 278 326
#     4  11  23  38  56  81 114 150 188 228 278 334
#     4   9  17  32  54  82 111 141 182 229 276 326
#     4  11  23  39  58  80 112 150 187 228 277 330
#     4  10  20  34  56  84 112 143 185 231 274 326
#     4   9  19  35  54  80 111 144 181 224 276 329
#
# _framework density 18.087002999999999
#
# number of rings (size 3 to 8) (size 9 to 14) (size 15 to 20)
#    0.000    2.000    2.500    1.500    0.000    3.000 
#    0.000    1.250    0.000    7.500    0.000    0.000 
#    0.000    0.000    0.000    0.000    0.000    0.000 
#
# Total GULP energy -396818.876386 kJ/mol
# GULP energy per Si atom -12400.589887 kJ/mol
# Density = 1.804584 g / cm^3
# Si number density = 18.087003 Si / 1000 Ang^3
#
#
#
# Elastic Constant Matrix: (Units=GPa)
#
#
# Indices 1 2 3 4 5 6 
#
# 1 53.1551 27.7034 31.5649 0.0000 -4.6415 0.0000
# 2 27.7034 70.7720 45.2883 0.0000 -1.1718 0.0000
# 3 31.5649 45.2883 108.2884 0.0000 0.2478 0.0000
# 4 0.0000 0.0000 0.0000 28.5469 0.0000 2.5169
# 5 -4.6415 -1.1718 0.2478 0.0000 23.2501 0.0000
# 6 0.0000 0.0000 0.0000 2.5169 0.0000 32.2001
#
#
#
# Elastic Compliance Matrix: (Units=1/GPa)
#
#
# Indices 1 2 3 4 5 6 
#
# 1 0.025589 -0.007042 -0.004525 0.000000 0.004802 0.000000
# 2 -0.007042 0.021257 -0.006837 0.000000 -0.000261 0.000000
# 3 -0.004525 -0.006837 0.013416 0.000000 -0.001391 0.000000
# 4 0.000000 0.000000 0.000000 0.035273 0.000000 -0.002757
# 5 0.004802 -0.000261 -0.001391 0.000000 0.043971 0.000000
# 6 0.000000 0.000000 0.000000 -0.002757 0.000000 0.031271
#
#
# Mechanical properties :
#
#
# Convention : Reuss Voigt Hill
#
# Bulk Modulus (GPa) = 42.63455 49.03655 45.83555
# Shear Modulus (GPa) = 23.21228 25.31001 24.26114
#
# Velocity S-wave (km/s) = 3.58630 3.74484 3.66643
# Velocity P-wave (km/s) = 6.38528 6.77265 6.58182
#
# Compressibility (1/GPa) = 0.02345515
#
# Stress axis : x y z
#
# Youngs Moduli (GPa) = 39.07897 47.04323 74.53722
#
# Poissons Ratio (x) = 0.33126 0.33728
# Poissons Ratio (y) = 0.27518 0.50961
# Poissons Ratio (z) = 0.17683 0.32163
#
# Static dielectric constant tensor:
#      x y z
#    x 3.144160 0.000000 -0.009880 
#    y 0.000000 3.399410 0.000000 
#    z -0.009880 0.000000 3.722870 
# 
# 
# High freq. dielectric constant tensor:
#      x y z
#    x 1.668590 0.000000 0.004630 
#    y 0.000000 1.708720 0.000000 
#    z 0.004630 0.000000 1.717680 
# 
# From -- ./inp_files/346234.got.cif
#   From: 2010.06.25/outbox.cif.g09.slc.cpg/sg12_174_cif.got.tgz:346234.got - 2010.06.28 00:19:55.
