data_PCOD8090347
_publ_section_title
;
Structure prediction by ZEFSAII (Michael W. Deem and Ramdas Pophale) SiO2 
 PCOD8090347
Probable space group: C 2/M
;
_chemical_formula_sum "Si O2"
_cell_formula_units_Z 48
_cell_length_a 18.992492
_cell_length_b 9.055764
_cell_length_c 15.553369
_cell_angle_alpha 90.000000
_cell_angle_beta 102.063471
_cell_angle_gamma 90.000000
_cell_volume 2615.973726
_symmetry_space_group_name_H-M "C 2/M"
_symmetry_group_IT_number 12
_symmetry_cell_setting 'monoclinic'
loop_
_space_group_symop_operation_xyz
x,y,z
-x,y,-z
-x,-y,-z
x,-y,z
1/2+x,1/2+y,z
1/2-x,1/2+y,-z
1/2-x,1/2-y,-z
1/2+x,1/2-y,z
loop_
_atom_site_type_symbol
_atom_site_label
_atom_site_fract_x
_atom_site_fract_y
_atom_site_fract_z
Si Si1 0.552257 0.170980 0.254579
Si Si2 0.337078 0.328222 0.286167
Si Si3 0.689529 0.324976 0.225865
Si Si4 0.535548 0.170705 0.598093
Si Si5 0.815490 0.171893 0.970966
Si Si6 0.074268 0.169625 0.859695
O O1 0.625948 0.260707 0.267609
O O2 0.522001 0.200328 0.341768
O O3 0.495320 0.228246 0.169275
O O4 0.567165 0.000000 0.240450
O O5 0.322778 0.500000 0.298768
O O6 0.263674 0.239765 0.280448
O O7 0.393908 0.269689 0.370490
O O8 0.366501 0.296968 0.198143
O O9 0.691124 0.500000 0.234983
O O10 0.676377 0.272968 0.124429
O O11 0.500000 0.220080 0.500000
O O12 0.559228 0.000000 0.602687
O O13 0.797845 0.000000 0.970089
O O14 0.750000 0.250000 0.000000
O O15 0.889927 0.207034 0.039488
O O16 0.048680 0.000000 0.848046
#
# Coordination Sequence:
#
# PCOD8090347 Si02
#       6
#     8   8   8   8   8   8
#     4  10  21  36  55  79 108 140 176 220 270 320
#     4  10  19  33  56  82 109 140 178 221 265 318
#     4  11  22  35  53  78 111 148 181 219 267 314
#     4   9  19  38  62  84 106 135 174 219 268 326
#     4  10  20  33  52  77 106 143 186 226 261 306
#     4   9  18  34  53  75 105 142 181 222 265 310
#
# _framework density 18.348807999999998
#
# number of rings (size 3 to 8) (size 9 to 14) (size 15 to 20)
#    0.000    2.167    1.667    1.500    0.000    3.667 
#    0.000    4.167    0.000    0.000    0.000    0.000 
#    0.000    0.000    0.000    0.000    0.000    0.000 
#
# Total GULP energy -297700.077266 kJ/mol
# GULP energy per Si atom -12404.169886 kJ/mol
# Density = 1.830705 g / cm^3
# Si number density = 18.348808 Si / 1000 Ang^3
#
#
#
# Elastic Constant Matrix: (Units=GPa)
#
#
# Indices 1 2 3 4 5 6 
#
# 1 132.0604 68.0489 49.3128 0.0000 9.6751 0.0000
# 2 68.0489 89.6336 39.6127 0.0000 7.0328 0.0000
# 3 49.3128 39.6127 95.1020 0.0000 19.7989 0.0000
# 4 0.0000 0.0000 0.0000 23.3363 0.0000 3.3589
# 5 9.6751 7.0328 19.7989 0.0000 21.0874 0.0000
# 6 0.0000 0.0000 0.0000 3.3589 0.0000 41.0527
#
#
#
# Elastic Compliance Matrix: (Units=1/GPa)
#
#
# Indices 1 2 3 4 5 6 
#
# 1 0.013223 -0.008592 -0.003245 0.000000 -0.000154 0.000000
# 2 -0.008592 0.019273 -0.003797 0.000000 0.001080 0.000000
# 3 -0.003245 -0.003797 0.016414 0.000000 -0.012656 0.000000
# 4 0.000000 0.000000 0.000000 0.043362 0.000000 -0.003548
# 5 -0.000154 0.001080 -0.012656 0.000000 0.059015 0.000000
# 6 0.000000 0.000000 0.000000 -0.003548 0.000000 0.024649
#
#
# Mechanical properties :
#
#
# Convention : Reuss Voigt Hill
#
# Bulk Modulus (GPa) = 56.68808 70.08276 63.38542
# Shear Modulus (GPa) = 23.46460 27.75006 25.60733
#
# Velocity S-wave (km/s) = 3.57992 3.89313 3.73981
# Velocity P-wave (km/s) = 6.93178 7.64763 7.29849
#
# Compressibility (1/GPa) = 0.01764039
#
# Stress axis : x y z
#
# Youngs Moduli (GPa) = 75.62588 51.88545 60.92264
#
# Poissons Ratio (x) = 0.44582 0.19772
# Poissons Ratio (y) = 0.64981 0.23134
# Poissons Ratio (z) = 0.24543 0.19702
#
# Static dielectric constant tensor:
#      x y z
#    x 3.306350 0.000000 0.102430 
#    y 0.000000 3.408590 0.000000 
#    z 0.102430 0.000000 3.376060 
# 
# 
# High freq. dielectric constant tensor:
#      x y z
#    x 1.711610 0.000000 0.010310 
#    y 0.000000 1.716960 0.000000 
#    z 0.010310 0.000000 1.697220 
# 
# From -- ./inp_files/221594.got.cif
#   From: 2010.06.25/outbox.cif.g09.slc.cpg/sg12_111_cif.got.tgz:221594.got - 2010.06.28 00:19:55.
