data_PCOD8090541
_publ_section_title
;
Structure prediction by ZEFSAII (Michael W. Deem and Ramdas Pophale) SiO2 
 PCOD8090541
Probable space group: C 2/M
;
_chemical_formula_sum "Si O2"
_cell_formula_units_Z 56
_cell_length_a 13.406548
_cell_length_b 13.303570
_cell_length_c 24.129564
_cell_angle_alpha 90.000000
_cell_angle_beta 41.131687
_cell_angle_gamma 90.000000
_cell_volume 2830.891087
_symmetry_space_group_name_H-M "C 2/M"
_symmetry_group_IT_number 12
_symmetry_cell_setting 'monoclinic'
loop_
_space_group_symop_operation_xyz
x,y,z
-x,y,-z
-x,-y,-z
x,-y,z
1/2+x,1/2+y,z
1/2-x,1/2+y,-z
1/2-x,1/2-y,-z
1/2+x,1/2-y,z
loop_
_atom_site_type_symbol
_atom_site_label
_atom_site_fract_x
_atom_site_fract_y
_atom_site_fract_z
Si Si1 0.507623 0.882734 0.257638
Si Si2 0.757609 0.884795 0.711186
Si Si3 0.246258 0.243572 0.905323
Si Si4 0.863515 0.387859 0.434967
Si Si5 0.079331 0.386696 0.895631
Si Si6 0.450559 0.698199 0.458590
Si Si7 0.729843 0.614375 0.013467
O O1 0.366817 0.844651 0.280027
O O2 0.650165 0.813236 0.182526
O O3 0.468712 0.865280 0.337914
O O4 0.545020 0.000000 0.229165
O O5 0.701086 0.868605 0.796866
O O6 0.913067 0.824742 0.640247
O O7 0.791228 0.000000 0.683367
O O8 0.114592 0.306759 0.929368
O O9 0.173886 0.161952 0.978493
O O10 0.339070 0.323759 0.905393
O O11 0.893025 0.500000 0.444369
O O12 0.687373 0.377639 0.493434
O O13 0.902154 0.313068 0.468656
O O14 0.097554 0.500000 0.912359
O O15 0.912533 0.374002 0.939728
O O16 0.500000 0.682731 0.500000
O O17 0.673748 0.500000 0.039790
#
# Coordination Sequence:
#
# PCOD8090541 Si02
#       7
#     8   8   8   8   8   8   8
#     4  10  19  35  57  81 108 144 185 225 271 323
#     4  10  19  33  57  84 110 140 181 232 271 314
#     4  11  20  32  58  83 106 141 182 227 270 320
#     4  10  22  37  56  83 114 146 182 225 274 324
#     4  10  20  36  57  82 109 142 184 225 273 326
#     4  11  21  35  58  86 111 144 187 226 268 323
#     4  10  21  37  56  82 110 141 183 225 274 328
#
# _framework density 19.781756000000001
#
# number of rings (size 3 to 8) (size 9 to 14) (size 15 to 20)
#    0.000    1.714    2.857    2.571    0.000    2.000 
#    0.000    0.000    0.000   20.571    0.000    0.000 
#    0.000    0.000    0.000    0.000    0.000    0.000 
#
# Total GULP energy -347154.399340 kJ/mol
# GULP energy per Si atom -12398.371405 kJ/mol
# Density = 1.973673 g / cm^3
# Si number density = 19.781756 Si / 1000 Ang^3
#
#
#
# Elastic Constant Matrix: (Units=GPa)
#
#
# Indices 1 2 3 4 5 6 
#
# 1 41.1064 8.6482 0.4064 0.0000 -4.2656 0.0001
# 2 8.6482 95.4997 17.2324 -0.0001 -3.7014 0.0001
# 3 0.4064 17.2324 80.8197 -0.0003 -4.1895 0.0004
# 4 0.0000 -0.0001 -0.0003 26.6703 0.0001 9.1260
# 5 -4.2656 -3.7014 -4.1895 0.0001 20.5997 -0.0001
# 6 0.0001 0.0001 0.0004 9.1260 -0.0001 5.7127
#
#
#
# Elastic Compliance Matrix: (Units=1/GPa)
#
#
# Indices 1 2 3 4 5 6 
#
# 1 0.025301 -0.002207 0.000601 0.000000 0.004965 -0.000001
# 2 -0.002207 0.011129 -0.002306 0.000000 0.001074 0.000000
# 3 0.000601 -0.002306 0.012984 0.000001 0.002351 -0.000002
# 4 0.000000 0.000000 0.000001 0.082701 0.000000 -0.132113
# 5 0.004965 0.001074 0.002351 0.000000 0.050243 0.000001
# 6 -0.000001 0.000000 -0.000002 -0.132113 0.000001 0.386095
#
#
# Mechanical properties :
#
#
# Convention : Reuss Voigt Hill
#
# Bulk Modulus (GPa) = 24.04528 29.99997 27.02263
# Shear Modulus (GPa) = 8.47257 23.33913 15.90585
#
# Velocity S-wave (km/s) = 2.07179 3.43859 2.83868
# Velocity P-wave (km/s) = 4.23140 5.56450 4.94310
#
# Compressibility (1/GPa) = 0.04158820
#
# Stress axis : x y z
#
# Youngs Moduli (GPa) = 39.52462 89.85650 77.01921
#
# Poissons Ratio (x) = 0.19833 -0.04627
# Poissons Ratio (y) = 0.08724 0.17762
# Poissons Ratio (z) = -0.02374 0.20722
#
# Static dielectric constant tensor:
#      x y z
#    x 3.440890 0.000000 0.021720 
#    y 0.000000 3.728500 0.000000 
#    z 0.021720 0.000000 3.725810 
# 
# 
# High freq. dielectric constant tensor:
#      x y z
#    x 1.754080 0.000000 0.015380 
#    y 0.000000 1.775710 0.000000 
#    z 0.015380 0.000000 1.770890 
# 
# From -- ./inp_files/268604.got.cif
#   From: 2010.06.25/outbox.cif.g09.slc.cpg/sg12_135_cif.got.tgz:268604.got - 2010.06.28 00:19:55.
