data_PCOD8090543
_publ_section_title
;
Structure prediction by ZEFSAII (Michael W. Deem and Ramdas Pophale) SiO2 
 PCOD8090543
Probable space group: C 2/M
;
_chemical_formula_sum "Si O2"
_cell_formula_units_Z 40
_cell_length_a 16.001985
_cell_length_b 13.780700
_cell_length_c 13.792599
_cell_angle_alpha 90.000000
_cell_angle_beta 38.803265
_cell_angle_gamma 90.000000
_cell_volume 1905.965602
_symmetry_space_group_name_H-M "C 2/M"
_symmetry_group_IT_number 12
_symmetry_cell_setting 'monoclinic'
loop_
_space_group_symop_operation_xyz
x,y,z
-x,y,-z
-x,-y,-z
x,-y,z
1/2+x,1/2+y,z
1/2-x,1/2+y,-z
1/2-x,1/2-y,-z
1/2+x,1/2-y,z
loop_
_atom_site_type_symbol
_atom_site_label
_atom_site_fract_x
_atom_site_fract_y
_atom_site_fract_z
Si Si1 0.786221 0.606603 0.167615
Si Si2 0.056767 0.891748 0.216689
Si Si3 0.156340 0.606349 0.376420
Si Si4 0.621063 0.310988 0.953965
Si Si5 0.382921 0.697042 0.526614
O O1 0.856500 0.500000 0.103864
O O2 0.671681 0.606839 0.191382
O O3 0.725603 0.624100 0.329822
O O4 0.884997 0.694126 0.052544
O O5 0.101636 0.830652 0.084167
O O6 0.927858 0.842212 0.382081
O O7 0.018978 0.000000 0.217507
O O8 0.209898 0.500000 0.362619
O O9 0.178700 0.693819 0.433555
O O10 0.000000 0.594872 0.500000
O O11 0.238658 0.640625 0.205873
O O12 0.500000 0.355496 0.000000
O O13 0.500000 0.707945 0.500000
#
# Coordination Sequence:
#
# PCOD8090543 Si02
#       5
#     8   8   8   8   8
#     4   9  18  34  56  80 108 146 189 229 272 327
#     4  10  19  33  57  84 110 145 189 232 273 325
#     4   9  18  34  55  77 107 148 186 221 267 327
#     4  11  23  37  55  83 118 149 181 228 282 332
#     4   8  15  30  53  80 105 133 180 233 272 314
#
# _framework density 20.986737000000002
#
# number of rings (size 3 to 8) (size 9 to 14) (size 15 to 20)
#    0.000    2.600    0.000    3.000    0.000    4.400 
#    0.000    7.000    0.000    2.400    0.000    0.000 
#    0.000    0.000    0.000    0.000    0.000    0.000 
#
# Total GULP energy -247771.290232 kJ/mol
# GULP energy per Si atom -12388.564512 kJ/mol
# Density = 2.093897 g / cm^3
# Si number density = 20.986737 Si / 1000 Ang^3
#
#
#
# Elastic Constant Matrix: (Units=GPa)
#
#
# Indices 1 2 3 4 5 6 
#
# 1 27.3352 20.6574 38.0043 0.0000 4.4160 0.0000
# 2 20.6574 165.6653 68.1106 0.0000 6.4910 0.0000
# 3 38.0043 68.1106 150.8020 0.0000 33.2628 0.0000
# 4 0.0000 0.0000 0.0000 23.1265 0.0000 7.4978
# 5 4.4160 6.4910 33.2628 0.0000 12.9752 0.0000
# 6 0.0000 0.0000 0.0000 7.4978 0.0000 5.9247
#
#
#
# Elastic Compliance Matrix: (Units=1/GPa)
#
#
# Indices 1 2 3 4 5 6 
#
# 1 0.067046 0.001380 -0.028384 0.000000 0.049256 0.000000
# 2 0.001380 0.008226 -0.007023 0.000000 0.013418 0.000000
# 3 -0.028384 -0.007023 0.032334 0.000000 -0.069717 0.000000
# 4 0.000000 0.000000 0.000000 0.073325 0.000000 -0.092793
# 5 0.049256 0.013418 -0.069717 0.000000 0.232317 0.000001
# 6 0.000000 0.000000 0.000000 -0.092793 0.000001 0.286214
#
#
# Mechanical properties :
#
#
# Convention : Reuss Voigt Hill
#
# Bulk Modulus (GPa) = 25.28392 66.37192 45.82792
# Shear Modulus (GPa) = 6.40452 22.87397 14.63924
#
# Velocity S-wave (km/s) = 1.74881 3.30498 2.64398
# Velocity P-wave (km/s) = 4.01889 6.80134 5.58613
#
# Compressibility (1/GPa) = 0.03955083
#
# Stress axis : x y z
#
# Youngs Moduli (GPa) = 14.91522 121.57004 30.92741
#
# Poissons Ratio (x) = -0.16771 0.87785
# Poissons Ratio (y) = -0.02058 0.21719
# Poissons Ratio (z) = 0.42336 0.85374
#
# Static dielectric constant tensor:
#      x y z
#    x 3.134870 0.000000 0.007960 
#    y 0.000000 4.470870 0.000000 
#    z 0.007960 0.000000 3.852100 
# 
# 
# High freq. dielectric constant tensor:
#      x y z
#    x 1.762850 0.000000 0.002460 
#    y 0.000000 1.846640 0.000000 
#    z 0.002460 0.000000 1.825480 
# 
# From -- ./inp_files/155103.got.cif
#   From: 2010.06.25/outbox.cif.g09.slc.cpg/sg12_78_cif.got.tgz:155103.got - 2010.06.28 00:19:55.
