data_PCOD8090416
_publ_section_title
;
Structure prediction by ZEFSAII (Michael W. Deem and Ramdas Pophale) SiO2 
 PCOD8090416
Probable space group: C 2/M
;
_chemical_formula_sum "Si O2"
_cell_formula_units_Z 56
_cell_length_a 18.044749
_cell_length_b 9.090484
_cell_length_c 22.655467
_cell_angle_alpha 90.000000
_cell_angle_beta 53.084865
_cell_angle_gamma 90.000000
_cell_volume 2971.279294
_symmetry_space_group_name_H-M "C 2/M"
_symmetry_group_IT_number 12
_symmetry_cell_setting 'monoclinic'
loop_
_space_group_symop_operation_xyz
x,y,z
-x,y,-z
-x,-y,-z
x,-y,z
1/2+x,1/2+y,z
1/2-x,1/2+y,-z
1/2-x,1/2-y,-z
1/2+x,1/2-y,z
loop_
_atom_site_type_symbol
_atom_site_label
_atom_site_fract_x
_atom_site_fract_y
_atom_site_fract_z
Si Si1 0.707199 0.326823 0.161159
Si Si2 0.517315 0.670363 0.423814
Si Si3 0.450569 0.827233 0.840720
Si Si4 0.805947 0.670886 0.710450
Si Si5 0.630287 0.329538 0.714901
Si Si6 0.324721 0.167617 0.000954
Si Si7 0.660430 0.671724 0.567440
O O1 0.686644 0.500000 0.177133
O O2 0.619968 0.254031 0.169736
O O3 0.721455 0.257851 0.217949
O O4 0.805366 0.295744 0.079294
O O5 0.500000 0.706632 0.500000
O O6 0.543982 0.500000 0.401413
O O7 0.598470 0.772029 0.361458
O O8 0.425756 0.713670 0.432099
O O9 0.553005 0.765715 0.784485
O O10 0.424305 0.797407 0.923054
O O11 0.448629 0.000000 0.826791
O O12 0.816005 0.500000 0.721142
O O13 0.727603 0.700005 0.699572
O O14 0.601308 0.500000 0.731597
O O15 0.638762 0.273902 0.643801
O O16 0.300567 0.000000 0.001981
O O17 0.250000 0.250000 0.000000
O O18 0.681476 0.500000 0.556866
O O19 0.750000 0.750000 0.500000
#
# Coordination Sequence:
#
# PCOD8090416 Si02
#       7
#     8   8   8   8   8   8   8
#     4  10  19  34  56  79 108 144 178 221 279 330
#     4  10  21  37  58  84 111 140 177 221 273 332
#     4  10  19  33  56  84 109 137 180 226 267 323
#     4  11  23  37  54  78 108 144 189 233 268 313
#     4  10  22  38  53  75 110 148 183 222 270 319
#     4   8  16  30  50  78 107 136 174 220 269 323
#     4  10  21  37  57  80 107 139 174 215 265 321
#
# _framework density 18.847100999999999
#
# number of rings (size 3 to 8) (size 9 to 14) (size 15 to 20)
#    0.000    2.143    0.000    3.000    0.000    4.857 
#    0.000    0.714    0.000    4.286    0.000    0.000 
#    0.000    0.000    0.000    0.000    0.000    0.000 
#
# Total GULP energy -347075.733233 kJ/mol
# GULP energy per Si atom -12395.561901 kJ/mol
# Density = 1.880420 g / cm^3
# Si number density = 18.847101 Si / 1000 Ang^3
#
#
#
# Elastic Constant Matrix: (Units=GPa)
#
#
# Indices 1 2 3 4 5 6 
#
# 1 97.0200 47.3644 70.1481 0.0000 4.1975 0.0000
# 2 47.3644 85.1210 70.9968 0.0000 -2.7107 0.0001
# 3 70.1481 70.9968 169.6459 0.0000 -2.6354 0.0000
# 4 0.0000 0.0000 0.0000 33.5104 0.0000 -3.5541
# 5 4.1975 -2.7107 -2.6354 0.0000 28.8689 0.0000
# 6 0.0000 0.0001 0.0000 -3.5541 0.0000 26.0620
#
#
#
# Elastic Compliance Matrix: (Units=1/GPa)
#
#
# Indices 1 2 3 4 5 6 
#
# 1 0.016396 -0.005425 -0.004561 0.000000 -0.003310 0.000000
# 2 -0.005425 0.019872 -0.006040 0.000000 0.002103 0.000000
# 3 -0.004561 -0.006040 0.010325 0.000000 0.001039 0.000000
# 4 0.000000 0.000000 0.000000 0.030279 0.000000 0.004129
# 5 -0.003310 0.002103 0.001039 0.000000 0.035413 0.000000
# 6 0.000000 0.000000 0.000000 0.004129 0.000000 0.038933
#
#
# Mechanical properties :
#
#
# Convention : Reuss Voigt Hill
#
# Bulk Modulus (GPa) = 68.77476 80.97840 74.87658
# Shear Modulus (GPa) = 26.57913 28.57344 27.57629
#
# Velocity S-wave (km/s) = 3.75940 3.89789 3.82927
# Velocity P-wave (km/s) = 7.44408 7.95722 7.70492
#
# Compressibility (1/GPa) = 0.01454022
#
# Stress axis : x y z
#
# Youngs Moduli (GPa) = 60.98893 50.32292 96.85524
#
# Poissons Ratio (x) = 0.27299 0.44176
# Poissons Ratio (y) = 0.33085 0.58505
# Poissons Ratio (z) = 0.27817 0.30398
#
# Static dielectric constant tensor:
#      x y z
#    x 3.321180 0.000000 0.218430 
#    y 0.000000 3.508230 0.000000 
#    z 0.218430 0.000000 4.288130 
# 
# 
# High freq. dielectric constant tensor:
#      x y z
#    x 1.713110 0.000000 0.004840 
#    y 0.000000 1.737590 0.000000 
#    z 0.004840 0.000000 1.756770 
# 
# From -- ./inp_files/275298.got.cif
#   From: 2010.06.25/outbox.cif.g09.slc.cpg/sg12_138_cif.got.tgz:275298.got - 2010.06.28 00:19:55.
