data_PCOD8090317
_publ_section_title
;
Structure prediction by ZEFSAII (Michael W. Deem and Ramdas Pophale) SiO2 
 PCOD8090317
Probable space group: C 2/M
;
_chemical_formula_sum "Si O2"
_cell_formula_units_Z 56
_cell_length_a 18.592257
_cell_length_b 9.001570
_cell_length_c 19.937532
_cell_angle_alpha 90.000000
_cell_angle_beta 62.468599
_cell_angle_gamma 90.000000
_cell_volume 2958.875641
_symmetry_space_group_name_H-M "C 2/M"
_symmetry_group_IT_number 12
_symmetry_cell_setting 'monoclinic'
loop_
_space_group_symop_operation_xyz
x,y,z
-x,y,-z
-x,-y,-z
x,-y,z
1/2+x,1/2+y,z
1/2-x,1/2+y,-z
1/2-x,1/2-y,-z
1/2+x,1/2-y,z
loop_
_atom_site_type_symbol
_atom_site_label
_atom_site_fract_x
_atom_site_fract_y
_atom_site_fract_z
Si Si1 0.184354 0.172258 0.295693
Si Si2 0.991153 0.326117 0.848115
Si Si3 0.584864 0.332696 0.001261
Si Si4 0.980126 0.826660 0.710353
Si Si5 0.868636 0.672708 0.411635
Si Si6 0.720927 0.172413 0.412760
Si Si7 0.343510 0.172558 0.148134
O O1 0.107057 0.204493 0.283576
O O2 0.176011 0.269102 0.366238
O O3 0.263109 0.224982 0.220861
O O4 0.191129 0.000000 0.313017
O O5 0.976022 0.500000 0.846746
O O6 0.982784 0.248468 0.780990
O O7 0.080557 0.290468 0.837163
O O8 0.922610 0.260902 0.927188
O O9 0.611101 0.500000 0.007854
O O10 0.652188 0.260779 0.923835
O O11 0.500000 0.328617 0.000000
O O12 0.046352 0.755361 0.632704
O O13 0.998252 0.000000 0.710348
O O14 0.879459 0.500000 0.390223
O O15 0.804237 0.738150 0.386688
O O16 0.839684 0.701199 0.499649
O O17 0.742639 0.000000 0.396333
O O18 0.340926 0.000000 0.130693
#
# Coordination Sequence:
#
# PCOD8090317 Si02
#       7
#     8   8   8   8   8   8   8
#     4  10  22  38  55  78 112 149 182 223 274 324
#     4  10  19  33  56  81 106 140 180 225 275 326
#     4   9  17  30  51  80 109 135 170 221 273 321
#     4  11  23  37  54  79 111 147 186 225 268 322
#     4  10  21  38  59  83 111 142 178 223 274 324
#     4  10  21  37  60  86 109 138 180 227 271 322
#     4   9  18  34  55  78 104 137 178 221 269 324
#
# _framework density 18.926109
#
# number of rings (size 3 to 8) (size 9 to 14) (size 15 to 20)
#    0.000    2.143    0.000    3.000    0.000    7.429 
#    0.000    3.571    0.000    0.000    0.000    0.000 
#    0.000    0.000    0.000    0.000    0.000    0.000 
#
# Total GULP energy -347331.048763 kJ/mol
# GULP energy per Si atom -12404.680313 kJ/mol
# Density = 1.888303 g / cm^3
# Si number density = 18.926109 Si / 1000 Ang^3
#
#
#
# Elastic Constant Matrix: (Units=GPa)
#
#
# Indices 1 2 3 4 5 6 
#
# 1 80.1214 60.0597 64.6126 -0.0001 -2.9871 -0.0003
# 2 60.0597 123.6325 76.2692 -0.0002 1.9049 -0.0006
# 3 64.6126 76.2692 129.8486 0.0000 2.2077 0.0000
# 4 -0.0001 -0.0002 0.0000 39.4685 0.0000 3.9536
# 5 -2.9871 1.9049 2.2077 0.0000 4.5698 0.0000
# 6 -0.0003 -0.0006 0.0000 3.9536 0.0000 26.7035
#
#
#
# Elastic Compliance Matrix: (Units=1/GPa)
#
#
# Indices 1 2 3 4 5 6 
#
# 1 0.026477 -0.007617 -0.009124 0.000000 0.024890 0.000000
# 2 -0.007617 0.014889 -0.004805 0.000000 -0.008864 0.000000
# 3 -0.009124 -0.004805 0.015256 0.000000 -0.011332 0.000000
# 4 0.000000 0.000000 0.000000 0.025718 0.000000 -0.003808
# 5 0.024890 -0.008864 -0.011332 0.000000 0.244266 0.000000
# 6 0.000000 0.000000 0.000000 -0.003808 0.000000 0.038012
#
#
# Mechanical properties :
#
#
# Convention : Reuss Voigt Hill
#
# Bulk Modulus (GPa) = 73.90485 81.72061 77.81273
# Shear Modulus (GPa) = 12.12944 22.99242 17.56093
#
# Velocity S-wave (km/s) = 2.53431 3.48925 3.04940
# Velocity P-wave (km/s) = 6.90634 7.71399 7.32131
#
# Compressibility (1/GPa) = 0.01353091
#
# Stress axis : x y z
#
# Youngs Moduli (GPa) = 37.76903 67.16203 65.54773
#
# Poissons Ratio (x) = 0.51158 0.59805
# Poissons Ratio (y) = 0.28769 0.31493
# Poissons Ratio (z) = 0.34460 0.32268
#
# Static dielectric constant tensor:
#      x y z
#    x 3.247530 0.000000 -0.076740 
#    y 0.000000 3.590240 0.000000 
#    z -0.076740 0.000000 3.636170 
# 
# 
# High freq. dielectric constant tensor:
#      x y z
#    x 1.711590 0.000000 0.000890 
#    y 0.000000 1.746620 0.000000 
#    z 0.000890 0.000000 1.749430 
# 
# From -- ./inp_files/275625.got.cif
#   From: 2010.06.25/outbox.cif.g09.slc.cpg/sg12_138_cif.got.tgz:275625.got - 2010.06.28 00:19:55.
