data_PCOD8090085
_publ_section_title
;
Structure prediction by ZEFSAII (Michael W. Deem and Ramdas Pophale) SiO2 
 PCOD8090085
Probable space group: C 2/M
;
_chemical_formula_sum "Si O2"
_cell_formula_units_Z 64
_cell_length_a 8.952903
_cell_length_b 17.861347
_cell_length_c 20.662033
_cell_angle_alpha 90.000000
_cell_angle_beta 89.947188
_cell_angle_gamma 90.000000
_cell_volume 3304.083037
_symmetry_space_group_name_H-M "C 2/M"
_symmetry_group_IT_number 12
_symmetry_cell_setting 'monoclinic'
loop_
_space_group_symop_operation_xyz
x,y,z
-x,y,-z
-x,-y,-z
x,-y,z
1/2+x,1/2+y,z
1/2-x,1/2+y,-z
1/2-x,1/2-y,-z
1/2+x,1/2-y,z
loop_
_atom_site_type_symbol
_atom_site_label
_atom_site_fract_x
_atom_site_fract_y
_atom_site_fract_z
Si Si1 0.821684 0.086205 0.244808
Si Si2 0.832990 0.085459 0.751604
Si Si3 0.172087 0.327929 0.498677
Si Si4 0.317359 0.667706 0.881599
Si Si5 0.829187 0.411877 0.001068
Si Si6 0.168462 0.329342 0.358449
Si Si7 0.817999 0.332275 0.361373
Si Si8 0.671010 0.328498 0.885412
O O1 0.724520 0.113589 0.304827
O O2 0.779472 0.133967 0.181793
O O3 0.993408 0.097295 0.263391
O O4 0.783417 0.000000 0.230318
O O5 0.780592 0.137319 0.810459
O O6 0.741394 0.106773 0.688253
O O7 0.798229 0.000000 0.770011
O O8 0.250000 0.250000 0.500000
O O9 0.210212 0.366470 0.429284
O O10 0.215307 0.368246 0.566595
O O11 0.000000 0.309090 0.500000
O O12 0.248581 0.609473 0.931906
O O13 0.493384 0.675231 0.893106
O O14 0.237676 0.746387 0.890031
O O15 0.822632 0.500000 0.992276
O O16 0.736782 0.376523 0.943132
O O17 0.000000 0.382857 0.000000
O O18 0.239548 0.247481 0.350210
O O19 0.992442 0.319496 0.350024
#
# Coordination Sequence:
#
# PCOD8090085 Si02
#       8
#     8   8   8   8   8   8   8   8
#     4  10  22  39  57  80 111 146 185 229 277 329
#     4  10  22  39  57  80 111 146 185 229 277 329
#     4   8  16  30  49  76 107 139 179 225 273 326
#     4  11  23  40  62  86 114 148 186 228 274 325
#     4  11  24  41  62  89 119 149 184 227 272 321
#     4  10  19  33  55  81 109 143 183 228 277 329
#     4  10  19  33  55  81 109 143 183 228 277 329
#     4  11  23  40  62  86 114 148 186 228 274 325
#
# _framework density 19.369973000000002
#
# number of rings (size 3 to 8) (size 9 to 14) (size 15 to 20)
#    0.000    1.875    0.000    3.750    0.000    7.500 
#    0.000    0.625    0.000    3.750    0.000    0.000 
#    0.000    0.000    0.000    0.000    0.000    0.000 
#
# Total GULP energy -396696.026086 kJ/mol
# GULP energy per Si atom -12396.750815 kJ/mol
# Density = 1.932589 g / cm^3
# Si number density = 19.369973 Si / 1000 Ang^3
#
#
#
# Elastic Constant Matrix: (Units=GPa)
#
#
# Indices 1 2 3 4 5 6 
#
# 1 68.5147 20.8622 39.2263 0.0000 0.3692 0.0000
# 2 20.8622 62.7143 19.7437 0.0000 1.5717 0.0000
# 3 39.2263 19.7437 112.3755 0.0000 1.5427 0.0000
# 4 0.0000 0.0000 0.0000 1.8202 0.0000 -9.7316
# 5 0.3692 1.5717 1.5427 0.0000 35.0876 0.0000
# 6 0.0000 0.0000 0.0000 -9.7316 0.0000 23.5641
#
#
#
# Elastic Compliance Matrix: (Units=1/GPa)
#
#
# Indices 1 2 3 4 5 6 
#
# 1 0.019409 -0.004583 -0.005974 0.000000 0.000264 0.000000
# 2 -0.004583 0.017975 -0.001549 0.000000 -0.000689 0.000000
# 3 -0.005974 -0.001549 0.011261 0.000000 -0.000363 0.000000
# 4 0.000000 0.000000 0.000000 -0.454801 0.000000 -0.187826
# 5 0.000264 -0.000689 -0.000363 0.000000 0.028544 0.000000
# 6 0.000000 0.000000 0.000000 -0.187826 0.000000 -0.035132
#
#
# Mechanical properties :
#
#
# Convention : Reuss Voigt Hill
#
# Bulk Modulus (GPa) = 40.92535 44.80763 42.86649
# Shear Modulus (GPa) = -13.14446 23.01254 4.93404
#
# Velocity S-wave (km/s) = -2.60782 3.45055 1.59775
# Velocity P-wave (km/s) = 3.47944 6.24963 5.05788
#
# Compressibility (1/GPa) = 0.02443473
#
# Stress axis : x y z
#
# Youngs Moduli (GPa) = 51.52149 55.63389 88.80179
#
# Poissons Ratio (x) = 0.25495 0.53047
# Poissons Ratio (y) = 0.23610 0.13755
# Poissons Ratio (z) = 0.30777 0.08617
#
# Static dielectric constant tensor:
#      x y z
#    x 3.634920 0.000000 0.000850 
#    y 0.000000 3.349260 0.000000 
#    z 0.000850 0.000000 4.175730 
# 
# 
# High freq. dielectric constant tensor:
#      x y z
#    x 1.763730 0.000000 0.000390 
#    y 0.000000 1.737620 0.000000 
#    z 0.000390 0.000000 1.778510 
# 
# From -- ./inp_files/300823.got.cif
#   From: 2010.06.25/outbox.cif.g09.slc.cpg/sg12_151_cif.got.tgz:300823.got - 2010.06.28 00:19:55.
