data_PCOD8090987
_publ_section_title
;
Structure prediction by ZEFSAII (Michael W. Deem and Ramdas Pophale) SiO2 
 PCOD8090987
Probable space group: C 2/M
;
_chemical_formula_sum "Si O2"
_cell_formula_units_Z 56
_cell_length_a 28.660925
_cell_length_b 24.614564
_cell_length_c 9.823177
_cell_angle_alpha 90.000000
_cell_angle_beta 153.284099
_cell_angle_gamma 90.000000
_cell_volume 3115.506498
_symmetry_space_group_name_H-M "C 2/M"
_symmetry_group_IT_number 12
_symmetry_cell_setting 'monoclinic'
loop_
_space_group_symop_operation_xyz
x,y,z
-x,y,-z
-x,-y,-z
x,-y,z
1/2+x,1/2+y,z
1/2-x,1/2+y,-z
1/2-x,1/2-y,-z
1/2+x,1/2-y,z
loop_
_atom_site_type_symbol
_atom_site_label
_atom_site_fract_x
_atom_site_fract_y
_atom_site_fract_z
Si Si1 0.163940 0.500000 0.492366
Si Si2 0.233393 0.324568 0.162918
Si Si3 0.804329 0.382430 0.449437
Si Si4 0.095493 0.333674 0.548728
Si Si5 0.388665 0.885560 0.962449
Si Si6 0.083142 0.210493 0.520453
Si Si7 0.643373 0.292326 0.983544
Si Si8 0.460490 0.000000 0.107720
O O1 0.234398 0.445202 0.671312
O O2 0.091126 0.500000 0.172800
O O3 0.085951 0.500000 0.419341
O O4 0.220193 0.368644 0.249537
O O5 0.353310 0.325525 0.423784
O O6 0.159103 0.347038 0.849896
O O7 0.200775 0.265543 0.137179
O O8 0.871899 0.369919 0.493432
O O9 0.878476 0.377823 0.773948
O O10 0.710588 0.340746 0.221697
O O11 0.119201 0.271121 0.579367
O O12 0.973070 0.344173 0.248022
O O13 0.422276 0.946683 0.089489
O O14 0.118114 0.193052 0.762130
O O15 0.958952 0.206893 0.187598
#
# Coordination Sequence:
#
# PCOD8090987 Si02
#       8
#     4   8   8   8   8   8   8   4
#     4   9  18  32  55  74 106 139 180 213 259 320
#     4  11  20  35  53  78 109 144 173 210 267 318
#     4  11  20  35  54  81 105 140 178 220 262 305
#     4  11  18  34  54  79 107 144 174 206 261 322
#     4  11  22  33  53  80 114 136 173 220 261 316
#     4  10  19  34  54  77 107 144 175 206 261 325
#     4  10  19  34  57  77 103 144 182 209 257 321
#     4   9  18  34  50  76 107 149 167 204 276 319
#
# _framework density 17.974605
#
# number of rings (size 3 to 8) (size 9 to 14) (size 15 to 20)
#    0.000    1.571    5.714    1.714    0.000    0.571 
#    0.000    2.857    0.000    2.571    0.000    3.000 
#    0.000    0.000    0.000    0.000    0.000    0.000 
#
# Total GULP energy -347020.870083 kJ/mol
# GULP energy per Si atom -12393.602503 kJ/mol
# Density = 1.793369 g / cm^3
# Si number density = 17.974605 Si / 1000 Ang^3
#
#
#
# Elastic Constant Matrix: (Units=GPa)
#
#
# Indices 1 2 3 4 5 6 
#
# 1 94.9273 40.9846 18.5111 0.0000 14.9866 0.0000
# 2 40.9846 91.6463 33.9986 0.0000 -0.8503 0.0000
# 3 18.5111 33.9986 48.3905 0.0000 8.3692 0.0000
# 4 0.0000 0.0000 0.0000 18.1198 0.0000 7.1469
# 5 14.9866 -0.8503 8.3692 0.0000 24.6666 0.0000
# 6 0.0000 0.0000 0.0000 7.1469 0.0000 23.3602
#
#
#
# Elastic Compliance Matrix: (Units=1/GPa)
#
#
# Indices 1 2 3 4 5 6 
#
# 1 0.014951 -0.007132 0.000962 0.000000 -0.009656 0.000000
# 2 -0.007132 0.018598 -0.011897 0.000000 0.009011 0.000000
# 3 0.000962 -0.011897 0.030625 0.000000 -0.011385 0.000000
# 4 0.000000 0.000000 0.000000 0.062762 0.000000 -0.019202
# 5 -0.009656 0.009011 -0.011385 0.000000 0.050581 0.000000
# 6 0.000000 0.000000 0.000000 -0.019202 0.000000 0.048682
#
#
# Mechanical properties :
#
#
# Convention : Reuss Voigt Hill
#
# Bulk Modulus (GPa) = 35.66457 46.88363 41.27410
# Shear Modulus (GPa) = 18.40400 22.66065 20.53232
#
# Velocity S-wave (km/s) = 3.20330 3.55449 3.38345
# Velocity P-wave (km/s) = 5.79363 6.55635 6.18676
#
# Compressibility (1/GPa) = 0.02803903
#
# Stress axis : x y z
#
# Youngs Moduli (GPa) = 66.88707 53.76849 32.65302
#
# Poissons Ratio (x) = 0.38350 -0.03141
# Poissons Ratio (y) = 0.47707 0.38847
# Poissons Ratio (z) = -0.06434 0.63968
#
# Static dielectric constant tensor:
#      x y z
#    x 3.311130 0.000000 0.099290 
#    y 0.000000 3.397300 0.000000 
#    z 0.099290 0.000000 3.095260 
# 
# 
# High freq. dielectric constant tensor:
#      x y z
#    x 1.697900 0.000000 0.005070 
#    y 0.000000 1.684470 0.000000 
#    z 0.005070 0.000000 1.662530 
# 
# From -- ./inp_files/106910.got.cif
#   From: 2010.06.25/outbox.cif.g09.slc.cpg/sg12_54_cif.got.tgz:106910.got - 2010.06.28 00:19:55.
