data_PCOD8090394
_publ_section_title
;
Structure prediction by ZEFSAII (Michael W. Deem and Ramdas Pophale) SiO2 
 PCOD8090394
Probable space group: C 2/M
;
_chemical_formula_sum "Si O2"
_cell_formula_units_Z 56
_cell_length_a 16.554554
_cell_length_b 18.103479
_cell_length_c 14.912502
_cell_angle_alpha 90.000000
_cell_angle_beta 134.057060
_cell_angle_gamma 90.000000
_cell_volume 3211.781916
_symmetry_space_group_name_H-M "C 2/M"
_symmetry_group_IT_number 12
_symmetry_cell_setting 'monoclinic'
loop_
_space_group_symop_operation_xyz
x,y,z
-x,y,-z
-x,-y,-z
x,-y,z
1/2+x,1/2+y,z
1/2-x,1/2+y,-z
1/2-x,1/2-y,-z
1/2+x,1/2-y,z
loop_
_atom_site_type_symbol
_atom_site_label
_atom_site_fract_x
_atom_site_fract_y
_atom_site_fract_z
Si Si1 0.236857 0.085039 0.332854
Si Si2 0.394112 0.086253 0.616180
Si Si3 0.355507 0.915231 0.240676
Si Si4 0.475341 0.320436 0.879542
Si Si5 0.286711 0.333356 0.015345
Si Si6 0.157858 0.413396 0.061748
Si Si7 0.074808 0.648883 0.174428
O O1 0.299956 0.108920 0.472058
O O2 0.323162 0.098148 0.318492
O O3 0.127577 0.134570 0.239684
O O4 0.198704 0.000000 0.306930
O O5 0.515271 0.107925 0.670111
O O6 0.368692 0.132512 0.686475
O O7 0.388434 0.000000 0.634528
O O8 0.278010 0.864392 0.120162
O O9 0.336205 0.000000 0.196707
O O10 0.448135 0.234453 0.856428
O O11 0.500000 0.345882 0.000000
O O12 0.580866 0.338641 0.898475
O O13 0.250000 0.250000 0.000000
O O14 0.260285 0.379768 0.084289
O O15 0.174883 0.500000 0.084129
O O16 0.158643 0.377227 0.160796
O O17 0.041550 0.396564 0.920536
#
# Coordination Sequence:
#
# PCOD8090394 Si02
#       7
#     8   8   8   8   8   8   8
#     4  10  23  37  55  82 115 155 193 227 277 347
#     4  10  19  36  58  84 115 146 187 239 285 333
#     4  10  19  33  56  83 112 146 185 233 285 332
#     4  12  22  38  57  82 119 155 187 233 292 344
#     4  12  21  35  55  82 118 151 182 230 289 343
#     4  11  21  34  56  87 113 145 188 235 287 337
#     4  11  20  36  58  85 112 144 185 246 289 335
#
# _framework density 17.435804000000001
#
# number of rings (size 3 to 8) (size 9 to 14) (size 15 to 20)
#    0.000    1.143    5.714    2.571    0.000    3.714 
#    0.000    0.000    0.000    0.857    0.000    3.000 
#    0.000    0.000    0.000    0.000    0.000    0.000 
#
# Total GULP energy -347333.051910 kJ/mol
# GULP energy per Si atom -12404.751854 kJ/mol
# Density = 1.739612 g / cm^3
# Si number density = 17.435804 Si / 1000 Ang^3
#
#
#
# Elastic Constant Matrix: (Units=GPa)
#
#
# Indices 1 2 3 4 5 6 
#
# 1 129.9411 55.0074 59.2651 0.0000 -10.3940 0.0000
# 2 55.0074 86.0787 53.1386 0.0000 2.1139 0.0000
# 3 59.2651 53.1386 119.2141 0.0000 -10.0221 0.0000
# 4 0.0000 0.0000 0.0000 14.8170 0.0000 -6.2001
# 5 -10.3940 2.1139 -10.0221 0.0000 27.1438 0.0000
# 6 0.0000 0.0000 0.0000 -6.2001 0.0000 27.3782
#
#
#
# Elastic Compliance Matrix: (Units=1/GPa)
#
#
# Indices 1 2 3 4 5 6 
#
# 1 0.011820 -0.005827 -0.002952 0.000000 0.003890 0.000000
# 2 -0.005827 0.019334 -0.006229 0.000000 -0.006037 0.000000
# 3 -0.002952 -0.006229 0.012981 0.000000 0.004148 0.000000
# 4 0.000000 0.000000 0.000000 0.074555 0.000000 0.016884
# 5 0.003890 -0.006037 0.004148 0.000000 0.040332 0.000000
# 6 0.000000 0.000000 0.000000 0.016884 0.000000 0.040349
#
#
# Mechanical properties :
#
#
# Convention : Reuss Voigt Hill
#
# Bulk Modulus (GPa) = 70.82064 74.45066 72.63565
# Shear Modulus (GPa) = 21.35911 25.05600 23.20755
#
# Velocity S-wave (km/s) = 3.50382 3.79495 3.65228
# Velocity P-wave (km/s) = 7.55481 7.87367 7.71589
#
# Compressibility (1/GPa) = 0.01412018
#
# Stress axis : x y z
#
# Youngs Moduli (GPa) = 84.60389 51.72175 77.03620
#
# Poissons Ratio (x) = 0.30136 0.22740
# Poissons Ratio (y) = 0.49295 0.47986
# Poissons Ratio (z) = 0.24974 0.32217
#
# Static dielectric constant tensor:
#      x y z
#    x 3.454330 0.000000 -0.140310 
#    y 0.000000 3.289110 0.000000 
#    z -0.140310 0.000000 3.120850 
# 
# 
# High freq. dielectric constant tensor:
#      x y z
#    x 1.683090 0.000000 -0.014920 
#    y 0.000000 1.677030 0.000000 
#    z -0.014920 0.000000 1.656040 
# 
# From -- ./inp_files/145682.got.cif
#   From: 2010.06.25/outbox.cif.g09.slc.cpg/sg12_73_cif.got.tgz:145682.got - 2010.06.28 00:19:55.
