data_PCOD8090130
_publ_section_title
;
Structure prediction by ZEFSAII (Michael W. Deem and Ramdas Pophale) SiO2 
 PCOD8090130
Probable space group: C 2/M
;
_chemical_formula_sum "Si O2"
_cell_formula_units_Z 64
_cell_length_a 20.660141
_cell_length_b 8.996843
_cell_length_c 24.240591
_cell_angle_alpha 90.000000
_cell_angle_beta 127.582456
_cell_angle_gamma 90.000000
_cell_volume 3570.696870
_symmetry_space_group_name_H-M "C 2/M"
_symmetry_group_IT_number 12
_symmetry_cell_setting 'monoclinic'
loop_
_space_group_symop_operation_xyz
x,y,z
-x,y,-z
-x,-y,-z
x,-y,z
1/2+x,1/2+y,z
1/2-x,1/2+y,-z
1/2-x,1/2-y,-z
1/2+x,1/2-y,z
loop_
_atom_site_type_symbol
_atom_site_label
_atom_site_fract_x
_atom_site_fract_y
_atom_site_fract_z
Si Si1 0.118791 0.824233 0.678970
Si Si2 0.798374 0.825076 0.475966
Si Si3 0.227678 0.672621 0.818541
Si Si4 0.471405 0.175852 0.546431
Si Si5 0.263018 0.828557 0.674798
Si Si6 0.791574 0.175298 0.970016
Si Si7 0.127679 0.172389 0.188773
Si Si8 0.027003 0.177183 0.954995
O O1 0.153648 0.771595 0.756217
O O2 0.182111 0.772206 0.664483
O O3 0.034585 0.740026 0.623743
O O4 0.103557 0.000000 0.671206
O O5 0.750000 0.750000 0.500000
O O6 0.885766 0.750899 0.514764
O O7 0.745197 0.793885 0.393807
O O8 0.809555 0.000000 0.492258
O O9 0.204438 0.500000 0.800230
O O10 0.241310 0.717659 0.889025
O O11 0.310977 0.708468 0.829382
O O12 0.500000 0.220295 0.500000
O O13 0.463670 0.000000 0.549618
O O14 0.343831 0.749312 0.739892
O O15 0.274322 0.000000 0.693322
O O16 0.792900 0.000000 0.979163
O O17 0.750000 0.250000 0.000000
O O18 0.883734 0.237981 0.013911
O O19 0.038064 0.230965 0.124901
O O20 0.124963 0.000000 0.200341
O O21 0.027653 0.000000 0.959082
O O22 0.000000 0.242709 0.000000
#
# Coordination Sequence:
#
# PCOD8090130 Si02
#       8
#     8   8   8   8   8   8   8   8
#     4  10  19  33  55  82 111 143 179 225 277 327
#     4  11  23  40  59  81 113 151 188 228 279 335
#     4   9  17  31  51  77 105 137 178 226 274 319
#     4  11  22  36  58  87 114 143 185 232 276 329
#     4   9  19  34  52  77 112 146 174 215 276 327
#     4  10  20  34  53  76 108 144 178 219 272 328
#     4   9  16  28  53  81 101 128 177 231 269 309
#     4   9  15  29  53  79 102 131 176 224 263 305
#
# _framework density 17.923673000000001
#
# number of rings (size 3 to 8) (size 9 to 14) (size 15 to 20)
#    0.000    2.250    2.500    1.125    0.000    2.500 
#    0.000    1.875    0.000    6.750    0.000    0.000 
#    0.000    0.000    0.000    0.000    0.000    0.000 
#
# Total GULP energy -396818.811995 kJ/mol
# GULP energy per Si atom -12400.587875 kJ/mol
# Density = 1.788288 g / cm^3
# Si number density = 17.923673 Si / 1000 Ang^3
#
#
#
# Elastic Constant Matrix: (Units=GPa)
#
#
# Indices 1 2 3 4 5 6 
#
# 1 116.5019 48.1327 73.5179 0.0000 1.8479 0.0000
# 2 48.1327 64.1503 63.9919 0.0000 1.8092 0.0000
# 3 73.5179 63.9919 150.7832 0.0000 8.0949 0.0000
# 4 0.0000 0.0000 0.0000 29.5885 0.0000 -2.5332
# 5 1.8479 1.8092 8.0949 0.0000 27.4269 0.0000
# 6 0.0000 0.0000 0.0000 -2.5332 0.0000 26.3213
#
#
#
# Elastic Compliance Matrix: (Units=1/GPa)
#
#
# Indices 1 2 3 4 5 6 
#
# 1 0.013729 -0.006254 -0.004077 0.000000 0.000691 0.000000
# 2 -0.006254 0.029953 -0.009734 0.000000 0.001318 0.000000
# 3 -0.004077 -0.009734 0.012906 0.000000 -0.002892 0.000000
# 4 0.000000 0.000000 0.000000 0.034078 0.000000 0.003280
# 5 0.000691 0.001318 -0.002892 0.000000 0.037181 0.000000
# 6 0.000000 0.000000 0.000000 0.003280 0.000000 0.038308
#
#
# Mechanical properties :
#
#
# Convention : Reuss Voigt Hill
#
# Bulk Modulus (GPa) = 60.75474 78.08004 69.41739
# Shear Modulus (GPa) = 23.61062 26.38687 24.99875
#
# Velocity S-wave (km/s) = 3.63338 3.84106 3.73866
# Velocity P-wave (km/s) = 7.18136 7.95794 7.57960
#
# Compressibility (1/GPa) = 0.01645962
#
# Stress axis : x y z
#
# Youngs Moduli (GPa) = 72.83833 33.38569 77.48295
#
# Poissons Ratio (x) = 0.20878 0.31590
# Poissons Ratio (y) = 0.45550 0.75419
# Poissons Ratio (z) = 0.29696 0.32496
#
# Static dielectric constant tensor:
#      x y z
#    x 3.067930 0.000000 0.153240 
#    y 0.000000 3.197520 0.000000 
#    z 0.153240 0.000000 3.536350 
# 
# 
# High freq. dielectric constant tensor:
#      x y z
#    x 1.668310 0.000000 0.007250 
#    y 0.000000 1.682230 0.000000 
#    z 0.007250 0.000000 1.710340 
# 
# From -- ./inp_files/346221.got.cif
#   From: 2010.06.25/outbox.cif.g09.slc.cpg/sg12_174_cif.got.tgz:346221.got - 2010.06.28 00:19:55.
