data_PCOD8090712
_publ_section_title
;
Structure prediction by ZEFSAII (Michael W. Deem and Ramdas Pophale) SiO2 
 PCOD8090712
Probable space group: C 2/M
;
_chemical_formula_sum "Si O2"
_cell_formula_units_Z 64
_cell_length_a 28.001354
_cell_length_b 17.882174
_cell_length_c 11.406824
_cell_angle_alpha 90.000000
_cell_angle_beta 148.218369
_cell_angle_gamma 90.000000
_cell_volume 3008.247965
_symmetry_space_group_name_H-M "C 2/M"
_symmetry_group_IT_number 12
_symmetry_cell_setting 'monoclinic'
loop_
_space_group_symop_operation_xyz
x,y,z
-x,y,-z
-x,-y,-z
x,-y,z
1/2+x,1/2+y,z
1/2-x,1/2+y,-z
1/2-x,1/2-y,-z
1/2+x,1/2-y,z
loop_
_atom_site_type_symbol
_atom_site_label
_atom_site_fract_x
_atom_site_fract_y
_atom_site_fract_z
Si Si1 0.979966 0.181486 0.091136
Si Si2 0.854433 0.258119 0.439747
Si Si3 0.525159 0.584584 0.711788
Si Si4 0.095200 0.417824 0.481282
Si Si5 0.197120 0.276836 0.275389
Si Si6 0.174125 0.415686 0.885395
Si Si7 0.364923 0.650350 0.257915
Si Si8 0.389205 0.915091 0.995395
O O1 0.971639 0.103915 0.144506
O O2 0.059894 0.233314 0.305416
O O3 0.886267 0.222696 0.916152
O O4 0.000000 0.160099 0.000000
O O5 0.844534 0.347837 0.434562
O O6 0.762880 0.223476 0.300326
O O7 0.868051 0.230938 0.332339
O O8 0.560139 0.500000 0.764169
O O9 0.419928 0.590823 0.452732
O O10 0.585289 0.646236 0.765098
O O11 0.136227 0.500000 0.531454
O O12 0.094004 0.412499 0.621017
O O13 0.997443 0.410252 0.218308
O O14 0.250000 0.250000 0.500000
O O15 0.157206 0.361767 0.199468
O O16 0.206766 0.500000 0.973231
O O17 0.260638 0.369642 0.021156
O O18 0.138452 0.384488 0.934145
O O19 0.357276 0.000000 0.903993
#
# Coordination Sequence:
#
# PCOD8090712 Si02
#       8
#     8   8   8   8   8   8   8   8
#     4  11  24  44  65  90 126 171 226 283 337 396
#     4  11  23  41  65  95 128 176 222 269 342 404
#     4  10  22  40  62  91 130 174 214 265 332 398
#     4  10  22  39  61  93 134 173 217 271 334 400
#     4  12  24  43  69  93 126 171 223 286 332 398
#     4  10  19  33  58  92 132 168 207 261 324 396
#     4  10  20  37  60  93 130 171 213 258 320 407
#     4  10  21  41  65  94 129 173 218 270 337 403
#
# _framework density 21.274840999999999
#
# number of rings (size 3 to 8) (size 9 to 14) (size 15 to 20)
#    0.000    1.500    3.750    1.875    1.750    3.250 
#    4.500    1.250    0.000    2.250    0.000    0.000 
#    0.000    0.000    0.000    0.000    0.000    0.000 
#
# Total GULP energy -396538.057500 kJ/mol
# GULP energy per Si atom -12391.814297 kJ/mol
# Density = 2.122642 g / cm^3
# Si number density = 21.274841 Si / 1000 Ang^3
#
#
#
# Elastic Constant Matrix: (Units=GPa)
#
#
# Indices 1 2 3 4 5 6 
#
# 1 71.7587 30.9743 25.8014 0.0000 -9.9584 0.0000
# 2 30.9743 126.9627 39.9937 0.0000 -9.7473 0.0000
# 3 25.8014 39.9937 94.0428 0.0000 -3.4592 0.0000
# 4 0.0000 0.0000 0.0000 29.2387 0.0000 -0.8165
# 5 -9.9584 -9.7473 -3.4592 0.0000 36.0002 0.0000
# 6 0.0000 0.0000 0.0000 -0.8165 0.0000 25.4847
#
#
#
# Elastic Compliance Matrix: (Units=1/GPa)
#
#
# Indices 1 2 3 4 5 6 
#
# 1 0.016823 -0.002791 -0.003297 0.000000 0.003581 0.000000
# 2 -0.002791 0.009718 -0.003311 0.000000 0.001541 0.000000
# 3 -0.003297 -0.003311 0.012925 0.000000 -0.000566 0.000000
# 4 0.000000 0.000000 0.000000 0.034232 0.000000 0.001097
# 5 0.003581 0.001541 -0.000566 0.000000 0.029131 0.000000
# 6 0.000000 0.000000 0.000000 0.001097 0.000000 0.039274
#
#
# Mechanical properties :
#
#
# Convention : Reuss Voigt Hill
#
# Bulk Modulus (GPa) = 48.38007 54.03368 51.20688
# Shear Modulus (GPa) = 29.79925 31.21104 30.50515
#
# Velocity S-wave (km/s) = 3.74663 3.83435 3.79074
# Velocity P-wave (km/s) = 6.44253 6.71238 6.57884
#
# Compressibility (1/GPa) = 0.02066967
#
# Stress axis : x y z
#
# Youngs Moduli (GPa) = 59.44395 102.89847 77.36912
#
# Poissons Ratio (x) = 0.28715 0.25508
# Poissons Ratio (y) = 0.16589 0.25614
# Poissons Ratio (z) = 0.19598 0.34066
#
# Static dielectric constant tensor:
#      x y z
#    x 3.683670 0.000000 0.076180 
#    y 0.000000 3.891000 0.000000 
#    z 0.076180 0.000000 4.432340 
# 
# 
# High freq. dielectric constant tensor:
#      x y z
#    x 1.811380 0.000000 0.004100 
#    y 0.000000 1.829820 0.000000 
#    z 0.004100 0.000000 1.840760 
# 
# From -- ./inp_files/190104.got.cif
#   From: 2010.06.25/outbox.cif.g09.slc.cpg/sg12_96_cif.got.tgz:190104.got - 2010.06.28 00:19:55.
