data_PCOD8090810
_publ_section_title
;
Structure prediction by ZEFSAII (Michael W. Deem and Ramdas Pophale) SiO2 
 PCOD8090810
Probable space group: C 2/M
;
_chemical_formula_sum "Si O2"
_cell_formula_units_Z 60
_cell_length_a 24.320971
_cell_length_b 23.136381
_cell_length_c 11.974148
_cell_angle_alpha 90.000000
_cell_angle_beta 30.273488
_cell_angle_gamma 90.000000
_cell_volume 3396.736269
_symmetry_space_group_name_H-M "C 2/M"
_symmetry_group_IT_number 12
_symmetry_cell_setting 'monoclinic'
loop_
_space_group_symop_operation_xyz
x,y,z
-x,y,-z
-x,-y,-z
x,-y,z
1/2+x,1/2+y,z
1/2-x,1/2+y,-z
1/2-x,1/2-y,-z
1/2+x,1/2-y,z
loop_
_atom_site_type_symbol
_atom_site_label
_atom_site_fract_x
_atom_site_fract_y
_atom_site_fract_z
Si Si1 0.889757 0.566281 0.133883
Si Si2 0.559072 0.844689 0.130443
Si Si3 0.500000 0.645251 0.000000
Si Si4 0.894745 0.797217 0.744906
Si Si5 0.206458 0.067165 0.636782
Si Si6 0.835743 0.668009 0.826677
Si Si7 0.818368 0.356259 0.611724
Si Si8 0.612496 0.281790 0.987275
O O1 0.896591 0.500000 0.085409
O O2 0.788243 0.578082 0.391726
O O3 0.881611 0.602811 0.035461
O O4 0.000000 0.586418 0.000000
O O5 0.585592 0.854605 0.214623
O O6 0.428009 0.843287 0.350224
O O7 0.606848 0.787347 0.988152
O O8 0.399802 0.603978 0.207166
O O9 0.472678 0.686806 0.944385
O O10 0.869576 0.733862 0.738947
O O11 0.000000 0.824412 0.500000
O O12 0.788082 0.835972 0.909799
O O13 0.922387 0.797701 0.826764
O O14 0.260162 0.087878 0.659391
O O15 0.176237 0.000000 0.703186
O O16 0.845484 0.631457 0.694902
O O17 0.736731 0.301452 0.744262
#
# Coordination Sequence:
#
# PCOD8090810 Si02
#       8
#     8   8   4   8   8   8   8   8
#     4  10  21  37  53  72  98 134 177 208 246 304
#     4  11  20  32  54  76 103 141 166 208 259 304
#     4  10  21  36  54  80 107 130 170 218 254 304
#     4   9  16  30  47  66 101 143 165 199 245 303
#     4  10  21  38  58  75  99 137 176 215 259 303
#     4   9  18  29  46  74 100 129 175 203 245 303
#     4  10  19  34  51  74 105 138 168 213 252 304
#     4   9  21  32  48  78 109 133 169 207 257 307
#
# _framework density 17.664016
#
# number of rings (size 3 to 8) (size 9 to 14) (size 15 to 20)
#    0.000    2.267    1.333    3.000    0.933    2.133 
#    0.000    3.333    0.000    1.600    0.000    0.000 
#    0.000   13.333    0.000    0.000    0.000    0.000 
#
# Total GULP energy -371934.715505 kJ/mol
# GULP energy per Si atom -12397.823850 kJ/mol
# Density = 1.762381 g / cm^3
# Si number density = 17.664016 Si / 1000 Ang^3
#
#
#
# Elastic Constant Matrix: (Units=GPa)
#
#
# Indices 1 2 3 4 5 6 
#
# 1 97.8979 49.2548 29.0774 -0.0004 -3.5298 0.0002
# 2 49.2548 71.3810 32.2234 -0.0003 4.7665 0.0001
# 3 29.0774 32.2234 99.6304 -0.0006 -6.0160 0.0003
# 4 -0.0004 -0.0003 -0.0006 19.9009 0.0003 1.6307
# 5 -3.5298 4.7665 -6.0160 0.0003 24.3542 -0.0002
# 6 0.0002 0.0001 0.0003 1.6307 -0.0002 16.9161
#
#
#
# Elastic Compliance Matrix: (Units=1/GPa)
#
#
# Indices 1 2 3 4 5 6 
#
# 1 0.016200 -0.011063 -0.000891 0.000000 0.004293 0.000000
# 2 -0.011063 0.024481 -0.005152 0.000000 -0.007668 0.000000
# 3 -0.000891 -0.005152 0.012198 0.000000 0.003893 0.000000
# 4 0.000000 0.000000 0.000000 0.050649 -0.000001 -0.004882
# 5 0.004293 -0.007668 0.003893 -0.000001 0.044145 0.000000
# 6 0.000000 0.000000 0.000000 -0.004882 0.000000 0.059586
#
#
# Mechanical properties :
#
#
# Convention : Reuss Voigt Hill
#
# Bulk Modulus (GPa) = 53.56811 54.44671 54.00741
# Shear Modulus (GPa) = 20.18619 22.79116 21.48867
#
# Velocity S-wave (km/s) = 3.38418 3.59591 3.49165
# Velocity P-wave (km/s) = 6.75738 6.93767 6.84812
#
# Compressibility (1/GPa) = 0.01866782
#
# Stress axis : x y z
#
# Youngs Moduli (GPa) = 61.72752 40.84798 81.97792
#
# Poissons Ratio (x) = 0.45191 0.07302
# Poissons Ratio (y) = 0.68290 0.42235
# Poissons Ratio (z) = 0.05498 0.21045
#
# Static dielectric constant tensor:
#      x y z
#    x 3.365970 0.000000 -0.119820 
#    y 0.000000 3.075610 0.000000 
#    z -0.119820 0.000000 3.376210 
# 
# 
# High freq. dielectric constant tensor:
#      x y z
#    x 1.687600 0.000000 -0.007360 
#    y 0.000000 1.649000 0.000000 
#    z -0.007360 0.000000 1.693930 
# 
# From -- ./inp_files/178379.got.cif
#   From: 2010.06.25/outbox.cif.g09.slc.cpg/sg12_90_cif.got.tgz:178379.got - 2010.06.28 00:19:55.
