data_PCOD8090244
_publ_section_title
;
Structure prediction by ZEFSAII (Michael W. Deem and Ramdas Pophale) SiO2 
 PCOD8090244
Probable space group: C 2/M
;
_chemical_formula_sum "Si O2"
_cell_formula_units_Z 64
_cell_length_a 14.302446
_cell_length_b 27.498336
_cell_length_c 9.461688
_cell_angle_alpha 90.000000
_cell_angle_beta 62.961981
_cell_angle_gamma 90.000000
_cell_volume 3314.509614
_symmetry_space_group_name_H-M "C 2/M"
_symmetry_group_IT_number 12
_symmetry_cell_setting 'monoclinic'
loop_
_space_group_symop_operation_xyz
x,y,z
-x,y,-z
-x,-y,-z
x,-y,z
1/2+x,1/2+y,z
1/2-x,1/2+y,-z
1/2-x,1/2-y,-z
1/2+x,1/2-y,z
loop_
_atom_site_type_symbol
_atom_site_label
_atom_site_fract_x
_atom_site_fract_y
_atom_site_fract_z
Si Si1 0.777456 0.104634 0.530854
Si Si2 0.422037 0.943968 0.937269
Si Si3 0.063053 0.227021 0.314815
Si Si4 0.046046 0.396895 0.621047
Si Si5 0.801458 0.057270 0.811716
Si Si6 0.002013 0.118666 0.331281
Si Si7 0.522032 0.803095 0.827794
Si Si8 0.754000 0.715515 0.363223
O O1 0.670242 0.089830 0.522345
O O2 0.783847 0.068544 0.659161
O O3 0.773998 0.160347 0.580704
O O4 0.884650 0.101036 0.361175
O O5 0.474574 0.937595 0.747092
O O6 0.410036 0.000000 0.982088
O O7 0.500000 0.919731 0.000000
O O8 0.302668 0.923123 0.032618
O O9 0.024666 0.175015 0.280644
O O10 0.183019 0.229690 0.279454
O O11 0.000000 0.242135 0.500000
O O12 0.056632 0.265143 0.191054
O O13 0.031018 0.348709 0.720522
O O14 0.000000 0.388233 0.500000
O O15 0.905081 0.085472 0.798929
O O16 0.820531 0.000000 0.820087
O O17 0.000000 0.111635 0.500000
O O18 0.630803 0.775830 0.771898
O O19 0.500000 0.821303 0.000000
O O20 0.750000 0.750000 0.500000
#
# Coordination Sequence:
#
# PCOD8090244 Si02
#       8
#     8   8   8   8   8   8   8   8
#     4  10  19  33  55  85 117 151 195 240 297 340
#     4  10  20  37  60  84 116 155 190 237 300 356
#     4  11  18  36  58  81 110 155 200 234 292 352
#     4  11  24  38  58  85 118 159 200 244 294 356
#     4  10  19  33  59  91 119 150 187 240 303 354
#     4   9  17  32  56  85 112 150 191 242 291 347
#     4  11  25  37  55  87 120 152 198 253 295 343
#     4  11  20  34  60  80 113 162 195 241 292 352
#
# _framework density 19.30904
#
# number of rings (size 3 to 8) (size 9 to 14) (size 15 to 20)
#    0.000    1.625    6.250    0.750    3.500    3.000 
#    0.000    0.000    0.000    0.000    0.000    1.750 
#    0.000    0.000    0.000    0.000    0.000    0.000 
#
# Total GULP energy -396474.231255 kJ/mol
# GULP energy per Si atom -12389.819727 kJ/mol
# Density = 1.926509 g / cm^3
# Si number density = 19.309040 Si / 1000 Ang^3
#
#
#
# Elastic Constant Matrix: (Units=GPa)
#
#
# Indices 1 2 3 4 5 6 
#
# 1 145.2298 17.5852 49.1282 0.0000 -19.8833 0.0000
# 2 17.5852 49.5052 15.5296 0.0000 -4.6726 0.0000
# 3 49.1282 15.5296 75.4043 0.0000 -0.4850 0.0000
# 4 0.0000 0.0000 0.0000 23.4563 0.0000 -3.2355
# 5 -19.8833 -4.6726 -0.4850 0.0000 29.8618 0.0000
# 6 0.0000 0.0000 0.0000 -3.2355 0.0000 23.0446
#
#
#
# Elastic Compliance Matrix: (Units=1/GPa)
#
#
# Indices 1 2 3 4 5 6 
#
# 1 0.010004 -0.000981 -0.006275 0.000000 0.006406 0.000000
# 2 -0.000981 0.022023 -0.003879 0.000000 0.002730 0.000000
# 3 -0.006275 -0.003879 0.018120 0.000000 -0.004491 0.000000
# 4 0.000000 0.000000 0.000000 0.043474 0.000000 0.006104
# 5 0.006406 0.002730 -0.004491 0.000000 0.038107 0.000000
# 6 0.000000 0.000000 0.000000 0.006104 0.000000 0.044251
#
#
# Mechanical properties :
#
#
# Convention : Reuss Voigt Hill
#
# Bulk Modulus (GPa) = 35.87083 48.29171 42.08127
# Shear Modulus (GPa) = 24.09159 27.79894 25.94526
#
# Velocity S-wave (km/s) = 3.53609 3.79843 3.66961
# Velocity P-wave (km/s) = 5.94049 6.65595 6.30837
#
# Compressibility (1/GPa) = 0.02787781
#
# Stress axis : x y z
#
# Youngs Moduli (GPa) = 99.96008 45.40746 55.18752
#
# Poissons Ratio (x) = 0.04453 0.34629
# Poissons Ratio (y) = 0.09803 0.21408
# Poissons Ratio (z) = 0.62722 0.17614
#
# Static dielectric constant tensor:
#      x y z
#    x 4.039510 0.000000 -0.394100 
#    y 0.000000 3.627210 0.000000 
#    z -0.394100 0.000000 3.202070 
# 
# 
# High freq. dielectric constant tensor:
#      x y z
#    x 1.766680 0.000000 -0.027450 
#    y 0.000000 1.746810 0.000000 
#    z -0.027450 0.000000 1.708790 
# 
# From -- ./inp_files/66922.got.cif
#   From: 2010.06.25/outbox.cif.g09.slc.cpg/sg12_34_cif.got.tgz:66922.got - 2010.06.28 00:19:55.
