data_PCOD8090408
_publ_section_title
;
Structure prediction by ZEFSAII (Michael W. Deem and Ramdas Pophale) SiO2 
 PCOD8090408
Probable space group: C 2/M
;
_chemical_formula_sum "Si O2"
_cell_formula_units_Z 64
_cell_length_a 8.839693
_cell_length_b 16.671459
_cell_length_c 29.037944
_cell_angle_alpha 90.000000
_cell_angle_beta 48.366055
_cell_angle_gamma 90.000000
_cell_volume 3198.397442
_symmetry_space_group_name_H-M "C 2/M"
_symmetry_group_IT_number 12
_symmetry_cell_setting 'monoclinic'
loop_
_space_group_symop_operation_xyz
x,y,z
-x,y,-z
-x,-y,-z
x,-y,z
1/2+x,1/2+y,z
1/2-x,1/2+y,-z
1/2-x,1/2-y,-z
1/2+x,1/2-y,z
loop_
_atom_site_type_symbol
_atom_site_label
_atom_site_fract_x
_atom_site_fract_y
_atom_site_fract_z
Si Si1 0.517575 0.140822 0.182853
Si Si2 0.066349 0.905940 0.935194
Si Si3 0.715088 0.785863 0.457157
Si Si4 0.514363 0.088577 0.283969
Si Si5 0.211310 0.404966 0.939286
Si Si6 0.165491 0.795107 0.736071
Si Si7 0.844353 0.188273 0.621522
Si Si8 0.185592 0.091056 0.182652
O O1 0.741036 0.148466 0.116390
O O2 0.528695 0.087373 0.226248
O O3 0.421343 0.227560 0.212307
O O4 0.384601 0.093028 0.173111
O O5 0.887349 0.878233 0.937975
O O6 0.118685 0.000000 0.918749
O O7 0.000000 0.885904 0.000000
O O8 0.500000 0.836630 0.500000
O O9 0.750000 0.750000 0.500000
O O10 0.677077 0.716157 0.427061
O O11 0.926496 0.833388 0.406813
O O12 0.659805 0.157418 0.273087
O O13 0.284998 0.107674 0.346036
O O14 0.572341 0.000000 0.290676
O O15 0.189518 0.500000 0.941688
O O16 0.263824 0.372733 0.877851
O O17 0.000000 0.367417 0.000000
O O18 0.254328 0.759408 0.671202
O O19 0.988256 0.856283 0.758181
O O20 0.106605 0.000000 0.194388
#
# Coordination Sequence:
#
# PCOD8090408 Si02
#       8
#     8   8   8   8   8   8   8   8
#     4  11  22  37  56  85 116 150 196 247 296 350
#     4  10  19  33  56  83 114 153 197 246 302 366
#     4   9  18  34  62  94 119 154 200 238 272 335
#     4  11  22  37  59  86 120 159 196 241 295 351
#     4   9  18  33  53  77 108 146 189 237 288 349
#     4  11  23  38  58  82 121 156 193 239 295 346
#     4  10  19  36  59  93 119 153 199 242 282 338
#     4  11  22  36  56  83 113 149 194 241 295 354
#
# _framework density 20.010020999999998
#
# number of rings (size 3 to 8) (size 9 to 14) (size 15 to 20)
#    0.000    1.750    1.250    4.500    1.750    3.000 
#    0.000    0.625    0.000    7.500    0.000    0.000 
#    0.000    0.000    0.000    0.000    0.000    0.125 
#
# Total GULP energy -396680.285618 kJ/mol
# GULP energy per Si atom -12396.258926 kJ/mol
# Density = 1.996448 g / cm^3
# Si number density = 20.010021 Si / 1000 Ang^3
#
#
#
# Elastic Constant Matrix: (Units=GPa)
#
#
# Indices 1 2 3 4 5 6 
#
# 1 133.3383 23.2397 61.8562 -0.0016 -8.1584 0.0006
# 2 23.2397 80.1401 35.1850 0.0006 -8.1809 -0.0004
# 3 61.8562 35.1850 125.9949 0.0025 -12.2183 -0.0011
# 4 -0.0016 0.0006 0.0025 43.3285 0.0013 -18.0911
# 5 -8.1584 -8.1809 -12.2183 0.0013 52.7617 -0.0002
# 6 0.0006 -0.0004 -0.0011 -18.0911 -0.0002 31.6383
#
#
#
# Elastic Compliance Matrix: (Units=1/GPa)
#
#
# Indices 1 2 3 4 5 6 
#
# 1 0.009765 -0.000806 -0.004537 0.000001 0.000334 0.000000
# 2 -0.000806 0.014378 -0.003494 0.000000 0.001296 0.000000
# 3 -0.004537 -0.003494 0.011272 -0.000001 0.001367 0.000000
# 4 0.000001 0.000000 -0.000001 0.030318 -0.000001 0.017336
# 5 0.000334 0.001296 0.001367 -0.000001 0.019522 0.000000
# 6 0.000000 0.000000 0.000000 0.017336 0.000000 0.041520
#
#
# Mechanical properties :
#
#
# Convention : Reuss Voigt Hill
#
# Bulk Modulus (GPa) = 56.36102 64.44834 60.40468
# Shear Modulus (GPa) = 33.25279 40.15852 36.70565
#
# Velocity S-wave (km/s) = 4.08095 4.48473 4.28759
# Velocity P-wave (km/s) = 7.10162 7.68733 7.40027
#
# Compressibility (1/GPa) = 0.01774276
#
# Stress axis : x y z
#
# Youngs Moduli (GPa) = 102.40414 69.55031 88.71264
#
# Poissons Ratio (x) = 0.05605 0.40246
# Poissons Ratio (y) = 0.08252 0.30995
# Poissons Ratio (z) = 0.46458 0.24300
#
# Static dielectric constant tensor:
#      x y z
#    x 3.963100 0.000000 -0.282450 
#    y 0.000000 3.223740 0.000000 
#    z -0.282450 0.000000 3.983920 
# 
# 
# High freq. dielectric constant tensor:
#      x y z
#    x 1.802300 0.000000 -0.007520 
#    y 0.000000 1.735620 0.000000 
#    z -0.007520 0.000000 1.793310 
# 
# From -- ./inp_files/372538.got.cif
#   From: 2010.06.25/outbox.cif.g09.slc.cpg/sg12_187_cif.got.tgz:372538.got - 2010.06.28 00:19:55.
