data_PCOD8090142
_publ_section_title
;
Structure prediction by ZEFSAII (Michael W. Deem and Ramdas Pophale) SiO2 
 PCOD8090142
Probable space group: C 2/M
;
_chemical_formula_sum "Si O2"
_cell_formula_units_Z 56
_cell_length_a 28.855933
_cell_length_b 9.113820
_cell_length_c 21.351436
_cell_angle_alpha 90.000000
_cell_angle_beta 30.949366
_cell_angle_gamma 90.000000
_cell_volume 2887.770025
_symmetry_space_group_name_H-M "C 2/M"
_symmetry_group_IT_number 12
_symmetry_cell_setting 'monoclinic'
loop_
_space_group_symop_operation_xyz
x,y,z
-x,y,-z
-x,-y,-z
x,-y,z
1/2+x,1/2+y,z
1/2-x,1/2+y,-z
1/2-x,1/2-y,-z
1/2+x,1/2-y,z
loop_
_atom_site_type_symbol
_atom_site_label
_atom_site_fract_x
_atom_site_fract_y
_atom_site_fract_z
Si Si1 0.551909 0.326632 0.878610
Si Si2 0.939834 0.669531 0.664175
Si Si3 0.010121 0.826928 0.183141
Si Si4 0.674321 0.667930 0.550020
Si Si5 0.762576 0.667742 0.319132
Si Si6 0.632027 0.831526 0.387790
Si Si7 0.653863 0.674491 0.113728
O O1 0.567329 0.500000 0.862649
O O2 0.492811 0.279480 0.886436
O O3 0.648438 0.251999 0.763099
O O4 0.500000 0.270166 0.000000
O O5 0.934765 0.500000 0.691679
O O6 0.878881 0.692748 0.673440
O O7 0.902779 0.775530 0.760504
O O8 0.041859 0.715261 0.529374
O O9 0.100524 0.772133 0.113004
O O10 0.922648 0.762482 0.320481
O O11 0.007274 0.000000 0.192622
O O12 0.678859 0.500000 0.566655
O O13 0.750000 0.750000 0.500000
O O14 0.689101 0.683991 0.459024
O O15 0.788090 0.500000 0.276093
O O16 0.717552 0.735788 0.309552
O O17 0.653923 0.000000 0.377163
O O18 0.666084 0.500000 0.101877
O O19 0.750000 0.750000 0.000000
#
# Coordination Sequence:
#
# PCOD8090142 Si02
#       7
#     8   8   8   8   8   8   8
#     4  10  21  38  59  79 104 149 199 232 273 338
#     4   9  19  38  60  85 113 145 192 243 287 338
#     4   9  19  37  58  80 111 146 186 236 284 335
#     4  10  19  33  55  82 112 145 181 227 281 334
#     4  11  22  34  53  86 119 147 184 231 285 341
#     4   9  19  36  60  85 114 151 187 230 287 349
#     4  11  23  39  59  83 115 156 197 242 292 344
#
# _framework density 19.392126000000001
#
# number of rings (size 3 to 8) (size 9 to 14) (size 15 to 20)
#    0.000    2.143    1.429    2.571    0.000    4.286 
#    0.000    7.143    0.000    0.000    0.000    0.000 
#    0.000    0.000    0.000    0.000    0.000    0.000 
#
# Total GULP energy -347196.424154 kJ/mol
# GULP energy per Si atom -12399.872291 kJ/mol
# Density = 1.934799 g / cm^3
# Si number density = 19.392126 Si / 1000 Ang^3
#
#
#
# Elastic Constant Matrix: (Units=GPa)
#
#
# Indices 1 2 3 4 5 6 
#
# 1 152.2963 48.8924 59.9584 -0.0044 -12.9557 0.0019
# 2 48.8924 62.1052 32.2618 -0.0299 -2.3143 0.0181
# 3 59.9584 32.2618 97.8928 -0.0203 2.2014 0.0109
# 4 -0.0044 -0.0299 -0.0203 30.3293 0.0098 0.1159
# 5 -12.9557 -2.3143 2.2014 0.0098 33.0799 -0.0048
# 6 0.0019 0.0181 0.0109 0.1159 -0.0048 25.2962
#
#
#
# Elastic Compliance Matrix: (Units=1/GPa)
#
#
# Indices 1 2 3 4 5 6 
#
# 1 0.010609 -0.005764 -0.004689 -0.000009 0.004064 0.000006
# 2 -0.005764 0.022666 -0.003930 0.000019 -0.000410 -0.000014
# 3 -0.004689 -0.003930 0.014452 0.000006 -0.003073 -0.000004
# 4 -0.000009 0.000019 0.000006 0.032972 -0.000012 -0.000151
# 5 0.004064 -0.000410 -0.003073 -0.000012 0.031997 0.000008
# 6 0.000006 -0.000014 -0.000004 -0.000151 0.000008 0.039532
#
#
# Mechanical properties :
#
#
# Convention : Reuss Voigt Hill
#
# Bulk Modulus (GPa) = 52.74564 66.05774 59.40169
# Shear Modulus (GPa) = 26.69308 29.15319 27.92314
#
# Velocity S-wave (km/s) = 3.71413 3.88151 3.79875
# Velocity P-wave (km/s) = 6.75660 7.36386 7.06675
#
# Compressibility (1/GPa) = 0.01895891
#
# Stress axis : x y z
#
# Youngs Moduli (GPa) = 94.26403 44.11928 69.19572
#
# Poissons Ratio (x) = 0.25431 0.32448
# Poissons Ratio (y) = 0.54335 0.27195
# Poissons Ratio (z) = 0.44204 0.17339
#
# Static dielectric constant tensor:
#      x y z
#    x 3.775480 -0.000020 0.040310 
#    y -0.000020 3.375940 0.000020 
#    z 0.040310 0.000020 3.561830 
# 
# 
# High freq. dielectric constant tensor:
#      x y z
#    x 1.768290 0.000000 -0.000290 
#    y 0.000000 1.736640 0.000000 
#    z -0.000290 0.000000 1.749930 
# 
# From -- ./inp_files/329460.got.cif
#   From: 2010.06.25/outbox.cif.g09.slc.cpg/sg12_165_cif.got.tgz:329460.got - 2010.06.28 00:19:55.
