data_PCOD8090174
_publ_section_title
;
Structure prediction by ZEFSAII (Michael W. Deem and Ramdas Pophale) SiO2 
 PCOD8090174
Probable space group: C 2/M
;
_chemical_formula_sum "Si O2"
_cell_formula_units_Z 64
_cell_length_a 25.399118
_cell_length_b 9.002816
_cell_length_c 14.743182
_cell_angle_alpha 90.000000
_cell_angle_beta 81.572390
_cell_angle_gamma 90.000000
_cell_volume 3334.825737
_symmetry_space_group_name_H-M "C 2/M"
_symmetry_group_IT_number 12
_symmetry_cell_setting 'monoclinic'
loop_
_space_group_symop_operation_xyz
x,y,z
-x,y,-z
-x,-y,-z
x,-y,z
1/2+x,1/2+y,z
1/2-x,1/2+y,-z
1/2-x,1/2-y,-z
1/2+x,1/2-y,z
loop_
_atom_site_type_symbol
_atom_site_label
_atom_site_fract_x
_atom_site_fract_y
_atom_site_fract_z
Si Si1 0.993261 0.331313 0.400807
Si Si2 0.428025 0.668088 0.174192
Si Si3 0.840751 0.170780 0.059438
Si Si4 0.777235 0.174823 0.408445
Si Si5 0.647582 0.824196 0.129837
Si Si6 0.540165 0.672264 0.218626
Si Si7 0.248191 0.675727 0.217464
Si Si8 0.380733 0.833343 0.347829
O O1 0.015251 0.500000 0.387085
O O2 0.930673 0.326675 0.401071
O O3 0.000000 0.267261 0.500000
O O4 0.024934 0.229469 0.322214
O O5 0.417843 0.500000 0.213192
O O6 0.401529 0.685253 0.081688
O O7 0.491421 0.700186 0.160018
O O8 0.397941 0.785937 0.243484
O O9 0.798249 0.229756 0.144372
O O10 0.828908 0.000000 0.036111
O O11 0.834250 0.272158 0.973571
O O12 0.750000 0.250000 0.500000
O O13 0.753308 0.236481 0.319068
O O14 0.838816 0.217853 0.398255
O O15 0.769994 0.000000 0.418320
O O16 0.590904 0.757643 0.169198
O O17 0.692401 0.768599 0.189535
O O18 0.642844 0.000000 0.131503
O O19 0.554538 0.500000 0.221788
O O20 0.250100 0.500000 0.220255
O O21 0.357090 0.000000 0.349490
#
# Coordination Sequence:
#
# PCOD8090174 Si02
#       8
#     8   8   8   8   8   8   8   8
#     4   9  19  36  58  82 111 149 188 227 279 342
#     4   9  18  35  60  82 108 147 187 227 277 335
#     4  10  19  37  62  85 108 145 192 236 283 340
#     4  11  22  39  59  83 113 148 189 234 285 338
#     4  11  23  38  56  83 116 153 189 233 285 338
#     4  10  21  37  56  82 114 150 190 234 281 333
#     4   9  20  39  61  80 110 152 192 229 281 344
#     4  10  19  33  55  83 111 141 182 231 280 331
#
# _framework density 19.191407000000002
#
# number of rings (size 3 to 8) (size 9 to 14) (size 15 to 20)
#    0.000    2.125    1.250    1.875    0.000    3.250 
#    0.000   10.625    0.000    0.000    0.000    0.000 
#    0.000    0.000    0.000    0.000    0.000    0.000 
#
# Total GULP energy -396766.026375 kJ/mol
# GULP energy per Si atom -12398.938324 kJ/mol
# Density = 1.914773 g / cm^3
# Si number density = 19.191407 Si / 1000 Ang^3
#
#
#
# Elastic Constant Matrix: (Units=GPa)
#
#
# Indices 1 2 3 4 5 6 
#
# 1 113.0306 45.5248 66.8671 0.0000 -6.8889 0.0000
# 2 45.5248 77.0615 46.9938 0.0000 2.8319 0.0000
# 3 66.8671 46.9938 128.4086 0.0000 5.4788 0.0000
# 4 0.0000 0.0000 0.0000 34.0669 0.0000 -4.4292
# 5 -6.8889 2.8319 5.4788 0.0000 23.4138 0.0000
# 6 0.0000 0.0000 0.0000 -4.4292 0.0000 29.1522
#
#
#
# Elastic Compliance Matrix: (Units=1/GPa)
#
#
# Indices 1 2 3 4 5 6 
#
# 1 0.015046 -0.005382 -0.006144 0.000000 0.006515 0.000000
# 2 -0.005382 0.018638 -0.003894 0.000000 -0.002927 0.000000
# 3 -0.006144 -0.003894 0.012595 0.000000 -0.004284 0.000000
# 4 0.000000 0.000000 0.000000 0.029946 0.000000 0.004550
# 5 0.006515 -0.002927 -0.004284 0.000000 0.045983 0.000000
# 6 0.000000 0.000000 0.000000 0.004550 0.000000 0.034994
#
#
# Mechanical properties :
#
#
# Convention : Reuss Voigt Hill
#
# Bulk Modulus (GPa) = 64.76291 70.80800 67.78546
# Shear Modulus (GPa) = 25.88179 27.93427 26.90803
#
# Velocity S-wave (km/s) = 3.67633 3.81932 3.74851
# Velocity P-wave (km/s) = 7.19997 7.51168 7.35748
#
# Compressibility (1/GPa) = 0.01544094
#
# Stress axis : x y z
#
# Youngs Moduli (GPa) = 66.46169 53.65417 79.39934
#
# Poissons Ratio (x) = 0.28875 0.48780
# Poissons Ratio (y) = 0.35767 0.30915
# Poissons Ratio (z) = 0.40831 0.20891
#
# Static dielectric constant tensor:
#      x y z
#    x 4.098940 0.000000 0.078530 
#    y 0.000000 3.487190 0.000000 
#    z 0.078530 0.000000 3.462780 
# 
# 
# High freq. dielectric constant tensor:
#      x y z
#    x 1.755740 0.000000 0.006050 
#    y 0.000000 1.739090 0.000000 
#    z 0.006050 0.000000 1.738710 
# 
# From -- ./inp_files/243851.got.cif
#   From: 2010.06.25/outbox.cif.g09.slc.cpg/sg12_122_cif.got.tgz:243851.got - 2010.06.28 00:19:55.
