data_PCOD8090558
_publ_section_title
;
Structure prediction by ZEFSAII (Michael W. Deem and Ramdas Pophale) SiO2 
 PCOD8090558
Probable space group: C 2/M
;
_chemical_formula_sum "Si O2"
_cell_formula_units_Z 48
_cell_length_a 20.363681
_cell_length_b 8.942451
_cell_length_c 14.907490
_cell_angle_alpha 90.000000
_cell_angle_beta 110.970736
_cell_angle_gamma 90.000000
_cell_volume 2534.861302
_symmetry_space_group_name_H-M "C 2/M"
_symmetry_group_IT_number 12
_symmetry_cell_setting 'monoclinic'
loop_
_space_group_symop_operation_xyz
x,y,z
-x,y,-z
-x,-y,-z
x,-y,z
1/2+x,1/2+y,z
1/2-x,1/2+y,-z
1/2-x,1/2-y,-z
1/2+x,1/2-y,z
loop_
_atom_site_type_symbol
_atom_site_label
_atom_site_fract_x
_atom_site_fract_y
_atom_site_fract_z
Si Si1 0.660870 0.671112 0.393006
Si Si2 0.859321 0.324014 0.896352
Si Si3 0.203085 0.172587 0.606430
Si Si4 0.711816 0.824713 0.786294
Si Si5 0.897977 0.674697 0.116509
Si Si6 0.043290 0.826666 0.196981
O O1 0.686314 0.500000 0.390530
O O2 0.717142 0.781267 0.376757
O O3 0.653644 0.704025 0.495890
O O4 0.586380 0.700404 0.309716
O O5 0.853945 0.500000 0.880593
O O6 0.787359 0.251232 0.829450
O O7 0.923802 0.263042 0.869723
O O8 0.873434 0.279737 0.005693
O O9 0.174468 0.267547 0.676753
O O10 0.202609 0.000000 0.633593
O O11 0.664558 0.778830 0.847490
O O12 0.723690 0.000000 0.786813
O O13 0.915987 0.500000 0.132429
O O14 0.965619 0.768205 0.178227
O O15 0.041533 0.000000 0.169628
#
# Coordination Sequence:
#
# PCOD8090558 Si02
#       6
#     8   8   8   8   8   8
#     4   9  19  35  55  83 115 144 182 231 280 330
#     4  11  22  38  60  84 110 147 193 236 279 333
#     4  10  19  33  57  85 111 145 185 229 281 334
#     4  11  22  38  58  83 115 149 187 235 284 331
#     4  10  24  41  56  79 116 154 188 231 282 336
#     4  11  22  37  59  86 115 148 186 231 281 335
#
# _framework density 18.935946999999999
#
# number of rings (size 3 to 8) (size 9 to 14) (size 15 to 20)
#    0.000    1.667    1.667    3.000    0.000    6.000 
#    0.000    0.833    0.000    5.000    0.000    0.000 
#    0.000    0.000    0.000    0.000    0.000    0.000 
#
# Total GULP energy -297699.072830 kJ/mol
# GULP energy per Si atom -12404.128035 kJ/mol
# Density = 1.889285 g / cm^3
# Si number density = 18.935947 Si / 1000 Ang^3
#
#
#
# Elastic Constant Matrix: (Units=GPa)
#
#
# Indices 1 2 3 4 5 6 
#
# 1 56.2324 25.3307 22.4522 0.0000 0.6047 0.0000
# 2 25.3307 68.1918 36.0730 0.0000 2.2402 0.0000
# 3 22.4522 36.0730 112.0801 0.0000 -2.7773 0.0000
# 4 0.0000 0.0000 0.0000 31.6104 0.0000 0.4696
# 5 0.6047 2.2402 -2.7773 0.0000 11.2990 0.0000
# 6 0.0000 0.0000 0.0000 0.4696 0.0000 31.1609
#
#
#
# Elastic Compliance Matrix: (Units=1/GPa)
#
#
# Indices 1 2 3 4 5 6 
#
# 1 0.021768 -0.006948 -0.002132 0.000000 -0.000312 0.000000
# 2 -0.006948 0.020169 -0.005221 0.000000 -0.004910 0.000000
# 3 -0.002132 -0.005221 0.011126 0.000000 0.003884 0.000000
# 4 0.000000 0.000000 0.000000 0.031642 0.000000 -0.000477
# 5 -0.000312 -0.004910 0.003884 0.000000 0.090448 0.000000
# 6 0.000000 0.000000 0.000000 -0.000477 0.000000 0.032099
#
#
# Mechanical properties :
#
#
# Convention : Reuss Voigt Hill
#
# Bulk Modulus (GPa) = 40.88275 44.91289 42.89782
# Shear Modulus (GPa) = 20.49119 24.99062 22.74090
#
# Velocity S-wave (km/s) = 3.29315 3.63677 3.46922
# Velocity P-wave (km/s) = 6.00805 6.43464 6.22500
#
# Compressibility (1/GPa) = 0.02446019
#
# Stress axis : x y z
#
# Youngs Moduli (GPa) = 45.93956 49.58203 89.87965
#
# Poissons Ratio (x) = 0.34448 0.19164
# Poissons Ratio (y) = 0.31918 0.46928
# Poissons Ratio (z) = 0.09795 0.25888
#
# Static dielectric constant tensor:
#      x y z
#    x 3.234820 0.000000 -0.092400 
#    y 0.000000 3.541890 0.000000 
#    z -0.092400 0.000000 3.847140 
# 
# 
# High freq. dielectric constant tensor:
#      x y z
#    x 1.711970 0.000000 -0.003810 
#    y 0.000000 1.745920 0.000000 
#    z -0.003810 0.000000 1.755510 
# 
# From -- ./inp_files/229856.got.cif
#   From: 2010.06.25/outbox.cif.g09.slc.cpg/sg12_115_cif.got.tgz:229856.got - 2010.06.28 00:19:55.
