data_PCOD8090947
_publ_section_title
;
Structure prediction by ZEFSAII (Michael W. Deem and Ramdas Pophale) SiO2 
 PCOD8090947
Probable space group: C 2/M
;
_chemical_formula_sum "Si O2"
_cell_formula_units_Z 56
_cell_length_a 28.292529
_cell_length_b 12.933202
_cell_length_c 9.526423
_cell_angle_alpha 90.000000
_cell_angle_beta 121.503939
_cell_angle_gamma 90.000000
_cell_volume 2972.043630
_symmetry_space_group_name_H-M "C 2/M"
_symmetry_group_IT_number 12
_symmetry_cell_setting 'monoclinic'
loop_
_space_group_symop_operation_xyz
x,y,z
-x,y,-z
-x,-y,-z
x,-y,z
1/2+x,1/2+y,z
1/2-x,1/2+y,-z
1/2-x,1/2-y,-z
1/2+x,1/2-y,z
loop_
_atom_site_type_symbol
_atom_site_label
_atom_site_fract_x
_atom_site_fract_y
_atom_site_fract_z
Si Si1 0.549459 0.290810 0.666692
Si Si2 0.480351 0.236700 0.816168
Si Si3 0.668191 0.617251 0.842258
Si Si4 0.878190 0.119559 0.685100
Si Si5 0.084365 0.619383 0.510594
Si Si6 0.205452 0.882879 0.211469
Si Si7 0.310244 0.242992 0.370360
O O1 0.500000 0.344731 0.500000
O O2 0.532445 0.273349 0.802555
O O3 0.602241 0.364392 0.741506
O O4 0.561205 0.181374 0.608464
O O5 0.439381 0.333453 0.774181
O O6 0.448862 0.145580 0.684302
O O7 0.500000 0.197043 0.000000
O O8 0.678582 0.500000 0.809567
O O9 0.699790 0.696099 0.789884
O O10 0.694522 0.638275 0.032982
O O11 0.852419 0.136393 0.798951
O O12 0.835795 0.173637 0.514255
O O13 0.883075 0.000000 0.650831
O O14 0.077791 0.500000 0.535921
O O15 0.148623 0.646606 0.587817
O O16 0.252556 0.803358 0.337491
O O17 0.225920 0.000000 0.270607
#
# Coordination Sequence:
#
# PCOD8090947 Si02
#       7
#     8   8   8   8   8   8   8
#     4   9  19  33  51  74 100 134 167 200 246 296
#     4  10  20  33  51  76 103 131 165 206 249 290
#     4  10  20  33  51  77 104 129 164 206 248 297
#     4  10  21  35  52  75 102 134 169 201 242 299
#     4   9  19  35  53  73  98 130 169 207 245 297
#     4  10  20  34  53  75 100 133 166 201 251 299
#     4  10  19  34  54  75 100 129 166 209 248 289
#
# _framework density 18.842254000000001
#
# number of rings (size 3 to 8) (size 9 to 14) (size 15 to 20)
#    0.000    2.286    0.000    3.429    0.000    4.000 
#    0.000    0.000    0.000    1.714    0.000    0.000 
#    0.000    0.000    0.000    0.000    0.000    0.000 
#
# Total GULP energy -347171.162136 kJ/mol
# GULP energy per Si atom -12398.970076 kJ/mol
# Density = 1.879937 g / cm^3
# Si number density = 18.842254 Si / 1000 Ang^3
#
#
#
# Elastic Constant Matrix: (Units=GPa)
#
#
# Indices 1 2 3 4 5 6 
#
# 1 75.3348 37.4984 23.6610 0.0000 -5.6281 0.0000
# 2 37.4984 97.9787 35.8360 0.0000 2.7617 0.0000
# 3 23.6610 35.8360 72.9892 0.0000 -13.8528 0.0000
# 4 0.0000 0.0000 0.0000 16.9168 0.0000 -0.2210
# 5 -5.6281 2.7617 -13.8528 0.0000 33.1855 0.0000
# 6 0.0000 0.0000 0.0000 -0.2210 0.0000 24.5669
#
#
#
# Elastic Compliance Matrix: (Units=1/GPa)
#
#
# Indices 1 2 3 4 5 6 
#
# 1 0.017028 -0.005773 -0.002222 0.000000 0.002441 0.000000
# 2 -0.005773 0.014879 -0.006358 0.000000 -0.004871 0.000000
# 3 -0.002222 -0.006358 0.019084 0.000000 0.008118 0.000000
# 4 0.000000 0.000000 0.000000 0.059120 0.000000 0.000532
# 5 0.002441 -0.004871 0.008118 0.000000 0.034342 0.000000
# 6 0.000000 0.000000 0.000000 0.000532 0.000000 0.040710
#
#
# Mechanical properties :
#
#
# Convention : Reuss Voigt Hill
#
# Bulk Modulus (GPa) = 44.87692 48.92149 46.89921
# Shear Modulus (GPa) = 22.59417 24.88767 23.74092
#
# Velocity S-wave (km/s) = 3.46659 3.63828 3.55347
# Velocity P-wave (km/s) = 6.31600 6.60830 6.46380
#
# Compressibility (1/GPa) = 0.02228317
#
# Stress axis : x y z
#
# Youngs Moduli (GPa) = 58.72718 67.21103 52.40102
#
# Poissons Ratio (x) = 0.38800 0.11646
# Poissons Ratio (y) = 0.33902 0.33317
# Poissons Ratio (z) = 0.13052 0.42734
#
# Static dielectric constant tensor:
#      x y z
#    x 3.581450 0.000000 -0.078220 
#    y 0.000000 3.239860 0.000000 
#    z -0.078220 0.000000 3.567330 
# 
# 
# High freq. dielectric constant tensor:
#      x y z
#    x 1.738740 0.000000 -0.004470 
#    y 0.000000 1.719280 0.000000 
#    z -0.004470 0.000000 1.732260 
# 
# From -- ./inp_files/110553.got.cif
#   From: 2010.06.25/outbox.cif.g09.slc.cpg/sg12_56_cif.got.tgz:110553.got - 2010.06.28 00:19:55.
