data_PCOD8090846
_publ_section_title
;
Structure prediction by ZEFSAII (Michael W. Deem and Ramdas Pophale) SiO2 
 PCOD8090846
Probable space group: C 2/M
;
_chemical_formula_sum "Si O2"
_cell_formula_units_Z 56
_cell_length_a 20.717331
_cell_length_b 8.789134
_cell_length_c 30.346485
_cell_angle_alpha 90.000000
_cell_angle_beta 146.540399
_cell_angle_gamma 90.000000
_cell_volume 3046.595393
_symmetry_space_group_name_H-M "C 2/M"
_symmetry_group_IT_number 12
_symmetry_cell_setting 'monoclinic'
loop_
_space_group_symop_operation_xyz
x,y,z
-x,y,-z
-x,-y,-z
x,-y,z
1/2+x,1/2+y,z
1/2-x,1/2+y,-z
1/2-x,1/2-y,-z
1/2+x,1/2-y,z
loop_
_atom_site_type_symbol
_atom_site_label
_atom_site_fract_x
_atom_site_fract_y
_atom_site_fract_z
Si Si1 0.821460 0.180216 0.000692
Si Si2 0.711527 0.819032 0.762860
Si Si3 0.654966 0.179859 0.827856
Si Si4 0.179709 0.679964 0.581002
Si Si5 0.084283 0.319925 0.267797
Si Si6 0.049913 0.679309 0.593343
Si Si7 0.932564 0.680405 0.842309
O O1 0.758258 0.229114 0.919467
O O2 0.824417 0.000000 0.008165
O O3 0.750000 0.250000 0.000000
O O4 0.950904 0.245952 0.071797
O O5 0.683241 0.757271 0.795407
O O6 0.601749 0.768878 0.669722
O O7 0.827317 0.736381 0.812529
O O8 0.731491 0.000000 0.772707
O O9 0.531623 0.246975 0.774815
O O10 0.644132 0.000000 0.819734
O O11 0.198131 0.500000 0.591421
O O12 0.303707 0.757960 0.641913
O O13 0.132281 0.741615 0.601038
O O14 0.085044 0.732748 0.489913
O O15 0.085057 0.500000 0.270044
O O16 0.086225 0.262651 0.218408
O O17 0.050884 0.500000 0.588954
O O18 0.944115 0.500000 0.850992
#
# Coordination Sequence:
#
# PCOD8090846 Si02
#       7
#     8   8   8   8   8   8   8
#     4  11  21  37  58  82 108 139 180 223 265 312
#     4  10  19  36  59  79 102 142 184 215 260 320
#     4   9  20  37  56  77 106 140 177 218 263 319
#     4   9  16  29  50  79 106 131 174 224 259 302
#     4  10  19  34  52  76 107 140 175 215 263 316
#     4   8  15  28  50  78 106 132 170 221 263 304
#     4  11  22  36  55  80 111 140 174 223 268 315
#
# _framework density 18.381174999999999
#
# number of rings (size 3 to 8) (size 9 to 14) (size 15 to 20)
#    0.000    2.286    2.857    1.714    0.000    1.143 
#    0.000    7.857    0.000    0.000    0.000    0.000 
#    0.000    0.000    0.000    0.000    0.000    0.000 
#
# Total GULP energy -347146.586984 kJ/mol
# GULP energy per Si atom -12398.092392 kJ/mol
# Density = 1.833934 g / cm^3
# Si number density = 18.381175 Si / 1000 Ang^3
#
#
#
# Elastic Constant Matrix: (Units=GPa)
#
#
# Indices 1 2 3 4 5 6 
#
# 1 137.3842 30.0360 87.5567 0.0000 -1.1052 0.0001
# 2 30.0360 36.8153 37.7839 -0.0001 1.7260 0.0005
# 3 87.5567 37.7839 184.3340 0.0000 7.8412 0.0000
# 4 0.0000 -0.0001 0.0000 28.3250 0.0000 6.7354
# 5 -1.1052 1.7260 7.8412 0.0000 34.6760 0.0000
# 6 0.0001 0.0005 0.0000 6.7354 0.0000 22.8805
#
#
#
# Elastic Compliance Matrix: (Units=1/GPa)
#
#
# Indices 1 2 3 4 5 6 
#
# 1 0.011102 -0.004623 -0.004393 0.000000 0.001577 0.000000
# 2 -0.004623 0.036325 -0.005217 0.000000 -0.000776 -0.000001
# 3 -0.004393 -0.005217 0.008659 0.000000 -0.001838 0.000000
# 4 0.000000 0.000000 0.000000 0.037962 0.000000 -0.011175
# 5 0.001577 -0.000776 -0.001838 0.000000 0.029343 0.000000
# 6 0.000000 -0.000001 0.000000 -0.011175 0.000000 0.046995
#
#
# Mechanical properties :
#
#
# Convention : Reuss Voigt Hill
#
# Bulk Modulus (GPa) = 36.20522 74.36518 55.28520
# Shear Modulus (GPa) = 24.03188 30.72010 27.37599
#
# Velocity S-wave (km/s) = 3.61975 4.09257 3.86340
# Velocity P-wave (km/s) = 6.09998 7.92951 7.07414
#
# Compressibility (1/GPa) = 0.02762033
#
# Stress axis : x y z
#
# Youngs Moduli (GPa) = 90.07535 27.52945 115.48773
#
# Poissons Ratio (x) = 0.12727 0.50730
# Poissons Ratio (y) = 0.41643 0.60247
# Poissons Ratio (z) = 0.39567 0.14361
#
# Static dielectric constant tensor:
#      x y z
#    x 3.412870 0.000000 -0.100030 
#    y 0.000000 3.105240 0.000000 
#    z -0.100030 0.000000 3.757020 
# 
# 
# High freq. dielectric constant tensor:
#      x y z
#    x 1.697600 0.000000 0.006250 
#    y 0.000000 1.683450 0.000000 
#    z 0.006250 0.000000 1.732160 
# 
# From -- ./inp_files/377757.got.cif
#   From: 2010.06.25/outbox.cif.g09.slc.cpg/sg12_189_cif.got.tgz:377757.got - 2010.06.28 00:19:55.
