data_PCOD8090455
_publ_section_title
;
Structure prediction by ZEFSAII (Michael W. Deem and Ramdas Pophale) SiO2 
 PCOD8090455
Probable space group: C 2/M
;
_chemical_formula_sum "Si O2"
_cell_formula_units_Z 56
_cell_length_a 14.287292
_cell_length_b 28.057077
_cell_length_c 11.827882
_cell_angle_alpha 90.000000
_cell_angle_beta 140.012265
_cell_angle_gamma 90.000000
_cell_volume 3046.884608
_symmetry_space_group_name_H-M "C 2/M"
_symmetry_group_IT_number 12
_symmetry_cell_setting 'monoclinic'
loop_
_space_group_symop_operation_xyz
x,y,z
-x,y,-z
-x,-y,-z
x,-y,z
1/2+x,1/2+y,z
1/2-x,1/2+y,-z
1/2-x,1/2-y,-z
1/2+x,1/2-y,z
loop_
_atom_site_type_symbol
_atom_site_label
_atom_site_fract_x
_atom_site_fract_y
_atom_site_fract_z
Si Si1 0.938818 0.351450 0.689274
Si Si2 0.157894 0.711140 0.602223
Si Si3 0.658167 0.799151 0.192487
Si Si4 0.829625 0.949537 0.851757
Si Si5 0.589575 0.053749 0.467935
Si Si6 0.257446 0.195253 0.972582
Si Si7 0.145393 0.149419 0.061040
O O1 0.848991 0.322375 0.513018
O O2 0.859264 0.343561 0.737433
O O3 0.943661 0.407529 0.660749
O O4 0.098483 0.329695 0.845868
O O5 0.260417 0.756194 0.667783
O O6 0.230018 0.681508 0.769305
O O7 0.000000 0.728220 0.500000
O O8 0.500000 0.781478 0.000000
O O9 0.755993 0.813215 0.174078
O O10 0.759377 0.942081 0.661911
O O11 0.792082 0.904330 0.894573
O O12 0.767871 0.000000 0.845406
O O13 0.000000 0.953967 0.000000
O O14 0.500000 0.065089 0.500000
O O15 0.555346 0.000000 0.391289
O O16 0.122006 0.169478 0.912019
O O17 0.250000 0.250000 0.000000
O O18 0.000000 0.150753 0.000000
#
# Coordination Sequence:
#
# PCOD8090455 Si02
#       7
#     8   8   8   8   8   8   8
#     4  11  21  35  57  79 112 142 184 229 270 330
#     4  12  20  35  52  80 111 138 176 229 278 314
#     4  10  23  38  53  73 104 154 187 216 264 327
#     4   9  18  33  52  81 111 137 171 218 275 330
#     4  10  19  33  56  85 115 143 177 229 289 329
#     4  11  21  37  54  73 108 147 184 225 267 326
#     4  11  21  33  57  79 108 140 179 219 273 333
#
# _framework density 18.379428999999998
#
# number of rings (size 3 to 8) (size 9 to 14) (size 15 to 20)
#    0.000    1.429    4.286    2.143    2.000    0.000 
#    2.571    0.000    0.000    4.714    0.000    0.000 
#    0.000    6.857    0.000    0.000    0.000    0.000 
#
# Total GULP energy -346889.493195 kJ/mol
# GULP energy per Si atom -12388.910471 kJ/mol
# Density = 1.833760 g / cm^3
# Si number density = 18.379429 Si / 1000 Ang^3
#
#
#
# Elastic Constant Matrix: (Units=GPa)
#
#
# Indices 1 2 3 4 5 6 
#
# 1 112.3410 58.5908 23.9943 0.0000 -22.5913 0.0000
# 2 58.5908 164.2269 32.5997 0.0000 -13.0463 0.0000
# 3 23.9943 32.5997 64.0005 0.0000 3.9215 0.0000
# 4 0.0000 0.0000 0.0000 10.9006 0.0000 -7.6444
# 5 -22.5913 -13.0463 3.9215 0.0000 30.7326 0.0000
# 6 0.0000 0.0000 0.0000 -7.6444 0.0000 13.6484
#
#
#
# Elastic Compliance Matrix: (Units=1/GPa)
#
#
# Indices 1 2 3 4 5 6 
#
# 1 0.013180 -0.003243 -0.003829 0.000000 0.008801 0.000000
# 2 -0.003243 0.007931 -0.002907 0.000000 0.001353 0.000000
# 3 -0.003829 -0.002907 0.018937 0.000000 -0.006465 0.000000
# 4 0.000000 0.000000 0.000000 0.151079 0.000000 0.084618
# 5 0.008801 0.001353 -0.006465 0.000000 0.040407 0.000000
# 6 0.000000 0.000000 0.000000 0.084618 0.000000 0.120663
#
#
# Mechanical properties :
#
#
# Convention : Reuss Voigt Hill
#
# Bulk Modulus (GPa) = 49.77363 63.43754 56.60559
# Shear Modulus (GPa) = 13.19778 26.08190 19.63984
#
# Velocity S-wave (km/s) = 2.68260 3.77116 3.27246
# Velocity P-wave (km/s) = 6.06094 7.31796 6.71892
#
# Compressibility (1/GPa) = 0.02009096
#
# Stress axis : x y z
#
# Youngs Moduli (GPa) = 75.86976 126.09199 52.80676
#
# Poissons Ratio (x) = 0.40894 0.20218
# Poissons Ratio (y) = 0.24606 0.15349
# Poissons Ratio (z) = 0.29048 0.36651
#
# Static dielectric constant tensor:
#      x y z
#    x 3.554800 0.000000 0.068500 
#    y 0.000000 4.027170 0.000000 
#    z 0.068500 0.000000 3.604300 
# 
# 
# High freq. dielectric constant tensor:
#      x y z
#    x 1.695730 0.000000 0.017010 
#    y 0.000000 1.713760 0.000000 
#    z 0.017010 0.000000 1.704830 
# 
# From -- ./inp_files/149506.got.cif
#   From: 2010.06.25/outbox.cif.g09.slc.cpg/sg12_75_cif.got.tgz:149506.got - 2010.06.28 00:19:55.
