data_PCOD8090965
_publ_section_title
;
Structure prediction by ZEFSAII (Michael W. Deem and Ramdas Pophale) SiO2 
 PCOD8090965
Probable space group: C 2/M
;
_chemical_formula_sum "Si O2"
_cell_formula_units_Z 56
_cell_length_a 14.543307
_cell_length_b 8.648128
_cell_length_c 32.506974
_cell_angle_alpha 90.000000
_cell_angle_beta 132.719705
_cell_angle_gamma 90.000000
_cell_volume 3003.729521
_symmetry_space_group_name_H-M "C 2/M"
_symmetry_group_IT_number 12
_symmetry_cell_setting 'monoclinic'
loop_
_space_group_symop_operation_xyz
x,y,z
-x,y,-z
-x,-y,-z
x,-y,z
1/2+x,1/2+y,z
1/2-x,1/2+y,-z
1/2-x,1/2-y,-z
1/2+x,1/2-y,z
loop_
_atom_site_type_symbol
_atom_site_label
_atom_site_fract_x
_atom_site_fract_y
_atom_site_fract_z
Si Si1 0.383089 0.815908 0.852558
Si Si2 0.325248 0.317869 0.147543
Si Si3 0.278816 0.182090 0.357683
Si Si4 0.893413 0.815587 0.767450
Si Si5 0.553731 0.819130 0.444154
Si Si6 0.653375 0.683217 0.938504
Si Si7 0.227073 0.181060 0.432704
O O1 0.278280 0.749137 0.852570
O O2 0.347928 0.757651 0.796419
O O3 0.517177 0.751538 0.907158
O O4 0.387156 0.000000 0.854360
O O5 0.318282 0.500000 0.149073
O O6 0.465743 0.262009 0.201559
O O7 0.299254 0.266567 0.092554
O O8 0.197496 0.250838 0.295651
O O9 0.416707 0.258953 0.401759
O O10 0.212281 0.220161 0.380466
O O11 0.289181 0.000000 0.354281
O O12 0.887982 0.000000 0.770250
O O13 0.637912 0.763127 0.508423
O O14 0.618637 0.777311 0.421174
O O15 0.534151 0.000000 0.442141
O O16 0.644808 0.500000 0.939588
O O17 0.750000 0.750000 0.000000
O O18 0.209551 0.000000 0.436865
#
# Coordination Sequence:
#
# PCOD8090965 Si02
#       7
#     8   8   8   8   8   8   8
#     4  10  19  34  54  75  99 132 168 202 242 287
#     4   8  17  33  52  70  96 133 165 194 238 291
#     4   9  17  30  50  70  92 127 166 200 242 299
#     4   9  18  34  51  70  96 128 166 206 246 291
#     4   9  17  30  47  69  96 124 158 203 250 293
#     4  10  20  36  55  79 108 136 166 202 240 283
#     4   9  17  30  48  69  93 125 163 199 241 301
#
# _framework density 18.643488999999999
#
# number of rings (size 3 to 8) (size 9 to 14) (size 15 to 20)
#    0.000    2.857    0.000    2.143    0.000    3.429 
#    0.000   13.571    0.000    3.429    0.000    0.000 
#    0.000    0.000    0.000    0.000    0.000    0.000 
#
# Total GULP energy -347061.650470 kJ/mol
# GULP energy per Si atom -12395.058945 kJ/mol
# Density = 1.860106 g / cm^3
# Si number density = 18.643489 Si / 1000 Ang^3
#
#
#
# Elastic Constant Matrix: (Units=GPa)
#
#
# Indices 1 2 3 4 5 6 
#
# 1 118.9019 14.5498 59.7740 0.0000 -7.1563 0.0000
# 2 14.5498 27.5622 17.7887 0.0000 -0.3594 0.0000
# 3 59.7740 17.7887 141.2072 0.0000 -8.8652 0.0000
# 4 0.0000 0.0000 0.0000 22.4084 0.0000 -3.8880
# 5 -7.1563 -0.3594 -8.8652 0.0000 19.2389 0.0000
# 6 0.0000 0.0000 0.0000 -3.8880 0.0000 25.7729
#
#
#
# Elastic Compliance Matrix: (Units=1/GPa)
#
#
# Indices 1 2 3 4 5 6 
#
# 1 0.010995 -0.003112 -0.004128 0.000000 0.002129 0.000000
# 2 -0.003112 0.040421 -0.003913 0.000000 -0.002206 0.000000
# 3 -0.004128 -0.003913 0.009496 0.000000 0.002767 0.000000
# 4 0.000000 0.000000 0.000000 0.045826 0.000000 0.006913
# 5 0.002129 -0.002206 0.002767 0.000000 0.054004 0.000000
# 6 0.000000 0.000000 0.000000 0.006913 0.000000 0.039843
#
#
# Mechanical properties :
#
#
# Convention : Reuss Voigt Hill
#
# Bulk Modulus (GPa) = 25.90341 52.43291 39.16816
# Shear Modulus (GPa) = 21.20802 26.52129 23.86465
#
# Velocity S-wave (km/s) = 3.37643 3.77576 3.58166
# Velocity P-wave (km/s) = 5.39672 6.86976 6.17730
#
# Compressibility (1/GPa) = 0.03860495
#
# Stress axis : x y z
#
# Youngs Moduli (GPa) = 90.95333 24.73951 105.30638
#
# Poissons Ratio (x) = 0.07698 0.43475
# Poissons Ratio (y) = 0.28302 0.41210
# Poissons Ratio (z) = 0.37550 0.09681
#
# Static dielectric constant tensor:
#      x y z
#    x 3.655740 0.000000 0.067670 
#    y 0.000000 3.108400 0.000000 
#    z 0.067670 0.000000 3.602770 
# 
# 
# High freq. dielectric constant tensor:
#      x y z
#    x 1.728870 0.000000 -0.000260 
#    y 0.000000 1.691390 0.000000 
#    z -0.000260 0.000000 1.728910 
# 
# From -- ./inp_files/338159.got.cif
#   From: 2010.06.25/outbox.cif.g09.slc.cpg/sg12_170_cif.got.tgz:338159.got - 2010.06.28 00:19:55.
