data_PCOD8090915
_publ_section_title
;
Structure prediction by ZEFSAII (Michael W. Deem and Ramdas Pophale) SiO2 
 PCOD8090915
Probable space group: C 2/M
;
_chemical_formula_sum "Si O2"
_cell_formula_units_Z 64
_cell_length_a 32.367226
_cell_length_b 9.186097
_cell_length_c 24.743291
_cell_angle_alpha 90.000000
_cell_angle_beta 27.084104
_cell_angle_gamma 90.000000
_cell_volume 3349.574394
_symmetry_space_group_name_H-M "C 2/M"
_symmetry_group_IT_number 12
_symmetry_cell_setting 'monoclinic'
loop_
_space_group_symop_operation_xyz
x,y,z
-x,y,-z
-x,-y,-z
x,-y,z
1/2+x,1/2+y,z
1/2-x,1/2+y,-z
1/2-x,1/2-y,-z
1/2+x,1/2-y,z
loop_
_atom_site_type_symbol
_atom_site_label
_atom_site_fract_x
_atom_site_fract_y
_atom_site_fract_z
Si Si1 0.137747 0.672459 0.483076
Si Si2 0.435989 0.827112 0.737054
Si Si3 0.074498 0.667897 0.958350
Si Si4 0.386768 0.333169 0.901033
Si Si5 0.979703 0.834185 0.161792
Si Si6 0.784832 0.672100 0.831385
Si Si7 0.273429 0.328295 0.417614
Si Si8 0.756594 0.672840 0.744028
O O1 0.135208 0.500000 0.488912
O O2 0.206534 0.730765 0.448788
O O3 0.169758 0.722359 0.386290
O O4 0.037260 0.735709 0.610533
O O5 0.391235 0.763086 0.842625
O O6 0.375526 0.776521 0.756472
O O7 0.436420 0.000000 0.742278
O O8 0.099941 0.500000 0.936304
O O9 0.162078 0.755836 0.837172
O O10 0.000000 0.693299 0.000000
O O11 0.037825 0.727856 0.057351
O O12 0.367954 0.500000 0.906310
O O13 0.481530 0.319480 0.822742
O O14 0.304629 0.271121 0.033433
O O15 0.875310 0.786176 0.282177
O O16 0.991545 0.000000 0.127256
O O17 0.779704 0.500000 0.834558
O O18 0.787584 0.731993 0.766762
O O19 0.263526 0.500000 0.437976
O O20 0.250000 0.250000 0.500000
O O21 0.743297 0.500000 0.759178
#
# Coordination Sequence:
#
# PCOD8090915 Si02
#       8
#     8   8   8   8   8   8   8   8
#     4   9  19  34  54  80 108 138 183 225 264 320
#     4  10  20  34  53  80 110 143 179 224 275 323
#     4  11  23  36  52  80 112 138 171 219 271 323
#     4  10  19  34  53  79 109 138 181 229 267 323
#     4  10  20  35  56  78 104 142 185 222 263 318
#     4   9  18  33  55  81 108 137 181 228 270 318
#     4  10  20  34  52  78 108 143 184 223 263 319
#     4  10  19  37  60  78 105 145 181 225 269 315
#
# _framework density 19.106905000000001
#
# number of rings (size 3 to 8) (size 9 to 14) (size 15 to 20)
#    0.000    2.125    1.250    2.250    0.000    3.500 
#    0.000    4.375    0.000    0.000    0.000    1.750 
#    0.000    0.000    0.000    0.000    0.000    0.000 
#
# Total GULP energy -396848.447329 kJ/mol
# GULP energy per Si atom -12401.513979 kJ/mol
# Density = 1.906342 g / cm^3
# Si number density = 19.106905 Si / 1000 Ang^3
#
#
#
# Elastic Constant Matrix: (Units=GPa)
#
#
# Indices 1 2 3 4 5 6 
#
# 1 132.1111 27.8506 71.4075 0.0002 2.9748 -0.0024
# 2 27.8506 32.2671 20.6843 0.0036 3.2777 0.0022
# 3 71.4075 20.6843 126.4465 0.0006 0.1320 0.0000
# 4 0.0002 0.0036 0.0006 20.4934 -0.0009 6.8151
# 5 2.9748 3.2777 0.1320 -0.0009 40.0663 0.0013
# 6 -0.0024 0.0022 0.0000 6.8151 0.0013 22.5971
#
#
#
# Elastic Compliance Matrix: (Units=1/GPa)
#
#
# Indices 1 2 3 4 5 6 
#
# 1 0.012091 -0.006732 -0.005727 0.000001 -0.000328 0.000002
# 2 -0.006732 0.038690 -0.002524 -0.000006 -0.002657 -0.000003
# 3 -0.005727 -0.002524 0.011555 0.000000 0.000594 0.000000
# 4 0.000001 -0.000006 0.000000 0.054236 0.000002 -0.016357
# 5 -0.000328 -0.002657 0.000594 0.000002 0.025198 -0.000002
# 6 0.000002 -0.000003 0.000000 -0.016357 -0.000002 0.049187
#
#
# Mechanical properties :
#
#
# Convention : Reuss Voigt Hill
#
# Bulk Modulus (GPa) = 30.89295 58.96773 44.93034
# Shear Modulus (GPa) = 21.57841 28.02354 24.80097
#
# Velocity S-wave (km/s) = 3.36423 3.83387 3.60670
# Velocity P-wave (km/s) = 5.59413 7.10824 6.39614
#
# Compressibility (1/GPa) = 0.03236984
#
# Stress axis : x y z
#
# Youngs Moduli (GPa) = 82.70409 25.84646 86.54395
#
# Poissons Ratio (x) = 0.17400 0.49561
# Poissons Ratio (y) = 0.55676 0.21848
# Poissons Ratio (z) = 0.47362 0.06525
#
# Static dielectric constant tensor:
#      x y z
#    x 3.763110 -0.000010 -0.126560 
#    y -0.000010 3.200980 0.000020 
#    z -0.126560 0.000020 3.750430 
# 
# 
# High freq. dielectric constant tensor:
#      x y z
#    x 1.756270 0.000000 -0.003560 
#    y 0.000000 1.706010 0.000000 
#    z -0.003560 0.000000 1.749980 
# 
# From -- ./inp_files/243778.got.cif
#   From: 2010.06.25/outbox.cif.g09.slc.cpg/sg12_122_cif.got.tgz:243778.got - 2010.06.28 00:19:55.
