data_PCOD8090895
_publ_section_title
;
Structure prediction by ZEFSAII (Michael W. Deem and Ramdas Pophale) SiO2 
 PCOD8090895
Probable space group: C 2/M
;
_chemical_formula_sum "Si O2"
_cell_formula_units_Z 56
_cell_length_a 19.176288
_cell_length_b 9.144728
_cell_length_c 24.297637
_cell_angle_alpha 90.000000
_cell_angle_beta 47.147474
_cell_angle_gamma 90.000000
_cell_volume 3123.680099
_symmetry_space_group_name_H-M "C 2/M"
_symmetry_group_IT_number 12
_symmetry_cell_setting 'monoclinic'
loop_
_space_group_symop_operation_xyz
x,y,z
-x,y,-z
-x,-y,-z
x,-y,z
1/2+x,1/2+y,z
1/2-x,1/2+y,-z
1/2-x,1/2-y,-z
1/2+x,1/2-y,z
loop_
_atom_site_type_symbol
_atom_site_label
_atom_site_fract_x
_atom_site_fract_y
_atom_site_fract_z
Si Si1 0.190596 0.169794 0.456042
Si Si2 0.891084 0.330587 0.404036
Si Si3 0.936416 0.328951 0.764153
Si Si4 0.461427 0.171478 0.179385
Si Si5 0.749852 0.170907 0.690034
Si Si6 0.264305 0.327599 0.804518
Si Si7 0.434010 0.669406 0.087744
O O1 0.112169 0.250960 0.535129
O O2 0.296334 0.203266 0.420799
O O3 0.187911 0.232931 0.394577
O O4 0.165010 0.000000 0.472917
O O5 0.902334 0.500000 0.410159
O O6 0.980226 0.272814 0.320952
O O7 0.917162 0.500000 0.765204
O O8 0.963772 0.297173 0.812559
O O9 0.841600 0.238448 0.803902
O O10 0.357945 0.230785 0.253647
O O11 0.490424 0.261380 0.109388
O O12 0.456805 0.000000 0.167054
O O13 0.796617 0.206739 0.724041
O O14 0.742329 0.000000 0.682830
O O15 0.254729 0.500000 0.819452
O O16 0.163559 0.254660 0.871184
O O17 0.411528 0.500000 0.111300
O O18 0.500000 0.690364 0.000000
#
# Coordination Sequence:
#
# PCOD8090895 Si02
#       7
#     8   8   8   8   8   8   8
#     4   9  15  27  47  69  95 129 174 221 261 303
#     4   9  17  28  45  70 100 134 170 214 264 306
#     4  10  19  34  53  75 108 143 173 213 265 309
#     4   9  17  32  56  80 102 136 177 212 251 304
#     4   8  14  29  50  71  95 130 175 218 257 301
#     4  10  21  35  55  79 105 137 175 214 254 308
#     4  10  21  38  59  83 109 134 163 204 254 307
#
# _framework density 17.927572000000001
#
# number of rings (size 3 to 8) (size 9 to 14) (size 15 to 20)
#    0.000    2.714    1.429    1.714    0.000    2.286 
#    0.000    5.000    0.000    4.286    0.000    0.000 
#    0.000    0.000    0.000    0.000    0.000    0.000 
#
# Total GULP energy -347093.350254 kJ/mol
# GULP energy per Si atom -12396.191080 kJ/mol
# Density = 1.788677 g / cm^3
# Si number density = 17.927572 Si / 1000 Ang^3
#
#
#
# Elastic Constant Matrix: (Units=GPa)
#
#
# Indices 1 2 3 4 5 6 
#
# 1 105.2185 55.2777 50.3215 0.0000 9.1139 0.0000
# 2 55.2777 73.7960 54.6583 0.0000 5.7564 -0.0003
# 3 50.3215 54.6583 105.9602 0.0000 17.7853 0.0000
# 4 0.0000 0.0000 0.0000 28.8915 0.0000 2.2876
# 5 9.1139 5.7564 17.7853 0.0000 23.8619 0.0000
# 6 0.0000 -0.0003 0.0000 2.2876 0.0000 26.9793
#
#
#
# Elastic Compliance Matrix: (Units=1/GPa)
#
#
# Indices 1 2 3 4 5 6 
#
# 1 0.016111 -0.010526 -0.001845 0.000000 -0.002239 0.000000
# 2 -0.010526 0.029079 -0.010857 0.000000 0.005097 0.000000
# 3 -0.001845 -0.010857 0.017552 0.000000 -0.009759 0.000000
# 4 0.000000 0.000000 0.000000 0.034846 0.000000 -0.002955
# 5 -0.002239 0.005097 -0.009759 0.000000 0.048807 0.000000
# 6 0.000000 0.000000 0.000000 -0.002955 0.000000 0.037316
#
#
# Mechanical properties :
#
#
# Convention : Reuss Voigt Hill
#
# Bulk Modulus (GPa) = 61.40605 67.27662 64.34133
# Shear Modulus (GPa) = 21.22268 24.26101 22.74185
#
# Velocity S-wave (km/s) = 3.44437 3.68269 3.56552
# Velocity P-wave (km/s) = 7.08131 7.46266 7.27448
#
# Compressibility (1/GPa) = 0.01628504
#
# Stress axis : x y z
#
# Youngs Moduli (GPa) = 62.07051 34.38852 56.97271
#
# Poissons Ratio (x) = 0.36199 0.10514
# Poissons Ratio (y) = 0.65338 0.61854
# Poissons Ratio (z) = 0.11455 0.37335
#
# Static dielectric constant tensor:
#      x y z
#    x 3.216520 0.000000 0.253790 
#    y 0.000000 3.193970 0.000000 
#    z 0.253790 0.000000 3.376000 
# 
# 
# High freq. dielectric constant tensor:
#      x y z
#    x 1.679740 0.000000 0.017800 
#    y 0.000000 1.679190 0.000000 
#    z 0.017800 0.000000 1.689260 
# 
# From -- ./inp_files/342301.got.cif
#   From: 2010.06.25/outbox.cif.g09.slc.cpg/sg12_172_cif.got.tgz:342301.got - 2010.06.28 00:19:55.
