data_PCOD8090464
_publ_section_title
;
Structure prediction by ZEFSAII (Michael W. Deem and Ramdas Pophale) SiO2 
 PCOD8090464
Probable space group: C 2/M
;
_chemical_formula_sum "Si O2"
_cell_formula_units_Z 64
_cell_length_a 30.361797
_cell_length_b 8.685507
_cell_length_c 17.667516
_cell_angle_alpha 90.000000
_cell_angle_beta 44.634712
_cell_angle_gamma 90.000000
_cell_volume 3273.381165
_symmetry_space_group_name_H-M "C 2/M"
_symmetry_group_IT_number 12
_symmetry_cell_setting 'monoclinic'
loop_
_space_group_symop_operation_xyz
x,y,z
-x,y,-z
-x,-y,-z
x,-y,z
1/2+x,1/2+y,z
1/2-x,1/2+y,-z
1/2-x,1/2-y,-z
1/2+x,1/2-y,z
loop_
_atom_site_type_symbol
_atom_site_label
_atom_site_fract_x
_atom_site_fract_y
_atom_site_fract_z
Si Si1 0.198972 0.682386 0.275179
Si Si2 0.833368 0.323699 0.122219
Si Si3 0.373183 0.174426 0.233669
Si Si4 0.748626 0.677001 0.582008
Si Si5 0.546549 0.819701 0.721296
Si Si6 0.690942 0.181116 0.113940
Si Si7 0.406759 0.817640 0.888206
Si Si8 0.363226 0.320604 0.515913
O O1 0.196779 0.500000 0.285419
O O2 0.268237 0.734823 0.218601
O O3 0.187433 0.741656 0.203937
O O4 0.139457 0.749349 0.395993
O O5 0.814239 0.500000 0.129820
O O6 0.884566 0.316437 0.128995
O O7 0.867870 0.250364 0.007066
O O8 0.322139 0.307155 0.305217
O O9 0.429502 0.217203 0.222267
O O10 0.350189 0.000000 0.282115
O O11 0.771047 0.500000 0.556532
O O12 0.750000 0.750000 0.500000
O O13 0.792909 0.783922 0.577092
O O14 0.476910 0.748355 0.800681
O O15 0.588157 0.750311 0.603055
O O16 0.545930 0.000000 0.707163
O O17 0.627787 0.230744 0.147076
O O18 0.699172 0.000000 0.102575
O O19 0.750000 0.250000 0.000000
O O20 0.411174 0.000000 0.892640
O O21 0.376866 0.500000 0.503710
#
# Coordination Sequence:
#
# PCOD8090464 Si02
#       8
#     8   8   8   8   8   8   8   8
#     4  11  22  35  56  89 120 148 188 241 299 350
#     4  10  19  33  56  85 119 151 187 235 288 343
#     4  10  20  32  52  84 117 153 195 236 282 333
#     4  12  22  33  53  81 114 150 193 240 287 338
#     4  10  21  38  58  80 115 159 201 238 282 343
#     4  10  20  36  61  91 118 147 189 238 293 350
#     4   9  19  37  60  85 115 154 194 237 288 349
#     4  12  24  38  57  82 115 154 197 244 296 346
#
# _framework density 19.551649000000001
#
# number of rings (size 3 to 8) (size 9 to 14) (size 15 to 20)
#    0.000    1.500    3.750    2.625    0.000    1.000 
#    0.000    4.375    0.000    3.750    0.000    2.625 
#    0.000    0.000    0.000    0.000    0.000    0.000 
#
# Total GULP energy -396487.599076 kJ/mol
# GULP energy per Si atom -12390.237471 kJ/mol
# Density = 1.950715 g / cm^3
# Si number density = 19.551649 Si / 1000 Ang^3
#
#
#
# Elastic Constant Matrix: (Units=GPa)
#
#
# Indices 1 2 3 4 5 6 
#
# 1 138.0161 20.7123 63.0321 -0.0024 11.4972 -0.0002
# 2 20.7123 47.0261 26.1017 -0.0008 5.1964 0.0035
# 3 63.0321 26.1017 102.3652 0.0071 10.5025 -0.0008
# 4 -0.0024 -0.0008 0.0071 23.9463 -0.0006 2.3833
# 5 11.4972 5.1964 10.5025 -0.0006 39.3784 -0.0006
# 6 -0.0002 0.0035 -0.0008 2.3833 -0.0006 18.4418
#
#
#
# Elastic Compliance Matrix: (Units=1/GPa)
#
#
# Indices 1 2 3 4 5 6 
#
# 1 0.010196 -0.001093 -0.005869 0.000003 -0.001267 0.000000
# 2 -0.001093 0.024990 -0.005545 0.000003 -0.001500 -0.000005
# 3 -0.005869 -0.005545 0.014955 -0.000005 -0.001543 0.000002
# 4 0.000003 0.000003 -0.000005 0.042304 0.000001 -0.005467
# 5 -0.001267 -0.001500 -0.001543 0.000001 0.026374 0.000001
# 6 0.000000 -0.000005 0.000002 -0.005467 0.000001 0.054931
#
#
# Mechanical properties :
#
#
# Convention : Reuss Voigt Hill
#
# Bulk Modulus (GPa) = 39.79970 56.34441 48.07206
# Shear Modulus (GPa) = 24.13821 28.19071 26.16446
#
# Velocity S-wave (km/s) = 3.51748 3.80130 3.66214
# Velocity P-wave (km/s) = 6.07431 6.93883 6.52091
#
# Compressibility (1/GPa) = 0.02512582
#
# Stress axis : x y z
#
# Youngs Moduli (GPa) = 98.08113 40.01646 66.86561
#
# Poissons Ratio (x) = 0.04373 0.39246
# Poissons Ratio (y) = 0.10718 0.37079
# Poissons Ratio (z) = 0.57568 0.22190
#
# Static dielectric constant tensor:
#      x y z
#    x 3.830730 -0.000020 0.237730 
#    y -0.000020 3.248980 0.000020 
#    z 0.237730 0.000020 3.659950 
# 
# 
# High freq. dielectric constant tensor:
#      x y z
#    x 1.761340 0.000000 0.024620 
#    y 0.000000 1.742810 0.000000 
#    z 0.024620 0.000000 1.758230 
# 
# From -- ./inp_files/295512.got.cif
#   From: 2010.06.25/outbox.cif.g09.slc.cpg/sg12_148_cif.got.tgz:295512.got - 2010.06.28 00:19:55.
