data_PCOD8090851
_publ_section_title
;
Structure prediction by ZEFSAII (Michael W. Deem and Ramdas Pophale) SiO2 
 PCOD8090851
Probable space group: C 2/M
;
_chemical_formula_sum "Si O2"
_cell_formula_units_Z 60
_cell_length_a 8.591276
_cell_length_b 25.859691
_cell_length_c 20.449186
_cell_angle_alpha 90.000000
_cell_angle_beta 46.976987
_cell_angle_gamma 90.000000
_cell_volume 3321.404442
_symmetry_space_group_name_H-M "C 2/M"
_symmetry_group_IT_number 12
_symmetry_cell_setting 'monoclinic'
loop_
_space_group_symop_operation_xyz
x,y,z
-x,y,-z
-x,-y,-z
x,-y,z
1/2+x,1/2+y,z
1/2-x,1/2+y,-z
1/2-x,1/2-y,-z
1/2+x,1/2-y,z
loop_
_atom_site_type_symbol
_atom_site_label
_atom_site_fract_x
_atom_site_fract_y
_atom_site_fract_z
Si Si1 0.304796 0.639247 0.306840
Si Si2 0.132285 0.060106 0.261676
Si Si3 0.000000 0.391336 0.500000
Si Si4 0.731911 0.306078 0.036911
Si Si5 0.403342 0.440493 0.459091
Si Si6 0.249006 0.832615 0.815760
Si Si7 0.010575 0.361503 0.857748
Si Si8 0.172942 0.215672 0.199305
O O1 0.444038 0.587494 0.275253
O O2 0.201552 0.636206 0.264700
O O3 0.438894 0.692025 0.271493
O O4 0.125990 0.644541 0.413269
O O5 0.356583 0.085320 0.175700
O O6 0.086341 0.068304 0.352024
O O7 0.136426 0.000000 0.241301
O O8 0.173780 0.421696 0.495585
O O9 0.496937 0.328135 0.096621
O O10 0.785670 0.297601 0.097471
O O11 0.750000 0.250000 0.000000
O O12 0.882219 0.349353 0.961070
O O13 0.500000 0.415837 0.500000
O O14 0.361374 0.500000 0.485459
O O15 0.350720 0.866361 0.843587
O O16 0.349073 0.775678 0.780505
O O17 0.170578 0.313525 0.794971
#
# Coordination Sequence:
#
# PCOD8090851 Si02
#       8
#     8   8   4   8   8   8   8   8
#     4   9  21  36  55  79 108 148 187 222 281 339
#     4   9  20  39  55  76 111 148 183 226 276 339
#     4  10  19  36  56  78 118 148 186 238 281 340
#     4  11  19  31  51  82 113 141 172 225 280 328
#     4   9  18  33  58  86 107 137 190 246 296 336
#     4  11  20  32  52  82 113 139 180 234 282 323
#     4  11  20  29  54  81 111 140 178 221 278 327
#     4  10  19  34  52  77 115 143 176 224 279 329
#
# _framework density 18.064647999999998
#
# number of rings (size 3 to 8) (size 9 to 14) (size 15 to 20)
#    0.000    2.000    2.667    1.800    1.867    0.533 
#    0.000    1.333    0.000   16.000    0.000    0.000 
#    0.000    0.000    0.000    0.000    0.000    0.000 
#
# Total GULP energy -371746.279392 kJ/mol
# GULP energy per Si atom -12391.542646 kJ/mol
# Density = 1.802353 g / cm^3
# Si number density = 18.064648 Si / 1000 Ang^3
#
#
#
# Elastic Constant Matrix: (Units=GPa)
#
#
# Indices 1 2 3 4 5 6 
#
# 1 119.1310 29.8825 41.6393 0.0000 15.1337 0.0000
# 2 29.8825 90.3629 51.7321 0.0000 5.2743 0.0000
# 3 41.6393 51.7321 119.5094 0.0000 10.7939 0.0000
# 4 0.0000 0.0000 0.0000 27.2214 0.0000 3.7259
# 5 15.1337 5.2743 10.7939 0.0000 22.8333 0.0000
# 6 0.0000 0.0000 0.0000 3.7259 0.0000 18.6597
#
#
#
# Elastic Compliance Matrix: (Units=1/GPa)
#
#
# Indices 1 2 3 4 5 6 
#
# 1 0.010337 -0.001756 -0.002360 0.000000 -0.005330 0.000000
# 2 -0.001756 0.015014 -0.005933 0.000000 0.000500 0.000000
# 3 -0.002360 -0.005933 0.012005 0.000000 -0.002741 0.000000
# 4 0.000000 0.000000 0.000000 0.037768 0.000000 -0.007541
# 5 -0.005330 0.000500 -0.002741 0.000000 0.048508 0.000000
# 6 0.000000 0.000000 0.000000 -0.007541 0.000000 0.055097
#
#
# Mechanical properties :
#
#
# Convention : Reuss Voigt Hill
#
# Bulk Modulus (GPa) = 57.94068 63.94569 60.94319
# Shear Modulus (GPa) = 24.44031 27.45951 25.94991
#
# Velocity S-wave (km/s) = 3.68222 3.90304 3.79423
# Velocity P-wave (km/s) = 7.08675 7.46905 7.28041
#
# Compressibility (1/GPa) = 0.01725903
#
# Stress axis : x y z
#
# Youngs Moduli (GPa) = 96.74434 66.60272 83.29608
#
# Poissons Ratio (x) = 0.11696 0.19657
# Poissons Ratio (y) = 0.16990 0.49416
# Poissons Ratio (z) = 0.22831 0.39513
#
# Static dielectric constant tensor:
#      x y z
#    x 3.695800 0.000000 0.065910 
#    y 0.000000 3.071330 0.000000 
#    z 0.065910 0.000000 3.422780 
# 
# 
# High freq. dielectric constant tensor:
#      x y z
#    x 1.718630 0.000000 -0.002910 
#    y 0.000000 1.665820 0.000000 
#    z -0.002910 0.000000 1.694190 
# 
# From -- ./inp_files/302758.got.cif
#   From: 2010.06.25/outbox.cif.g09.slc.cpg/sg12_152_cif.got.tgz:302758.got - 2010.06.28 00:19:55.
