data_PCOD8090776
_publ_section_title
;
Structure prediction by ZEFSAII (Michael W. Deem and Ramdas Pophale) SiO2 
 PCOD8090776
Probable space group: C 2/M
;
_chemical_formula_sum "Si O2"
_cell_formula_units_Z 52
_cell_length_a 5.162686
_cell_length_b 30.266734
_cell_length_c 23.238762
_cell_angle_alpha 90.000000
_cell_angle_beta 68.767996
_cell_angle_gamma 90.000000
_cell_volume 3384.752052
_symmetry_space_group_name_H-M "C 2/M"
_symmetry_group_IT_number 12
_symmetry_cell_setting 'monoclinic'
loop_
_space_group_symop_operation_xyz
x,y,z
-x,y,-z
-x,-y,-z
x,-y,z
1/2+x,1/2+y,z
1/2-x,1/2+y,-z
1/2-x,1/2-y,-z
1/2+x,1/2-y,z
loop_
_atom_site_type_symbol
_atom_site_label
_atom_site_fract_x
_atom_site_fract_y
_atom_site_fract_z
Si Si1 0.169466 0.947542 0.751139
Si Si2 0.935060 0.585683 0.616211
Si Si3 0.494408 0.371834 0.566899
Si Si4 0.308670 0.947278 0.964006
Si Si5 0.452842 0.947702 0.174478
Si Si6 0.321051 0.000000 0.457809
Si Si7 0.388894 0.730638 0.431285
O O1 0.248553 0.922412 0.686850
O O2 0.370580 0.930999 0.785544
O O3 0.862218 0.931971 0.792961
O O4 0.186614 0.000000 0.739800
O O5 0.725294 0.599839 0.582256
O O6 0.175033 0.621401 0.612871
O O7 0.106755 0.542243 0.586162
O O8 0.500000 0.386649 0.500000
O O9 0.578814 0.321377 0.567683
O O10 0.421673 0.927926 0.894575
O O11 0.311483 0.000000 0.962447
O O12 0.500000 0.929308 0.000000
O O13 0.000000 0.929290 0.000000
O O14 0.469129 0.000000 0.169804
O O15 0.500000 0.000000 0.500000
O O16 0.000000 0.000000 0.500000
O O17 0.250000 0.750000 0.500000
O O18 0.682929 0.755160 0.396280
#
# Coordination Sequence:
#
# PCOD8090776 Si02
#       7
#     8   8   8   8   8   4   8
#     4  10  19  34  46  57  80 114 160 190 216 258
#     4  12  24  36  50  67  89 118 151 195 229 264
#     4  12  23  35  53  74  91 108 141 181 236 299
#     4   9  15  23  36  59  86 102 126 175 235 278
#     4   9  17  27  45  60  75 111 149 182 223 270
#     4  12  24  40  48  62  86 118 148 186 244 286
#     4  10  19  34  54  73  93 109 127 159 222 299
#
# _framework density 15.363016
#
# number of rings (size 3 to 8) (size 9 to 14) (size 15 to 20)
#    0.000    1.538    2.308    5.538    2.154    3.692 
#    0.000    0.000    0.000    0.000    0.000    0.000 
#    0.000    0.000    0.000    0.000    0.000    0.000 
#
# Total GULP energy -322336.375010 kJ/mol
# GULP energy per Si atom -12397.552885 kJ/mol
# Density = 1.532805 g / cm^3
# Si number density = 15.363016 Si / 1000 Ang^3
#
#
#
# Elastic Constant Matrix: (Units=GPa)
#
#
# Indices 1 2 3 4 5 6 
#
# 1 150.1476 29.3206 47.9161 0.0000 -1.8394 0.0000
# 2 29.3206 48.0913 30.9178 0.0000 0.4589 0.0000
# 3 47.9161 30.9178 100.5103 0.0000 -5.0014 0.0000
# 4 0.0000 0.0000 0.0000 4.8823 0.0000 -2.6227
# 5 -1.8394 0.4589 -5.0014 0.0000 26.3923 0.0000
# 6 0.0000 0.0000 0.0000 -2.6227 0.0000 18.1525
#
#
#
# Elastic Compliance Matrix: (Units=1/GPa)
#
#
# Indices 1 2 3 4 5 6 
#
# 1 0.008211 -0.003107 -0.002955 0.000000 0.000066 0.000000
# 2 -0.003107 0.027198 -0.006986 0.000000 -0.002013 0.000000
# 3 -0.002955 -0.006986 0.013631 0.000000 0.002499 0.000000
# 4 0.000000 0.000000 0.000000 0.222057 0.000000 0.032083
# 5 0.000066 -0.002013 0.002499 0.000000 0.038403 0.000000
# 6 0.000000 0.000000 0.000000 0.032083 0.000000 0.059724
#
#
# Mechanical properties :
#
#
# Convention : Reuss Voigt Hill
#
# Bulk Modulus (GPa) = 43.58241 57.22871 50.40556
# Shear Modulus (GPa) = 12.40794 22.59172 17.49983
#
# Velocity S-wave (km/s) = 2.84500 3.83890 3.37870
# Velocity P-wave (km/s) = 6.26275 7.54860 6.93554
#
# Compressibility (1/GPa) = 0.02294504
#
# Stress axis : x y z
#
# Youngs Moduli (GPa) = 121.79212 36.76740 73.36071
#
# Poissons Ratio (x) = 0.11422 0.21681
# Poissons Ratio (y) = 0.37836 0.51246
# Poissons Ratio (z) = 0.35994 0.25684
#
# Static dielectric constant tensor:
#      x y z
#    x 3.443510 0.000000 -0.009470 
#    y 0.000000 2.248170 0.000000 
#    z -0.009470 0.000000 2.918850 
# 
# 
# High freq. dielectric constant tensor:
#      x y z
#    x 1.623950 0.000000 -0.004440 
#    y 0.000000 1.532700 0.000000 
#    z -0.004440 0.000000 1.569090 
# 
# From -- ./inp_files/298447.got.cif
#   From: 2010.06.25/outbox.cif.g09.slc.cpg/sg12_150_cif.got.tgz:298447.got - 2010.06.28 00:19:55.
