data_PCOD8090518
_publ_section_title
;
Structure prediction by ZEFSAII (Michael W. Deem and Ramdas Pophale) SiO2 
 PCOD8090518
Probable space group: C 2/M
;
_chemical_formula_sum "Si O2"
_cell_formula_units_Z 56
_cell_length_a 30.639840
_cell_length_b 9.386562
_cell_length_c 11.022995
_cell_angle_alpha 90.000000
_cell_angle_beta 114.168946
_cell_angle_gamma 90.000000
_cell_volume 2892.347036
_symmetry_space_group_name_H-M "C 2/M"
_symmetry_group_IT_number 12
_symmetry_cell_setting 'monoclinic'
loop_
_space_group_symop_operation_xyz
x,y,z
-x,y,-z
-x,-y,-z
x,-y,z
1/2+x,1/2+y,z
1/2-x,1/2+y,-z
1/2-x,1/2-y,-z
1/2+x,1/2-y,z
loop_
_atom_site_type_symbol
_atom_site_label
_atom_site_fract_x
_atom_site_fract_y
_atom_site_fract_z
Si Si1 0.820405 0.834783 0.400301
Si Si2 0.978043 0.168290 0.348289
Si Si3 0.716796 0.156524 0.294054
Si Si4 0.025278 0.169837 0.152005
Si Si5 0.367878 0.335430 0.697436
Si Si6 0.632353 0.669058 0.790417
Si Si7 0.293277 0.158317 0.998851
O O1 0.768798 0.770996 0.384365
O O2 0.861112 0.810061 0.546531
O O3 0.840879 0.772003 0.299160
O O4 0.810123 0.000000 0.366605
O O5 0.922814 0.211769 0.280357
O O6 0.000000 0.230630 0.500000
O O7 0.002289 0.229433 0.251807
O O8 0.985341 0.000000 0.358210
O O9 0.673600 0.256398 0.279950
O O10 0.711161 0.000000 0.349710
O O11 0.715625 0.136956 0.150786
O O12 0.080033 0.223428 0.207596
O O13 0.022491 0.000000 0.151617
O O14 0.000000 0.227812 0.000000
O O15 0.363516 0.500000 0.727524
O O16 0.638244 0.500000 0.816870
O O17 0.656934 0.755873 0.927023
O O18 0.295216 0.000000 0.061649
O O19 0.250000 0.250000 0.000000
#
# Coordination Sequence:
#
# PCOD8090518 Si02
#       7
#     8   8   8   8   8   8   8
#     4   9  17  33  52  77 108 138 170 215 266 312
#     4   9  17  30  52  80 107 141 182 222 271 329
#     4  10  21  36  52  73 109 142 172 217 266 315
#     4   9  18  31  46  74 110 134 168 229 275 301
#     4  10  20  33  55  78 103 140 181 218 261 317
#     4  10  19  33  57  82 110 143 179 221 271 326
#     4  11  22  37  55  78 109 143 179 223 272 323
#
# _framework density 19.361439000000001
#
# number of rings (size 3 to 8) (size 9 to 14) (size 15 to 20)
#    0.000    2.286    1.429    1.714    2.000    4.571 
#    0.000    0.714    0.000    1.714    0.000    0.000 
#    0.000    0.000    0.000    0.000    0.000    0.000 
#
# Total GULP energy -347017.859564 kJ/mol
# GULP energy per Si atom -12393.494984 kJ/mol
# Density = 1.931737 g / cm^3
# Si number density = 19.361439 Si / 1000 Ang^3
#
#
#
# Elastic Constant Matrix: (Units=GPa)
#
#
# Indices 1 2 3 4 5 6 
#
# 1 135.6884 27.4796 48.8806 0.0000 19.3817 0.0000
# 2 27.4796 46.4785 16.9438 0.0000 11.4776 0.0000
# 3 48.8806 16.9438 104.3117 0.0000 24.3273 0.0000
# 4 0.0000 0.0000 0.0000 17.9671 0.0000 3.5238
# 5 19.3817 11.4776 24.3273 0.0000 41.4934 0.0000
# 6 0.0000 0.0000 0.0000 3.5238 0.0000 20.8718
#
#
#
# Elastic Compliance Matrix: (Units=1/GPa)
#
#
# Indices 1 2 3 4 5 6 
#
# 1 0.009668 -0.004098 -0.003563 0.000000 -0.001293 0.000000
# 2 -0.004098 0.025464 -0.001181 0.000000 -0.004437 0.000000
# 3 -0.003563 -0.001181 0.012724 0.000000 -0.005469 0.000000
# 4 0.000000 0.000000 0.000000 0.057563 0.000000 -0.009718
# 5 -0.001293 -0.004437 -0.005469 0.000000 0.029138 0.000000
# 6 0.000000 0.000000 0.000000 -0.009718 0.000000 0.049552
#
#
# Mechanical properties :
#
#
# Convention : Reuss Voigt Hill
#
# Bulk Modulus (GPa) = 33.14368 52.56520 42.85444
# Shear Modulus (GPa) = 23.60147 28.94477 26.27312
#
# Velocity S-wave (km/s) = 3.49520 3.87068 3.68772
# Velocity P-wave (km/s) = 5.78309 6.86910 6.34936
#
# Compressibility (1/GPa) = 0.03017167
#
# Stress axis : x y z
#
# Youngs Moduli (GPa) = 103.43337 39.27056 78.59384
#
# Poissons Ratio (x) = 0.16092 0.28005
# Poissons Ratio (y) = 0.42384 0.09284
# Poissons Ratio (z) = 0.36855 0.04639
#
# Static dielectric constant tensor:
#      x y z
#    x 3.746330 0.000000 -0.070150 
#    y 0.000000 2.884270 0.000000 
#    z -0.070150 0.000000 4.024400 
# 
# 
# High freq. dielectric constant tensor:
#      x y z
#    x 1.761320 0.000000 0.008530 
#    y 0.000000 1.696410 0.000000 
#    z 0.008530 0.000000 1.768580 
# 
# From -- ./inp_files/187274.got.cif
#   From: 2010.06.25/outbox.cif.g09.slc.cpg/sg12_94_cif.got.tgz:187274.got - 2010.06.28 00:19:55.
