data_PCOD8090927
_publ_section_title
;
Structure prediction by ZEFSAII (Michael W. Deem and Ramdas Pophale) SiO2 
 PCOD8090927
Probable space group: C 2/M
;
_chemical_formula_sum "Si O2"
_cell_formula_units_Z 36
_cell_length_a 14.467815
_cell_length_b 14.932008
_cell_length_c 22.291152
_cell_angle_alpha 90.000000
_cell_angle_beta 155.441293
_cell_angle_gamma 90.000000
_cell_volume 2001.500733
_symmetry_space_group_name_H-M "C 2/M"
_symmetry_group_IT_number 12
_symmetry_cell_setting 'monoclinic'
loop_
_space_group_symop_operation_xyz
x,y,z
-x,y,-z
-x,-y,-z
x,-y,z
1/2+x,1/2+y,z
1/2-x,1/2+y,-z
1/2-x,1/2-y,-z
1/2+x,1/2-y,z
loop_
_atom_site_type_symbol
_atom_site_label
_atom_site_fract_x
_atom_site_fract_y
_atom_site_fract_z
Si Si1 0.338413 0.396369 0.850426
Si Si2 0.003338 0.241961 0.632496
Si Si3 0.072698 0.102336 0.230543
Si Si4 0.500000 0.785833 0.500000
Si Si5 0.751576 0.104734 0.143643
O O1 0.261758 0.500000 0.810892
O O2 0.122450 0.333406 0.724880
O O3 0.468152 0.379456 0.864219
O O4 0.500000 0.369339 0.000000
O O5 0.029598 0.226159 0.576708
O O6 0.106094 0.154240 0.722300
O O7 0.750000 0.250000 0.500000
O O8 0.281214 0.154704 0.380682
O O9 0.848789 0.127827 0.134885
O O10 0.133294 0.000000 0.277831
O O11 0.764510 0.000000 0.165800
O O12 0.500000 0.140046 0.000000
#
# Coordination Sequence:
#
# PCOD8090927 Si02
#       5
#     8   8   8   4   8
#     4   9  19  36  57  83 108 134 176 229 278 313
#     4  11  21  36  55  81 111 142 179 221 271 318
#     4   9  17  32  57  81 104 138 181 227 267 308
#     4  10  19  34  53  82 108 136 180 226 270 316
#     4  10  21  38  57  79 109 146 184 218 261 323
#
# _framework density 17.986502999999999
#
# number of rings (size 3 to 8) (size 9 to 14) (size 15 to 20)
#    0.000    2.222    2.222    1.000    0.000    1.778 
#    4.000    3.889    0.000    0.000    0.000    0.000 
#    0.000    0.000    0.000    0.000    0.000    0.000 
#
# Total GULP energy -223185.646711 kJ/mol
# GULP energy per Si atom -12399.202595 kJ/mol
# Density = 1.794557 g / cm^3
# Si number density = 17.986503 Si / 1000 Ang^3
#
#
#
# Elastic Constant Matrix: (Units=GPa)
#
#
# Indices 1 2 3 4 5 6 
#
# 1 131.9575 48.8610 78.7084 0.0060 0.7580 -0.0019
# 2 48.8610 56.1728 47.0194 -0.0061 -0.3262 0.0076
# 3 78.7084 47.0194 132.6319 0.0133 7.9262 0.0079
# 4 0.0060 -0.0061 0.0133 30.8907 0.0076 -2.1381
# 5 0.7580 -0.3262 7.9262 0.0076 41.1248 -0.0020
# 6 -0.0019 0.0076 0.0079 -2.1381 -0.0020 14.3441
#
#
#
# Elastic Compliance Matrix: (Units=1/GPa)
#
#
# Indices 1 2 3 4 5 6 
#
# 1 0.013513 -0.007109 -0.005545 -0.000001 0.000763 0.000009
# 2 -0.007109 0.029209 -0.006230 0.000009 0.001563 -0.000011
# 3 -0.005545 -0.006230 0.013187 -0.000006 -0.002489 -0.000006
# 4 -0.000001 0.000009 -0.000006 0.032710 -0.000005 0.004876
# 5 0.000763 0.001563 -0.002489 -0.000005 0.024794 0.000003
# 6 0.000009 -0.000011 -0.000006 0.004876 0.000003 0.070442
#
#
# Mechanical properties :
#
#
# Convention : Reuss Voigt Hill
#
# Bulk Modulus (GPa) = 55.11646 74.43776 64.77711
# Shear Modulus (GPa) = 21.96155 27.01680 24.48918
#
# Velocity S-wave (km/s) = 3.49807 3.87985 3.69390
# Velocity P-wave (km/s) = 6.85749 7.84513 7.36788
#
# Compressibility (1/GPa) = 0.01814340
#
# Stress axis : x y z
#
# Youngs Moduli (GPa) = 74.00143 34.23555 75.82962
#
# Poissons Ratio (x) = 0.24337 0.42046
# Poissons Ratio (y) = 0.52605 0.47242
# Poissons Ratio (z) = 0.41032 0.21329
#
# Static dielectric constant tensor:
#      x y z
#    x 3.606550 0.000000 -0.053390 
#    y 0.000000 3.252470 -0.000020 
#    z -0.053390 -0.000020 3.190380 
# 
# 
# High freq. dielectric constant tensor:
#      x y z
#    x 1.707470 0.000000 -0.000770 
#    y 0.000000 1.687250 0.000000 
#    z -0.000770 0.000000 1.693570 
# 
# From -- ./inp_files/141722.got.cif
#   From: 2010.06.25/outbox.cif.g09.slc.cpg/sg12_71_cif.got.tgz:141722.got - 2010.06.28 00:19:55.
