data_PCOD8090465
_publ_section_title
;
Structure prediction by ZEFSAII (Michael W. Deem and Ramdas Pophale) SiO2 
 PCOD8090465
Probable space group: C 2/M
;
_chemical_formula_sum "Si O2"
_cell_formula_units_Z 64
_cell_length_a 24.755949
_cell_length_b 8.791425
_cell_length_c 14.637204
_cell_angle_alpha 90.000000
_cell_angle_beta 89.265659
_cell_angle_gamma 90.000000
_cell_volume 3185.380443
_symmetry_space_group_name_H-M "C 2/M"
_symmetry_group_IT_number 12
_symmetry_cell_setting 'monoclinic'
loop_
_space_group_symop_operation_xyz
x,y,z
-x,y,-z
-x,-y,-z
x,-y,z
1/2+x,1/2+y,z
1/2-x,1/2+y,-z
1/2-x,1/2-y,-z
1/2+x,1/2-y,z
loop_
_atom_site_type_symbol
_atom_site_label
_atom_site_fract_x
_atom_site_fract_y
_atom_site_fract_z
Si Si1 0.394921 0.826233 0.654832
Si Si2 0.051159 0.177285 0.045950
Si Si3 0.440658 0.823444 0.467032
Si Si4 0.477758 0.326311 0.763031
Si Si5 0.804309 0.681836 0.793905
Si Si6 0.695099 0.180265 0.820580
Si Si7 0.830565 0.178532 0.989907
Si Si8 0.096214 0.824966 0.718062
O O1 0.394106 0.799555 0.545892
O O2 0.454676 0.767828 0.679383
O O3 0.345970 0.752939 0.715456
O O4 0.392342 0.000000 0.680614
O O5 0.054609 0.239920 0.148876
O O6 0.037884 0.000000 0.056709
O O7 0.106020 0.204881 0.989879
O O8 0.000000 0.259101 0.000000
O O9 0.500000 0.767515 0.500000
O O10 0.417725 0.726571 0.383904
O O11 0.444596 0.000000 0.438504
O O12 0.463755 0.500000 0.742343
O O13 0.541569 0.304170 0.777657
O O14 0.801972 0.500000 0.796669
O O15 0.746139 0.748948 0.766128
O O16 0.817922 0.744289 0.894074
O O17 0.699306 0.243012 0.924651
O O18 0.641813 0.226361 0.766389
O O19 0.699010 0.000000 0.824309
O O20 0.815821 0.000000 0.985853
O O21 0.115180 0.000000 0.716336
#
# Coordination Sequence:
#
# PCOD8090465 Si02
#       8
#     8   8   8   8   8   8   8   8
#     4  10  21  37  60  89 121 156 194 242 295 349
#     4   9  17  30  50  79 117 157 193 234 288 346
#     4  10  20  37  62  91 126 162 196 238 297 363
#     4  10  19  33  56  85 119 156 194 239 292 353
#     4  11  23  41  63  88 121 158 206 255 297 349
#     4  12  26  43  62  85 118 160 206 252 305 359
#     4  11  21  37  62  89 121 158 203 250 297 353
#     4  11  23  39  62  92 124 158 200 250 302 355
#
# _framework density 20.091792000000002
#
# number of rings (size 3 to 8) (size 9 to 14) (size 15 to 20)
#    0.000    1.500    2.500    3.375    0.000    3.750 
#    0.000    0.625    0.000    1.875    0.000    0.000 
#    0.000    0.000    0.000    0.000    0.000    0.000 
#
# Total GULP energy -396613.268633 kJ/mol
# GULP energy per Si atom -12394.164645 kJ/mol
# Density = 2.004606 g / cm^3
# Si number density = 20.091792 Si / 1000 Ang^3
#
#
#
# Elastic Constant Matrix: (Units=GPa)
#
#
# Indices 1 2 3 4 5 6 
#
# 1 80.0740 30.7207 30.0339 0.0000 -15.2014 0.0000
# 2 30.7207 72.2887 33.2075 0.0000 -9.7596 0.0000
# 3 30.0339 33.2075 74.5673 0.0000 -13.2683 0.0000
# 4 0.0000 0.0000 0.0000 28.5846 0.0000 4.6826
# 5 -15.2014 -9.7596 -13.2683 0.0000 26.1427 0.0000
# 6 0.0000 0.0000 0.0000 4.6826 0.0000 28.6975
#
#
#
# Elastic Compliance Matrix: (Units=1/GPa)
#
#
# Indices 1 2 3 4 5 6 
#
# 1 0.016798 -0.004652 -0.003590 0.000000 0.006209 0.000000
# 2 -0.004652 0.018870 -0.006329 0.000000 0.001127 0.000000
# 3 -0.003590 -0.006329 0.018559 0.000000 0.004969 0.000000
# 4 0.000000 0.000000 0.000000 0.035945 0.000000 -0.005865
# 5 0.006209 0.001127 0.004969 0.000000 0.044805 0.000000
# 6 0.000000 0.000000 0.000000 -0.005865 0.000000 0.035803
#
#
# Mechanical properties :
#
#
# Convention : Reuss Voigt Hill
#
# Bulk Modulus (GPa) = 39.86165 46.09493 42.97829
# Shear Modulus (GPa) = 24.00571 25.54948 24.77759
#
# Velocity S-wave (km/s) = 3.46034 3.56987 3.51553
# Velocity P-wave (km/s) = 5.98733 6.32329 6.15760
#
# Compressibility (1/GPa) = 0.02508677
#
# Stress axis : x y z
#
# Youngs Moduli (GPa) = 59.53030 52.99442 53.88097
#
# Poissons Ratio (x) = 0.24650 0.19341
# Poissons Ratio (y) = 0.27691 0.34103
# Poissons Ratio (z) = 0.21369 0.33542
#
# Static dielectric constant tensor:
#      x y z
#    x 3.898980 0.000000 -0.206240 
#    y 0.000000 3.483300 0.000000 
#    z -0.206240 0.000000 3.703430 
# 
# 
# High freq. dielectric constant tensor:
#      x y z
#    x 1.789640 0.000000 -0.011290 
#    y 0.000000 1.770500 0.000000 
#    z -0.011290 0.000000 1.784840 
# 
# From -- ./inp_files/238607.got.cif
#   From: 2010.06.25/outbox.cif.g09.slc.cpg/sg12_120_cif.got.tgz:238607.got - 2010.06.28 00:19:55.
