data_PCOD8090048
_publ_section_title
;
Structure prediction by ZEFSAII (Michael W. Deem and Ramdas Pophale) SiO2 
 PCOD8090048
Probable space group: C 2/M
;
_chemical_formula_sum "Si O2"
_cell_formula_units_Z 56
_cell_length_a 17.592220
_cell_length_b 18.857613
_cell_length_c 9.049341
_cell_angle_alpha 90.000000
_cell_angle_beta 90.109296
_cell_angle_gamma 90.000000
_cell_volume 3002.088769
_symmetry_space_group_name_H-M "C 2/M"
_symmetry_group_IT_number 12
_symmetry_cell_setting 'monoclinic'
loop_
_space_group_symop_operation_xyz
x,y,z
-x,y,-z
-x,-y,-z
x,-y,z
1/2+x,1/2+y,z
1/2-x,1/2+y,-z
1/2-x,1/2-y,-z
1/2+x,1/2-y,z
loop_
_atom_site_type_symbol
_atom_site_label
_atom_site_fract_x
_atom_site_fract_y
_atom_site_fract_z
Si Si1 0.186173 0.824726 0.092680
Si Si2 0.799967 0.579521 0.260864
Si Si3 0.084400 0.417596 0.978687
Si Si4 0.758104 0.080544 0.425807
Si Si5 0.301474 0.172880 0.837306
Si Si6 0.930207 0.082557 0.402332
Si Si7 0.421425 0.422946 0.071333
O O1 0.237623 0.866330 0.206883
O O2 0.161064 0.751379 0.173886
O O3 0.113784 0.870285 0.048790
O O4 0.228893 0.813602 0.938618
O O5 0.776023 0.500000 0.212912
O O6 0.882629 0.596454 0.187320
O O7 0.800370 0.586080 0.437451
O O8 0.083044 0.500000 0.018223
O O9 0.138490 0.381533 0.097350
O O10 0.000000 0.385567 0.000000
O O11 0.728933 0.140241 0.314361
O O12 0.846269 0.096537 0.472999
O O13 0.754237 0.000000 0.360228
O O14 0.000000 0.116859 0.500000
O O15 0.948500 0.000000 0.390278
O O16 0.928429 0.112825 0.234272
O O17 0.377721 0.500000 0.084349
O O18 0.500000 0.441154 0.000000
#
# Coordination Sequence:
#
# PCOD8090048 Si02
#       7
#     8   8   8   8   8   8   8
#     4  10  20  34  51  77 107 143 179 219 267 316
#     4   9  19  33  54  80 106 136 179 224 268 322
#     4   9  18  35  58  80 103 134 176 228 279 323
#     4  10  19  33  55  80 109 143 182 228 270 320
#     4  10  20  34  54  78 104 140 181 221 268 325
#     4   9  18  31  48  74 108 143 176 216 265 310
#     4  10  20  32  51  77 107 139 180 225 264 314
#
# _framework density 18.653677999999999
#
# number of rings (size 3 to 8) (size 9 to 14) (size 15 to 20)
#    0.000    2.429    1.429    0.857    2.000    2.286 
#    0.000    0.714    0.000    3.429    0.000    0.000 
#    0.000    0.000    0.000    0.000    0.000    0.286 
#
# Total GULP energy -346892.351034 kJ/mol
# GULP energy per Si atom -12389.012537 kJ/mol
# Density = 1.861122 g / cm^3
# Si number density = 18.653678 Si / 1000 Ang^3
#
#
#
# Elastic Constant Matrix: (Units=GPa)
#
#
# Indices 1 2 3 4 5 6 
#
# 1 100.7123 35.9989 43.9692 0.0000 -0.3537 0.0000
# 2 35.9989 87.7191 46.3122 0.0000 12.3036 0.0000
# 3 43.9692 46.3122 88.6594 0.0000 -1.2435 0.0000
# 4 0.0000 0.0000 0.0000 13.9386 0.0000 -3.4676
# 5 -0.3537 12.3036 -1.2435 0.0000 24.5570 0.0000
# 6 0.0000 0.0000 0.0000 -3.4676 0.0000 1.2985
#
#
#
# Elastic Compliance Matrix: (Units=1/GPa)
#
#
# Indices 1 2 3 4 5 6 
#
# 1 0.013163 -0.002993 -0.004944 0.000000 0.001439 0.000000
# 2 -0.002993 0.018320 -0.008221 0.000000 -0.009638 0.000000
# 3 -0.004944 -0.008221 0.018095 0.000000 0.004964 0.000000
# 4 0.000000 0.000000 0.000000 0.213727 0.000000 0.570735
# 5 0.001439 -0.009638 0.004964 0.000000 0.045823 0.000000
# 6 0.000000 0.000000 0.000000 0.570735 0.000000 2.294200
#
#
# Mechanical properties :
#
#
# Convention : Reuss Voigt Hill
#
# Bulk Modulus (GPa) = 57.93074 58.85017 58.39046
# Shear Modulus (GPa) = 1.89294 18.01287 9.95290
#
# Velocity S-wave (km/s) = 1.00846 3.11086 2.31240
# Velocity P-wave (km/s) = 5.69906 6.67237 6.20483
#
# Compressibility (1/GPa) = 0.01726199
#
# Stress axis : x y z
#
# Youngs Moduli (GPa) = 75.97172 54.58367 55.26466
#
# Poissons Ratio (x) = 0.16339 0.27323
# Poissons Ratio (y) = 0.22742 0.45431
# Poissons Ratio (z) = 0.37561 0.44871
#
# Static dielectric constant tensor:
#      x y z
#    x 3.445410 0.000000 -0.093850 
#    y 0.000000 3.535450 0.000000 
#    z -0.093850 0.000000 3.373320 
# 
# 
# High freq. dielectric constant tensor:
#      x y z
#    x 1.711140 0.000000 -0.007520 
#    y 0.000000 1.708750 0.000000 
#    z -0.007520 0.000000 1.714950 
# 
# From -- ./inp_files/76933.got.cif
#   From: 2010.06.25/outbox.cif.g09.slc.cpg/sg12_39_cif.got.tgz:76933.got - 2010.06.28 00:19:55.
