data_PCOD8090043
_publ_section_title
;
Structure prediction by ZEFSAII (Michael W. Deem and Ramdas Pophale) SiO2 
 PCOD8090043
Probable space group: C 2/M
;
_chemical_formula_sum "Si O2"
_cell_formula_units_Z 56
_cell_length_a 26.783272
_cell_length_b 9.487032
_cell_length_c 11.460892
_cell_angle_alpha 90.000000
_cell_angle_beta 73.095008
_cell_angle_gamma 90.000000
_cell_volume 2786.302417
_symmetry_space_group_name_H-M "C 2/M"
_symmetry_group_IT_number 12
_symmetry_cell_setting 'monoclinic'
loop_
_space_group_symop_operation_xyz
x,y,z
-x,y,-z
-x,-y,-z
x,-y,z
1/2+x,1/2+y,z
1/2-x,1/2+y,-z
1/2-x,1/2-y,-z
1/2+x,1/2-y,z
loop_
_atom_site_type_symbol
_atom_site_label
_atom_site_fract_x
_atom_site_fract_y
_atom_site_fract_z
Si Si1 0.308316 0.165054 0.716536
Si Si2 0.440338 0.658571 0.249032
Si Si3 0.625068 0.739120 0.924558
Si Si4 0.800534 0.158345 0.936053
Si Si5 0.211432 0.343787 0.708195
Si Si6 0.972883 0.652205 0.894857
Si Si7 0.137220 0.660510 0.557569
O O1 0.328900 0.256949 0.811671
O O2 0.252082 0.224217 0.716028
O O3 0.350673 0.185581 0.586194
O O4 0.301418 0.000000 0.753573
O O5 0.449736 0.500000 0.284064
O O6 0.409447 0.654770 0.146702
O O7 0.497247 0.730300 0.200922
O O8 0.408871 0.737135 0.371926
O O9 0.662021 0.847402 0.829906
O O10 0.661783 0.639817 0.978314
O O11 0.587832 0.815790 0.043017
O O12 0.784246 0.000000 0.907621
O O13 0.750000 0.250000 0.000000
O O14 0.236975 0.500000 0.692421
O O15 0.190074 0.306996 0.593836
O O16 0.977116 0.500000 0.828338
O O17 0.000000 0.641725 0.000000
O O18 0.119467 0.500000 0.593608
#
# Coordination Sequence:
#
# PCOD8090043 Si02
#       7
#     8   8   8   8   8   8   8
#     4  11  23  37  54  77 109 147 189 231 276 328
#     4  10  20  34  57  87 114 142 179 230 285 334
#     4  10  21  35  56  82 114 148 187 226 276 329
#     4  12  25  39  56  78 112 153 193 232 272 322
#     4  10  19  33  55  80 108 142 184 231 279 330
#     4   9  18  33  55  83 114 147 180 220 275 339
#     4   9  20  37  55  78 108 144 184 230 281 335
#
# _framework density 20.098320999999999
#
# number of rings (size 3 to 8) (size 9 to 14) (size 15 to 20)
#    0.000    1.857    1.429    2.571    0.000   11.714 
#    0.000    0.000    0.000    0.857    0.000    5.000 
#    0.000    0.000    0.000    0.000    0.000    0.000 
#
# Total GULP energy -347077.072617 kJ/mol
# GULP energy per Si atom -12395.609736 kJ/mol
# Density = 2.005258 g / cm^3
# Si number density = 20.098321 Si / 1000 Ang^3
#
#
#
# Elastic Constant Matrix: (Units=GPa)
#
#
# Indices 1 2 3 4 5 6 
#
# 1 44.6161 22.8192 22.8017 0.0000 -15.3001 0.0000
# 2 22.8192 153.8560 52.0361 0.0000 -19.1188 0.0000
# 3 22.8017 52.0361 100.4630 0.0000 -10.2823 0.0000
# 4 0.0000 0.0000 0.0000 25.8981 0.0000 -6.2407
# 5 -15.3001 -19.1188 -10.2823 0.0000 28.9723 0.0000
# 6 0.0000 0.0000 0.0000 -6.2407 0.0000 15.6515
#
#
#
# Elastic Compliance Matrix: (Units=1/GPa)
#
#
# Indices 1 2 3 4 5 6 
#
# 1 0.030082 -0.001153 -0.004859 0.000000 0.013401 0.000000
# 2 -0.001153 0.008371 -0.003706 0.000000 0.003600 0.000000
# 3 -0.004859 -0.003706 0.012933 0.000000 -0.000421 0.000000
# 4 0.000000 0.000000 0.000000 0.042717 0.000000 0.017033
# 5 0.013401 0.003600 -0.000421 0.000000 0.043819 0.000000
# 6 0.000000 0.000000 0.000000 0.017033 0.000000 0.070683
#
#
# Mechanical properties :
#
#
# Convention : Reuss Voigt Hill
#
# Bulk Modulus (GPa) = 31.29805 54.91656 43.10730
# Shear Modulus (GPa) = 20.94762 27.52294 24.23528
#
# Velocity S-wave (km/s) = 3.23190 3.70458 3.47628
# Velocity P-wave (km/s) = 5.43445 6.75883 6.13249
#
# Compressibility (1/GPa) = 0.03195087
#
# Stress axis : x y z
#
# Youngs Moduli (GPa) = 33.24264 119.45524 77.32128
#
# Poissons Ratio (x) = 0.13774 0.37568
# Poissons Ratio (y) = 0.03833 0.28654
# Poissons Ratio (z) = 0.16152 0.44269
#
# Static dielectric constant tensor:
#      x y z
#    x 3.518020 0.000000 -0.045110 
#    y 0.000000 3.652770 0.000000 
#    z -0.045110 0.000000 3.798310 
# 
# 
# High freq. dielectric constant tensor:
#      x y z
#    x 1.755340 0.000000 -0.013400 
#    y 0.000000 1.788690 0.000000 
#    z -0.013400 0.000000 1.776260 
# 
# From -- ./inp_files/186458.got.cif
#   From: 2010.06.25/outbox.cif.g09.slc.cpg/sg12_94_cif.got.tgz:186458.got - 2010.06.28 00:19:55.
