data_PCOD8090304
_publ_section_title
;
Structure prediction by ZEFSAII (Michael W. Deem and Ramdas Pophale) SiO2 
 PCOD8090304
Probable space group: C 2/M
;
_chemical_formula_sum "Si O2"
_cell_formula_units_Z 64
_cell_length_a 14.333553
_cell_length_b 9.148825
_cell_length_c 26.875136
_cell_angle_alpha 90.000000
_cell_angle_beta 71.528718
_cell_angle_gamma 90.000000
_cell_volume 3342.713884
_symmetry_space_group_name_H-M "C 2/M"
_symmetry_group_IT_number 12
_symmetry_cell_setting 'monoclinic'
loop_
_space_group_symop_operation_xyz
x,y,z
-x,y,-z
-x,-y,-z
x,-y,z
1/2+x,1/2+y,z
1/2-x,1/2+y,-z
1/2-x,1/2-y,-z
1/2+x,1/2-y,z
loop_
_atom_site_type_symbol
_atom_site_label
_atom_site_fract_x
_atom_site_fract_y
_atom_site_fract_z
Si Si1 0.873769 0.169990 0.784387
Si Si2 0.827243 0.331030 0.127452
Si Si3 0.386583 0.826353 0.678468
Si Si4 0.583980 0.835000 0.594694
Si Si5 0.967682 0.331075 0.857656
Si Si6 0.113258 0.164910 0.493417
Si Si7 0.266548 0.169463 0.945901
Si Si8 0.728633 0.333296 0.379290
O O1 0.760511 0.195743 0.818680
O O2 0.893804 0.257867 0.731210
O O3 0.948650 0.231102 0.812976
O O4 0.896537 0.000000 0.772395
O O5 0.831872 0.500000 0.110277
O O6 0.808438 0.234885 0.081874
O O7 0.929843 0.281388 0.134801
O O8 0.479760 0.771627 0.630203
O O9 0.291442 0.765451 0.665662
O O10 0.382006 0.000000 0.684428
O O11 0.633836 0.750026 0.540744
O O12 0.655246 0.826274 0.630341
O O13 0.570331 0.000000 0.578513
O O14 0.972770 0.500000 0.839887
O O15 0.879850 0.306373 0.911579
O O16 0.172563 0.232381 0.437015
O O17 0.000000 0.174742 0.500000
O O18 0.149721 0.000000 0.495812
O O19 0.241136 0.000000 0.956419
O O20 0.250000 0.250000 0.000000
O O21 0.694033 0.500000 0.374770
#
# Coordination Sequence:
#
# PCOD8090304 Si02
#       8
#     8   8   8   8   8   8   8   8
#     4  10  21  37  58  81 106 138 176 225 276 319
#     4   9  19  37  59  81 107 143 186 226 269 320
#     4  11  23  38  55  78 107 139 176 218 264 317
#     4  10  22  37  55  78 105 139 175 212 257 316
#     4   9  19  37  59  81 108 145 185 224 267 318
#     4  10  19  33  56  81 105 135 169 213 264 312
#     4  10  20  34  54  82 117 152 185 224 267 312
#     4  10  21  38  56  77 106 138 173 213 262 317
#
# _framework density 19.146118000000001
#
# number of rings (size 3 to 8) (size 9 to 14) (size 15 to 20)
#    0.000    2.125    1.250    1.500    0.000    4.750 
#    0.000    7.500    0.000    0.000    0.000    0.000 
#    0.000    0.000    0.000    0.000    0.000    0.000 
#
# Total GULP energy -396877.246121 kJ/mol
# GULP energy per Si atom -12402.413941 kJ/mol
# Density = 1.910254 g / cm^3
# Si number density = 19.146118 Si / 1000 Ang^3
#
#
#
# Elastic Constant Matrix: (Units=GPa)
#
#
# Indices 1 2 3 4 5 6 
#
# 1 110.7658 44.1177 34.7731 0.0000 16.8133 0.0000
# 2 44.1177 98.5824 62.4422 0.0000 17.3878 0.0000
# 3 34.7731 62.4422 102.0938 0.0000 22.5769 0.0000
# 4 0.0000 0.0000 0.0000 37.0169 0.0000 7.4676
# 5 16.8133 17.3878 22.5769 0.0000 21.1869 0.0000
# 6 0.0000 0.0000 0.0000 7.4676 0.0000 30.2601
#
#
#
# Elastic Compliance Matrix: (Units=1/GPa)
#
#
# Indices 1 2 3 4 5 6 
#
# 1 0.011561 -0.004041 -0.000223 0.000000 -0.005620 0.000000
# 2 -0.004041 0.018191 -0.009364 0.000000 -0.001744 0.000000
# 3 -0.000223 -0.009364 0.018132 0.000000 -0.011460 0.000000
# 4 0.000000 0.000000 0.000000 0.028430 0.000000 -0.007016
# 5 -0.005620 -0.001744 -0.011460 0.000000 0.065302 0.000000
# 6 0.000000 0.000000 0.000000 -0.007016 0.000000 0.034778
#
#
# Mechanical properties :
#
#
# Convention : Reuss Voigt Hill
#
# Bulk Modulus (GPa) = 48.47837 66.01200 57.24519
# Shear Modulus (GPa) = 23.75001 29.03338 26.39170
#
# Velocity S-wave (km/s) = 3.52584 3.89834 3.71676
# Velocity P-wave (km/s) = 6.47693 7.40375 6.95579
#
# Compressibility (1/GPa) = 0.02062776
#
# Stress axis : x y z
#
# Youngs Moduli (GPa) = 86.49966 54.97251 55.15043
#
# Poissons Ratio (x) = 0.22215 0.01231
# Poissons Ratio (y) = 0.34955 0.51642
# Poissons Ratio (z) = 0.01931 0.51475
#
# Static dielectric constant tensor:
#      x y z
#    x 3.559900 0.000000 -0.028440 
#    y 0.000000 3.521240 0.000000 
#    z -0.028440 0.000000 3.402330 
# 
# 
# High freq. dielectric constant tensor:
#      x y z
#    x 1.750660 0.000000 0.003590 
#    y 0.000000 1.743850 0.000000 
#    z 0.003590 0.000000 1.738560 
# 
# From -- ./inp_files/359706.got.cif
#   From: 2010.06.25/outbox.cif.g09.slc.cpg/sg12_180_cif.got.tgz:359706.got - 2010.06.28 00:19:55.
