data_PCOD8090870
_publ_section_title
;
Structure prediction by ZEFSAII (Michael W. Deem and Ramdas Pophale) SiO2 
 PCOD8090870
Probable space group: C 2/M
;
_chemical_formula_sum "Si O2"
_cell_formula_units_Z 56
_cell_length_a 20.182252
_cell_length_b 9.280030
_cell_length_c 16.862550
_cell_angle_alpha 90.000000
_cell_angle_beta 68.490072
_cell_angle_gamma 90.000000
_cell_volume 2938.261921
_symmetry_space_group_name_H-M "C 2/M"
_symmetry_group_IT_number 12
_symmetry_cell_setting 'monoclinic'
loop_
_space_group_symop_operation_xyz
x,y,z
-x,y,-z
-x,-y,-z
x,-y,z
1/2+x,1/2+y,z
1/2-x,1/2+y,-z
1/2-x,1/2-y,-z
1/2+x,1/2-y,z
loop_
_atom_site_type_symbol
_atom_site_label
_atom_site_fract_x
_atom_site_fract_y
_atom_site_fract_z
Si Si1 0.056127 0.165201 0.697524
Si Si2 0.724961 0.831684 0.276974
Si Si3 0.209771 0.834081 0.585267
Si Si4 0.397375 0.335072 0.738339
Si Si5 0.460807 0.171396 0.137396
Si Si6 0.101509 0.164716 0.083501
Si Si7 0.842224 0.834859 0.102656
O O1 0.124746 0.191156 0.611613
O O2 0.064541 0.274068 0.766058
O O3 0.981434 0.195234 0.685463
O O4 0.056984 0.000000 0.728827
O O5 0.765029 0.779825 0.338991
O O6 0.648107 0.756921 0.303886
O O7 0.770967 0.786228 0.179481
O O8 0.710887 0.000000 0.285260
O O9 0.250000 0.750000 0.500000
O O10 0.229644 0.000000 0.566221
O O11 0.378600 0.500000 0.730324
O O12 0.374970 0.290279 0.838154
O O13 0.538135 0.232744 0.082451
O O14 0.406029 0.229604 0.097018
O O15 0.462805 0.000000 0.134263
O O16 0.073125 0.000000 0.099778
O O17 0.165191 0.178272 0.990421
O O18 0.860307 0.000000 0.118935
#
# Coordination Sequence:
#
# PCOD8090870 Si02
#       7
#     8   8   8   8   8   8   8
#     4   9  18  38  61  79 108 151 188 218 263 334
#     4  10  21  37  57  81 111 147 182 224 280 331
#     4  10  21  39  63  88 111 138 178 225 274 331
#     4   9  19  35  56  81 110 146 189 228 265 316
#     4  11  20  29  48  80 113 141 181 238 284 314
#     4   9  19  34  52  73 104 152 197 226 263 324
#     4  10  19  34  53  72 104 152 195 225 268 330
#
# _framework density 19.058885
#
# number of rings (size 3 to 8) (size 9 to 14) (size 15 to 20)
#    0.000    2.286    1.429    2.571    0.000    6.857 
#    0.000    0.714    0.000    4.286    0.000    0.000 
#    0.000    0.000    0.000    0.000    0.000    0.000 
#
# Total GULP energy -347068.031555 kJ/mol
# GULP energy per Si atom -12395.286841 kJ/mol
# Density = 1.901551 g / cm^3
# Si number density = 19.058885 Si / 1000 Ang^3
#
#
#
# Elastic Constant Matrix: (Units=GPa)
#
#
# Indices 1 2 3 4 5 6 
#
# 1 106.7374 38.4222 50.6379 0.0000 -5.0997 0.0000
# 2 38.4222 68.8649 32.6691 0.0000 -1.1976 0.0000
# 3 50.6379 32.6691 111.9436 0.0000 -21.6876 0.0000
# 4 0.0000 0.0000 0.0000 25.9383 0.0000 0.5780
# 5 -5.0997 -1.1976 -21.6876 0.0000 14.6974 0.0000
# 6 0.0000 0.0000 0.0000 0.5780 0.0000 28.8425
#
#
#
# Elastic Compliance Matrix: (Units=1/GPa)
#
#
# Indices 1 2 3 4 5 6 
#
# 1 0.013568 -0.005096 -0.005348 0.000000 -0.003598 0.000000
# 2 -0.005096 0.019513 -0.004795 0.000000 -0.007253 0.000000
# 3 -0.005348 -0.004795 0.017247 0.000000 0.023203 0.000000
# 4 0.000000 0.000000 0.000000 0.038570 0.000000 -0.000773
# 5 -0.003598 -0.007253 0.023203 0.000000 0.100439 0.000000
# 6 0.000000 0.000000 0.000000 -0.000773 0.000000 0.034687
#
#
# Mechanical properties :
#
#
# Convention : Reuss Voigt Hill
#
# Bulk Modulus (GPa) = 50.37413 59.00048 54.68731
# Shear Modulus (GPa) = 19.14857 24.95007 22.04932
#
# Velocity S-wave (km/s) = 3.17315 3.62208 3.40502
# Velocity P-wave (km/s) = 6.31770 6.96540 6.64944
#
# Compressibility (1/GPa) = 0.01985146
#
# Stress axis : x y z
#
# Youngs Moduli (GPa) = 73.70169 51.24860 57.98263
#
# Poissons Ratio (x) = 0.26116 0.31007
# Poissons Ratio (y) = 0.37558 0.27800
# Poissons Ratio (z) = 0.39412 0.24571
#
# Static dielectric constant tensor:
#      x y z
#    x 3.372050 0.000000 -0.106150 
#    y 0.000000 3.327970 0.000000 
#    z -0.106150 0.000000 3.398230 
# 
# 
# High freq. dielectric constant tensor:
#      x y z
#    x 1.727220 0.000000 -0.009390 
#    y 0.000000 1.730380 0.000000 
#    z -0.009390 0.000000 1.728440 
# 
# From -- ./inp_files/280885.got.cif
#   From: 2010.06.25/outbox.cif.g09.slc.cpg/sg12_141_cif.got.tgz:280885.got - 2010.06.28 00:19:55.
