data_PCOD8090731
_publ_section_title
;
Structure prediction by ZEFSAII (Michael W. Deem and Ramdas Pophale) SiO2 
 PCOD8090731
Probable space group: C 2/M
;
_chemical_formula_sum "Si O2"
_cell_formula_units_Z 64
_cell_length_a 20.218059
_cell_length_b 9.212796
_cell_length_c 33.113698
_cell_angle_alpha 90.000000
_cell_angle_beta 146.308341
_cell_angle_gamma 90.000000
_cell_volume 3421.487924
_symmetry_space_group_name_H-M "C 2/M"
_symmetry_group_IT_number 12
_symmetry_cell_setting 'monoclinic'
loop_
_space_group_symop_operation_xyz
x,y,z
-x,y,-z
-x,-y,-z
x,-y,z
1/2+x,1/2+y,z
1/2-x,1/2+y,-z
1/2-x,1/2-y,-z
1/2+x,1/2-y,z
loop_
_atom_site_type_symbol
_atom_site_label
_atom_site_fract_x
_atom_site_fract_y
_atom_site_fract_z
Si Si1 0.009432 0.672580 0.049445
Si Si2 0.358222 0.172189 0.666400
Si Si3 0.231509 0.171699 0.798166
Si Si4 0.144053 0.334571 0.426554
Si Si5 0.230260 0.328860 0.031675
Si Si6 0.606936 0.165361 0.664900
Si Si7 0.128778 0.330637 0.582608
Si Si8 0.910098 0.828465 0.194420
O O1 0.006758 0.500000 0.045604
O O2 0.132829 0.728093 0.131103
O O3 0.897711 0.728642 0.018285
O O4 0.000000 0.738557 0.000000
O O5 0.383043 0.216540 0.632673
O O6 0.229844 0.234595 0.613121
O O7 0.463812 0.245934 0.745965
O O8 0.360052 0.000000 0.674611
O O9 0.182286 0.230618 0.731389
O O10 0.158039 0.226688 0.799892
O O11 0.226240 0.000000 0.794466
O O12 0.183962 0.500000 0.446081
O O13 0.250000 0.250000 0.500000
O O14 0.031650 0.306534 0.397819
O O15 0.229579 0.500000 0.024159
O O16 0.331093 0.286637 0.115466
O O17 0.250000 0.250000 0.000000
O O18 0.634448 0.203096 0.632845
O O19 0.640469 0.000000 0.692386
O O20 0.152180 0.500000 0.585232
O O21 0.000000 0.283828 0.500000
O O22 0.933804 0.000000 0.208265
#
# Coordination Sequence:
#
# PCOD8090731 Si02
#       8
#     8   8   8   8   8   8   8   8
#     4   9  16  32  58  83 107 143 192 237 276 324
#     4  11  23  38  59  86 117 151 190 240 293 340
#     4  10  19  33  59  89 112 144 193 241 283 336
#     4  10  21  36  56  83 111 144 185 231 282 335
#     4  10  21  37  58  85 118 153 192 238 286 342
#     4  10  21  38  57  81 115 148 182 231 286 338
#     4  10  22  41  63  83 112 157 197 232 283 350
#     4  10  20  36  59  85 115 154 195 234 283 350
#
# _framework density 18.705313
#
# number of rings (size 3 to 8) (size 9 to 14) (size 15 to 20)
#    0.000    2.000    2.500    1.125    0.000    4.750 
#    0.000    3.125    0.000    0.750    0.000    0.000 
#    0.000    0.000    0.000    0.000    0.000    0.000 
#
# Total GULP energy -396839.789165 kJ/mol
# GULP energy per Si atom -12401.243411 kJ/mol
# Density = 1.866274 g / cm^3
# Si number density = 18.705313 Si / 1000 Ang^3
#
#
#
# Elastic Constant Matrix: (Units=GPa)
#
#
# Indices 1 2 3 4 5 6 
#
# 1 94.8870 33.7181 37.0365 -0.0001 7.9251 0.0000
# 2 33.7181 42.3832 44.0436 0.0000 4.8837 0.0000
# 3 37.0365 44.0436 125.2527 0.0000 4.2878 0.0000
# 4 -0.0001 0.0000 0.0000 29.0559 0.0000 -3.2971
# 5 7.9251 4.8837 4.2878 0.0000 29.1434 0.0000
# 6 0.0000 0.0000 0.0000 -3.2971 0.0000 29.7331
#
#
#
# Elastic Compliance Matrix: (Units=1/GPa)
#
#
# Indices 1 2 3 4 5 6 
#
# 1 0.014829 -0.011146 -0.000394 0.000000 -0.002107 0.000000
# 2 -0.011146 0.046109 -0.012822 0.000000 -0.002809 0.000000
# 3 -0.000394 -0.012822 0.012595 0.000000 0.000403 0.000000
# 4 0.000000 0.000000 0.000000 0.034855 0.000000 0.003865
# 5 -0.002107 -0.002809 0.000403 0.000000 0.035298 0.000000
# 6 0.000000 0.000000 0.000000 0.003865 0.000000 0.034061
#
#
# Mechanical properties :
#
#
# Convention : Reuss Voigt Hill
#
# Bulk Modulus (GPa) = 40.30432 54.67995 47.49213
# Shear Modulus (GPa) = 21.30029 27.43481 24.36755
#
# Velocity S-wave (km/s) = 3.37817 3.83389 3.61322
# Velocity P-wave (km/s) = 6.06711 6.99243 6.54614
#
# Compressibility (1/GPa) = 0.02481124
#
# Stress axis : x y z
#
# Youngs Moduli (GPa) = 67.43544 21.68780 79.39617
#
# Poissons Ratio (x) = 0.24172 0.03125
# Poissons Ratio (y) = 0.75160 1.01800
# Poissons Ratio (z) = 0.02654 0.27808
#
# Static dielectric constant tensor:
#      x y z
#    x 3.409260 0.000000 0.114020 
#    y 0.000000 3.217830 0.000000 
#    z 0.114020 0.000000 3.520260 
# 
# 
# High freq. dielectric constant tensor:
#      x y z
#    x 1.732820 0.000000 0.003210 
#    y 0.000000 1.704830 0.000000 
#    z 0.003210 0.000000 1.740090 
# 
# From -- ./inp_files/378339.got.cif
#   From: 2010.06.25/outbox.cif.g09.slc.cpg/sg12_190_cif.got.tgz:378339.got - 2010.06.28 00:19:55.
