data_PCOD8090747
_publ_section_title
;
Structure prediction by ZEFSAII (Michael W. Deem and Ramdas Pophale) SiO2 
 PCOD8090747
Probable space group: C 2/M
;
_chemical_formula_sum "Si O2"
_cell_formula_units_Z 56
_cell_length_a 19.997722
_cell_length_b 8.760965
_cell_length_c 18.815048
_cell_angle_alpha 90.000000
_cell_angle_beta 120.463134
_cell_angle_gamma 90.000000
_cell_volume 2841.336514
_symmetry_space_group_name_H-M "C 2/M"
_symmetry_group_IT_number 12
_symmetry_cell_setting 'monoclinic'
loop_
_space_group_symop_operation_xyz
x,y,z
-x,y,-z
-x,-y,-z
x,-y,z
1/2+x,1/2+y,z
1/2-x,1/2+y,-z
1/2-x,1/2-y,-z
1/2+x,1/2-y,z
loop_
_atom_site_type_symbol
_atom_site_label
_atom_site_fract_x
_atom_site_fract_y
_atom_site_fract_z
Si Si1 0.522292 0.181006 0.306880
Si Si2 0.348103 0.173999 0.223079
Si Si3 0.208932 0.673894 0.651246
Si Si4 0.224224 0.321266 0.059462
Si Si5 0.630551 0.820532 0.238508
Si Si6 0.066212 0.681431 0.483927
Si Si7 0.087171 0.820580 0.065524
O O1 0.433468 0.232287 0.247315
O O2 0.573143 0.241647 0.268686
O O3 0.555283 0.248854 0.398691
O O4 0.526678 0.000000 0.313333
O O5 0.340390 0.185829 0.303285
O O6 0.285600 0.283337 0.153694
O O7 0.334093 0.000000 0.189792
O O8 0.237549 0.500000 0.655445
O O9 0.282041 0.785539 0.690696
O O10 0.151643 0.728047 0.557521
O O11 0.217272 0.500000 0.046398
O O12 0.140355 0.257374 0.034979
O O13 0.250000 0.250000 0.000000
O O14 0.610012 0.733419 0.155846
O O15 0.621057 0.000000 0.220540
O O16 0.058090 0.500000 0.479179
O O17 0.000000 0.750230 0.500000
O O18 0.100435 0.000000 0.068653
O O19 0.000000 0.772737 0.000000
#
# Coordination Sequence:
#
# PCOD8090747 Si02
#       7
#     8   8   8   8   8   8   8
#     4   9  19  34  55  87 121 156 203 251 295 351
#     4  10  19  36  61  88 118 157 203 252 296 347
#     4  10  19  33  60  87 114 155 202 248 297 353
#     4  12  26  43  65  94 125 159 199 245 299 360
#     4  11  23  38  57  85 123 162 197 242 301 365
#     4   9  15  29  55  87 116 149 200 254 298 345
#     4  11  25  45  66  89 120 157 200 252 305 361
#
# _framework density 19.709033999999999
#
# number of rings (size 3 to 8) (size 9 to 14) (size 15 to 20)
#    0.000    1.714    2.857    2.143    2.000    1.714 
#    0.000    0.714    0.000    2.143    0.000    0.000 
#    0.000    0.000    0.000    0.000    0.000    0.000 
#
# Total GULP energy -347283.624177 kJ/mol
# GULP energy per Si atom -12402.986578 kJ/mol
# Density = 1.966418 g / cm^3
# Si number density = 19.709034 Si / 1000 Ang^3
#
#
#
# Elastic Constant Matrix: (Units=GPa)
#
#
# Indices 1 2 3 4 5 6 
#
# 1 157.1090 46.7860 54.4603 0.0000 2.7378 0.0000
# 2 46.7860 68.3923 32.8077 0.0000 3.2327 0.0000
# 3 54.4603 32.8077 92.4749 0.0000 7.0249 0.0000
# 4 0.0000 0.0000 0.0000 10.0008 0.0000 -4.8081
# 5 2.7378 3.2327 7.0249 0.0000 34.7736 0.0000
# 6 0.0000 0.0000 0.0000 -4.8081 0.0000 20.1925
#
#
#
# Elastic Compliance Matrix: (Units=1/GPa)
#
#
# Indices 1 2 3 4 5 6 
#
# 1 0.008956 -0.004340 -0.003770 0.000000 0.000460 0.000000
# 2 -0.004340 0.019729 -0.004397 0.000000 -0.000604 0.000000
# 3 -0.003770 -0.004397 0.014767 0.000000 -0.002278 0.000000
# 4 0.000000 0.000000 0.000000 0.112918 0.000000 0.026887
# 5 0.000460 -0.000604 -0.002278 0.000000 0.029238 0.000000
# 6 0.000000 0.000000 0.000000 0.026887 0.000000 0.055926
#
#
# Mechanical properties :
#
#
# Convention : Reuss Voigt Hill
#
# Bulk Modulus (GPa) = 54.23780 65.12048 59.67914
# Shear Modulus (GPa) = 18.33565 25.25484 21.79524
#
# Velocity S-wave (km/s) = 3.05342 3.58353 3.32904
# Velocity P-wave (km/s) = 6.32536 7.08766 6.71733
#
# Compressibility (1/GPa) = 0.01843733
#
# Stress axis : x y z
#
# Youngs Moduli (GPa) = 111.65464 50.68807 67.71954
#
# Poissons Ratio (x) = 0.22000 0.25528
# Poissons Ratio (y) = 0.48461 0.29778
# Poissons Ratio (z) = 0.42089 0.22289
#
# Static dielectric constant tensor:
#      x y z
#    x 3.839010 0.000000 -0.041090 
#    y 0.000000 3.385190 0.000000 
#    z -0.041090 0.000000 3.770060 
# 
# 
# High freq. dielectric constant tensor:
#      x y z
#    x 1.779670 0.000000 0.003410 
#    y 0.000000 1.736640 0.000000 
#    z 0.003410 0.000000 1.778960 
# 
# From -- ./inp_files/281763.got.cif
#   From: 2010.06.25/outbox.cif.g09.slc.cpg/sg12_141_cif.got.tgz:281763.got - 2010.06.28 00:19:55.
