data_PCOD8090067
_publ_section_title
;
Structure prediction by ZEFSAII (Michael W. Deem and Ramdas Pophale) SiO2 
 PCOD8090067
Probable space group: C 2/M
;
_chemical_formula_sum "Si O2"
_cell_formula_units_Z 48
_cell_length_a 20.268199
_cell_length_b 9.231356
_cell_length_c 14.640776
_cell_angle_alpha 90.000000
_cell_angle_beta 80.146869
_cell_angle_gamma 90.000000
_cell_volume 2698.926386
_symmetry_space_group_name_H-M "C 2/M"
_symmetry_group_IT_number 12
_symmetry_cell_setting 'monoclinic'
loop_
_space_group_symop_operation_xyz
x,y,z
-x,y,-z
-x,-y,-z
x,-y,z
1/2+x,1/2+y,z
1/2-x,1/2+y,-z
1/2-x,1/2-y,-z
1/2+x,1/2-y,z
loop_
_atom_site_type_symbol
_atom_site_label
_atom_site_fract_x
_atom_site_fract_y
_atom_site_fract_z
Si Si1 0.935843 0.335310 0.452230
Si Si2 0.656159 0.334025 0.271460
Si Si3 0.188407 0.828099 0.062025
Si Si4 0.806931 0.831930 0.540279
Si Si5 0.473168 0.165511 0.727744
Si Si6 0.946657 0.669258 0.937248
O O1 0.908898 0.500000 0.467859
O O2 0.878916 0.223238 0.491615
O O3 0.000000 0.310877 0.500000
O O4 0.957975 0.301877 0.342257
O O5 0.635288 0.500000 0.269595
O O6 0.692846 0.288029 0.168843
O O7 0.703169 0.305200 0.348364
O O8 0.587369 0.250972 0.303709
O O9 0.120042 0.764708 0.035678
O O10 0.191453 0.000000 0.044014
O O11 0.250000 0.750000 0.000000
O O12 0.750000 0.750000 0.500000
O O13 0.801915 0.000000 0.517356
O O14 0.481970 0.203356 0.832128
O O15 0.452591 0.000000 0.719054
O O16 0.927580 0.500000 0.951848
O O17 0.000000 0.718169 0.000000
#
# Coordination Sequence:
#
# PCOD8090067 Si02
#       6
#     8   8   8   8   8   8
#     4  10  19  33  55  81 107 136 174 217 259 311
#     4   9  19  35  55  77 103 138 177 219 264 311
#     4  10  20  36  57  80 105 137 178 221 265 315
#     4  11  23  38  55  77 108 143 178 219 266 313
#     4   9  17  31  54  80 104 137 176 214 257 309
#     4   9  18  34  55  79 108 140 174 214 262 313
#
# _framework density 17.784849999999999
#
# number of rings (size 3 to 8) (size 9 to 14) (size 15 to 20)
#    0.000    2.333    1.667    1.000    0.000    2.667 
#    3.000    0.000    0.000    0.000    0.000    0.000 
#    0.000    0.000    0.000    0.000    0.000    0.000 
#
# Total GULP energy -297563.985713 kJ/mol
# GULP energy per Si atom -12398.499405 kJ/mol
# Density = 1.774437 g / cm^3
# Si number density = 17.784850 Si / 1000 Ang^3
#
#
#
# Elastic Constant Matrix: (Units=GPa)
#
#
# Indices 1 2 3 4 5 6 
#
# 1 105.4867 64.0579 73.2192 0.0000 0.9201 0.0000
# 2 64.0579 90.7134 57.9350 0.0000 2.5550 0.0000
# 3 73.2192 57.9350 113.8704 0.0000 3.1781 0.0000
# 4 0.0000 0.0000 0.0000 25.2913 0.0000 -0.6637
# 5 0.9201 2.5550 3.1781 0.0000 28.6860 0.0000
# 6 0.0000 0.0000 0.0000 -0.6637 0.0000 33.1224
#
#
#
# Elastic Compliance Matrix: (Units=1/GPa)
#
#
# Indices 1 2 3 4 5 6 
#
# 1 0.021464 -0.009413 -0.009044 0.000000 0.001152 0.000000
# 2 -0.009413 0.020466 -0.004331 0.000000 -0.001041 0.000000
# 3 -0.009044 -0.004331 0.016834 0.000000 -0.001189 0.000000
# 4 0.000000 0.000000 0.000000 0.039560 0.000000 0.000793
# 5 0.001152 -0.001041 -0.001189 0.000000 0.035048 0.000000
# 6 0.000000 0.000000 0.000000 0.000793 0.000000 0.030207
#
#
# Mechanical properties :
#
#
# Convention : Reuss Voigt Hill
#
# Bulk Modulus (GPa) = 75.83039 77.83272 76.83156
# Shear Modulus (GPa) = 23.41358 25.07716 24.24537
#
# Velocity S-wave (km/s) = 3.63228 3.75911 3.69624
# Velocity P-wave (km/s) = 7.76669 7.91831 7.84287
#
# Compressibility (1/GPa) = 0.01318733
#
# Stress axis : x y z
#
# Youngs Moduli (GPa) = 46.59050 48.86102 59.40281
#
# Poissons Ratio (x) = 0.45992 0.53725
# Poissons Ratio (y) = 0.43855 0.25728
# Poissons Ratio (z) = 0.42138 0.21163
#
# Static dielectric constant tensor:
#      x y z
#    x 3.294310 0.000000 -0.155720 
#    y 0.000000 3.352930 0.000000 
#    z -0.155720 0.000000 3.776690 
# 
# 
# High freq. dielectric constant tensor:
#      x y z
#    x 1.665800 0.000000 -0.003710 
#    y 0.000000 1.692260 0.000000 
#    z -0.003710 0.000000 1.702170 
# 
# From -- ./inp_files/221649.got.cif
#   From: 2010.06.25/outbox.cif.g09.slc.cpg/sg12_111_cif.got.tgz:221649.got - 2010.06.28 00:19:55.
