data_PCOD8090598
_publ_section_title
;
Structure prediction by ZEFSAII (Michael W. Deem and Ramdas Pophale) SiO2 
 PCOD8090598
Probable space group: C 2/M
;
_chemical_formula_sum "Si O2"
_cell_formula_units_Z 64
_cell_length_a 9.759818
_cell_length_b 18.455584
_cell_length_c 31.203263
_cell_angle_alpha 90.000000
_cell_angle_beta 145.194949
_cell_angle_gamma 90.000000
_cell_volume 3208.062357
_symmetry_space_group_name_H-M "C 2/M"
_symmetry_group_IT_number 12
_symmetry_cell_setting 'monoclinic'
loop_
_space_group_symop_operation_xyz
x,y,z
-x,y,-z
-x,-y,-z
x,-y,z
1/2+x,1/2+y,z
1/2-x,1/2+y,-z
1/2-x,1/2-y,-z
1/2+x,1/2-y,z
loop_
_atom_site_type_symbol
_atom_site_label
_atom_site_fract_x
_atom_site_fract_y
_atom_site_fract_z
Si Si1 0.044791 0.913663 0.717843
Si Si2 0.205437 0.802498 0.086755
Si Si3 0.529351 0.914304 0.554190
Si Si4 0.813578 0.585052 0.700521
Si Si5 0.466929 0.586488 0.538431
Si Si6 0.336572 0.180551 0.855016
Si Si7 0.655280 0.414065 0.142830
Si Si8 0.783296 0.422559 0.913918
O O1 0.771779 0.890259 0.639602
O O2 0.202985 0.891541 0.717460
O O3 0.118206 0.860036 0.775092
O O4 0.072513 0.000000 0.735841
O O5 0.451395 0.803936 0.123635
O O6 0.236389 0.751967 0.136934
O O7 0.139111 0.880054 0.090768
O O8 0.000000 0.777854 0.000000
O O9 0.500000 0.879008 0.500000
O O10 0.300148 0.886515 0.520737
O O11 0.533263 0.000000 0.550719
O O12 0.788262 0.500000 0.689819
O O13 0.661851 0.619410 0.622076
O O14 0.092311 0.608357 0.770085
O O15 0.500000 0.619047 0.500000
O O16 0.485691 0.500000 0.543807
O O17 0.410987 0.124386 0.910537
O O18 0.632885 0.500000 0.130328
O O19 0.441662 0.384793 0.118955
O O20 0.690595 0.500000 0.871583
O O21 0.000000 0.439141 0.000000
#
# Coordination Sequence:
#
# PCOD8090598 Si02
#       8
#     8   8   8   8   8   8   8   8
#     4  10  19  33  57  87 116 152 195 241 290 341
#     4  12  25  41  62  85 114 152 195 244 296 355
#     4   9  15  26  47  76 113 150 184 227 279 339
#     4   9  16  30  51  79 118 153 183 231 290 343
#     4   9  16  25  42  74 116 154 184 221 277 340
#     4  12  24  40  59  83 114 152 198 243 289 350
#     4  10  21  38  61  89 118 151 190 240 302 356
#     4  10  21  38  59  84 117 152 189 241 297 349
#
# _framework density 19.949738
#
# number of rings (size 3 to 8) (size 9 to 14) (size 15 to 20)
#    0.000    1.875    2.500    2.625    0.000    1.750 
#    0.000    3.750    0.000    0.000    0.000    4.375 
#    0.000    0.000    0.000    0.000    0.000    0.000 
#
# Total GULP energy -396471.941853 kJ/mol
# GULP energy per Si atom -12389.748183 kJ/mol
# Density = 1.990433 g / cm^3
# Si number density = 19.949738 Si / 1000 Ang^3
#
#
#
# Elastic Constant Matrix: (Units=GPa)
#
#
# Indices 1 2 3 4 5 6 
#
# 1 141.6219 39.2912 51.3714 -0.0004 8.6997 0.0001
# 2 39.2912 52.8445 32.3997 -0.0006 -6.5561 -0.0002
# 3 51.3714 32.3997 126.8194 -0.0023 2.8880 -0.0006
# 4 -0.0004 -0.0006 -0.0023 17.5668 -0.0004 -9.0485
# 5 8.6997 -6.5561 2.8880 -0.0004 37.4958 0.0000
# 6 0.0001 -0.0002 -0.0006 -9.0485 0.0000 28.0334
#
#
#
# Elastic Compliance Matrix: (Units=1/GPa)
#
#
# Indices 1 2 3 4 5 6 
#
# 1 0.009843 -0.006304 -0.002303 -0.000001 -0.003209 0.000000
# 2 -0.006304 0.027215 -0.004549 0.000001 0.006572 0.000000
# 3 -0.002303 -0.004549 0.010004 0.000001 -0.001031 0.000001
# 4 -0.000001 0.000001 0.000001 0.068277 0.000001 0.022038
# 5 -0.003209 0.006572 -0.001031 0.000001 0.028643 0.000000
# 6 0.000000 0.000000 0.000001 0.022038 0.000000 0.042785
#
#
# Mechanical properties :
#
#
# Convention : Reuss Voigt Hill
#
# Bulk Modulus (GPa) = 48.19550 63.04560 55.62055
# Shear Modulus (GPa) = 22.72778 29.83411 26.28094
#
# Velocity S-wave (km/s) = 3.37894 3.87132 3.63348
# Velocity P-wave (km/s) = 6.27964 7.18705 6.74861
#
# Compressibility (1/GPa) = 0.02074883
#
# Stress axis : x y z
#
# Youngs Moduli (GPa) = 101.59858 36.74452 99.96103
#
# Poissons Ratio (x) = 0.23164 0.23025
# Poissons Ratio (y) = 0.64049 0.45471
# Poissons Ratio (z) = 0.23402 0.16715
#
# Static dielectric constant tensor:
#      x y z
#    x 3.838080 0.000000 0.009810 
#    y 0.000000 3.313100 0.000000 
#    z 0.009810 0.000000 3.781160 
# 
# 
# High freq. dielectric constant tensor:
#      x y z
#    x 1.788240 0.000000 0.001950 
#    y 0.000000 1.733420 0.000000 
#    z 0.001950 0.000000 1.784980 
# 
# From -- ./inp_files/372974.got.cif
#   From: 2010.06.25/outbox.cif.g09.slc.cpg/sg12_187_cif.got.tgz:372974.got - 2010.06.28 00:19:55.
