data_PCOD8090336
_publ_section_title
;
Structure prediction by ZEFSAII (Michael W. Deem and Ramdas Pophale) SiO2 
 PCOD8090336
Probable space group: C 2/M
;
_chemical_formula_sum "Si O2"
_cell_formula_units_Z 56
_cell_length_a 24.606999
_cell_length_b 14.805302
_cell_length_c 11.699792
_cell_angle_alpha 90.000000
_cell_angle_beta 139.774982
_cell_angle_gamma 90.000000
_cell_volume 2752.619246
_symmetry_space_group_name_H-M "C 2/M"
_symmetry_group_IT_number 12
_symmetry_cell_setting 'monoclinic'
loop_
_space_group_symop_operation_xyz
x,y,z
-x,y,-z
-x,-y,-z
x,-y,z
1/2+x,1/2+y,z
1/2-x,1/2+y,-z
1/2-x,1/2-y,-z
1/2+x,1/2-y,z
loop_
_atom_site_type_symbol
_atom_site_label
_atom_site_fract_x
_atom_site_fract_y
_atom_site_fract_z
Si Si1 0.244056 0.102150 0.764345
Si Si2 0.407080 0.605968 0.323821
Si Si3 0.341807 0.400792 0.609076
Si Si4 0.855294 0.897174 0.984668
Si Si5 0.082567 0.717297 0.274304
Si Si6 0.212753 0.599998 0.601015
Si Si7 0.396934 0.784631 0.952050
O O1 0.164200 0.143688 0.704517
O O2 0.224562 0.102271 0.599725
O O3 0.264802 0.000000 0.840058
O O4 0.325681 0.165901 0.913404
O O5 0.500000 0.648420 0.500000
O O6 0.413695 0.500000 0.355368
O O7 0.375506 0.629744 0.146716
O O8 0.385204 0.500000 0.683574
O O9 0.413843 0.326002 0.705971
O O10 0.290014 0.380183 0.640021
O O11 0.754279 0.891376 0.794460
O O12 0.886736 0.000000 0.008421
O O13 0.899474 0.823472 0.974873
O O14 0.139663 0.672233 0.463956
O O15 0.988333 0.680753 0.139550
O O16 0.116295 0.691768 0.202470
O O17 0.175300 0.500000 0.520595
#
# Coordination Sequence:
#
# PCOD8090336 Si02
#       7
#     8   8   8   8   8   8   8
#     4  10  21  38  60  83 112 150 191 237 285 335
#     4   9  20  39  62  87 113 145 187 238 292 342
#     4  10  19  33  56  82 107 148 193 234 288 342
#     4  10  21  38  59  84 114 146 190 239 287 342
#     4  11  22  35  52  83 124 156 189 229 278 343
#     4  10  19  35  58  82 111 153 195 233 284 336
#     4  11  23  35  54  85 119 156 191 231 281 336
#
# _framework density 20.344259999999998
#
# number of rings (size 3 to 8) (size 9 to 14) (size 15 to 20)
#    0.000    1.857    2.857    1.286    2.000    1.714 
#    0.000    2.857    0.000    0.000    0.000    4.000 
#    0.000    0.000    0.000    0.000    0.000    0.000 
#
# Total GULP energy -347004.855735 kJ/mol
# GULP energy per Si atom -12393.030562 kJ/mol
# Density = 2.029796 g / cm^3
# Si number density = 20.344260 Si / 1000 Ang^3
#
#
#
# Elastic Constant Matrix: (Units=GPa)
#
#
# Indices 1 2 3 4 5 6 
#
# 1 91.4909 36.6656 52.6035 0.0000 21.0803 0.0000
# 2 36.6656 76.9441 45.9982 0.0000 17.5053 0.0000
# 3 52.6035 45.9982 140.8784 0.0000 6.3221 0.0000
# 4 0.0000 0.0000 0.0000 24.8294 0.0000 0.1861
# 5 21.0803 17.5053 6.3221 0.0000 29.3929 0.0000
# 6 0.0000 0.0000 0.0000 0.1861 0.0000 14.7573
#
#
#
# Elastic Compliance Matrix: (Units=1/GPa)
#
#
# Indices 1 2 3 4 5 6 
#
# 1 0.017209 -0.003062 -0.005002 0.000000 -0.009443 0.000000
# 2 -0.003062 0.019155 -0.004743 0.000000 -0.008192 0.000000
# 3 -0.005002 -0.004743 0.010327 0.000000 0.004191 0.000000
# 4 0.000000 0.000000 0.000000 0.040279 0.000000 -0.000508
# 5 -0.009443 -0.008192 0.004191 0.000000 0.044771 0.000000
# 6 0.000000 0.000000 0.000000 -0.000508 0.000000 0.067769
#
#
# Mechanical properties :
#
#
# Convention : Reuss Voigt Hill
#
# Bulk Modulus (GPa) = 47.44806 64.42754 55.93780
# Shear Modulus (GPa) = 21.53784 25.39900 23.46842
#
# Velocity S-wave (km/s) = 3.25725 3.53719 3.40010
# Velocity P-wave (km/s) = 6.12531 6.95843 6.55512
#
# Compressibility (1/GPa) = 0.02107568
#
# Stress axis : x y z
#
# Youngs Moduli (GPa) = 58.10972 52.20636 96.83525
#
# Poissons Ratio (x) = 0.15984 0.48440
# Poissons Ratio (y) = 0.17791 0.45933
# Poissons Ratio (z) = 0.29068 0.24763
#
# Static dielectric constant tensor:
#      x y z
#    x 3.356980 0.000000 -0.026450 
#    y 0.000000 3.657210 0.000000 
#    z -0.026450 0.000000 3.816070 
# 
# 
# High freq. dielectric constant tensor:
#      x y z
#    x 1.755120 0.000000 0.000130 
#    y 0.000000 1.782550 0.000000 
#    z 0.000130 0.000000 1.800770 
# 
# From -- ./inp_files/183534.got.cif
#   From: 2010.06.25/outbox.cif.g09.slc.cpg/sg12_92_cif.got.tgz:183534.got - 2010.06.28 00:19:55.
