data_PCOD8090986
_publ_section_title
;
Structure prediction by ZEFSAII (Michael W. Deem and Ramdas Pophale) SiO2 
 PCOD8090986
Probable space group: C 2/M
;
_chemical_formula_sum "Si O2"
_cell_formula_units_Z 56
_cell_length_a 20.719169
_cell_length_b 8.677733
_cell_length_c 17.478339
_cell_angle_alpha 90.000000
_cell_angle_beta 105.051155
_cell_angle_gamma 90.000000
_cell_volume 3034.718907
_symmetry_space_group_name_H-M "C 2/M"
_symmetry_group_IT_number 12
_symmetry_cell_setting 'monoclinic'
loop_
_space_group_symop_operation_xyz
x,y,z
-x,y,-z
-x,-y,-z
x,-y,z
1/2+x,1/2+y,z
1/2-x,1/2+y,-z
1/2-x,1/2-y,-z
1/2+x,1/2-y,z
loop_
_atom_site_type_symbol
_atom_site_label
_atom_site_fract_x
_atom_site_fract_y
_atom_site_fract_z
Si Si1 0.056089 0.316761 0.738697
Si Si2 0.812215 0.316448 0.763752
Si Si3 0.180756 0.318115 0.507392
Si Si4 0.954352 0.682731 0.094200
Si Si5 0.404592 0.183200 0.922092
Si Si6 0.407182 0.181931 0.659781
Si Si7 0.669059 0.681994 0.668305
O O1 0.063912 0.500000 0.731504
O O2 0.069853 0.260814 0.830167
O O3 0.108080 0.229685 0.702114
O O4 0.982728 0.258070 0.691271
O O5 0.812378 0.500000 0.760818
O O6 0.840065 0.257116 0.854800
O O7 0.860071 0.249072 0.712009
O O8 0.737338 0.254459 0.727812
O O9 0.188585 0.500000 0.512761
O O10 0.250000 0.250000 0.500000
O O11 0.122172 0.267783 0.431111
O O12 0.159299 0.255795 0.582655
O O13 0.958051 0.500000 0.096522
O O14 0.028588 0.745983 0.098976
O O15 0.903888 0.739303 0.010843
O O16 0.406169 0.000000 0.920846
O O17 0.407537 0.000000 0.669286
O O18 0.671753 0.500000 0.659188
#
# Coordination Sequence:
#
# PCOD8090986 Si02
#       7
#     8   8   8   8   8   8   8
#     4  10  19  34  54  77 106 137 171 213 260 307
#     4   9  15  28  49  73 100 134 173 208 248 306
#     4  11  21  36  57  81 105 132 172 216 260 306
#     4   8  13  22  43  76 106 126 157 215 264 293
#     4   8  12  21  43  76 104 126 163 213 258 295
#     4   9  17  31  54  77  99 133 173 210 251 308
#     4  11  23  37  52  73 106 143 176 211 258 311
#
# _framework density 18.453109999999999
#
# number of rings (size 3 to 8) (size 9 to 14) (size 15 to 20)
#    0.000    2.571    2.857    1.714    0.000    0.571 
#    0.000    5.000    0.000    0.000    0.000    3.000 
#    0.000    0.000    0.000    0.000    0.000    0.000 
#
# Total GULP energy -347017.486291 kJ/mol
# GULP energy per Si atom -12393.481653 kJ/mol
# Density = 1.841111 g / cm^3
# Si number density = 18.453110 Si / 1000 Ang^3
#
#
#
# Elastic Constant Matrix: (Units=GPa)
#
#
# Indices 1 2 3 4 5 6 
#
# 1 129.0110 16.0928 85.3751 0.0000 9.2422 0.0000
# 2 16.0928 26.1406 27.5467 0.0000 3.5782 0.0000
# 3 85.3751 27.5467 187.7611 0.0000 14.0849 0.0000
# 4 0.0000 0.0000 0.0000 16.1695 0.0000 -3.4717
# 5 9.2422 3.5782 14.0849 0.0000 34.6669 0.0000
# 6 0.0000 0.0000 0.0000 -3.4717 0.0000 22.4259
#
#
#
# Elastic Compliance Matrix: (Units=1/GPa)
#
#
# Indices 1 2 3 4 5 6 
#
# 1 0.011184 -0.001746 -0.004764 0.000000 -0.000866 0.000000
# 2 -0.001746 0.045663 -0.005762 0.000000 -0.001906 0.000000
# 3 -0.004764 -0.005762 0.008455 0.000000 -0.001570 0.000000
# 4 0.000000 0.000000 0.000000 0.063971 0.000000 0.009903
# 5 -0.000866 -0.001906 -0.001570 0.000000 0.029912 0.000000
# 6 0.000000 0.000000 0.000000 0.009903 0.000000 0.046124
#
#
# Mechanical properties :
#
#
# Convention : Reuss Voigt Hill
#
# Bulk Modulus (GPa) = 24.53573 66.77131 45.65352
# Shear Modulus (GPa) = 20.53894 28.91234 24.72564
#
# Velocity S-wave (km/s) = 3.33984 3.96258 3.66446
# Velocity P-wave (km/s) = 5.31016 7.56299 6.53440
#
# Compressibility (1/GPa) = 0.04075689
#
# Stress axis : x y z
#
# Youngs Moduli (GPa) = 89.41425 21.89967 118.26755
#
# Poissons Ratio (x) = 0.03824 0.56345
# Poissons Ratio (y) = 0.15613 0.68149
# Poissons Ratio (z) = 0.42599 0.12619
#
# Static dielectric constant tensor:
#      x y z
#    x 3.428640 0.000000 0.312090 
#    y 0.000000 2.899580 0.000000 
#    z 0.312090 0.000000 4.000840 
# 
# 
# High freq. dielectric constant tensor:
#      x y z
#    x 1.703910 0.000000 0.013400 
#    y 0.000000 1.660420 0.000000 
#    z 0.013400 0.000000 1.736790 
# 
# From -- ./inp_files/280315.got.cif
#   From: 2010.06.25/outbox.cif.g09.slc.cpg/sg12_141_cif.got.tgz:280315.got - 2010.06.28 00:19:55.
