data_PCOD8090991
_publ_section_title
;
Structure prediction by ZEFSAII (Michael W. Deem and Ramdas Pophale) SiO2 
 PCOD8090991
Probable space group: C 2/M
;
_chemical_formula_sum "Si O2"
_cell_formula_units_Z 64
_cell_length_a 19.450434
_cell_length_b 18.807975
_cell_length_c 10.727301
_cell_angle_alpha 90.000000
_cell_angle_beta 121.624998
_cell_angle_gamma 90.000000
_cell_volume 3341.531474
_symmetry_space_group_name_H-M "C 2/M"
_symmetry_group_IT_number 12
_symmetry_cell_setting 'monoclinic'
loop_
_space_group_symop_operation_xyz
x,y,z
-x,y,-z
-x,-y,-z
x,-y,z
1/2+x,1/2+y,z
1/2-x,1/2+y,-z
1/2-x,1/2-y,-z
1/2+x,1/2-y,z
loop_
_atom_site_type_symbol
_atom_site_label
_atom_site_fract_x
_atom_site_fract_y
_atom_site_fract_z
Si Si1 0.833426 0.652590 0.375501
Si Si2 0.072718 0.418995 0.744575
Si Si3 0.719057 0.133336 0.031267
Si Si4 0.809576 0.081420 0.621693
Si Si5 0.070926 0.184590 0.155840
Si Si6 0.425755 0.172201 0.705696
Si Si7 0.792633 0.788700 0.906671
Si Si8 0.706368 0.082307 0.288004
O O1 0.903628 0.609184 0.370442
O O2 0.760857 0.599800 0.346534
O O3 0.871585 0.689628 0.533012
O O4 0.795248 0.711693 0.247075
O O5 0.043392 0.500000 0.704391
O O6 0.001978 0.374108 0.739729
O O7 0.149938 0.416300 0.908857
O O8 0.689314 0.215198 0.006471
O O9 0.743303 0.102768 0.188434
O O10 0.794169 0.142864 0.004475
O O11 0.893429 0.124092 0.719670
O O12 0.777659 0.098089 0.452779
O O13 0.832471 0.000000 0.661195
O O14 0.042801 0.253575 0.207494
O O15 0.142240 0.207522 0.136237
O O16 0.000000 0.154948 0.000000
O O17 0.372894 0.129000 0.757158
O O18 0.680334 0.000000 0.267582
#
# Coordination Sequence:
#
# PCOD8090991 Si02
#       8
#     8   8   8   8   8   8   8   8
#     4   9  20  35  57  82 108 147 192 229 277 319
#     4  11  22  35  52  80 121 158 187 223 268 329
#     4  10  19  34  54  77 108 148 192 223 273 322
#     4   9  20  37  59  85 108 139 189 240 282 329
#     4  11  22  37  58  82 112 143 183 232 285 333
#     4  11  22  33  54  81 117 154 188 223 270 333
#     4   9  19  35  56  78 105 142 186 241 268 316
#     4  10  20  34  55  83 114 149 187 227 274 330
#
# _framework density 19.152894
#
# number of rings (size 3 to 8) (size 9 to 14) (size 15 to 20)
#    0.000    2.000    1.250    2.250    1.750    3.750 
#    0.000    1.875    0.000    0.000    0.000    1.750 
#    0.000    0.000    0.000    0.000    0.000    0.000 
#
# Total GULP energy -396627.622419 kJ/mol
# GULP energy per Si atom -12394.613201 kJ/mol
# Density = 1.910930 g / cm^3
# Si number density = 19.152894 Si / 1000 Ang^3
#
#
#
# Elastic Constant Matrix: (Units=GPa)
#
#
# Indices 1 2 3 4 5 6 
#
# 1 55.0109 23.2551 24.1509 0.0000 -9.3724 0.0000
# 2 23.2551 73.2446 27.0870 0.0000 4.1065 0.0000
# 3 24.1509 27.0870 85.4557 0.0000 -13.0447 0.0000
# 4 0.0000 0.0000 0.0000 -137.8305 0.0000 -265.7713
# 5 -9.3724 4.1065 -13.0447 0.0000 31.1261 0.0000
# 6 0.0000 0.0000 0.0000 -265.7713 0.0000 -392.1857
#
#
#
# Elastic Compliance Matrix: (Units=1/GPa)
#
#
# Indices 1 2 3 4 5 6 
#
# 1 0.023627 -0.006523 -0.003624 0.000000 0.006456 0.000000
# 2 -0.006523 0.017845 -0.004778 0.000000 -0.006321 0.000000
# 3 -0.003624 -0.004778 0.015139 0.000000 0.005884 0.000000
# 4 0.000000 0.000000 0.000000 0.023655 0.000000 -0.016030
# 5 0.006456 -0.006321 0.005884 0.000000 0.037371 0.000000
# 6 0.000000 0.000000 0.000000 -0.016030 0.000000 0.008313
#
#
# Mechanical properties :
#
#
# Convention : Reuss Voigt Hill
#
# Bulk Modulus (GPa) = 37.36824 40.29971 38.83397
# Shear Modulus (GPa) = 30.35440 -90.49679 -30.07119
#
# Velocity S-wave (km/s) = 3.98533 -6.88130 -3.96670
# Velocity P-wave (km/s) = 6.38201 6.48457 0.81227
#
# Compressibility (1/GPa) = 0.02676070
#
# Stress axis : x y z
#
# Youngs Moduli (GPa) = 42.32483 56.03730 66.05579
#
# Poissons Ratio (x) = 0.36554 0.23939
# Poissons Ratio (y) = 0.27609 0.31560
# Poissons Ratio (z) = 0.15339 0.26773
#
# Static dielectric constant tensor:
#      x y z
#    x 3.662020 0.000000 0.123060 
#    y 0.000000 3.506990 0.000000 
#    z 0.123060 0.000000 4.517590 
# 
# 
# High freq. dielectric constant tensor:
#      x y z
#    x 1.733110 0.000000 -0.022720 
#    y 0.000000 1.732780 0.000000 
#    z -0.022720 0.000000 1.751770 
# 
# From -- ./inp_files/168805.got.cif
#   From: 2010.06.25/outbox.cif.g09.slc.cpg/sg12_85_cif.got.tgz:168805.got - 2010.06.28 00:19:55.
