data_PCOD8090209
_publ_section_title
;
Structure prediction by ZEFSAII (Michael W. Deem and Ramdas Pophale) SiO2 
 PCOD8090209
Probable space group: C 2/M
;
_chemical_formula_sum "Si O2"
_cell_formula_units_Z 64
_cell_length_a 14.599398
_cell_length_b 14.128745
_cell_length_c 23.694739
_cell_angle_alpha 90.000000
_cell_angle_beta 140.686206
_cell_angle_gamma 90.000000
_cell_volume 3096.585818
_symmetry_space_group_name_H-M "C 2/M"
_symmetry_group_IT_number 12
_symmetry_cell_setting 'monoclinic'
loop_
_space_group_symop_operation_xyz
x,y,z
-x,y,-z
-x,-y,-z
x,-y,z
1/2+x,1/2+y,z
1/2-x,1/2+y,-z
1/2-x,1/2-y,-z
1/2+x,1/2-y,z
loop_
_atom_site_type_symbol
_atom_site_label
_atom_site_fract_x
_atom_site_fract_y
_atom_site_fract_z
Si Si1 0.881464 0.108163 0.614900
Si Si2 0.844081 0.392636 0.129316
Si Si3 0.794895 0.278886 0.303302
Si Si4 0.366376 0.608467 0.064547
Si Si5 0.052842 0.892918 0.586327
Si Si6 0.508584 0.288075 0.230638
Si Si7 0.338426 0.606343 0.851812
Si Si8 0.442467 0.896358 0.534456
O O1 0.922674 0.114102 0.568855
O O2 0.991638 0.171195 0.705637
O O3 0.718367 0.147400 0.542018
O O4 0.889891 0.000000 0.640987
O O5 0.905768 0.500000 0.158208
O O6 0.703269 0.387331 0.102625
O O7 0.973556 0.324120 0.211909
O O8 0.784041 0.363573 0.038483
O O9 0.667697 0.315822 0.283542
O O10 0.751580 0.308601 0.219881
O O11 0.813141 0.167360 0.324738
O O12 0.952380 0.324054 0.385125
O O13 0.360971 0.500000 0.080082
O O14 0.386487 0.665145 0.132483
O O15 0.493735 0.626679 0.079790
O O16 0.000000 0.853560 0.500000
O O17 0.108963 0.000000 0.606047
O O18 0.298979 0.500000 0.809841
O O19 0.500000 0.910611 0.500000
O O20 0.441545 0.000000 0.564190
#
# Coordination Sequence:
#
# PCOD8090209 Si02
#       8
#     8   8   8   8   8   8   8   8
#     4  10  21  38  60  84 107 141 186 234 284 327
#     4  10  20  35  52  78 114 149 185 221 267 330
#     4  11  21  35  55  79 110 144 181 226 278 321
#     4   9  18  33  56  81 110 145 179 226 281 330
#     4  10  23  42  57  72 104 151 199 232 262 318
#     4  11  21  33  55  85 113 143 183 230 276 328
#     4   9  18  33  55  83 110 140 178 225 282 336
#     4  10  19  33  55  84 114 137 169 226 290 340
#
# _framework density 20.667923999999999
#
# number of rings (size 3 to 8) (size 9 to 14) (size 15 to 20)
#    0.000    2.000    1.250    2.625    0.000    3.500 
#    2.250    0.000    0.000    0.000    0.000    0.000 
#    0.000   18.000    0.000    0.000    0.000    0.000 
#
# Total GULP energy -396594.535820 kJ/mol
# GULP energy per Si atom -12393.579244 kJ/mol
# Density = 2.062088 g / cm^3
# Si number density = 20.667924 Si / 1000 Ang^3
#
#
#
# Elastic Constant Matrix: (Units=GPa)
#
#
# Indices 1 2 3 4 5 6 
#
# 1 57.8201 11.6777 29.4460 0.0000 -10.9319 0.0000
# 2 11.6777 96.1316 61.8774 0.0000 -4.2861 0.0000
# 3 29.4460 61.8774 106.0107 0.0000 -9.1470 0.0000
# 4 0.0000 0.0000 0.0000 42.5174 0.0000 0.9454
# 5 -10.9319 -4.2861 -9.1470 0.0000 24.1957 0.0000
# 6 0.0000 0.0000 0.0000 0.9454 0.0000 22.2551
#
#
#
# Elastic Compliance Matrix: (Units=1/GPa)
#
#
# Indices 1 2 3 4 5 6 
#
# 1 0.021648 0.001853 -0.006432 0.000000 0.007677 0.000000
# 2 0.001853 0.016834 -0.010349 0.000000 -0.000093 0.000000
# 3 -0.006432 -0.010349 0.017419 0.000000 0.001846 0.000000
# 4 0.000000 0.000000 0.000000 0.023542 0.000000 -0.001000
# 5 0.007677 -0.000093 0.001846 0.000000 0.045480 0.000000
# 6 0.000000 0.000000 0.000000 -0.001000 0.000000 0.044976
#
#
# Mechanical properties :
#
#
# Convention : Reuss Voigt Hill
#
# Bulk Modulus (GPa) = 38.39411 51.77384 45.08398
# Shear Modulus (GPa) = 23.98802 28.25774 26.12288
#
# Velocity S-wave (km/s) = 3.41051 3.70161 3.55904
# Velocity P-wave (km/s) = 5.84173 6.58589 6.22494
#
# Compressibility (1/GPa) = 0.02604566
#
# Stress axis : x y z
#
# Youngs Moduli (GPa) = 46.19363 59.40230 57.40764
#
# Poissons Ratio (x) = -0.11005 0.36925
# Poissons Ratio (y) = -0.08558 0.59409
# Poissons Ratio (z) = 0.29712 0.61474
#
# Static dielectric constant tensor:
#      x y z
#    x 3.525900 0.000000 0.030740 
#    y 0.000000 3.870000 0.000000 
#    z 0.030740 0.000000 3.929100 
# 
# 
# High freq. dielectric constant tensor:
#      x y z
#    x 1.789700 0.000000 -0.007580 
#    y 0.000000 1.810590 0.000000 
#    z -0.007580 0.000000 1.796850 
# 
# From -- ./inp_files/340186.got.cif
#   From: 2010.06.25/outbox.cif.g09.slc.cpg/sg12_171_cif.got.tgz:340186.got - 2010.06.28 00:19:55.
