data_PCOD8090749
_publ_section_title
;
Structure prediction by ZEFSAII (Michael W. Deem and Ramdas Pophale) SiO2 
 PCOD8090749
Probable space group: C 2/M
;
_chemical_formula_sum "Si O2"
_cell_formula_units_Z 60
_cell_length_a 23.070116
_cell_length_b 21.779442
_cell_length_c 12.688960
_cell_angle_alpha 90.000000
_cell_angle_beta 28.570053
_cell_angle_gamma 90.000000
_cell_volume 3049.032123
_symmetry_space_group_name_H-M "C 2/M"
_symmetry_group_IT_number 12
_symmetry_cell_setting 'monoclinic'
loop_
_space_group_symop_operation_xyz
x,y,z
-x,y,-z
-x,-y,-z
x,-y,z
1/2+x,1/2+y,z
1/2-x,1/2+y,-z
1/2-x,1/2-y,-z
1/2+x,1/2-y,z
loop_
_atom_site_type_symbol
_atom_site_label
_atom_site_fract_x
_atom_site_fract_y
_atom_site_fract_z
Si Si1 0.084768 0.430090 0.964210
Si Si2 0.797356 0.725654 0.034011
Si Si3 0.031733 0.679200 0.744706
Si Si4 0.214453 0.824501 0.771102
Si Si5 0.652844 0.432864 0.458448
Si Si6 0.108705 0.073216 0.081649
Si Si7 0.000000 0.759527 0.000000
Si Si8 0.632600 0.614298 0.275853
O O1 0.099625 0.500000 0.983804
O O2 0.026956 0.387876 0.146011
O O3 0.217641 0.402116 0.718952
O O4 0.000000 0.428897 0.000000
O O5 0.759834 0.773922 0.182156
O O6 0.731472 0.661901 0.160033
O O7 0.750000 0.750000 0.000000
O O8 0.943274 0.716049 0.805207
O O9 0.163025 0.667702 0.488827
O O10 0.042203 0.716001 0.837371
O O11 0.182203 0.890045 0.875612
O O12 0.110036 0.803449 0.857888
O O13 0.654684 0.500000 0.505525
O O14 0.531278 0.401607 0.700515
O O15 0.638677 0.439297 0.353800
O O16 0.161626 0.089089 0.113021
O O17 0.119475 0.000000 0.045016
O O18 0.500000 0.645370 0.500000
#
# Coordination Sequence:
#
# PCOD8090749 Si02
#       8
#     8   8   8   8   8   8   4   8
#     4  10  20  36  59  88 117 153 201 248 293 351
#     4  11  23  39  57  88 123 161 198 242 292 356
#     4  11  23  41  64  89 121 160 198 247 304 357
#     4  11  25  40  63  91 121 158 199 248 301 362
#     4   9  18  34  58  86 117 156 201 245 289 342
#     4  10  21  39  60  88 122 155 197 247 299 352
#     4  10  24  46  62  88 118 156 204 250 298 354
#     4  10  19  33  60  87 115 158 200 245 286 344
#
# _framework density 19.678376
#
# number of rings (size 3 to 8) (size 9 to 14) (size 15 to 20)
#    0.000    1.733    3.333    0.800    1.867    4.267 
#    0.000    0.333    0.000    0.800    0.000    0.000 
#    0.000    0.000    0.000    0.000    0.000    0.000 
#
# Total GULP energy -371752.405179 kJ/mol
# GULP energy per Si atom -12391.746839 kJ/mol
# Density = 1.963359 g / cm^3
# Si number density = 19.678376 Si / 1000 Ang^3
#
#
#
# Elastic Constant Matrix: (Units=GPa)
#
#
# Indices 1 2 3 4 5 6 
#
# 1 111.3443 32.6516 57.3976 0.0003 -10.7952 -0.0001
# 2 32.6516 99.8998 54.6320 0.0004 0.4234 -0.0001
# 3 57.3976 54.6320 158.3066 0.0011 -8.8578 -0.0003
# 4 0.0003 0.0004 0.0011 27.3194 -0.0005 -3.6382
# 5 -10.7952 0.4234 -8.8578 -0.0005 26.3295 0.0001
# 6 -0.0001 -0.0001 -0.0003 -3.6382 0.0001 24.0534
#
#
#
# Elastic Compliance Matrix: (Units=1/GPa)
#
#
# Indices 1 2 3 4 5 6 
#
# 1 0.011639 -0.002003 -0.003322 0.000000 0.003686 0.000000
# 2 -0.002003 0.012755 -0.003805 0.000000 -0.002306 0.000000
# 3 -0.003322 -0.003805 0.008930 0.000000 0.001703 0.000000
# 4 0.000000 0.000000 0.000000 0.037356 0.000001 0.005650
# 5 0.003686 -0.002306 0.001703 0.000001 0.040102 0.000000
# 6 0.000000 0.000000 0.000000 0.005650 0.000000 0.042429
#
#
# Mechanical properties :
#
#
# Convention : Reuss Voigt Hill
#
# Bulk Modulus (GPa) = 66.38461 73.21255 69.79858
# Shear Modulus (GPa) = 28.33002 30.53177 29.43090
#
# Velocity S-wave (km/s) = 3.79839 3.94323 3.87149
# Velocity P-wave (km/s) = 7.28321 7.61692 7.45193
#
# Compressibility (1/GPa) = 0.01506373
#
# Stress axis : x y z
#
# Youngs Moduli (GPa) = 85.92156 78.40031 111.98477
#
# Poissons Ratio (x) = 0.15701 0.37206
# Poissons Ratio (y) = 0.17207 0.42607
# Poissons Ratio (z) = 0.28547 0.29829
#
# Static dielectric constant tensor:
#      x y z
#    x 3.531430 0.000000 -0.213700 
#    y 0.000000 4.167860 0.000000 
#    z -0.213700 0.000000 3.577680 
# 
# 
# High freq. dielectric constant tensor:
#      x y z
#    x 1.771060 0.000000 -0.022980 
#    y 0.000000 1.764570 0.000000 
#    z -0.022980 0.000000 1.758420 
# 
# From -- ./inp_files/170384.got.cif
#   From: 2010.06.25/outbox.cif.g09.slc.cpg/sg12_86_cif.got.tgz:170384.got - 2010.06.28 00:19:55.
