data_PCOD8090498
_publ_section_title
;
Structure prediction by ZEFSAII (Michael W. Deem and Ramdas Pophale) SiO2 
 PCOD8090498
Probable space group: C 2/M
;
_chemical_formula_sum "Si O2"
_cell_formula_units_Z 36
_cell_length_a 13.586290
_cell_length_b 26.039179
_cell_length_c 8.643881
_cell_angle_alpha 90.000000
_cell_angle_beta 32.114983
_cell_angle_gamma 90.000000
_cell_volume 1625.692223
_symmetry_space_group_name_H-M "C 2/M"
_symmetry_group_IT_number 12
_symmetry_cell_setting 'monoclinic'
loop_
_space_group_symop_operation_xyz
x,y,z
-x,y,-z
-x,-y,-z
x,-y,z
1/2+x,1/2+y,z
1/2-x,1/2+y,-z
1/2-x,1/2-y,-z
1/2+x,1/2-y,z
loop_
_atom_site_type_symbol
_atom_site_label
_atom_site_fract_x
_atom_site_fract_y
_atom_site_fract_z
Si Si1 0.799145 0.796052 0.325010
Si Si2 0.149099 0.500000 0.163952
Si Si3 0.724351 0.107663 0.971790
Si Si4 0.000000 0.325710 0.500000
Si Si5 0.133392 0.890892 0.550953
Si Si6 0.444089 0.500000 0.249810
O O1 0.750000 0.750000 0.500000
O O2 0.663760 0.792449 0.356782
O O3 0.797035 0.851774 0.410705
O O4 0.000000 0.783176 0.000000
O O5 0.000000 0.500000 0.500000
O O6 0.128931 0.551513 0.091464
O O7 0.363855 0.500000 0.919082
O O8 0.758799 0.124068 0.749319
O O9 0.912502 0.112288 0.820546
O O10 0.574548 0.142580 0.254875
O O11 0.176783 0.949411 0.546721
O O12 0.500000 0.500000 0.000000
#
# Coordination Sequence:
#
# PCOD8090498 Si02
#       6
#     8   4   8   4   8   4
#     4  12  29  50  73 104 140 182 233 292 352 418
#     4  10  19  33  57 101 142 181 232 279 335 404
#     4  10  21  39  68 101 141 187 231 289 345 416
#     4  12  26  45  74 102 138 181 232 286 358 410
#     4  10  22  43  68 101 143 182 237 289 347 414
#     4  10  21  35  67  98 137 193 231 279 350 416
#
# _framework density 22.144411000000002
#
# number of rings (size 3 to 8) (size 9 to 14) (size 15 to 20)
#    0.000    1.333    3.333    1.333    6.222    5.333 
#    0.000    0.000    0.000    4.000    0.000    0.000 
#    0.000    0.000    0.000    0.000    0.000    0.000 
#
# Total GULP energy -223132.092724 kJ/mol
# GULP energy per Si atom -12396.227374 kJ/mol
# Density = 2.209401 g / cm^3
# Si number density = 22.144411 Si / 1000 Ang^3
#
#
#
# Elastic Constant Matrix: (Units=GPa)
#
#
# Indices 1 2 3 4 5 6 
#
# 1 112.1204 43.8559 38.7014 0.0000 -4.5007 0.0000
# 2 43.8559 126.3282 44.7300 0.0000 -2.5578 0.0000
# 3 38.7014 44.7300 139.2054 0.0000 7.9144 0.0000
# 4 0.0000 0.0000 0.0000 22.2749 0.0000 39.1512
# 5 -4.5007 -2.5578 7.9144 0.0000 31.8310 0.0000
# 6 0.0000 0.0000 0.0000 39.1512 0.0000 -39.2578
#
#
#
# Elastic Compliance Matrix: (Units=1/GPa)
#
#
# Indices 1 2 3 4 5 6 
#
# 1 0.010911 -0.002978 -0.002181 0.000000 0.001846 0.000000
# 2 -0.002978 0.009812 -0.002379 0.000000 0.000959 0.000000
# 3 -0.002181 -0.002379 0.008706 0.000000 -0.002664 0.000000
# 4 0.000000 0.000000 0.000000 0.016308 0.000000 0.016264
# 5 0.001846 0.000959 -0.002664 0.000000 0.032416 0.000000
# 6 0.000000 0.000000 0.000000 0.016264 0.000000 -0.009253
#
#
# Mechanical properties :
#
#
# Convention : Reuss Voigt Hill
#
# Bulk Modulus (GPa) = 69.68107 70.24764 69.96436
# Shear Modulus (GPa) = 56.33099 19.66072 37.99586
#
# Velocity S-wave (km/s) = 5.04908 2.98290 4.14674
# Velocity P-wave (km/s) = 8.09481 6.60719 7.38854
#
# Compressibility (1/GPa) = 0.01435110
#
# Stress axis : x y z
#
# Youngs Moduli (GPa) = 91.65128 101.92013 114.86199
#
# Poissons Ratio (x) = 0.30352 0.25056
# Poissons Ratio (y) = 0.27294 0.27329
# Poissons Ratio (z) = 0.19993 0.24250
#
# Static dielectric constant tensor:
#      x y z
#    x 3.870680 0.000000 0.000660 
#    y 0.000000 4.076070 0.000000 
#    z 0.000660 0.000000 4.077050 
# 
# 
# High freq. dielectric constant tensor:
#      x y z
#    x 1.863320 0.000000 0.003210 
#    y 0.000000 1.866460 0.000000 
#    z 0.003210 0.000000 1.887190 
# 
# From -- ./inp_files/67266.got.cif
#   From: 2010.06.25/outbox.cif.g09.slc.cpg/sg12_34_cif.got.tgz:67266.got - 2010.06.28 00:19:55.
