data_PCOD8090070
_publ_section_title
;
Structure prediction by ZEFSAII (Michael W. Deem and Ramdas Pophale) SiO2 
 PCOD8090070
Probable space group: C 2/M
;
_chemical_formula_sum "Si O2"
_cell_formula_units_Z 48
_cell_length_a 29.257128
_cell_length_b 8.738322
_cell_length_c 10.287178
_cell_angle_alpha 90.000000
_cell_angle_beta 80.588527
_cell_angle_gamma 90.000000
_cell_volume 2594.600165
_symmetry_space_group_name_H-M "C 2/M"
_symmetry_group_IT_number 12
_symmetry_cell_setting 'monoclinic'
loop_
_space_group_symop_operation_xyz
x,y,z
-x,y,-z
-x,-y,-z
x,-y,z
1/2+x,1/2+y,z
1/2-x,1/2+y,-z
1/2-x,1/2-y,-z
1/2+x,1/2-y,z
loop_
_atom_site_type_symbol
_atom_site_label
_atom_site_fract_x
_atom_site_fract_y
_atom_site_fract_z
Si Si1 0.886898 0.175355 0.830008
Si Si2 0.880298 0.822634 0.536175
Si Si3 0.281838 0.681683 0.873796
Si Si4 0.031024 0.680498 0.607536
Si Si5 0.782432 0.680991 0.594599
Si Si6 0.475987 0.819380 0.882920
O O1 0.898245 0.205088 0.673881
O O2 0.834525 0.228376 0.884160
O O3 0.922391 0.270527 0.901314
O O4 0.893565 0.000000 0.864389
O O5 0.919905 0.766516 0.419930
O O6 0.834680 0.723802 0.532021
O O7 0.868265 0.000000 0.518062
O O8 0.276336 0.500000 0.868067
O O9 0.267844 0.750323 0.740937
O O10 0.250000 0.750000 0.000000
O O11 0.040283 0.500000 0.606992
O O12 0.000000 0.727747 0.500000
O O13 0.004746 0.742123 0.746727
O O14 0.776615 0.500000 0.602811
O O15 0.750000 0.750000 0.500000
O O16 0.477325 0.000000 0.885131
O O17 0.500000 0.750153 0.000000
#
# Coordination Sequence:
#
# PCOD8090070 Si02
#       6
#     8   8   8   8   8   8
#     4   9  19  35  56  80 109 143 185 230 274 331
#     4  10  20  35  57  85 112 144 188 233 281 337
#     4  10  21  39  61  88 116 151 195 239 287 346
#     4  10  19  33  55  81 107 141 188 232 273 333
#     4  11  22  39  62  87 118 152 188 238 293 347
#     4  10  21  36  53  77 110 145 182 227 280 332
#
# _framework density 18.499960000000002
#
# number of rings (size 3 to 8) (size 9 to 14) (size 15 to 20)
#    0.000    2.000    1.667    3.500    0.000    4.667 
#    3.000    0.000    0.000    0.000    0.000    0.000 
#    0.000    0.000    0.000    0.000    0.000    0.000 
#
# Total GULP energy -297652.962885 kJ/mol
# GULP energy per Si atom -12402.206787 kJ/mol
# Density = 1.845785 g / cm^3
# Si number density = 18.499960 Si / 1000 Ang^3
#
#
#
# Elastic Constant Matrix: (Units=GPa)
#
#
# Indices 1 2 3 4 5 6 
#
# 1 122.2035 48.1913 86.3761 0.0000 1.2406 0.0000
# 2 48.1913 81.0118 48.3812 0.0000 1.2502 0.0000
# 3 86.3761 48.3812 137.4835 0.0000 -1.6274 0.0000
# 4 0.0000 0.0000 0.0000 24.7207 0.0000 -2.3901
# 5 1.2406 1.2502 -1.6274 0.0000 34.5470 0.0000
# 6 0.0000 0.0000 0.0000 -2.3901 0.0000 35.9811
#
#
#
# Elastic Compliance Matrix: (Units=1/GPa)
#
#
# Indices 1 2 3 4 5 6 
#
# 1 0.015899 -0.004398 -0.008450 0.000000 -0.000810 0.000000
# 2 -0.004398 0.016869 -0.003180 0.000000 -0.000602 0.000000
# 3 -0.008450 -0.003180 0.013714 0.000000 0.001065 0.000000
# 4 0.000000 0.000000 0.000000 0.040713 0.000000 0.002704
# 5 -0.000810 -0.000602 0.001065 0.000000 0.029047 0.000000
# 6 0.000000 0.000000 0.000000 0.002704 0.000000 0.027972
#
#
# Mechanical properties :
#
#
# Convention : Reuss Voigt Hill
#
# Bulk Modulus (GPa) = 69.32758 78.51066 73.91912
# Shear Modulus (GPa) = 27.61210 29.56644 28.58927
#
# Velocity S-wave (km/s) = 3.86754 4.00207 3.93538
# Velocity P-wave (km/s) = 7.58285 7.99286 7.79056
#
# Compressibility (1/GPa) = 0.01442427
#
# Stress axis : x y z
#
# Youngs Moduli (GPa) = 62.89802 59.28108 72.91653
#
# Poissons Ratio (x) = 0.26075 0.61617
# Poissons Ratio (y) = 0.27666 0.23187
# Poissons Ratio (z) = 0.53151 0.18851
#
# Static dielectric constant tensor:
#      x y z
#    x 3.436480 0.000000 -0.026430 
#    y 0.000000 3.341850 0.000000 
#    z -0.026430 0.000000 3.468080 
# 
# 
# High freq. dielectric constant tensor:
#      x y z
#    x 1.723740 0.000000 -0.006110 
#    y 0.000000 1.719460 0.000000 
#    z -0.006110 0.000000 1.707840 
# 
# From -- ./inp_files/172082.got.cif
#   From: 2010.06.25/outbox.cif.g09.slc.cpg/sg12_87_cif.got.tgz:172082.got - 2010.06.28 00:19:55.
