data_PCOD8090404
_publ_section_title
;
Structure prediction by ZEFSAII (Michael W. Deem and Ramdas Pophale) SiO2 
 PCOD8090404
Probable space group: C 2/M
;
_chemical_formula_sum "Si O2"
_cell_formula_units_Z 56
_cell_length_a 17.848025
_cell_length_b 8.852640
_cell_length_c 18.693368
_cell_angle_alpha 90.000000
_cell_angle_beta 76.520970
_cell_angle_gamma 90.000000
_cell_volume 2872.236325
_symmetry_space_group_name_H-M "C 2/M"
_symmetry_group_IT_number 12
_symmetry_cell_setting 'monoclinic'
loop_
_space_group_symop_operation_xyz
x,y,z
-x,y,-z
-x,-y,-z
x,-y,z
1/2+x,1/2+y,z
1/2-x,1/2+y,-z
1/2-x,1/2-y,-z
1/2+x,1/2-y,z
loop_
_atom_site_type_symbol
_atom_site_label
_atom_site_fract_x
_atom_site_fract_y
_atom_site_fract_z
Si Si1 0.829063 0.173977 0.998361
Si Si2 0.211835 0.823520 0.842371
Si Si3 0.991541 0.322061 0.706443
Si Si4 0.152829 0.821884 0.702417
Si Si5 0.874817 0.822063 0.839423
Si Si6 0.443115 0.672490 0.574423
Si Si7 0.267940 0.673565 0.570580
O O1 0.847826 0.210468 0.077663
O O2 0.813115 0.000000 0.992056
O O3 0.750000 0.250000 0.000000
O O4 0.888192 0.219920 0.921476
O O5 0.165772 0.775753 0.782034
O O6 0.290692 0.729711 0.831199
O O7 0.234625 0.000000 0.834995
O O8 0.997362 0.500000 0.710128
O O9 0.076318 0.253612 0.689687
O O10 0.942004 0.262943 0.783620
O O11 0.950990 0.276657 0.641798
O O12 0.225430 0.762328 0.642656
O O13 0.145632 0.000000 0.693910
O O14 0.882689 0.000000 0.822902
O O15 0.500000 0.731318 0.500000
O O16 0.463110 0.500000 0.591051
O O17 0.358005 0.687155 0.563500
O O18 0.240626 0.500000 0.575522
O O19 0.250000 0.750000 0.500000
#
# Coordination Sequence:
#
# PCOD8090404 Si02
#       7
#     8   8   8   8   8   8   8
#     4   8  15  29  51  80 110 142 182 227 276 330
#     4   9  18  34  57  84 112 144 186 233 279 331
#     4  12  25  39  57  81 112 149 190 235 279 330
#     4  11  23  39  58  80 112 151 189 233 283 333
#     4  10  19  33  56  83 113 148 185 229 281 335
#     4  10  22  41  64  89 117 148 182 223 273 328
#     4  11  23  39  62  90 119 150 185 226 271 325
#
# _framework density 19.497002999999999
#
# number of rings (size 3 to 8) (size 9 to 14) (size 15 to 20)
#    0.000    1.857    0.000    4.286    0.000    6.571 
#    0.000    0.714    0.000    4.286    0.000    0.000 
#    0.000    0.000    0.000    0.000    0.000    0.000 
#
# Total GULP energy -347079.313204 kJ/mol
# GULP energy per Si atom -12395.689757 kJ/mol
# Density = 1.945263 g / cm^3
# Si number density = 19.497003 Si / 1000 Ang^3
#
#
#
# Elastic Constant Matrix: (Units=GPa)
#
#
# Indices 1 2 3 4 5 6 
#
# 1 65.5725 32.1519 37.5289 0.0000 -1.2705 0.0000
# 2 32.1519 96.1624 55.0488 0.0000 1.0752 0.0000
# 3 37.5289 55.0488 160.0804 0.0000 1.2210 0.0000
# 4 0.0000 0.0000 0.0000 24.5147 0.0000 -1.8772
# 5 -1.2705 1.0752 1.2210 0.0000 33.0021 0.0000
# 6 0.0000 0.0000 0.0000 -1.8772 0.0000 27.2479
#
#
#
# Elastic Compliance Matrix: (Units=1/GPa)
#
#
# Indices 1 2 3 4 5 6 
#
# 1 0.019272 -0.004811 -0.002871 0.000000 0.001005 0.000000
# 2 -0.004811 0.014151 -0.003735 0.000000 -0.000508 0.000000
# 3 -0.002871 -0.003735 0.008206 0.000000 -0.000292 0.000000
# 4 0.000000 0.000000 0.000000 0.041008 0.000000 0.002825
# 5 0.001005 -0.000508 -0.000292 0.000000 0.030367 0.000000
# 6 0.000000 0.000000 0.000000 0.002825 0.000000 0.036895
#
#
# Mechanical properties :
#
#
# Convention : Reuss Voigt Hill
#
# Bulk Modulus (GPa) = 53.20343 63.47495 58.33919
# Shear Modulus (GPa) = 27.93309 30.09200 29.01255
#
# Velocity S-wave (km/s) = 3.78919 3.93290 3.86171
# Velocity P-wave (km/s) = 6.81845 7.29729 7.06193
#
# Compressibility (1/GPa) = 0.01879578
#
# Stress axis : x y z
#
# Youngs Moduli (GPa) = 51.88836 70.66511 121.85483
#
# Poissons Ratio (x) = 0.33998 0.34988
# Poissons Ratio (y) = 0.24964 0.45508
# Poissons Ratio (z) = 0.14899 0.26390
#
# Static dielectric constant tensor:
#      x y z
#    x 3.368340 0.000000 -0.002900 
#    y 0.000000 3.689370 0.000000 
#    z -0.002900 0.000000 4.353550 
# 
# 
# High freq. dielectric constant tensor:
#      x y z
#    x 1.737610 0.000000 0.000270 
#    y 0.000000 1.764820 0.000000 
#    z 0.000270 0.000000 1.788430 
# 
# From -- ./inp_files/275132.got.cif
#   From: 2010.06.25/outbox.cif.g09.slc.cpg/sg12_138_cif.got.tgz:275132.got - 2010.06.28 00:19:55.
