data_PCOD8090432
_publ_section_title
;
Structure prediction by ZEFSAII (Michael W. Deem and Ramdas Pophale) SiO2 
 PCOD8090432
Probable space group: C 2/M
;
_chemical_formula_sum "Si O2"
_cell_formula_units_Z 48
_cell_length_a 27.704205
_cell_length_b 9.241114
_cell_length_c 10.075034
_cell_angle_alpha 90.000000
_cell_angle_beta 89.798563
_cell_angle_gamma 90.000000
_cell_volume 2579.371259
_symmetry_space_group_name_H-M "C 2/M"
_symmetry_group_IT_number 12
_symmetry_cell_setting 'monoclinic'
loop_
_space_group_symop_operation_xyz
x,y,z
-x,y,-z
-x,-y,-z
x,-y,z
1/2+x,1/2+y,z
1/2-x,1/2+y,-z
1/2-x,1/2-y,-z
1/2+x,1/2-y,z
loop_
_atom_site_type_symbol
_atom_site_label
_atom_site_fract_x
_atom_site_fract_y
_atom_site_fract_z
Si Si1 0.388389 0.167585 0.727296
Si Si2 0.203014 0.167070 0.648781
Si Si3 0.297681 0.331191 0.658531
Si Si4 0.555279 0.165328 0.534418
Si Si5 0.555383 0.168197 0.008062
Si Si6 0.899040 0.830016 0.230630
O O1 0.339867 0.260452 0.746185
O O2 0.413794 0.216439 0.591529
O O3 0.425674 0.199280 0.844757
O O4 0.373761 0.000000 0.723872
O O5 0.246731 0.263517 0.703274
O O6 0.192107 0.204135 0.495639
O O7 0.156308 0.207096 0.735088
O O8 0.217616 0.000000 0.663442
O O9 0.296201 0.500000 0.689145
O O10 0.500000 0.183563 0.500000
O O11 0.566008 0.266805 0.658097
O O12 0.567289 0.000000 0.572884
O O13 0.559415 0.000000 0.969174
O O14 0.500000 0.220157 0.000000
O O15 0.588682 0.259578 0.909695
O O16 0.907863 0.000000 0.223391
#
# Coordination Sequence:
#
# PCOD8090432 Si02
#       6
#     8   8   8   8   8   8
#     4  10  20  35  57  83 112 148 188 234 284 332
#     4   9  19  35  54  81 116 148 182 228 282 338
#     4  10  19  33  56  84 114 146 184 232 283 337
#     4  10  20  35  57  83 110 145 190 235 279 333
#     4  10  22  41  61  81 112 154 197 235 275 333
#     4  11  22  37  57  85 117 148 184 233 288 337
#
# _framework density 18.609186000000001
#
# number of rings (size 3 to 8) (size 9 to 14) (size 15 to 20)
#    0.000    2.000    1.667    2.000    0.000    6.000 
#    0.000    2.500    0.000    0.000    0.000    0.000 
#    0.000    0.000    0.000    0.000    0.000    0.000 
#
# Total GULP energy -297713.732731 kJ/mol
# GULP energy per Si atom -12404.738864 kJ/mol
# Density = 1.856683 g / cm^3
# Si number density = 18.609186 Si / 1000 Ang^3
#
#
#
# Elastic Constant Matrix: (Units=GPa)
#
#
# Indices 1 2 3 4 5 6 
#
# 1 111.5879 50.3221 23.8167 0.0000 3.7354 0.0000
# 2 50.3221 71.5318 24.4106 0.0000 0.6198 0.0000
# 3 23.8167 24.4106 42.2929 0.0000 -0.5284 0.0000
# 4 0.0000 0.0000 0.0000 29.5089 0.0000 -2.2612
# 5 3.7354 0.6198 -0.5284 0.0000 31.1848 0.0000
# 6 0.0000 0.0000 0.0000 -2.2612 0.0000 27.0660
#
#
#
# Elastic Compliance Matrix: (Units=1/GPa)
#
#
# Indices 1 2 3 4 5 6 
#
# 1 0.013422 -0.008522 -0.002658 0.000000 -0.001483 0.000000
# 2 -0.008522 0.022828 -0.008372 0.000000 0.000425 0.000000
# 3 -0.002658 -0.008372 0.029986 0.000000 0.000993 0.000000
# 4 0.000000 0.000000 0.000000 0.034106 0.000000 0.002849
# 5 -0.001483 0.000425 0.000993 0.000000 0.032253 0.000000
# 6 0.000000 0.000000 0.000000 0.002849 0.000000 0.037185
#
#
# Mechanical properties :
#
#
# Convention : Reuss Voigt Hill
#
# Bulk Modulus (GPa) = 36.85641 46.94570 41.90106
# Shear Modulus (GPa) = 22.94344 26.00949 24.47647
#
# Velocity S-wave (km/s) = 3.51509 3.74260 3.63063
# Velocity P-wave (km/s) = 6.02685 6.63008 6.33565
#
# Compressibility (1/GPa) = 0.02713232
#
# Stress axis : x y z
#
# Youngs Moduli (GPa) = 74.50635 43.80539 33.34919
#
# Poissons Ratio (x) = 0.37332 0.08864
# Poissons Ratio (y) = 0.63495 0.27918
# Poissons Ratio (z) = 0.19803 0.36672
#
# Static dielectric constant tensor:
#      x y z
#    x 3.498510 0.000000 -0.061430 
#    y 0.000000 3.431900 0.000000 
#    z -0.061430 0.000000 3.264030 
# 
# 
# High freq. dielectric constant tensor:
#      x y z
#    x 1.734210 0.000000 -0.000310 
#    y 0.000000 1.721490 0.000000 
#    z -0.000310 0.000000 1.705460 
# 
# From -- ./inp_files/108679.got.cif
#   From: 2010.06.25/outbox.cif.g09.slc.cpg/sg12_55_cif.got.tgz:108679.got - 2010.06.28 00:19:55.
