data_PCOD8090829
_publ_section_title
;
Structure prediction by ZEFSAII (Michael W. Deem and Ramdas Pophale) SiO2 
 PCOD8090829
Probable space group: C 2/M
;
_chemical_formula_sum "Si O2"
_cell_formula_units_Z 64
_cell_length_a 24.268854
_cell_length_b 8.607705
_cell_length_c 22.065711
_cell_angle_alpha 90.000000
_cell_angle_beta 46.294438
_cell_angle_gamma 90.000000
_cell_volume 3332.213651
_symmetry_space_group_name_H-M "C 2/M"
_symmetry_group_IT_number 12
_symmetry_cell_setting 'monoclinic'
loop_
_space_group_symop_operation_xyz
x,y,z
-x,y,-z
-x,-y,-z
x,-y,z
1/2+x,1/2+y,z
1/2-x,1/2+y,-z
1/2-x,1/2-y,-z
1/2+x,1/2-y,z
loop_
_atom_site_type_symbol
_atom_site_label
_atom_site_fract_x
_atom_site_fract_y
_atom_site_fract_z
Si Si1 0.992560 0.185087 0.101887
Si Si2 0.295180 0.317054 0.623151
Si Si3 0.537921 0.316237 0.530826
Si Si4 0.199578 0.817377 0.592454
Si Si5 0.032098 0.184288 0.745849
Si Si6 0.072493 0.816364 0.281478
Si Si7 0.785441 0.316699 0.763676
Si Si8 0.118131 0.184036 0.917227
O O1 0.982352 0.257129 0.176616
O O2 0.922979 0.244682 0.112773
O O3 0.992229 0.000000 0.105919
O O4 0.072302 0.243795 0.011440
O O5 0.281223 0.500000 0.629686
O O6 0.374193 0.267013 0.531112
O O7 0.229717 0.229217 0.636073
O O8 0.299267 0.268500 0.689862
O O9 0.500000 0.241018 0.500000
O O10 0.531968 0.500000 0.531317
O O11 0.491841 0.255327 0.623443
O O12 0.250000 0.750000 0.500000
O O13 0.112090 0.756082 0.656260
O O14 0.202266 0.000000 0.583010
O O15 0.959625 0.231784 0.759886
O O16 0.037853 0.000000 0.745868
O O17 0.151254 0.729338 0.235111
O O18 0.086141 0.000000 0.276980
O O19 0.785685 0.500000 0.752163
O O20 0.705056 0.257806 0.852269
O O21 0.114787 0.000000 0.919144
#
# Coordination Sequence:
#
# PCOD8090829 Si02
#       8
#     8   8   8   8   8   8   8   8
#     4   8  13  27  50  76  98 128 171 213 254 305
#     4  11  21  35  56  79 103 136 176 220 264 309
#     4   9  16  30  50  68  92 132 176 211 246 299
#     4  11  22  37  55  80 110 140 173 216 264 311
#     4   9  18  32  53  75 101 137 180 219 253 303
#     4  10  19  34  52  71  96 135 180 217 253 304
#     4  11  21  33  49  77 109 135 165 214 269 314
#     4   8  15  27  48  75 105 130 160 211 266 311
#
# _framework density 19.206451000000001
#
# number of rings (size 3 to 8) (size 9 to 14) (size 15 to 20)
#    0.000    2.375    1.250    3.375    0.000    4.000 
#    0.000    5.000    0.000    0.000    0.000   19.250 
#    0.000    0.000    0.000    0.000    0.000    0.000 
#
# Total GULP energy -396668.079386 kJ/mol
# GULP energy per Si atom -12395.877481 kJ/mol
# Density = 1.916274 g / cm^3
# Si number density = 19.206451 Si / 1000 Ang^3
#
#
#
# Elastic Constant Matrix: (Units=GPa)
#
#
# Indices 1 2 3 4 5 6 
#
# 1 135.1298 14.6540 74.4145 0.0000 -8.3191 -0.0001
# 2 14.6540 27.8489 18.1172 -0.0007 -5.3842 -0.0004
# 3 74.4145 18.1172 148.0639 -0.0015 -6.5245 0.0005
# 4 0.0000 -0.0007 -0.0015 12.1336 0.0001 -0.7995
# 5 -8.3191 -5.3842 -6.5245 0.0001 38.3573 0.0001
# 6 -0.0001 -0.0004 0.0005 -0.7995 0.0001 26.9941
#
#
#
# Elastic Compliance Matrix: (Units=1/GPa)
#
#
# Indices 1 2 3 4 5 6 
#
# 1 0.010407 -0.002051 -0.004930 -0.000001 0.001131 0.000000
# 2 -0.002051 0.040277 -0.003696 0.000002 0.004580 0.000001
# 3 -0.004930 -0.003696 0.009686 0.000001 0.000060 0.000000
# 4 -0.000001 0.000002 0.000001 0.082577 0.000000 0.002446
# 5 0.001131 0.004580 0.000060 0.000000 0.026969 0.000000
# 6 0.000000 0.000001 0.000000 0.002446 0.000000 0.037118
#
#
# Mechanical properties :
#
#
# Convention : Reuss Voigt Hill
#
# Bulk Modulus (GPa) = 25.62919 58.37934 42.00427
# Shear Modulus (GPa) = 20.71320 29.08746 24.90033
#
# Velocity S-wave (km/s) = 3.28754 3.89583 3.60454
# Velocity P-wave (km/s) = 5.27101 7.12028 6.26426
#
# Compressibility (1/GPa) = 0.03901801
#
# Stress axis : x y z
#
# Youngs Moduli (GPa) = 96.08939 24.82812 103.23898
#
# Poissons Ratio (x) = 0.05091 0.50893
# Poissons Ratio (y) = 0.19703 0.38156
# Poissons Ratio (z) = 0.47369 0.09176
#
# Static dielectric constant tensor:
#      x y z
#    x 3.698730 0.000000 -0.107570 
#    y 0.000000 3.052980 0.000000 
#    z -0.107570 0.000000 3.854800 
# 
# 
# High freq. dielectric constant tensor:
#      x y z
#    x 1.753820 0.000000 -0.004290 
#    y 0.000000 1.698560 0.000000 
#    z -0.004290 0.000000 1.749950 
# 
# From -- ./inp_files/324168.got.cif
#   From: 2010.06.25/outbox.cif.g09.slc.cpg/sg12_163_cif.got.tgz:324168.got - 2010.06.28 00:19:55.
