data_PCOD8090531
_publ_section_title
;
Structure prediction by ZEFSAII (Michael W. Deem and Ramdas Pophale) SiO2 
 PCOD8090531
Probable space group: C 2/M
;
_chemical_formula_sum "Si O2"
_cell_formula_units_Z 64
_cell_length_a 20.124141
_cell_length_b 17.470437
_cell_length_c 25.306873
_cell_angle_alpha 90.000000
_cell_angle_beta 157.472524
_cell_angle_gamma 90.000000
_cell_volume 3408.801563
_symmetry_space_group_name_H-M "C 2/M"
_symmetry_group_IT_number 12
_symmetry_cell_setting 'monoclinic'
loop_
_space_group_symop_operation_xyz
x,y,z
-x,y,-z
-x,-y,-z
x,-y,z
1/2+x,1/2+y,z
1/2-x,1/2+y,-z
1/2-x,1/2-y,-z
1/2+x,1/2-y,z
loop_
_atom_site_type_symbol
_atom_site_label
_atom_site_fract_x
_atom_site_fract_y
_atom_site_fract_z
Si Si1 0.463996 0.332737 0.600906
Si Si2 0.177771 0.823822 0.662010
Si Si3 0.502926 0.845250 0.359843
Si Si4 0.830227 0.651158 0.340191
Si Si5 0.340893 0.911680 0.139457
Si Si6 0.377338 0.589491 0.640299
Si Si7 0.675729 0.087690 0.320284
Si Si8 0.016153 0.088257 0.168389
O O1 0.634806 0.350548 0.690558
O O2 0.438730 0.242141 0.589230
O O3 0.489319 0.370741 0.676497
O O4 0.291164 0.364656 0.446250
O O5 0.245839 0.737068 0.711858
O O6 0.313388 0.878705 0.731551
O O7 0.000000 0.827858 0.500000
O O8 0.379313 0.871792 0.316784
O O9 0.395996 0.857465 0.227980
O O10 0.673607 0.896924 0.482937
O O11 0.677061 0.596615 0.246921
O O12 0.000000 0.639611 0.500000
O O13 0.477049 0.905844 0.191647
O O14 0.324575 0.000000 0.146687
O O15 0.159216 0.876927 0.985074
O O16 0.413157 0.500000 0.663091
O O17 0.438979 0.625282 0.741585
O O18 0.740577 0.000000 0.367708
O O19 0.980230 0.000000 0.151896
#
# Coordination Sequence:
#
# PCOD8090531 Si02
#       8
#     8   8   8   8   8   8   8   8
#     4  10  20  33  55  85 113 140 182 235 280 319
#     4   8  18  32  52  81 112 143 177 228 283 324
#     4  11  21  35  59  81 108 148 186 225 280 332
#     4  10  19  36  56  79 112 146 184 232 279 326
#     4  10  22  39  55  81 115 148 186 230 277 333
#     4  11  21  34  55  82 110 143 184 230 273 326
#     4  10  19  33  57  83 113 150 185 226 280 332
#     4  10  23  38  55  80 113 149 189 231 277 331
#
# _framework density 18.774927000000002
#
# number of rings (size 3 to 8) (size 9 to 14) (size 15 to 20)
#    0.000    2.000    2.500    1.875    0.000    4.500 
#    0.000    3.750    0.000    2.250    0.000    3.500 
#    0.000    0.000    0.000    0.750    0.000    0.000 
#
# Total GULP energy -396789.593958 kJ/mol
# GULP energy per Si atom -12399.674811 kJ/mol
# Density = 1.873219 g / cm^3
# Si number density = 18.774927 Si / 1000 Ang^3
#
#
#
# Elastic Constant Matrix: (Units=GPa)
#
#
# Indices 1 2 3 4 5 6 
#
# 1 139.3165 28.5863 42.8322 -0.0070 -1.3175 0.0066
# 2 28.5863 45.4173 18.6616 -0.0708 1.4749 -0.0195
# 3 42.8322 18.6616 98.2619 -0.0157 -4.5852 -0.0270
# 4 -0.0070 -0.0708 -0.0157 7.8507 -0.0343 -0.6006
# 5 -1.3175 1.4749 -4.5852 -0.0343 20.5146 -0.0052
# 6 0.0066 -0.0195 -0.0270 -0.6006 -0.0052 34.8978
#
#
#
# Elastic Compliance Matrix: (Units=1/GPa)
#
#
# Indices 1 2 3 4 5 6 
#
# 1 0.009038 -0.004426 -0.003089 -0.000038 0.000208 -0.000007
# 2 -0.004426 0.026205 -0.003182 0.000215 -0.002879 0.000016
# 3 -0.003089 -0.003182 0.012257 0.000006 0.002770 0.000009
# 4 -0.000038 0.000215 0.000006 0.127548 0.000197 0.002195
# 5 0.000208 -0.002879 0.002770 0.000197 0.049586 0.000011
# 6 -0.000007 0.000016 0.000009 0.002195 0.000011 0.028693
#
#
# Mechanical properties :
#
#
# Convention : Reuss Voigt Hill
#
# Bulk Modulus (GPa) = 38.30582 51.46178 44.88380
# Shear Modulus (GPa) = 17.64151 25.51366 21.57758
#
# Velocity S-wave (km/s) = 3.06867 3.69036 3.39378
# Velocity P-wave (km/s) = 5.74478 6.75482 6.27018
#
# Compressibility (1/GPa) = 0.02610570
#
# Stress axis : x y z
#
# Youngs Moduli (GPa) = 110.64615 38.16064 81.58578
#
# Poissons Ratio (x) = 0.16890 0.25204
# Poissons Ratio (y) = 0.48972 0.25959
# Poissons Ratio (z) = 0.34182 0.12142
#
# Static dielectric constant tensor:
#      x y z
#    x 3.947070 -0.000020 -0.022170 
#    y -0.000020 3.385650 -0.000090 
#    z -0.022170 -0.000090 3.200560 
# 
# 
# High freq. dielectric constant tensor:
#      x y z
#    x 1.749350 0.000000 0.004970 
#    y 0.000000 1.723290 -0.000010 
#    z 0.004970 -0.000010 1.692260 
# 
# From -- ./inp_files/366842.got.cif
#   From: 2010.06.25/outbox.cif.g09.slc.cpg/sg12_184_cif.got.tgz:366842.got - 2010.06.28 00:19:55.
