data_PCOD8090876
_publ_section_title
;
Structure prediction by ZEFSAII (Michael W. Deem and Ramdas Pophale) SiO2 
 PCOD8090876
Probable space group: C 2/M
;
_chemical_formula_sum "Si O2"
_cell_formula_units_Z 64
_cell_length_a 18.176690
_cell_length_b 12.430757
_cell_length_c 15.460319
_cell_angle_alpha 90.000000
_cell_angle_beta 94.579780
_cell_angle_gamma 90.000000
_cell_volume 3482.105771
_symmetry_space_group_name_H-M "C 2/M"
_symmetry_group_IT_number 12
_symmetry_cell_setting 'monoclinic'
loop_
_space_group_symop_operation_xyz
x,y,z
-x,y,-z
-x,-y,-z
x,-y,z
1/2+x,1/2+y,z
1/2-x,1/2+y,-z
1/2-x,1/2-y,-z
1/2+x,1/2-y,z
loop_
_atom_site_type_symbol
_atom_site_label
_atom_site_fract_x
_atom_site_fract_y
_atom_site_fract_z
Si Si1 0.415192 0.122824 0.489939
Si Si2 0.828063 0.758818 0.117966
Si Si3 0.479368 0.624775 0.097639
Si Si4 0.688324 0.125049 0.049904
Si Si5 0.783472 0.737378 0.409023
Si Si6 0.166371 0.380142 0.335882
Si Si7 0.881581 0.766509 0.820390
Si Si8 0.758817 0.378997 0.244678
O O1 0.500000 0.160261 0.500000
O O2 0.370943 0.210163 0.426035
O O3 0.379989 0.125455 0.580982
O O4 0.409236 0.000000 0.452480
O O5 0.907487 0.809202 0.115098
O O6 0.768178 0.853430 0.100178
O O7 0.820165 0.703325 0.211704
O O8 0.812804 0.663245 0.048835
O O9 0.466508 0.500000 0.116895
O O10 0.542108 0.670245 0.166677
O O11 0.500000 0.642486 0.000000
O O12 0.626424 0.190654 0.096655
O O13 0.669572 0.000000 0.052347
O O14 0.750000 0.750000 0.500000
O O15 0.752906 0.844062 0.356604
O O16 0.750519 0.639780 0.347591
O O17 0.169245 0.500000 0.298399
O O18 0.122118 0.305651 0.265600
O O19 0.817741 0.856637 0.812288
O O20 0.783472 0.500000 0.229153
#
# Coordination Sequence:
#
# PCOD8090876 Si02
#       8
#     8   8   8   8   8   8   8   8
#     4   9  17  30  51  79 109 140 175 218 276 331
#     4  10  21  35  52  80 106 139 184 224 271 331
#     4  11  22  38  57  77 106 144 184 228 277 330
#     4  10  19  34  53  73 104 142 180 226 272 319
#     4   9  18  33  54  80 109 142 183 223 264 327
#     4   9  18  33  53  76 104 143 183 226 273 320
#     4  10  20  35  54  79 105 138 186 228 270 329
#     4  10  20  35  57  82 109 140 181 233 277 318
#
# _framework density 18.379683
#
# number of rings (size 3 to 8) (size 9 to 14) (size 15 to 20)
#    0.000    2.250    1.250    1.875    0.000    1.500 
#    0.000    5.000    0.000    0.375    0.000    0.000 
#    0.000    0.000    0.000    0.000    0.000    0.000 
#
# Total GULP energy -396531.583531 kJ/mol
# GULP energy per Si atom -12391.611985 kJ/mol
# Density = 1.833785 g / cm^3
# Si number density = 18.379683 Si / 1000 Ang^3
#
#
#
# Elastic Constant Matrix: (Units=GPa)
#
#
# Indices 1 2 3 4 5 6 
#
# 1 121.0704 55.5027 23.1365 0.0000 7.2650 0.0000
# 2 55.5027 109.5269 41.0036 0.0000 3.3645 0.0000
# 3 23.1365 41.0036 70.4300 0.0000 7.9001 0.0000
# 4 0.0000 0.0000 0.0000 19.3808 0.0000 -0.2373
# 5 7.2650 3.3645 7.9001 0.0000 22.8411 0.0000
# 6 0.0000 0.0000 0.0000 -0.2373 0.0000 23.5091
#
#
#
# Elastic Compliance Matrix: (Units=1/GPa)
#
#
# Indices 1 2 3 4 5 6 
#
# 1 0.010920 -0.005397 -0.000151 0.000000 -0.002626 0.000000
# 2 -0.005397 0.014351 -0.006802 0.000000 0.001955 0.000000
# 3 -0.000151 -0.006802 0.018820 0.000000 -0.005460 0.000000
# 4 0.000000 0.000000 0.000000 0.051604 0.000000 0.000521
# 5 -0.002626 0.001955 -0.005460 0.000000 0.046216 0.000000
# 6 0.000000 0.000000 0.000000 0.000521 0.000000 0.042542
#
#
# Mechanical properties :
#
#
# Convention : Reuss Voigt Hill
#
# Bulk Modulus (GPa) = 51.56391 60.03478 55.79934
# Shear Modulus (GPa) = 23.18936 25.23850 24.21393
#
# Velocity S-wave (km/s) = 3.55587 3.70966 3.63358
# Velocity P-wave (km/s) = 6.70632 7.14726 6.93030
#
# Compressibility (1/GPa) = 0.01939341
#
# Stress axis : x y z
#
# Youngs Moduli (GPa) = 91.57472 69.68092 53.13423
#
# Poissons Ratio (x) = 0.37604 0.00802
# Poissons Ratio (y) = 0.49419 0.36140
# Poissons Ratio (z) = 0.01382 0.47394
#
# Static dielectric constant tensor:
#      x y z
#    x 3.321830 0.000000 0.060030 
#    y 0.000000 3.441180 0.000000 
#    z 0.060030 0.000000 3.522710 
# 
# 
# High freq. dielectric constant tensor:
#      x y z
#    x 1.695990 0.000000 0.004360 
#    y 0.000000 1.709470 0.000000 
#    z 0.004360 0.000000 1.718210 
# 
# From -- ./inp_files/223853.got.cif
#   From: 2010.06.25/outbox.cif.g09.slc.cpg/sg12_112_cif.got.tgz:223853.got - 2010.06.28 00:19:55.
