data_PCOD8090573
_publ_section_title
;
Structure prediction by ZEFSAII (Michael W. Deem and Ramdas Pophale) SiO2 
 PCOD8090573
Probable space group: C 2/M
;
_chemical_formula_sum "Si O2"
_cell_formula_units_Z 56
_cell_length_a 27.770519
_cell_length_b 13.691273
_cell_length_c 22.100450
_cell_angle_alpha 90.000000
_cell_angle_beta 19.849839
_cell_angle_gamma 90.000000
_cell_volume 2853.255318
_symmetry_space_group_name_H-M "C 2/M"
_symmetry_group_IT_number 12
_symmetry_cell_setting 'monoclinic'
loop_
_space_group_symop_operation_xyz
x,y,z
-x,y,-z
-x,-y,-z
x,-y,z
1/2+x,1/2+y,z
1/2-x,1/2+y,-z
1/2-x,1/2-y,-z
1/2+x,1/2-y,z
loop_
_atom_site_type_symbol
_atom_site_label
_atom_site_fract_x
_atom_site_fract_y
_atom_site_fract_z
Si Si1 0.277454 0.887912 0.913827
Si Si2 0.393190 0.220311 0.361752
Si Si3 0.215422 0.108876 0.655744
Si Si4 0.067059 0.184241 0.065619
Si Si5 0.931149 0.805221 0.748355
Si Si6 0.917438 0.887766 0.540592
Si Si7 0.156883 0.745671 0.832718
O O1 0.400614 0.806108 0.760707
O O2 0.335486 0.000000 0.847916
O O3 0.168300 0.881580 0.987176
O O4 0.206015 0.859110 0.062185
O O5 0.250000 0.250000 0.500000
O O6 0.353903 0.124902 0.448366
O O7 0.515673 0.217340 0.164454
O O8 0.444753 0.302817 0.348089
O O9 0.215939 0.177754 0.713924
O O10 0.072555 0.122691 0.785821
O O11 0.222381 0.000000 0.672830
O O12 0.153783 0.209355 0.903234
O O13 0.979782 0.873840 0.637201
O O14 0.764083 0.843369 0.708398
O O15 0.000000 0.840080 0.500000
O O16 0.888041 0.000000 0.588264
O O17 0.000000 0.708488 0.000000
#
# Coordination Sequence:
#
# PCOD8090573 Si02
#       7
#     8   8   8   8   8   8   8
#     4  10  20  34  57  85 116 151 189 235 291 350
#     4   9  18  35  57  79 112 150 192 239 289 344
#     4  10  19  33  57  85 117 155 194 238 294 358
#     4   9  19  34  56  80 117 154 194 236 286 345
#     4  10  20  37  57  83 114 150 192 243 289 350
#     4  11  23  40  62  84 113 155 204 246 298 364
#     4  10  21  38  60  86 120 158 194 249 298 349
#
# _framework density 19.626705000000001
#
# number of rings (size 3 to 8) (size 9 to 14) (size 15 to 20)
#    0.000    2.143    1.429    1.714    0.000    4.000 
#    0.000    1.429    0.000    1.714    0.000    0.000 
#    0.000    0.000    0.000    0.000    0.000    0.000 
#
# Total GULP energy -346885.815484 kJ/mol
# GULP energy per Si atom -12388.779124 kJ/mol
# Density = 1.958203 g / cm^3
# Si number density = 19.626705 Si / 1000 Ang^3
#
#
#
# Elastic Constant Matrix: (Units=GPa)
#
#
# Indices 1 2 3 4 5 6 
#
# 1 105.3819 33.5249 22.6593 0.0001 4.8920 -0.0001
# 2 33.5249 95.8737 35.0550 -0.0008 -1.2697 0.0004
# 3 22.6593 35.0550 51.9877 -0.0003 7.1550 0.0001
# 4 0.0001 -0.0008 -0.0003 22.2839 0.0000 -2.0339
# 5 4.8920 -1.2697 7.1550 0.0000 30.6434 -0.0001
# 6 -0.0001 0.0004 0.0001 -2.0339 -0.0001 21.3844
#
#
#
# Elastic Compliance Matrix: (Units=1/GPa)
#
#
# Indices 1 2 3 4 5 6 
#
# 1 0.011047 -0.002896 -0.002689 0.000000 -0.001256 0.000000
# 2 -0.002896 0.014847 -0.009193 0.000000 0.003224 0.000000
# 3 -0.002689 -0.009193 0.027482 0.000000 -0.006369 0.000000
# 4 0.000000 0.000000 0.000000 0.045268 0.000000 0.004306
# 5 -0.001256 0.003224 -0.006369 0.000000 0.034455 0.000000
# 6 0.000000 0.000000 0.000000 0.004306 0.000000 0.047173
#
#
# Mechanical properties :
#
#
# Convention : Reuss Voigt Hill
#
# Bulk Modulus (GPa) = 41.98080 48.41352 45.19716
# Shear Modulus (GPa) = 22.96015 25.66261 24.31138
#
# Velocity S-wave (km/s) = 3.42401 3.61991 3.52332
# Velocity P-wave (km/s) = 6.08834 6.49557 6.29524
#
# Compressibility (1/GPa) = 0.02382041
#
# Stress axis : x y z
#
# Youngs Moduli (GPa) = 90.52040 67.35359 36.38683
#
# Poissons Ratio (x) = 0.19508 0.09785
# Poissons Ratio (y) = 0.26218 0.33449
# Poissons Ratio (z) = 0.24343 0.61915
#
# Static dielectric constant tensor:
#      x y z
#    x 3.865330 0.000000 0.074860 
#    y 0.000000 3.305940 0.000000 
#    z 0.074860 0.000000 3.785590 
# 
# 
# High freq. dielectric constant tensor:
#      x y z
#    x 1.785780 0.000000 -0.000030 
#    y 0.000000 1.728110 0.000000 
#    z -0.000030 0.000000 1.765430 
# 
# From -- ./inp_files/353938.got.cif
#   From: 2010.06.25/outbox.cif.g09.slc.cpg/sg12_177_cif.got.tgz:353938.got - 2010.06.28 00:19:55.
