data_PCOD8090071
_publ_section_title
;
Structure prediction by ZEFSAII (Michael W. Deem and Ramdas Pophale) SiO2 
 PCOD8090071
Probable space group: C 2/M
;
_chemical_formula_sum "Si O2"
_cell_formula_units_Z 64
_cell_length_a 20.661438
_cell_length_b 9.117209
_cell_length_c 23.148522
_cell_angle_alpha 90.000000
_cell_angle_beta 131.179923
_cell_angle_gamma 90.000000
_cell_volume 3281.982733
_symmetry_space_group_name_H-M "C 2/M"
_symmetry_group_IT_number 12
_symmetry_cell_setting 'monoclinic'
loop_
_space_group_symop_operation_xyz
x,y,z
-x,y,-z
-x,-y,-z
x,-y,z
1/2+x,1/2+y,z
1/2-x,1/2+y,-z
1/2-x,1/2-y,-z
1/2+x,1/2-y,z
loop_
_atom_site_type_symbol
_atom_site_label
_atom_site_fract_x
_atom_site_fract_y
_atom_site_fract_z
Si Si1 0.512232 0.833061 0.331134
Si Si2 0.708262 0.170612 0.642263
Si Si3 0.616703 0.672559 0.189518
Si Si4 0.126723 0.159640 0.688956
Si Si5 0.478705 0.170776 0.183996
Si Si6 0.200929 0.661221 0.141355
Si Si7 0.294966 0.323539 0.080532
Si Si8 0.319837 0.172645 0.503736
O O1 0.430065 0.736084 0.296148
O O2 0.533400 0.815508 0.275572
O O3 0.588927 0.777535 0.416961
O O4 0.488993 0.000000 0.332099
O O5 0.803593 0.208411 0.721163
O O6 0.632724 0.246955 0.634163
O O7 0.694270 0.228416 0.569456
O O8 0.690222 0.000000 0.636375
O O9 0.597898 0.500000 0.175718
O O10 0.532997 0.755404 0.164604
O O11 0.634245 0.728786 0.134081
O O12 0.220576 0.143107 0.769542
O O13 0.088164 0.000000 0.651743
O O14 0.389588 0.255609 0.141036
O O15 0.461174 0.000000 0.158463
O O16 0.157959 0.500000 0.107580
O O17 0.235709 0.721989 0.100582
O O18 0.301553 0.500000 0.079190
O O19 0.250000 0.250000 0.000000
O O20 0.250000 0.250000 0.500000
O O21 0.307548 0.000000 0.501667
#
# Coordination Sequence:
#
# PCOD8090071 Si02
#       8
#     8   8   8   8   8   8   8   8
#     4  10  21  35  54  79 109 147 190 235 284 338
#     4   9  19  35  53  76 110 150 190 234 289 343
#     4  10  20  34  58  87 115 152 196 241 285 336
#     4  10  19  33  55  81 107 142 187 235 283 333
#     4  11  22  37  59  87 118 152 193 238 285 340
#     4   9  19  37  59  84 116 151 187 230 281 338
#     4  11  23  41  64  91 121 151 186 230 283 342
#     4  10  21  36  52  73 105 146 189 236 289 340
#
# _framework density 19.500406999999999
#
# number of rings (size 3 to 8) (size 9 to 14) (size 15 to 20)
#    0.000    2.000    1.250    2.250    0.000    4.000 
#    0.000    3.125    0.000    3.750    0.000    0.000 
#    0.000    0.000    0.000    0.000    0.000    0.000 
#
# Total GULP energy -396716.762984 kJ/mol
# GULP energy per Si atom -12397.398843 kJ/mol
# Density = 1.945602 g / cm^3
# Si number density = 19.500407 Si / 1000 Ang^3
#
#
#
# Elastic Constant Matrix: (Units=GPa)
#
#
# Indices 1 2 3 4 5 6 
#
# 1 127.6268 63.6821 39.7559 0.0000 -31.6888 0.0000
# 2 63.6821 92.4207 34.8507 0.0000 -13.2739 0.0000
# 3 39.7559 34.8507 88.3472 0.0000 -22.5928 0.0000
# 4 0.0000 0.0000 0.0000 23.2864 0.0000 -2.9051
# 5 -31.6888 -13.2739 -22.5928 0.0000 29.6243 0.0000
# 6 0.0000 0.0000 0.0000 -2.9051 0.0000 39.1988
#
#
#
# Elastic Compliance Matrix: (Units=1/GPa)
#
#
# Indices 1 2 3 4 5 6 
#
# 1 0.015295 -0.008654 -0.000344 0.000000 0.012221 0.000000
# 2 -0.008654 0.017738 -0.004270 0.000000 -0.004566 0.000000
# 3 -0.000344 -0.004270 0.015621 0.000000 0.009633 0.000000
# 4 0.000000 0.000000 0.000000 0.043344 0.000000 0.003212
# 5 0.012221 -0.004566 0.009633 0.000000 0.052129 0.000000
# 6 0.000000 0.000000 0.000000 0.003212 0.000000 0.025749
#
#
# Mechanical properties :
#
#
# Convention : Reuss Voigt Hill
#
# Bulk Modulus (GPa) = 45.21230 64.99688 55.10459
# Shear Modulus (GPa) = 24.53561 29.76230 27.14895
#
# Velocity S-wave (km/s) = 3.55097 3.91095 3.73530
# Velocity P-wave (km/s) = 6.32836 7.33467 6.85002
#
# Compressibility (1/GPa) = 0.02211787
#
# Stress axis : x y z
#
# Youngs Moduli (GPa) = 65.38122 56.37723 64.01435
#
# Poissons Ratio (x) = 0.48789 0.02199
# Poissons Ratio (y) = 0.56581 0.27337
# Poissons Ratio (z) = 0.02246 0.24076
#
# Static dielectric constant tensor:
#      x y z
#    x 3.420130 0.000000 -0.723650 
#    y 0.000000 3.778470 0.000000 
#    z -0.723650 0.000000 1.186480 
# 
# 
# High freq. dielectric constant tensor:
#      x y z
#    x 1.760440 0.000000 -0.016430 
#    y 0.000000 1.765150 0.000000 
#    z -0.016430 0.000000 1.746800 
# 
# From -- ./inp_files/320166.got.cif
#   From: 2010.06.25/outbox.cif.g09.slc.cpg/sg12_161_cif.got.tgz:320166.got - 2010.06.28 00:19:55.
