data_PCOD8090869
_publ_section_title
;
Structure prediction by ZEFSAII (Michael W. Deem and Ramdas Pophale) SiO2 
 PCOD8090869
Probable space group: C 2/M
;
_chemical_formula_sum "Si O2"
_cell_formula_units_Z 44
_cell_length_a 26.431913
_cell_length_b 13.493927
_cell_length_c 6.362450
_cell_angle_alpha 90.000000
_cell_angle_beta 97.860338
_cell_angle_gamma 90.000000
_cell_volume 2247.975503
_symmetry_space_group_name_H-M "C 2/M"
_symmetry_group_IT_number 12
_symmetry_cell_setting 'monoclinic'
loop_
_space_group_symop_operation_xyz
x,y,z
-x,y,-z
-x,-y,-z
x,-y,z
1/2+x,1/2+y,z
1/2-x,1/2+y,-z
1/2-x,1/2-y,-z
1/2+x,1/2-y,z
loop_
_atom_site_type_symbol
_atom_site_label
_atom_site_fract_x
_atom_site_fract_y
_atom_site_fract_z
Si Si1 0.049875 0.213619 0.908288
Si Si2 0.179086 0.290160 0.387128
Si Si3 0.848360 0.110720 0.932109
Si Si4 0.923342 0.387076 0.779666
Si Si5 0.500000 0.800635 0.500000
Si Si6 0.224541 0.193062 0.796718
O O1 0.037184 0.229470 0.655948
O O2 0.094490 0.134073 0.957556
O O3 0.066901 0.319645 0.012128
O O4 0.000000 0.172444 0.000000
O O5 0.169108 0.187410 0.256786
O O6 0.131709 0.363893 0.350868
O O7 0.189085 0.265588 0.636593
O O8 0.228990 0.347510 0.321930
O O9 0.847193 0.000000 0.836176
O O10 0.811673 0.111049 0.117200
O O11 0.925103 0.500000 0.856680
O O12 0.966663 0.369840 0.631095
O O13 0.250000 0.250000 0.000000
#
# Coordination Sequence:
#
# PCOD8090869 Si02
#       6
#     8   8   8   8   4   8
#     4   9  20  36  52  73 103 135 169 212 257 303
#     4   9  19  36  54  75 107 138 168 213 261 304
#     4  10  20  34  54  78 103 137 177 212 252 304
#     4  10  20  33  52  77 102 132 170 209 254 309
#     4  10  19  34  53  72 102 136 167 210 261 304
#     4   9  18  35  55  74 101 136 171 211 256 304
#
# _framework density 19.573166000000001
#
# number of rings (size 3 to 8) (size 9 to 14) (size 15 to 20)
#    0.000    2.545    0.000    1.364    0.000    5.818 
#    0.000    7.727    0.000    0.000    0.000    0.000 
#    0.000    0.000    0.000    0.000    0.000    0.000 
#
# Total GULP energy -272726.715108 kJ/mol
# GULP energy per Si atom -12396.668869 kJ/mol
# Density = 1.952862 g / cm^3
# Si number density = 19.573166 Si / 1000 Ang^3
#
#
#
# Elastic Constant Matrix: (Units=GPa)
#
#
# Indices 1 2 3 4 5 6 
#
# 1 113.2972 33.0257 18.7566 0.0000 10.8007 0.0000
# 2 33.0257 79.1104 18.1431 0.0000 -9.1319 0.0000
# 3 18.7566 18.1431 96.6749 0.0000 19.1447 0.0000
# 4 0.0000 0.0000 0.0000 14.0219 0.0000 -4.1069
# 5 10.8007 -9.1319 19.1447 0.0000 26.8955 0.0000
# 6 0.0000 0.0000 0.0000 -4.1069 0.0000 3.7843
#
#
#
# Elastic Compliance Matrix: (Units=1/GPa)
#
#
# Indices 1 2 3 4 5 6 
#
# 1 0.010960 -0.005330 0.000121 0.000000 -0.006297 0.000000
# 2 -0.005330 0.017149 -0.004378 0.000000 0.011080 0.000000
# 3 0.000121 -0.004378 0.013324 0.000000 -0.011020 0.000000
# 4 0.000000 0.000000 0.000000 0.104547 0.000000 0.113458
# 5 -0.006297 0.011080 -0.011020 0.000000 0.051316 0.000000
# 6 0.000000 0.000000 0.000000 0.113458 0.000000 0.387378
#
#
# Mechanical properties :
#
#
# Convention : Reuss Voigt Hill
#
# Bulk Modulus (GPa) = 44.92693 47.65926 46.29309
# Shear Modulus (GPa) = 8.17971 23.55083 15.86527
#
# Velocity S-wave (km/s) = 2.04649 3.47251 2.85013
# Velocity P-wave (km/s) = 5.34671 6.36238 5.87653
#
# Compressibility (1/GPa) = 0.02225837
#
# Stress axis : x y z
#
# Youngs Moduli (GPa) = 91.23763 58.31319 75.05016
#
# Poissons Ratio (x) = 0.31082 -0.00907
# Poissons Ratio (y) = 0.48631 0.32859
# Poissons Ratio (z) = -0.01103 0.25531
#
# Static dielectric constant tensor:
#      x y z
#    x 4.091410 0.000000 -0.058340 
#    y 0.000000 3.095840 0.000000 
#    z -0.058340 0.000000 3.674710 
# 
# 
# High freq. dielectric constant tensor:
#      x y z
#    x 1.789350 0.000000 0.005570 
#    y 0.000000 1.716750 0.000000 
#    z 0.005570 0.000000 1.765860 
# 
# From -- ./inp_files/27952.got.cif
#   From: 2010.06.25/outbox.cif.g09.slc.cpg/sg12_14_cif.got.tgz:27952.got - 2010.06.28 00:19:55.
