data_PCOD8090260
_publ_section_title
;
Structure prediction by ZEFSAII (Michael W. Deem and Ramdas Pophale) SiO2 
 PCOD8090260
Probable space group: C 2/M
;
_chemical_formula_sum "Si O2"
_cell_formula_units_Z 64
_cell_length_a 21.933842
_cell_length_b 8.647411
_cell_length_c 18.310373
_cell_angle_alpha 90.000000
_cell_angle_beta 64.946249
_cell_angle_gamma 90.000000
_cell_volume 3146.179494
_symmetry_space_group_name_H-M "C 2/M"
_symmetry_group_IT_number 12
_symmetry_cell_setting 'monoclinic'
loop_
_space_group_symop_operation_xyz
x,y,z
-x,y,-z
-x,-y,-z
x,-y,z
1/2+x,1/2+y,z
1/2-x,1/2+y,-z
1/2-x,1/2-y,-z
1/2+x,1/2-y,z
loop_
_atom_site_type_symbol
_atom_site_label
_atom_site_fract_x
_atom_site_fract_y
_atom_site_fract_z
Si Si1 0.922258 0.321105 0.407591
Si Si2 0.306071 0.815797 0.688643
Si Si3 0.558507 0.176269 0.157020
Si Si4 0.175501 0.822163 0.829030
Si Si5 0.434486 0.318251 0.693740
Si Si6 0.071184 0.815696 0.996912
Si Si7 0.202811 0.817534 0.461061
Si Si8 0.598546 0.171359 0.746599
O O1 0.922716 0.500000 0.431016
O O2 0.875608 0.223887 0.485726
O O3 0.889586 0.299670 0.344582
O O4 0.998268 0.261139 0.370533
O O5 0.252365 0.765074 0.779195
O O6 0.375559 0.729879 0.668936
O O7 0.276502 0.757962 0.626446
O O8 0.316082 0.000000 0.681953
O O9 0.585577 0.263985 0.214740
O O10 0.478978 0.188393 0.194773
O O11 0.583527 0.000000 0.149042
O O12 0.586691 0.254045 0.069682
O O13 0.132025 0.744763 0.916271
O O14 0.138192 0.799648 0.770959
O O15 0.176781 0.000000 0.847128
O O16 0.445477 0.500000 0.687608
O O17 0.070584 0.000000 0.998768
O O18 0.000000 0.755296 0.000000
O O19 0.250000 0.750000 0.500000
O O20 0.212931 0.000000 0.452005
O O21 0.624118 0.000000 0.755406
#
# Coordination Sequence:
#
# PCOD8090260 Si02
#       8
#     8   8   8   8   8   8   8   8
#     4  10  21  39  62  91 122 158 201 249 301 355
#     4  11  24  43  63  85 118 160 204 252 302 361
#     4  10  20  35  56  85 119 157 197 243 296 355
#     4  10  21  35  55  83 116 155 196 240 300 363
#     4  11  23  41  64  89 118 157 205 252 300 358
#     4  10  19  33  55  87 123 154 192 247 305 361
#     4  12  25  42  64  94 128 162 201 247 302 360
#     4   9  18  31  52  82 117 151 188 235 289 351
#
# _framework density 20.342131999999999
#
# number of rings (size 3 to 8) (size 9 to 14) (size 15 to 20)
#    0.000    1.625    1.250    4.875    0.000    6.750 
#    0.000    3.125    0.000    0.000    0.000    0.000 
#    0.000    0.000    0.000    0.000    0.000    0.000 
#
# Total GULP energy -396785.287312 kJ/mol
# GULP energy per Si atom -12399.540229 kJ/mol
# Density = 2.029583 g / cm^3
# Si number density = 20.342132 Si / 1000 Ang^3
#
#
#
# Elastic Constant Matrix: (Units=GPa)
#
#
# Indices 1 2 3 4 5 6 
#
# 1 67.8712 13.4575 25.1616 -0.0002 0.0410 -0.0001
# 2 13.4575 57.0823 26.6864 -0.0003 -4.5511 -0.0006
# 3 25.1616 26.6864 114.7651 0.0000 -12.6907 0.0000
# 4 -0.0002 -0.0003 0.0000 30.7178 0.0000 4.8550
# 5 0.0410 -4.5511 -12.6907 0.0000 23.1993 0.0000
# 6 -0.0001 -0.0006 0.0000 4.8550 0.0000 29.4614
#
#
#
# Elastic Compliance Matrix: (Units=1/GPa)
#
#
# Indices 1 2 3 4 5 6 
#
# 1 0.016451 -0.002532 -0.003274 0.000000 -0.002317 0.000000
# 2 -0.002532 0.020091 -0.003917 0.000000 0.001803 0.000000
# 3 -0.003274 -0.003917 0.010918 0.000000 0.005210 0.000000
# 4 0.000000 0.000000 0.000000 0.033425 0.000000 -0.005508
# 5 -0.002317 0.001803 0.005210 0.000000 0.046313 0.000000
# 6 0.000000 0.000000 0.000000 -0.005508 0.000000 0.034850
#
#
# Mechanical properties :
#
#
# Convention : Reuss Voigt Hill
#
# Bulk Modulus (GPa) = 35.69826 41.14774 38.42300
# Shear Modulus (GPa) = 26.20092 28.30324 27.25208
#
# Velocity S-wave (km/s) = 3.59278 3.73414 3.66414
# Velocity P-wave (km/s) = 5.89897 6.23406 6.06883
#
# Compressibility (1/GPa) = 0.02801257
#
# Stress axis : x y z
#
# Youngs Moduli (GPa) = 60.78605 49.77449 91.58983
#
# Poissons Ratio (x) = 0.12605 0.29988
# Poissons Ratio (y) = 0.15394 0.35876
# Poissons Ratio (z) = 0.19902 0.19497
#
# Static dielectric constant tensor:
#      x y z
#    x 3.546640 0.000000 -0.091270 
#    y 0.000000 3.663730 0.000000 
#    z -0.091270 0.000000 4.035530 
# 
# 
# High freq. dielectric constant tensor:
#      x y z
#    x 1.777590 0.000000 -0.006460 
#    y 0.000000 1.792640 0.000000 
#    z -0.006460 0.000000 1.806980 
# 
# From -- ./inp_files/319759.got.cif
#   From: 2010.06.25/outbox.cif.g09.slc.cpg/sg12_160_cif.got.tgz:319759.got - 2010.06.28 00:19:55.
