data_PCOD8090301
_publ_section_title
;
Structure prediction by ZEFSAII (Michael W. Deem and Ramdas Pophale) SiO2 
 PCOD8090301
Probable space group: C 2/M
;
_chemical_formula_sum "Si O2"
_cell_formula_units_Z 48
_cell_length_a 14.489478
_cell_length_b 9.340677
_cell_length_c 18.563615
_cell_angle_alpha 90.000000
_cell_angle_beta 87.991120
_cell_angle_gamma 90.000000
_cell_volume 2510.884006
_symmetry_space_group_name_H-M "C 2/M"
_symmetry_group_IT_number 12
_symmetry_cell_setting 'monoclinic'
loop_
_space_group_symop_operation_xyz
x,y,z
-x,y,-z
-x,-y,-z
x,-y,z
1/2+x,1/2+y,z
1/2-x,1/2+y,-z
1/2-x,1/2-y,-z
1/2+x,1/2-y,z
loop_
_atom_site_type_symbol
_atom_site_label
_atom_site_fract_x
_atom_site_fract_y
_atom_site_fract_z
Si Si1 0.994669 0.833074 0.614306
Si Si2 0.165584 0.836432 0.835538
Si Si3 0.845949 0.166007 0.499423
Si Si4 0.021728 0.670219 0.757596
Si Si5 0.365202 0.162175 0.870237
Si Si6 0.391345 0.337671 0.006882
O O1 0.904617 0.797300 0.569153
O O2 0.089549 0.794585 0.570308
O O3 0.986977 0.733451 0.683713
O O4 0.995117 0.000000 0.635827
O O5 0.120466 0.737069 0.775743
O O6 0.275412 0.827325 0.821803
O O7 0.129966 0.000000 0.827822
O O8 0.140871 0.776298 0.915486
O O9 0.750000 0.250000 0.500000
O O10 0.820332 0.000000 0.498571
O O11 0.028650 0.500000 0.750862
O O12 0.950769 0.720527 0.821616
O O13 0.346474 0.249585 0.943326
O O14 0.383968 0.000000 0.893706
O O15 0.356714 0.500000 0.999543
O O16 0.500000 0.323875 0.000000
#
# Coordination Sequence:
#
# PCOD8090301 Si02
#       6
#     8   8   8   8   8   8
#     4   9  20  39  59  81 114 152 181 213 266 327
#     4  10  21  38  56  76 107 146 183 225 281 336
#     4   9  19  37  62  89 114 144 182 219 263 318
#     4  11  23  37  54  81 112 143 184 229 270 318
#     4  10  22  37  54  77 107 143 182 228 281 328
#     4  10  19  33  56  81 103 136 185 232 276 331
#
# _framework density 19.116772999999998
#
# number of rings (size 3 to 8) (size 9 to 14) (size 15 to 20)
#    0.000    2.167    1.667    2.000    0.000    5.000 
#    0.000    6.667    0.000    0.000    0.000    0.000 
#    0.000    0.000    0.000    0.000    0.000    0.000 
#
# Total GULP energy -297629.326263 kJ/mol
# GULP energy per Si atom -12401.221928 kJ/mol
# Density = 1.907326 g / cm^3
# Si number density = 19.116773 Si / 1000 Ang^3
#
#
#
# Elastic Constant Matrix: (Units=GPa)
#
#
# Indices 1 2 3 4 5 6 
#
# 1 94.5184 39.0084 24.8497 0.0000 11.6975 0.0000
# 2 39.0084 78.3041 52.5718 0.0000 11.3400 0.0000
# 3 24.8497 52.5718 92.4895 0.0000 16.9054 0.0000
# 4 0.0000 0.0000 0.0000 33.5077 0.0000 3.3235
# 5 11.6975 11.3400 16.9054 0.0000 20.2833 0.0000
# 6 0.0000 0.0000 0.0000 3.3235 0.0000 32.4771
#
#
#
# Elastic Compliance Matrix: (Units=1/GPa)
#
#
# Indices 1 2 3 4 5 6 
#
# 1 0.013743 -0.006883 0.001139 0.000000 -0.005027 0.000000
# 2 -0.006883 0.024174 -0.011970 0.000000 0.000431 0.000000
# 3 0.001139 -0.011970 0.019119 0.000000 -0.009900 0.000000
# 4 0.000000 0.000000 0.000000 0.030150 0.000000 -0.003085
# 5 -0.005027 0.000431 -0.009900 0.000000 0.060211 0.000000
# 6 0.000000 0.000000 0.000000 -0.003085 0.000000 0.031107
#
#
# Mechanical properties :
#
#
# Convention : Reuss Voigt Hill
#
# Bulk Modulus (GPa) = 46.27956 55.35240 50.81598
# Shear Modulus (GPa) = 22.61065 27.17910 24.89487
#
# Velocity S-wave (km/s) = 3.44287 3.77469 3.61259
# Velocity P-wave (km/s) = 6.32976 6.92932 6.63631
#
# Compressibility (1/GPa) = 0.02160781
#
# Stress axis : x y z
#
# Youngs Moduli (GPa) = 72.76248 41.36756 52.30276
#
# Poissons Ratio (x) = 0.28473 -0.05955
# Poissons Ratio (y) = 0.50082 0.62606
# Poissons Ratio (z) = -0.08285 0.49517
#
# Static dielectric constant tensor:
#      x y z
#    x 3.499910 0.000000 -0.027330 
#    y 0.000000 3.388750 0.000000 
#    z -0.027330 0.000000 3.389560 
# 
# 
# High freq. dielectric constant tensor:
#      x y z
#    x 1.751010 0.000000 0.002540 
#    y 0.000000 1.736280 0.000000 
#    z 0.002540 0.000000 1.736790 
# 
# From -- ./inp_files/267617.got.cif
#   From: 2010.06.25/outbox.cif.g09.slc.cpg/sg12_134_cif.got.tgz:267617.got - 2010.06.28 00:19:55.
