data_PCOD8090916
_publ_section_title
;
Structure prediction by ZEFSAII (Michael W. Deem and Ramdas Pophale) SiO2 
 PCOD8090916
Probable space group: C 2/M
;
_chemical_formula_sum "Si O2"
_cell_formula_units_Z 64
_cell_length_a 13.161804
_cell_length_b 20.938807
_cell_length_c 17.876608
_cell_angle_alpha 90.000000
_cell_angle_beta 48.314922
_cell_angle_gamma 90.000000
_cell_volume 3679.284862
_symmetry_space_group_name_H-M "C 2/M"
_symmetry_group_IT_number 12
_symmetry_cell_setting 'monoclinic'
loop_
_space_group_symop_operation_xyz
x,y,z
-x,y,-z
-x,-y,-z
x,-y,z
1/2+x,1/2+y,z
1/2-x,1/2+y,-z
1/2-x,1/2-y,-z
1/2+x,1/2-y,z
loop_
_atom_site_type_symbol
_atom_site_label
_atom_site_fract_x
_atom_site_fract_y
_atom_site_fract_z
Si Si1 0.401690 0.132982 0.272610
Si Si2 0.832386 0.249804 0.383345
Si Si3 0.382239 0.573790 0.894535
Si Si4 0.881111 0.925837 0.613116
Si Si5 0.904184 0.860940 0.114667
Si Si6 0.208366 0.738539 0.757993
Si Si7 0.081130 0.160807 0.264514
Si Si8 0.809991 0.426818 0.876058
O O1 0.414457 0.182407 0.336921
O O2 0.266195 0.090311 0.349354
O O3 0.388660 0.175755 0.202914
O O4 0.530766 0.087884 0.201646
O O5 0.750000 0.250000 0.500000
O O6 0.736416 0.247256 0.354799
O O7 0.929580 0.188224 0.331585
O O8 0.381140 0.500000 0.866992
O O9 0.522608 0.585330 0.870750
O O10 0.369864 0.624948 0.834147
O O11 0.254478 0.587938 0.011320
O O12 0.910255 0.890938 0.675638
O O13 0.000000 0.902964 0.500000
O O14 0.890412 0.000000 0.625451
O O15 0.881701 0.797471 0.172799
O O16 0.761032 0.887064 0.155005
O O17 0.000000 0.840972 0.000000
O O18 0.325363 0.722191 0.760513
O O19 0.787044 0.500000 0.867022
#
# Coordination Sequence:
#
# PCOD8090916 Si02
#       8
#     8   8   8   8   8   8   8   8
#     4   9  19  35  52  79 110 134 179 215 266 320
#     4  10  20  35  56  80 105 139 179 220 272 320
#     4  10  20  35  54  79 107 142 185 223 263 320
#     4  10  20  34  54  78 104 139 177 219 267 316
#     4  10  19  34  53  79 109 140 182 224 262 316
#     4   9  21  34  51  81 106 139 175 220 275 318
#     4  11  20  35  54  76 110 135 179 223 272 317
#     4  10  20  34  56  79 107 147 181 217 268 320
#
# _framework density 17.394684999999999
#
# number of rings (size 3 to 8) (size 9 to 14) (size 15 to 20)
#    0.750    1.375    1.250    2.625    0.000    2.500 
#    0.000    5.000    0.000    6.750    0.000    0.875 
#    0.000    0.000    0.000    0.000    0.000    0.000 
#
# Total GULP energy -396514.047587 kJ/mol
# GULP energy per Si atom -12391.063987 kJ/mol
# Density = 1.735509 g / cm^3
# Si number density = 17.394685 Si / 1000 Ang^3
#
#
#
# Elastic Constant Matrix: (Units=GPa)
#
#
# Indices 1 2 3 4 5 6 
#
# 1 85.7442 24.6040 50.7947 0.0003 -2.9037 -0.0001
# 2 24.6040 62.1840 43.6063 0.0001 -0.0375 -0.0001
# 3 50.7947 43.6063 95.8907 0.0002 -1.4752 -0.0002
# 4 0.0003 0.0001 0.0002 26.1206 -0.0003 -0.0331
# 5 -2.9037 -0.0375 -1.4752 -0.0003 29.9437 0.0001
# 6 -0.0001 -0.0001 -0.0002 -0.0331 0.0001 29.8338
#
#
#
# Elastic Compliance Matrix: (Units=1/GPa)
#
#
# Indices 1 2 3 4 5 6 
#
# 1 0.017056 -0.000624 -0.008732 0.000000 0.001223 0.000000
# 2 -0.000624 0.023641 -0.010428 0.000000 -0.000545 0.000000
# 3 -0.008732 -0.010428 0.019798 0.000000 0.000116 0.000000
# 4 0.000000 0.000000 0.000000 0.038284 0.000000 0.000042
# 5 0.001223 -0.000545 0.000116 0.000000 0.033520 0.000000
# 6 0.000000 0.000000 0.000000 0.000042 0.000000 0.033519
#
#
# Mechanical properties :
#
#
# Convention : Reuss Voigt Hill
#
# Bulk Modulus (GPa) = 47.78872 53.53654 50.66263
# Shear Modulus (GPa) = 23.54465 25.50055 24.52260
#
# Velocity S-wave (km/s) = 3.68306 3.83299 3.75877
# Velocity P-wave (km/s) = 6.75421 7.10165 6.93011
#
# Compressibility (1/GPa) = 0.02092544
#
# Stress axis : x y z
#
# Youngs Moduli (GPa) = 58.63015 42.29964 50.50983
#
# Poissons Ratio (x) = 0.02641 0.44106
# Poissons Ratio (y) = 0.03661 0.52673
# Poissons Ratio (z) = 0.51196 0.44111
#
# Static dielectric constant tensor:
#      x y z
#    x 3.207290 0.000000 0.056380 
#    y 0.000000 3.261810 0.000000 
#    z 0.056380 0.000000 3.100020 
# 
# 
# High freq. dielectric constant tensor:
#      x y z
#    x 1.667570 0.000000 0.004400 
#    y 0.000000 1.681800 0.000000 
#    z 0.004400 0.000000 1.656880 
# 
# From -- ./inp_files/265070.got.cif
#   From: 2010.06.25/outbox.cif.g09.slc.cpg/sg12_133_cif.got.tgz:265070.got - 2010.06.28 00:19:55.
