data_PCOD8090153
_publ_section_title
;
Structure prediction by ZEFSAII (Michael W. Deem and Ramdas Pophale) SiO2 
 PCOD8090153
Probable space group: C 2/M
;
_chemical_formula_sum "Si O2"
_cell_formula_units_Z 64
_cell_length_a 30.015331
_cell_length_b 9.144952
_cell_length_c 15.122556
_cell_angle_alpha 90.000000
_cell_angle_beta 128.237135
_cell_angle_gamma 90.000000
_cell_volume 3260.405268
_symmetry_space_group_name_H-M "C 2/M"
_symmetry_group_IT_number 12
_symmetry_cell_setting 'monoclinic'
loop_
_space_group_symop_operation_xyz
x,y,z
-x,y,-z
-x,-y,-z
x,-y,z
1/2+x,1/2+y,z
1/2-x,1/2+y,-z
1/2-x,1/2-y,-z
1/2+x,1/2-y,z
loop_
_atom_site_type_symbol
_atom_site_label
_atom_site_fract_x
_atom_site_fract_y
_atom_site_fract_z
Si Si1 0.408517 0.159411 0.729819
Si Si2 0.562496 0.672600 0.069680
Si Si3 0.283753 0.839421 0.611460
Si Si4 0.739668 0.671113 0.241732
Si Si5 0.136230 0.172062 0.000556
Si Si6 0.963319 0.328482 0.614368
Si Si7 0.868195 0.328755 0.353824
Si Si8 0.916643 0.825364 0.247139
O O1 0.408786 0.281719 0.804653
O O2 0.342455 0.139705 0.631784
O O3 0.440280 0.217099 0.681934
O O4 0.433914 0.000000 0.789018
O O5 0.562157 0.500000 0.062158
O O6 0.594623 0.739668 0.024352
O O7 0.500000 0.739599 0.000000
O O8 0.250000 0.750000 0.500000
O O9 0.286988 0.757835 0.709214
O O10 0.256949 0.000000 0.595368
O O11 0.733259 0.500000 0.255217
O O12 0.701440 0.710886 0.107547
O O13 0.805132 0.713902 0.308481
O O14 0.128093 0.000000 0.987689
O O15 0.115981 0.233768 0.880855
O O16 0.977334 0.500000 0.625234
O O17 0.914751 0.286430 0.484390
O O18 0.020147 0.238299 0.666252
O O19 0.871557 0.500000 0.334232
O O20 0.879274 0.232290 0.281588
O O21 0.920458 0.000000 0.254241
#
# Coordination Sequence:
#
# PCOD8090153 Si02
#       8
#     8   8   8   8   8   8   8   8
#     4  10  21  36  55  83 115 148 188 232 280 336
#     4  10  19  33  55  82 114 153 192 228 278 345
#     4  11  22  36  56  85 119 154 194 238 286 341
#     4  10  20  39  63  84 114 157 198 239 293 352
#     4   9  19  36  57  83 118 155 191 236 292 347
#     4  10  21  39  59  82 116 153 191 238 293 355
#     4  10  22  40  62  85 112 152 197 242 300 360
#     4  11  23  39  60  87 116 149 194 247 296 349
#
# _framework density 19.629460999999999
#
# number of rings (size 3 to 8) (size 9 to 14) (size 15 to 20)
#    0.000    1.875    1.250    2.625    0.000    7.250 
#    0.000    3.750    0.000    0.000    0.000    0.000 
#    0.000    0.000    0.000    0.000    0.000    0.000 
#
# Total GULP energy -396633.944375 kJ/mol
# GULP energy per Si atom -12394.810762 kJ/mol
# Density = 1.958478 g / cm^3
# Si number density = 19.629461 Si / 1000 Ang^3
#
#
#
# Elastic Constant Matrix: (Units=GPa)
#
#
# Indices 1 2 3 4 5 6 
#
# 1 98.5133 30.6896 32.8285 0.0000 -0.6760 0.0000
# 2 30.6896 49.5964 29.9621 0.0000 0.9095 0.0000
# 3 32.8285 29.9621 114.7644 0.0000 2.1244 0.0000
# 4 0.0000 0.0000 0.0000 25.8359 0.0000 -2.3145
# 5 -0.6760 0.9095 2.1244 0.0000 37.7422 0.0000
# 6 0.0000 0.0000 0.0000 -2.3145 0.0000 22.7556
#
#
#
# Elastic Compliance Matrix: (Units=1/GPa)
#
#
# Indices 1 2 3 4 5 6 
#
# 1 0.012928 -0.006849 -0.001919 0.000000 0.000505 0.000000
# 2 -0.006849 0.027569 -0.005229 0.000000 -0.000493 0.000000
# 3 -0.001919 -0.005229 0.010637 0.000000 -0.000507 0.000000
# 4 0.000000 0.000000 0.000000 0.039062 0.000000 0.003973
# 5 0.000505 -0.000493 -0.000507 0.000000 0.026545 0.000000
# 6 0.000000 0.000000 0.000000 0.003973 0.000000 0.044349
#
#
# Mechanical properties :
#
#
# Convention : Reuss Voigt Hill
#
# Bulk Modulus (GPa) = 43.21803 49.98161 46.59982
# Shear Modulus (GPa) = 25.40672 28.55965 26.98318
#
# Velocity S-wave (km/s) = 3.60156 3.81850 3.71162
# Velocity P-wave (km/s) = 6.27373 6.70516 6.49303
#
# Compressibility (1/GPa) = 0.02313849
#
# Stress axis : x y z
#
# Youngs Moduli (GPa) = 77.35348 36.27241 94.01076
#
# Poissons Ratio (x) = 0.24844 0.18042
# Poissons Ratio (y) = 0.52982 0.49160
# Poissons Ratio (z) = 0.14845 0.18968
#
# Static dielectric constant tensor:
#      x y z
#    x 3.483570 0.000000 -0.092830 
#    y 0.000000 3.646140 0.000000 
#    z -0.092830 0.000000 3.938360 
# 
# 
# High freq. dielectric constant tensor:
#      x y z
#    x 1.771710 0.000000 0.004380 
#    y 0.000000 1.748480 0.000000 
#    z 0.004380 0.000000 1.773200 
# 
# From -- ./inp_files/250025.got.cif
#   From: 2010.06.25/outbox.cif.g09.slc.cpg/sg12_126_cif.got.tgz:250025.got - 2010.06.28 00:19:55.
