data_PCOD8090195
_publ_section_title
;
Structure prediction by ZEFSAII (Michael W. Deem and Ramdas Pophale) SiO2 
 PCOD8090195
Probable space group: C 2/M
;
_chemical_formula_sum "Si O2"
_cell_formula_units_Z 64
_cell_length_a 29.593173
_cell_length_b 8.975333
_cell_length_c 19.504180
_cell_angle_alpha 90.000000
_cell_angle_beta 142.699349
_cell_angle_gamma 90.000000
_cell_volume 3139.356154
_symmetry_space_group_name_H-M "C 2/M"
_symmetry_group_IT_number 12
_symmetry_cell_setting 'monoclinic'
loop_
_space_group_symop_operation_xyz
x,y,z
-x,y,-z
-x,-y,-z
x,-y,z
1/2+x,1/2+y,z
1/2-x,1/2+y,-z
1/2-x,1/2-y,-z
1/2+x,1/2-y,z
loop_
_atom_site_type_symbol
_atom_site_label
_atom_site_fract_x
_atom_site_fract_y
_atom_site_fract_z
Si Si1 0.256716 0.828900 0.835609
Si Si2 0.549777 0.177307 0.257083
Si Si3 0.885025 0.669730 0.088356
Si Si4 0.767647 0.827439 0.709662
Si Si5 0.364700 0.677139 0.517441
Si Si6 0.065352 0.826848 0.131168
Si Si7 0.643691 0.324945 0.814406
Si Si8 0.009252 0.823582 0.434633
O O1 0.243216 0.724022 0.755199
O O2 0.201876 0.768974 0.828252
O O3 0.237776 0.000000 0.792596
O O4 0.341475 0.814093 0.964083
O O5 0.467598 0.234826 0.178530
O O6 0.608419 0.253467 0.378596
O O7 0.563774 0.227353 0.196705
O O8 0.557069 0.000000 0.270380
O O9 0.888502 0.500000 0.116261
O O10 0.838655 0.755743 0.090492
O O11 0.719149 0.735097 0.596120
O O12 0.855054 0.794906 0.807290
O O13 0.748817 0.000000 0.677154
O O14 0.365100 0.500000 0.525370
O O15 0.416890 0.731105 0.516647
O O16 0.055787 0.000000 0.139342
O O17 0.000000 0.777080 0.000000
O O18 0.649976 0.500000 0.829383
O O19 0.561350 0.270795 0.694308
O O20 0.000000 0.754784 0.500000
O O21 0.011651 0.000000 0.443978
#
# Coordination Sequence:
#
# PCOD8090195 Si02
#       8
#     8   8   8   8   8   8   8   8
#     4  10  21  37  58  85 119 161 202 242 295 360
#     4  11  23  39  62  91 125 160 199 251 304 359
#     4  10  21  36  55  85 124 158 194 246 303 354
#     4  11  24  41  62  90 121 151 192 250 304 354
#     4  11  22  39  63  87 120 163 203 247 297 356
#     4  10  23  44  68  93 120 154 199 246 297 364
#     4  10  19  33  55  83 115 157 207 247 286 349
#     4   9  17  31  53  81 112 152 204 250 284 333
#
# _framework density 20.386344999999999
#
# number of rings (size 3 to 8) (size 9 to 14) (size 15 to 20)
#    0.000    1.750    1.250    3.000    0.000    5.250 
#    0.000    0.000    0.000    1.875    0.000    0.000 
#    0.000    0.000    0.000    0.000    0.000    0.000 
#
# Total GULP energy -396870.973234 kJ/mol
# GULP energy per Si atom -12402.217914 kJ/mol
# Density = 2.033994 g / cm^3
# Si number density = 20.386345 Si / 1000 Ang^3
#
#
#
# Elastic Constant Matrix: (Units=GPa)
#
#
# Indices 1 2 3 4 5 6 
#
# 1 88.9619 43.3761 48.5151 0.0000 -7.0364 0.0000
# 2 43.3761 65.6988 41.9627 0.0000 -5.1020 0.0000
# 3 48.5151 41.9627 120.1019 0.0000 0.3637 0.0000
# 4 0.0000 0.0000 0.0000 30.4533 0.0000 -3.8581
# 5 -7.0364 -5.1020 0.3637 0.0000 38.7631 0.0000
# 6 0.0000 0.0000 0.0000 -3.8581 0.0000 30.1828
#
#
#
# Elastic Compliance Matrix: (Units=1/GPa)
#
#
# Indices 1 2 3 4 5 6 
#
# 1 0.018130 -0.009169 -0.004126 0.000000 0.002123 0.000000
# 2 -0.009169 0.024506 -0.004863 0.000000 0.001607 0.000000
# 3 -0.004126 -0.004863 0.011697 0.000000 -0.001499 0.000000
# 4 0.000000 0.000000 0.000000 0.033378 0.000000 0.004266
# 5 0.002123 0.001607 -0.001499 0.000000 0.026409 0.000000
# 6 0.000000 0.000000 0.000000 0.004266 0.000000 0.033677
#
#
# Mechanical properties :
#
#
# Convention : Reuss Voigt Hill
#
# Bulk Modulus (GPa) = 55.50966 60.27448 57.89207
# Shear Modulus (GPa) = 26.29956 29.27374 27.78665
#
# Velocity S-wave (km/s) = 3.59563 3.79350 3.69589
# Velocity P-wave (km/s) = 6.67279 6.98698 6.83169
#
# Compressibility (1/GPa) = 0.01801488
#
# Stress axis : x y z
#
# Youngs Moduli (GPa) = 55.15815 40.80686 85.49440
#
# Poissons Ratio (x) = 0.37417 0.35277
# Poissons Ratio (y) = 0.50577 0.41576
# Poissons Ratio (z) = 0.22759 0.19844
#
# Static dielectric constant tensor:
#      x y z
#    x 3.760960 0.000000 0.120240 
#    y 0.000000 3.448100 0.000000 
#    z 0.120240 0.000000 3.838300 
# 
# 
# High freq. dielectric constant tensor:
#      x y z
#    x 1.798120 0.000000 0.002760 
#    y 0.000000 1.776870 0.000000 
#    z 0.002760 0.000000 1.811780 
# 
# From -- ./inp_files/295872.got.cif
#   From: 2010.06.25/outbox.cif.g09.slc.cpg/sg12_148_cif.got.tgz:295872.got - 2010.06.28 00:19:55.
