data_PCOD8090072
_publ_section_title
;
Structure prediction by ZEFSAII (Michael W. Deem and Ramdas Pophale) SiO2 
 PCOD8090072
Probable space group: C 2/M
;
_chemical_formula_sum "Si O2"
_cell_formula_units_Z 56
_cell_length_a 12.623146
_cell_length_b 13.431275
_cell_length_c 18.291555
_cell_angle_alpha 90.000000
_cell_angle_beta 124.509696
_cell_angle_gamma 90.000000
_cell_volume 2555.516377
_symmetry_space_group_name_H-M "C 2/M"
_symmetry_group_IT_number 12
_symmetry_cell_setting 'monoclinic'
loop_
_space_group_symop_operation_xyz
x,y,z
-x,y,-z
-x,-y,-z
x,-y,z
1/2+x,1/2+y,z
1/2-x,1/2+y,-z
1/2-x,1/2-y,-z
1/2+x,1/2-y,z
loop_
_atom_site_type_symbol
_atom_site_label
_atom_site_fract_x
_atom_site_fract_y
_atom_site_fract_z
Si Si1 0.153167 0.694190 0.063319
Si Si2 0.796304 0.890963 0.987221
Si Si3 0.491554 0.390569 0.820939
Si Si4 0.800063 0.389195 0.305106
Si Si5 0.949279 0.814206 0.559198
Si Si6 0.867939 0.206062 0.248075
Si Si7 0.316232 0.115187 0.481890
O O1 0.198196 0.620989 0.016698
O O2 0.223027 0.666080 0.168663
O O3 0.216289 0.804067 0.076799
O O4 0.000000 0.690592 0.000000
O O5 0.941364 0.881921 0.074143
O O6 0.771748 0.000000 0.942229
O O7 0.519864 0.500000 0.796959
O O8 0.344003 0.377039 0.779639
O O9 0.543351 0.303879 0.788718
O O10 0.854174 0.500000 0.316530
O O11 0.877541 0.318552 0.281211
O O12 0.801002 0.357428 0.390456
O O13 0.817880 0.870931 0.528021
O O14 0.922932 0.693314 0.553533
O O15 0.000000 0.846631 0.500000
O O16 0.061447 0.852683 0.658269
O O17 0.362406 0.000000 0.509866
#
# Coordination Sequence:
#
# PCOD8090072 Si02
#       7
#     8   8   8   8   8   8   8
#     4  10  21  36  55  84 114 147 185 233 281 324
#     4   9  19  36  56  79 110 148 186 228 279 333
#     4   9  18  35  58  80 108 148 190 228 273 331
#     4  10  19  33  55  81 107 144 185 223 273 329
#     4  11  22  38  59  84 111 148 188 230 279 328
#     4  11  21  34  58  84 114 145 188 234 275 330
#     4  10  22  39  58  81 112 145 184 232 279 331
#
# _framework density 21.91338
#
# number of rings (size 3 to 8) (size 9 to 14) (size 15 to 20)
#    0.000    2.000    2.857    0.857    0.000    2.286 
#    0.000    0.000    0.000    0.857    0.000    0.000 
#    0.000    0.000    0.000    0.000    0.000    0.000 
#
# Total GULP energy -346872.001689 kJ/mol
# GULP energy per Si atom -12388.285775 kJ/mol
# Density = 2.186350 g / cm^3
# Si number density = 21.913380 Si / 1000 Ang^3
#
#
#
# Elastic Constant Matrix: (Units=GPa)
#
#
# Indices 1 2 3 4 5 6 
#
# 1 54.2385 14.6817 35.9802 0.0000 3.3830 0.0000
# 2 14.6817 64.1855 -6.3934 0.0000 -3.7943 0.0000
# 3 35.9802 -6.3934 93.1369 0.0000 18.7797 0.0000
# 4 0.0000 0.0000 0.0000 21.1327 0.0000 -4.8195
# 5 3.3830 -3.7943 18.7797 0.0000 29.7560 0.0000
# 6 0.0000 0.0000 0.0000 -4.8195 0.0000 25.3025
#
#
#
# Elastic Compliance Matrix: (Units=1/GPa)
#
#
# Indices 1 2 3 4 5 6 
#
# 1 0.028306 -0.007478 -0.012154 0.000000 0.003499 0.000000
# 2 -0.007478 0.017723 0.003986 0.000000 0.000595 0.000000
# 3 -0.012154 0.003986 0.017559 0.000000 -0.009192 0.000000
# 4 0.000000 0.000000 0.000000 0.049469 0.000000 0.009423
# 5 0.003499 0.000595 -0.009192 0.000000 0.039086 0.000000
# 6 0.000000 0.000000 0.000000 0.009423 0.000000 0.041317
#
#
# Mechanical properties :
#
#
# Convention : Reuss Voigt Hill
#
# Bulk Modulus (GPa) = 30.96508 33.34421 32.15465
# Shear Modulus (GPa) = 21.22994 26.39106 23.81050
#
# Velocity S-wave (km/s) = 3.11595 3.47412 3.29990
# Velocity P-wave (km/s) = 5.20643 5.59840 5.40597
#
# Compressibility (1/GPa) = 0.03229444
#
# Stress axis : x y z
#
# Youngs Moduli (GPa) = 35.32869 56.42506 56.95060
#
# Poissons Ratio (x) = 0.42197 0.69216
# Poissons Ratio (y) = 0.26420 -0.22699
# Poissons Ratio (z) = 0.42938 -0.22489
#
# Static dielectric constant tensor:
#      x y z
#    x 3.783570 0.000000 0.205670 
#    y 0.000000 3.985900 0.000000 
#    z 0.205670 0.000000 4.145850 
# 
# 
# High freq. dielectric constant tensor:
#      x y z
#    x 1.847880 0.000000 0.013710 
#    y 0.000000 1.843990 0.000000 
#    z 0.013710 0.000000 1.870550 
# 
# From -- ./inp_files/263411.got.cif
#   From: 2010.06.25/outbox.cif.g09.slc.cpg/sg12_132_cif.got.tgz:263411.got - 2010.06.28 00:19:55.
