data_PCOD8090686
_publ_section_title
;
Structure prediction by ZEFSAII (Michael W. Deem and Ramdas Pophale) SiO2 
 PCOD8090686
Probable space group: C 2/M
;
_chemical_formula_sum "Si O2"
_cell_formula_units_Z 56
_cell_length_a 15.070658
_cell_length_b 9.133198
_cell_length_c 23.753624
_cell_angle_alpha 90.000000
_cell_angle_beta 117.384546
_cell_angle_gamma 90.000000
_cell_volume 2903.142349
_symmetry_space_group_name_H-M "C 2/M"
_symmetry_group_IT_number 12
_symmetry_cell_setting 'monoclinic'
loop_
_space_group_symop_operation_xyz
x,y,z
-x,y,-z
-x,-y,-z
x,-y,z
1/2+x,1/2+y,z
1/2-x,1/2+y,-z
1/2-x,1/2-y,-z
1/2+x,1/2-y,z
loop_
_atom_site_type_symbol
_atom_site_label
_atom_site_fract_x
_atom_site_fract_y
_atom_site_fract_z
Si Si1 0.098360 0.328299 0.496623
Si Si2 0.766374 0.168315 0.381368
Si Si3 0.852317 0.173839 0.287587
Si Si4 0.231360 0.827279 0.155777
Si Si5 0.029564 0.331075 0.072541
Si Si6 0.553442 0.831420 0.357508
Si Si7 0.678595 0.169734 0.936199
O O1 0.113808 0.500000 0.506971
O O2 0.193850 0.253655 0.552729
O O3 0.088804 0.279407 0.429365
O O4 0.000000 0.273493 0.500000
O O5 0.816276 0.226574 0.338665
O O6 0.646633 0.189431 0.342476
O O7 0.793637 0.000000 0.398985
O O8 0.777382 0.243627 0.221598
O O9 0.963818 0.231545 0.308954
O O10 0.849376 0.000000 0.280624
O O11 0.117951 0.776020 0.115735
O O12 0.295607 0.783500 0.119709
O O13 0.233580 0.000000 0.167447
O O14 0.062696 0.500000 0.089555
O O15 0.936639 0.291682 0.085678
O O16 0.000000 0.298520 0.000000
O O17 0.517144 0.000000 0.348488
O O18 0.698882 0.000000 0.952097
O O19 0.750000 0.250000 0.000000
#
# Coordination Sequence:
#
# PCOD8090686 Si02
#       7
#     8   8   8   8   8   8   8
#     4  10  19  33  58  89 117 149 188 239 295 344
#     4  10  22  38  59  85 115 153 195 241 289 342
#     4  11  24  41  59  82 114 155 199 240 285 341
#     4  11  24  40  60  87 119 154 192 237 287 341
#     4  10  20  37  62  89 118 151 185 229 283 338
#     4  10  21  39  60  84 117 153 192 239 293 345
#     4  10  21  37  60  89 118 149 185 229 283 338
#
# _framework density 19.289442999999999
#
# number of rings (size 3 to 8) (size 9 to 14) (size 15 to 20)
#    0.000    1.714    2.857    1.286    0.000    4.571 
#    0.000    5.714    0.000    0.000    0.000    0.000 
#    0.000    0.000    0.000    0.000    0.000    0.000 
#
# Total GULP energy -347324.708882 kJ/mol
# GULP energy per Si atom -12404.453889 kJ/mol
# Density = 1.924554 g / cm^3
# Si number density = 19.289443 Si / 1000 Ang^3
#
#
#
# Elastic Constant Matrix: (Units=GPa)
#
#
# Indices 1 2 3 4 5 6 
#
# 1 97.6135 29.9935 31.4382 0.0000 11.3616 0.0000
# 2 29.9935 61.9007 44.7558 0.0000 9.0182 0.0000
# 3 31.4382 44.7558 94.0988 0.0000 14.6624 0.0000
# 4 0.0000 0.0000 0.0000 37.7075 0.0000 7.8798
# 5 11.3616 9.0182 14.6624 0.0000 23.3987 0.0000
# 6 0.0000 0.0000 0.0000 7.8798 0.0000 31.3611
#
#
#
# Elastic Compliance Matrix: (Units=1/GPa)
#
#
# Indices 1 2 3 4 5 6 
#
# 1 0.012501 -0.004459 -0.001527 0.000000 -0.003395 0.000000
# 2 -0.004459 0.026333 -0.010850 0.000000 -0.001185 0.000000
# 3 -0.001527 -0.010850 0.017211 0.000000 -0.005862 0.000000
# 4 0.000000 0.000000 0.000000 0.027990 0.000000 -0.007033
# 5 -0.003395 -0.001185 -0.005862 0.000000 0.048516 0.000000
# 6 0.000000 0.000000 0.000000 -0.007033 0.000000 0.033654
#
#
# Mechanical properties :
#
#
# Convention : Reuss Voigt Hill
#
# Bulk Modulus (GPa) = 44.69557 51.77644 48.23601
# Shear Modulus (GPa) = 24.11554 28.32184 26.21869
#
# Velocity S-wave (km/s) = 3.53964 3.83594 3.69077
# Velocity P-wave (km/s) = 6.31876 6.82051 6.57442
#
# Compressibility (1/GPa) = 0.02237358
#
# Stress axis : x y z
#
# Youngs Moduli (GPa) = 79.99049 37.97498 58.10103
#
# Poissons Ratio (x) = 0.16932 0.08872
# Poissons Ratio (y) = 0.35667 0.63042
# Poissons Ratio (z) = 0.12214 0.41204
#
# Static dielectric constant tensor:
#      x y z
#    x 3.755500 0.000000 -0.120090 
#    y 0.000000 3.447500 0.000000 
#    z -0.120090 0.000000 3.418010 
# 
# 
# High freq. dielectric constant tensor:
#      x y z
#    x 1.765380 0.000000 -0.000340 
#    y 0.000000 1.746370 0.000000 
#    z -0.000340 0.000000 1.745850 
# 
# From -- ./inp_files/309072.got.cif
#   From: 2010.06.25/outbox.cif.g09.slc.cpg/sg12_155_cif.got.tgz:309072.got - 2010.06.28 00:19:55.
