data_PCOD8090211
_publ_section_title
;
Structure prediction by ZEFSAII (Michael W. Deem and Ramdas Pophale) SiO2 
 PCOD8090211
Probable space group: C 2/M
;
_chemical_formula_sum "Si O2"
_cell_formula_units_Z 56
_cell_length_a 9.300899
_cell_length_b 26.863307
_cell_length_c 14.499498
_cell_angle_alpha 90.000000
_cell_angle_beta 128.050911
_cell_angle_gamma 90.000000
_cell_volume 2852.776451
_symmetry_space_group_name_H-M "C 2/M"
_symmetry_group_IT_number 12
_symmetry_cell_setting 'monoclinic'
loop_
_space_group_symop_operation_xyz
x,y,z
-x,y,-z
-x,-y,-z
x,-y,z
1/2+x,1/2+y,z
1/2-x,1/2+y,-z
1/2-x,1/2-y,-z
1/2+x,1/2-y,z
loop_
_atom_site_type_symbol
_atom_site_label
_atom_site_fract_x
_atom_site_fract_y
_atom_site_fract_z
Si Si1 0.841766 0.644389 0.006215
Si Si2 0.066357 0.942472 0.626098
Si Si3 0.990336 0.441926 0.814665
Si Si4 0.290721 0.623631 0.604374
Si Si5 0.507822 0.306858 0.805722
Si Si6 0.198274 0.293113 0.826747
Si Si7 0.982627 0.378887 0.347884
O O1 0.805034 0.682842 0.073992
O O2 0.899003 0.589243 0.064080
O O3 0.645007 0.646206 0.877911
O O4 0.000000 0.664039 0.000000
O O5 0.275188 0.931462 0.734727
O O6 0.000000 0.922258 0.500000
O O7 0.953061 0.915521 0.660439
O O8 0.019941 0.000000 0.613165
O O9 0.039026 0.500000 0.846512
O O10 0.047273 0.422986 0.736821
O O11 0.368931 0.676616 0.669993
O O12 0.150852 0.603438 0.624563
O O13 0.188706 0.627699 0.465827
O O14 0.397583 0.292328 0.855949
O O15 0.625646 0.262395 0.809941
O O16 0.062085 0.324762 0.709724
#
# Coordination Sequence:
#
# PCOD8090211 Si02
#       7
#     8   8   8   8   8   8   8
#     4  11  22  38  60  82 110 150 192 232 282 335
#     4  10  19  33  55  84 114 144 184 230 277 329
#     4  10  21  38  59  85 115 147 187 235 283 334
#     4  10  20  36  57  84 118 151 189 231 278 337
#     4  11  22  38  59  84 114 150 190 236 283 333
#     4  10  22  39  59  84 114 148 192 237 281 335
#     4   9  20  37  58  84 116 153 188 231 281 334
#
# _framework density 19.629999999999999
#
# number of rings (size 3 to 8) (size 9 to 14) (size 15 to 20)
#    0.000    1.857    1.429    2.571    0.000    2.571 
#    0.000    2.143    0.000   11.143    0.000    0.000 
#    0.000    0.000    0.000    0.000    0.000    0.000 
#
# Total GULP energy -347025.668781 kJ/mol
# GULP energy per Si atom -12393.773885 kJ/mol
# Density = 1.958532 g / cm^3
# Si number density = 19.630000 Si / 1000 Ang^3
#
#
#
# Elastic Constant Matrix: (Units=GPa)
#
#
# Indices 1 2 3 4 5 6 
#
# 1 122.9821 61.2417 44.4653 0.0000 3.0275 0.0000
# 2 61.2417 99.4692 35.2841 0.0000 12.2831 0.0000
# 3 44.4653 35.2841 40.9374 0.0000 5.6936 0.0000
# 4 0.0000 0.0000 0.0000 19.2733 0.0000 1.9981
# 5 3.0275 12.2831 5.6936 0.0000 25.9033 0.0000
# 6 0.0000 0.0000 0.0000 1.9981 0.0000 31.5377
#
#
#
# Elastic Compliance Matrix: (Units=1/GPa)
#
#
# Indices 1 2 3 4 5 6 
#
# 1 0.015200 -0.005418 -0.012327 0.000000 0.003502 0.000000
# 2 -0.005418 0.016881 -0.007880 0.000000 -0.005639 0.000000
# 3 -0.012327 -0.007880 0.045273 0.000000 -0.004774 0.000000
# 4 0.000000 0.000000 0.000000 0.052228 0.000000 -0.003309
# 5 0.003502 -0.005639 -0.004774 0.000000 0.041919 0.000000
# 6 0.000000 0.000000 0.000000 -0.003309 0.000000 0.031918
#
#
# Mechanical properties :
#
#
# Convention : Reuss Voigt Hill
#
# Bulk Modulus (GPa) = 38.31012 60.59676 49.45344
# Shear Modulus (GPa) = 18.98457 23.50271 21.24364
#
# Velocity S-wave (km/s) = 3.11323 3.46393 3.29325
# Velocity P-wave (km/s) = 5.69925 6.85091 6.30144
#
# Compressibility (1/GPa) = 0.02610276
#
# Stress axis : x y z
#
# Youngs Moduli (GPa) = 65.78860 59.23812 22.08823
#
# Poissons Ratio (x) = 0.32097 0.27229
# Poissons Ratio (y) = 0.35646 0.17406
# Poissons Ratio (z) = 0.81099 0.46681
#
# Static dielectric constant tensor:
#      x y z
#    x 3.717840 0.000000 0.018630 
#    y 0.000000 3.339180 0.000000 
#    z 0.018630 0.000000 3.832260 
# 
# 
# High freq. dielectric constant tensor:
#      x y z
#    x 1.777520 0.000000 -0.000010 
#    y 0.000000 1.746820 0.000000 
#    z -0.000010 0.000000 1.771680 
# 
# From -- ./inp_files/198960.got.cif
#   From: 2010.06.25/outbox.cif.g09.slc.cpg/sg12_100_cif.got.tgz:198960.got - 2010.06.28 00:19:55.
