data_PCOD8090513
_publ_section_title
;
Structure prediction by ZEFSAII (Michael W. Deem and Ramdas Pophale) SiO2 
 PCOD8090513
Probable space group: C 2/M
;
_chemical_formula_sum "Si O2"
_cell_formula_units_Z 60
_cell_length_a 9.502102
_cell_length_b 25.246208
_cell_length_c 21.872862
_cell_angle_alpha 90.000000
_cell_angle_beta 142.433408
_cell_angle_gamma 90.000000
_cell_volume 3199.083739
_symmetry_space_group_name_H-M "C 2/M"
_symmetry_group_IT_number 12
_symmetry_cell_setting 'monoclinic'
loop_
_space_group_symop_operation_xyz
x,y,z
-x,y,-z
-x,-y,-z
x,-y,z
1/2+x,1/2+y,z
1/2-x,1/2+y,-z
1/2-x,1/2-y,-z
1/2+x,1/2-y,z
loop_
_atom_site_type_symbol
_atom_site_label
_atom_site_fract_x
_atom_site_fract_y
_atom_site_fract_z
Si Si1 0.913630 0.331464 0.813622
Si Si2 0.658957 0.707984 0.237347
Si Si3 0.930532 0.867981 0.693911
Si Si4 0.803550 0.302322 0.982205
Si Si5 0.482479 0.859101 0.705137
Si Si6 0.763352 0.940893 0.532356
Si Si7 0.500000 0.393705 0.500000
Si Si8 0.200035 0.441328 0.698294
O O1 0.864824 0.270837 0.776493
O O2 0.686692 0.359690 0.759346
O O3 0.009374 0.360509 0.787135
O O4 0.099319 0.341020 0.931624
O O5 0.674547 0.687130 0.313547
O O6 0.887775 0.691395 0.279387
O O7 0.431811 0.678353 0.130862
O O8 0.789373 0.892509 0.588705
O O9 0.919328 0.910385 0.745809
O O10 0.750000 0.250000 0.000000
O O11 0.000000 0.291105 0.000000
O O12 0.602435 0.913173 0.724918
O O13 0.214345 0.856084 0.592691
O O14 0.930479 0.931291 0.532225
O O15 0.497084 0.940779 0.421433
O O16 0.823971 0.000000 0.579750
O O17 0.276422 0.500000 0.743174
#
# Coordination Sequence:
#
# PCOD8090513 Si02
#       8
#     8   8   8   8   8   8   4   8
#     4  11  21  36  57  82 118 144 188 233 278 333
#     4  10  22  37  57  79 117 151 185 230 285 328
#     4  11  19  33  55  83 110 144 183 229 279 343
#     4  10  21  35  57  86 111 142 188 242 289 322
#     4  10  21  36  56  80 113 155 184 230 278 340
#     4  10  19  33  57  82 108 142 188 245 291 325
#     4  10  19  36  52  80 122 140 188 238 287 320
#     4   9  20  37  57  81 112 144 189 243 288 325
#
# _framework density 18.755371
#
# number of rings (size 3 to 8) (size 9 to 14) (size 15 to 20)
#    0.000    1.867    2.667    1.800    5.600    1.600 
#    0.000    0.667    8.800    0.000    0.000   26.133 
#    0.000    0.000    0.000    0.000    0.000    0.000 
#
# Total GULP energy -371756.611839 kJ/mol
# GULP energy per Si atom -12391.887061 kJ/mol
# Density = 1.871268 g / cm^3
# Si number density = 18.755371 Si / 1000 Ang^3
#
#
#
# Elastic Constant Matrix: (Units=GPa)
#
#
# Indices 1 2 3 4 5 6 
#
# 1 125.2232 34.9439 45.3408 0.0002 -9.4017 0.0000
# 2 34.9439 89.6739 40.1215 0.0001 -3.5165 0.0000
# 3 45.3408 40.1215 70.1816 -0.0012 -8.1273 -0.0001
# 4 0.0002 0.0001 -0.0012 15.6152 -0.0003 0.3073
# 5 -9.4017 -3.5165 -8.1273 -0.0003 29.6416 0.0000
# 6 0.0000 0.0000 -0.0001 0.3073 0.0000 23.5325
#
#
#
# Elastic Compliance Matrix: (Units=1/GPa)
#
#
# Indices 1 2 3 4 5 6 
#
# 1 0.010631 -0.001464 -0.005846 -0.000001 0.001595 0.000000
# 2 -0.001464 0.015196 -0.007835 -0.000001 -0.000810 0.000000
# 3 -0.005846 -0.007835 0.022910 0.000002 0.003498 0.000000
# 4 -0.000001 -0.000001 0.000002 0.064057 0.000001 -0.000837
# 5 0.001595 -0.000810 0.003498 0.000001 0.035105 0.000000
# 6 0.000000 0.000000 0.000000 -0.000837 0.000000 0.042505
#
#
# Mechanical properties :
#
#
# Convention : Reuss Voigt Hill
#
# Bulk Modulus (GPa) = 54.21351 58.43234 56.32292
# Shear Modulus (GPa) = 22.04161 24.73601 23.38881
#
# Velocity S-wave (km/s) = 3.43186 3.63557 3.53518
# Velocity P-wave (km/s) = 6.68370 6.98898 6.83804
#
# Compressibility (1/GPa) = 0.01844559
#
# Stress axis : x y z
#
# Youngs Moduli (GPa) = 94.06486 65.80744 43.64938
#
# Poissons Ratio (x) = 0.09637 0.25518
# Poissons Ratio (y) = 0.13775 0.34199
# Poissons Ratio (z) = 0.54993 0.51559
#
# Static dielectric constant tensor:
#      x y z
#    x 3.740750 0.000000 -0.096720 
#    y 0.000000 3.319230 0.000000 
#    z -0.096720 0.000000 4.498330 
# 
# 
# High freq. dielectric constant tensor:
#      x y z
#    x 1.759940 0.000000 -0.002780 
#    y 0.000000 1.705060 0.000000 
#    z -0.002780 0.000000 1.703350 
# 
# From -- ./inp_files/302784.got.cif
#   From: 2010.06.25/outbox.cif.g09.slc.cpg/sg12_152_cif.got.tgz:302784.got - 2010.06.28 00:19:55.
