data_PCOD8090303
_publ_section_title
;
Structure prediction by ZEFSAII (Michael W. Deem and Ramdas Pophale) SiO2 
 PCOD8090303
Probable space group: C 2/M
;
_chemical_formula_sum "Si O2"
_cell_formula_units_Z 64
_cell_length_a 14.342743
_cell_length_b 9.202862
_cell_length_c 28.671329
_cell_angle_alpha 90.000000
_cell_angle_beta 63.112868
_cell_angle_gamma 90.000000
_cell_volume 3375.349010
_symmetry_space_group_name_H-M "C 2/M"
_symmetry_group_IT_number 12
_symmetry_cell_setting 'monoclinic'
loop_
_space_group_symop_operation_xyz
x,y,z
-x,y,-z
-x,-y,-z
x,-y,z
1/2+x,1/2+y,z
1/2-x,1/2+y,-z
1/2-x,1/2-y,-z
1/2+x,1/2-y,z
loop_
_atom_site_type_symbol
_atom_site_label
_atom_site_fract_x
_atom_site_fract_y
_atom_site_fract_z
Si Si1 0.497685 0.330627 0.355586
Si Si2 0.103570 0.164046 0.006342
Si Si3 0.951577 0.834082 0.879645
Si Si4 0.228348 0.168512 0.629808
Si Si5 0.225296 0.663982 0.906008
Si Si6 0.069879 0.168709 0.441855
Si Si7 0.701036 0.829567 0.282945
Si Si8 0.152503 0.672793 0.822403
O O1 0.516854 0.500000 0.339491
O O2 0.384575 0.278566 0.362876
O O3 0.505858 0.301400 0.408954
O O4 0.584222 0.234302 0.310056
O O5 0.078948 0.229750 0.062650
O O6 0.143742 0.000000 0.003300
O O7 0.194647 0.249664 0.959399
O O8 0.000000 0.174693 0.000000
O O9 0.849749 0.826814 0.870145
O O10 0.038262 0.733871 0.835375
O O11 0.993258 0.000000 0.874506
O O12 0.318703 0.252183 0.581771
O O13 0.238277 0.200833 0.682524
O O14 0.243926 0.000000 0.615274
O O15 0.188364 0.500000 0.922874
O O16 0.173021 0.724439 0.870862
O O17 0.000000 0.229326 0.500000
O O18 0.094169 0.000000 0.443077
O O19 0.761884 0.745884 0.229209
O O20 0.695501 0.000000 0.272957
O O21 0.157581 0.500000 0.815108
#
# Coordination Sequence:
#
# PCOD8090303 Si02
#       8
#     8   8   8   8   8   8   8   8
#     4   9  18  35  56  77 106 142 178 217 260 309
#     4  10  19  33  56  81 105 135 169 208 253 302
#     4  10  21  38  56  77 106 138 170 207 255 308
#     4   9  19  35  55  78 104 140 182 219 261 310
#     4  10  22  37  55  78 105 137 171 208 253 310
#     4   9  18  32  51  79 114 147 178 215 259 305
#     4  10  21  37  56  77 102 134 174 221 267 311
#     4  11  23  38  55  78 105 135 172 214 262 313
#
# _framework density 18.961002000000001
#
# number of rings (size 3 to 8) (size 9 to 14) (size 15 to 20)
#    0.000    2.250    1.250    1.125    0.000    4.500 
#    0.000    5.000    0.000    0.000    0.000    0.000 
#    0.000    0.000    0.000    0.000    0.000    0.000 
#
# Total GULP energy -396860.656627 kJ/mol
# GULP energy per Si atom -12401.895520 kJ/mol
# Density = 1.891785 g / cm^3
# Si number density = 18.961002 Si / 1000 Ang^3
#
#
#
# Elastic Constant Matrix: (Units=GPa)
#
#
# Indices 1 2 3 4 5 6 
#
# 1 108.7181 40.0662 36.2418 0.0000 -20.1700 0.0000
# 2 40.0662 77.8086 56.7298 0.0000 -16.0357 0.0000
# 3 36.2418 56.7298 108.5964 0.0000 -24.5033 0.0000
# 4 0.0000 0.0000 0.0000 33.4167 0.0000 -8.5513
# 5 -20.1700 -16.0357 -24.5033 0.0000 22.5420 0.0000
# 6 0.0000 0.0000 0.0000 -8.5513 0.0000 29.4054
#
#
#
# Elastic Compliance Matrix: (Units=1/GPa)
#
#
# Indices 1 2 3 4 5 6 
#
# 1 0.012392 -0.004913 0.000191 0.000000 0.007801 0.000000
# 2 -0.004913 0.022974 -0.010158 0.000000 0.000906 0.000000
# 3 0.000191 -0.010158 0.017038 0.000000 0.011465 0.000000
# 4 0.000000 0.000000 0.000000 0.032331 0.000000 0.009402
# 5 0.007801 0.000906 0.011465 0.000000 0.064449 0.000000
# 6 0.000000 0.000000 0.000000 0.009402 0.000000 0.036742
#
#
# Mechanical properties :
#
#
# Convention : Reuss Voigt Hill
#
# Bulk Modulus (GPa) = 44.15844 62.35542 53.25693
# Shear Modulus (GPa) = 22.39800 27.87848 25.13824
#
# Velocity S-wave (km/s) = 3.44068 3.83862 3.64509
# Velocity P-wave (km/s) = 6.25492 7.25287 6.77231
#
# Compressibility (1/GPa) = 0.02264573
#
# Stress axis : x y z
#
# Youngs Moduli (GPa) = 80.69575 43.52679 58.69233
#
# Poissons Ratio (x) = 0.21383 -0.01120
# Poissons Ratio (y) = 0.39642 0.59618
# Poissons Ratio (z) = -0.01540 0.44213
#
# Static dielectric constant tensor:
#      x y z
#    x 3.530550 0.000000 0.013200 
#    y 0.000000 3.437410 0.000000 
#    z 0.013200 0.000000 3.425440 
# 
# 
# High freq. dielectric constant tensor:
#      x y z
#    x 1.742540 0.000000 -0.003820 
#    y 0.000000 1.731760 0.000000 
#    z -0.003820 0.000000 1.731330 
# 
# From -- ./inp_files/359736.got.cif
#   From: 2010.06.25/outbox.cif.g09.slc.cpg/sg12_180_cif.got.tgz:359736.got - 2010.06.28 00:19:55.
