data_PCOD8090380
_publ_section_title
;
Structure prediction by ZEFSAII (Michael W. Deem and Ramdas Pophale) SiO2 
 PCOD8090380
Probable space group: C 2/M
;
_chemical_formula_sum "Si O2"
_cell_formula_units_Z 56
_cell_length_a 24.301748
_cell_length_b 22.482253
_cell_length_c 12.341850
_cell_angle_alpha 90.000000
_cell_angle_beta 27.410151
_cell_angle_gamma 90.000000
_cell_volume 3104.219518
_symmetry_space_group_name_H-M "C 2/M"
_symmetry_group_IT_number 12
_symmetry_cell_setting 'monoclinic'
loop_
_space_group_symop_operation_xyz
x,y,z
-x,y,-z
-x,-y,-z
x,-y,z
1/2+x,1/2+y,z
1/2-x,1/2+y,-z
1/2-x,1/2-y,-z
1/2+x,1/2-y,z
loop_
_atom_site_type_symbol
_atom_site_label
_atom_site_fract_x
_atom_site_fract_y
_atom_site_fract_z
Si Si1 0.017902 0.641191 0.582768
Si Si2 0.782597 0.732979 0.819894
Si Si3 0.613249 0.569669 0.518642
Si Si4 0.289712 0.931993 0.644821
Si Si5 0.126000 0.930087 0.743258
Si Si6 0.362913 0.375759 0.914554
Si Si7 0.251746 0.140621 0.118583
O O1 0.089680 0.701147 0.422235
O O2 0.089439 0.603644 0.545644
O O3 0.000000 0.605567 0.500000
O O4 0.891090 0.653215 0.857723
O O5 0.792490 0.797710 0.746568
O O6 0.750000 0.750000 0.000000
O O7 0.676312 0.688424 0.965126
O O8 0.581958 0.500000 0.560061
O O9 0.650828 0.585213 0.575273
O O10 0.503583 0.611149 0.671008
O O11 0.726122 0.587046 0.246756
O O12 0.230017 0.905072 0.639628
O O13 0.325420 0.000000 0.566439
O O14 0.199410 0.926676 0.904232
O O15 0.119575 0.000000 0.775409
O O16 0.000000 0.901354 0.000000
O O17 0.314124 0.377269 0.877558
#
# Coordination Sequence:
#
# PCOD8090380 Si02
#       7
#     8   8   8   8   8   8   8
#     4  11  20  36  53  83 112 145 186 226 274 345
#     4   9  19  34  57  80 108 145 197 231 267 328
#     4  11  23  36  55  87 118 148 188 236 292 337
#     4  10  19  33  56  83 109 143 189 234 276 330
#     4   9  17  34  58  79 105 144 194 238 272 327
#     4  10  19  34  55  85 111 144 184 236 285 328
#     4  11  23  36  53  83 120 153 178 224 288 345
#
# _framework density 18.039961000000002
#
# number of rings (size 3 to 8) (size 9 to 14) (size 15 to 20)
#    0.000    1.857    5.714    0.857    2.000    2.571 
#    0.000    0.714    0.000    6.000    7.429    0.000 
#    0.000    0.000    0.000    0.000    0.000    0.000 
#
# Total GULP energy -346910.260162 kJ/mol
# GULP energy per Si atom -12389.652149 kJ/mol
# Density = 1.799890 g / cm^3
# Si number density = 18.039961 Si / 1000 Ang^3
#
#
#
# Elastic Constant Matrix: (Units=GPa)
#
#
# Indices 1 2 3 4 5 6 
#
# 1 135.3053 54.2680 55.3563 -0.0003 -8.9894 -0.0002
# 2 54.2680 73.0929 36.9048 -0.0005 -4.7678 0.0006
# 3 55.3563 36.9048 101.7763 -0.0020 -6.4027 0.0006
# 4 -0.0003 -0.0005 -0.0020 20.5326 0.0005 -5.1410
# 5 -8.9894 -4.7678 -6.4027 0.0005 27.9085 0.0000
# 6 -0.0002 0.0006 0.0006 -5.1410 0.0000 8.2911
#
#
#
# Elastic Compliance Matrix: (Units=1/GPa)
#
#
# Indices 1 2 3 4 5 6 
#
# 1 0.011765 -0.006665 -0.003871 0.000000 0.001763 0.000001
# 2 -0.006665 0.020585 -0.003808 0.000000 0.000496 -0.000002
# 3 -0.003871 -0.003808 0.013386 0.000001 0.001173 0.000000
# 4 0.000000 0.000000 0.000001 0.057654 -0.000001 0.035749
# 5 0.001763 0.000496 0.001173 -0.000001 0.036753 0.000000
# 6 0.000001 -0.000002 0.000000 0.035749 0.000000 0.142777
#
#
# Mechanical properties :
#
#
# Convention : Reuss Voigt Hill
#
# Bulk Modulus (GPa) = 58.66194 67.02587 62.84390
# Shear Modulus (GPa) = 15.75844 22.25614 19.00729
#
# Velocity S-wave (km/s) = 2.95876 3.51624 3.24947
# Velocity P-wave (km/s) = 6.65287 7.32939 6.99931
#
# Compressibility (1/GPa) = 0.01704683
#
# Stress axis : x y z
#
# Youngs Moduli (GPa) = 84.99868 48.57958 74.70761
#
# Poissons Ratio (x) = 0.32380 0.28920
# Poissons Ratio (y) = 0.56654 0.28446
# Poissons Ratio (z) = 0.32904 0.18498
#
# Static dielectric constant tensor:
#      x y z
#    x 3.387340 0.000000 -0.095520 
#    y 0.000000 3.599790 0.000000 
#    z -0.095520 0.000000 3.258780 
# 
# 
# High freq. dielectric constant tensor:
#      x y z
#    x 1.683170 0.000000 -0.008260 
#    y 0.000000 1.684820 0.000000 
#    z -0.008260 0.000000 1.694920 
# 
# From -- ./inp_files/178278.got.cif
#   From: 2010.06.25/outbox.cif.g09.slc.cpg/sg12_90_cif.got.tgz:178278.got - 2010.06.28 00:19:55.
