data_PCOD8090645
_publ_section_title
;
Structure prediction by ZEFSAII (Michael W. Deem and Ramdas Pophale) SiO2 
 PCOD8090645
Probable space group: C 2/M
;
_chemical_formula_sum "Si O2"
_cell_formula_units_Z 64
_cell_length_a 28.792533
_cell_length_b 9.140478
_cell_length_c 17.554436
_cell_angle_alpha 90.000000
_cell_angle_beta 134.278991
_cell_angle_gamma 90.000000
_cell_volume 3307.635266
_symmetry_space_group_name_H-M "C 2/M"
_symmetry_group_IT_number 12
_symmetry_cell_setting 'monoclinic'
loop_
_space_group_symop_operation_xyz
x,y,z
-x,y,-z
-x,-y,-z
x,-y,z
1/2+x,1/2+y,z
1/2-x,1/2+y,-z
1/2-x,1/2-y,-z
1/2+x,1/2-y,z
loop_
_atom_site_type_symbol
_atom_site_label
_atom_site_fract_x
_atom_site_fract_y
_atom_site_fract_z
Si Si1 0.778579 0.667911 0.188784
Si Si2 0.033694 0.828261 0.960726
Si Si3 0.108799 0.667989 0.799121
Si Si4 0.361787 0.171249 0.429493
Si Si5 0.569022 0.663498 0.280202
Si Si6 0.985041 0.835529 0.613605
Si Si7 0.811805 0.329016 0.537700
Si Si8 0.645370 0.173599 0.009844
O O1 0.755749 0.500000 0.171356
O O2 0.823730 0.687022 0.167166
O O3 0.816710 0.719058 0.307968
O O4 0.717561 0.771191 0.107166
O O5 0.984749 0.780072 0.839024
O O6 0.049758 0.000000 0.977947
O O7 0.100165 0.740567 0.024124
O O8 0.000000 0.779637 0.000000
O O9 0.086101 0.500000 0.774511
O O10 0.054460 0.756692 0.690452
O O11 0.119811 0.726412 0.897671
O O12 0.430857 0.253378 0.501051
O O13 0.323873 0.214402 0.463458
O O14 0.377699 0.000000 0.445931
O O15 0.593137 0.500000 0.286121
O O16 0.537561 0.664663 0.326129
O O17 0.628120 0.775862 0.342533
O O18 0.992851 0.000000 0.590961
O O19 0.802534 0.500000 0.537488
O O20 0.750000 0.250000 0.500000
O O21 0.645321 0.000000 0.015380
#
# Coordination Sequence:
#
# PCOD8090645 Si02
#       8
#     8   8   8   8   8   8   8   8
#     4  10  22  40  60  81 112 155 197 234 280 343
#     4  10  21  38  60  84 111 148 191 232 279 339
#     4  10  21  37  59  85 112 150 194 234 283 343
#     4   9  20  38  57  79 110 148 189 233 281 336
#     4   9  18  34  54  78 106 139 181 226 272 325
#     4  10  19  33  58  85 111 145 183 232 283 333
#     4  10  20  34  55  80 106 141 183 227 277 332
#     4  11  23  38  58  85 118 150 187 240 292 336
#
# _framework density 19.349170000000001
#
# number of rings (size 3 to 8) (size 9 to 14) (size 15 to 20)
#    0.000    2.125    1.250    1.500    0.000    4.750 
#    0.000    7.500    0.000    0.000    0.000    0.000 
#    0.000    0.000    0.000    0.000    0.000    0.000 
#
# Total GULP energy -396876.504280 kJ/mol
# GULP energy per Si atom -12402.390759 kJ/mol
# Density = 1.930513 g / cm^3
# Si number density = 19.349170 Si / 1000 Ang^3
#
#
#
# Elastic Constant Matrix: (Units=GPa)
#
#
# Indices 1 2 3 4 5 6 
#
# 1 82.5592 44.1855 43.6880 0.0000 15.3320 0.0000
# 2 44.1855 80.9923 48.6911 0.0000 11.9171 0.0000
# 3 43.6880 48.6911 102.9665 0.0000 10.5678 0.0000
# 4 0.0000 0.0000 0.0000 36.6164 0.0000 9.6461
# 5 15.3320 11.9171 10.5678 0.0000 25.8015 0.0000
# 6 0.0000 0.0000 0.0000 9.6461 0.0000 29.3695
#
#
#
# Elastic Compliance Matrix: (Units=1/GPa)
#
#
# Indices 1 2 3 4 5 6 
#
# 1 0.019317 -0.007064 -0.004188 0.000000 -0.006500 0.000000
# 2 -0.007064 0.020431 -0.006395 0.000000 -0.002620 0.000000
# 3 -0.004188 -0.006395 0.014567 0.000000 -0.000524 0.000000
# 4 0.000000 0.000000 0.000000 0.029897 0.000000 -0.009819
# 5 -0.006500 -0.002620 -0.000524 0.000000 0.044045 0.000000
# 6 0.000000 0.000000 0.000000 -0.009819 0.000000 0.037274
#
#
# Mechanical properties :
#
#
# Convention : Reuss Voigt Hill
#
# Bulk Modulus (GPa) = 52.57828 59.96078 56.26953
# Shear Modulus (GPa) = 24.13539 27.02105 25.57822
#
# Velocity S-wave (km/s) = 3.53563 3.74103 3.63978
# Velocity P-wave (km/s) = 6.62571 7.05099 6.84165
#
# Compressibility (1/GPa) = 0.01901926
#
# Stress axis : x y z
#
# Youngs Moduli (GPa) = 51.76900 48.94597 68.64827
#
# Poissons Ratio (x) = 0.34574 0.28753
# Poissons Ratio (y) = 0.36568 0.43903
# Poissons Ratio (z) = 0.21683 0.31303
#
# Static dielectric constant tensor:
#      x y z
#    x 3.497120 0.000000 -0.043970 
#    y 0.000000 3.580140 0.000000 
#    z -0.043970 0.000000 3.689520 
# 
# 
# High freq. dielectric constant tensor:
#      x y z
#    x 1.752130 0.000000 0.003770 
#    y 0.000000 1.750440 0.000000 
#    z 0.003770 0.000000 1.757410 
# 
# From -- ./inp_files/295847.got.cif
#   From: 2010.06.25/outbox.cif.g09.slc.cpg/sg12_148_cif.got.tgz:295847.got - 2010.06.28 00:19:55.
