data_PCOD8090107
_publ_section_title
;
Structure prediction by ZEFSAII (Michael W. Deem and Ramdas Pophale) SiO2 
 PCOD8090107
Probable space group: C 2/M
;
_chemical_formula_sum "Si O2"
_cell_formula_units_Z 56
_cell_length_a 15.185376
_cell_length_b 9.085156
_cell_length_c 24.402090
_cell_angle_alpha 90.000000
_cell_angle_beta 61.270586
_cell_angle_gamma 90.000000
_cell_volume 2952.125345
_symmetry_space_group_name_H-M "C 2/M"
_symmetry_group_IT_number 12
_symmetry_cell_setting 'monoclinic'
loop_
_space_group_symop_operation_xyz
x,y,z
-x,y,-z
-x,-y,-z
x,-y,z
1/2+x,1/2+y,z
1/2-x,1/2+y,-z
1/2-x,1/2-y,-z
1/2+x,1/2-y,z
loop_
_atom_site_type_symbol
_atom_site_label
_atom_site_fract_x
_atom_site_fract_y
_atom_site_fract_z
Si Si1 0.832460 0.826345 0.207758
Si Si2 0.747652 0.825863 0.349857
Si Si3 0.103389 0.672575 0.996965
Si Si4 0.264285 0.330129 0.861187
Si Si5 0.444208 0.329587 0.880994
Si Si6 0.023073 0.673484 0.433454
Si Si7 0.823265 0.324835 0.434718
O O1 0.801185 0.778878 0.277841
O O2 0.753558 0.758877 0.188898
O O3 0.944473 0.765206 0.162499
O O4 0.828359 0.000000 0.202613
O O5 0.631958 0.772941 0.380453
O O6 0.803747 0.738049 0.380602
O O7 0.755799 0.000000 0.358974
O O8 0.109836 0.500000 0.005374
O O9 0.192265 0.728511 0.931164
O O10 0.112533 0.749323 0.052780
O O11 0.000000 0.720652 0.000000
O O12 0.239880 0.500000 0.856619
O O13 0.379299 0.306128 0.845230
O O14 0.449748 0.500000 0.894943
O O15 0.024279 0.500000 0.439427
O O16 0.937321 0.720111 0.416101
O O17 0.000000 0.744089 0.500000
O O18 0.807100 0.500000 0.441011
O O19 0.750000 0.250000 0.500000
#
# Coordination Sequence:
#
# PCOD8090107 Si02
#       7
#     8   8   8   8   8   8   8
#     4  10  22  38  56  79 109 146 184 222 270 326
#     4  10  21  39  58  79 111 146 182 224 267 320
#     4  10  19  33  55  82 107 140 184 230 274 318
#     4  10  21  37  56  78 110 145 181 227 275 323
#     4  10  21  36  55  81 111 144 180 225 281 328
#     4   9  17  33  57  80 106 143 176 210 264 322
#     4  11  21  35  58  86 111 140 178 220 269 322
#
# _framework density 18.969384000000002
#
# number of rings (size 3 to 8) (size 9 to 14) (size 15 to 20)
#    0.000    2.000    2.857    0.857    0.000    3.143 
#    0.000    2.143    0.000    0.000    0.000    0.000 
#    0.000    0.000    0.000    0.000    0.000    0.000 
#
# Total GULP energy -347246.764895 kJ/mol
# GULP energy per Si atom -12401.670175 kJ/mol
# Density = 1.892621 g / cm^3
# Si number density = 18.969384 Si / 1000 Ang^3
#
#
#
# Elastic Constant Matrix: (Units=GPa)
#
#
# Indices 1 2 3 4 5 6 
#
# 1 128.3551 36.6874 53.1449 0.0000 15.5849 0.0000
# 2 36.6874 41.5063 39.4918 0.0000 12.1239 0.0000
# 3 53.1449 39.4918 121.0489 0.0000 20.5231 0.0000
# 4 0.0000 0.0000 0.0000 25.5874 0.0000 9.8111
# 5 15.5849 12.1239 20.5231 0.0000 29.8028 0.0000
# 6 0.0000 0.0000 0.0000 9.8111 0.0000 29.2890
#
#
#
# Elastic Compliance Matrix: (Units=1/GPa)
#
#
# Indices 1 2 3 4 5 6 
#
# 1 0.010916 -0.007142 -0.002250 0.000000 -0.001254 0.000000
# 2 -0.007142 0.041032 -0.009119 0.000000 -0.006678 0.000000
# 3 -0.002250 -0.009119 0.012902 0.000000 -0.003998 0.000000
# 4 0.000000 0.000000 0.000000 0.044841 0.000000 -0.015021
# 5 -0.001254 -0.006678 -0.003998 0.000000 0.039679 0.000000
# 6 0.000000 0.000000 0.000000 -0.015021 0.000000 0.039174
#
#
# Mechanical properties :
#
#
# Convention : Reuss Voigt Hill
#
# Bulk Modulus (GPa) = 35.93395 61.06207 48.49801
# Shear Modulus (GPa) = 21.29086 27.70825 24.49956
#
# Velocity S-wave (km/s) = 3.35383 3.82603 3.59769
# Velocity P-wave (km/s) = 5.82939 7.19567 6.54826
#
# Compressibility (1/GPa) = 0.02782884
#
# Stress axis : x y z
#
# Youngs Moduli (GPa) = 91.60876 24.37105 77.50773
#
# Poissons Ratio (x) = 0.17405 0.17440
# Poissons Ratio (y) = 0.65423 0.70680
# Poissons Ratio (z) = 0.20612 0.22224
#
# Static dielectric constant tensor:
#      x y z
#    x 3.707670 0.000000 -0.100890 
#    y 0.000000 3.237160 0.000000 
#    z -0.100890 0.000000 3.529300 
# 
# 
# High freq. dielectric constant tensor:
#      x y z
#    x 1.752700 0.000000 -0.000850 
#    y 0.000000 1.714180 0.000000 
#    z -0.000850 0.000000 1.734330 
# 
# From -- ./inp_files/338503.got.cif
#   From: 2010.06.25/outbox.cif.g09.slc.cpg/sg12_170_cif.got.tgz:338503.got - 2010.06.28 00:19:55.
