data_PCOD8090975
_publ_section_title
;
Structure prediction by ZEFSAII (Michael W. Deem and Ramdas Pophale) SiO2 
 PCOD8090975
Probable space group: C 2/M
;
_chemical_formula_sum "Si O2"
_cell_formula_units_Z 56
_cell_length_a 23.374986
_cell_length_b 9.178487
_cell_length_c 15.490941
_cell_angle_alpha 90.000000
_cell_angle_beta 63.313931
_cell_angle_gamma 90.000000
_cell_volume 2969.514078
_symmetry_space_group_name_H-M "C 2/M"
_symmetry_group_IT_number 12
_symmetry_cell_setting 'monoclinic'
loop_
_space_group_symop_operation_xyz
x,y,z
-x,y,-z
-x,-y,-z
x,-y,z
1/2+x,1/2+y,z
1/2-x,1/2+y,-z
1/2-x,1/2-y,-z
1/2+x,1/2-y,z
loop_
_atom_site_type_symbol
_atom_site_label
_atom_site_fract_x
_atom_site_fract_y
_atom_site_fract_z
Si Si1 0.399079 0.667379 0.326786
Si Si2 0.757990 0.330071 0.130637
Si Si3 0.721375 0.668573 0.705504
Si Si4 0.556420 0.333791 0.398454
Si Si5 0.526782 0.167604 0.248789
Si Si6 0.167847 0.832206 0.454084
Si Si7 0.840598 0.333963 0.912635
O O1 0.418024 0.500000 0.327412
O O2 0.350121 0.688679 0.281702
O O3 0.463339 0.752624 0.259025
O O4 0.369478 0.726972 0.436562
O O5 0.748894 0.500000 0.156419
O O6 0.774798 0.250585 0.207155
O O7 0.691973 0.271054 0.135504
O O8 0.815901 0.297697 0.025282
O O9 0.738772 0.500000 0.706717
O O10 0.769242 0.735858 0.602298
O O11 0.500000 0.285263 0.500000
O O12 0.545477 0.500000 0.375697
O O13 0.554792 0.228837 0.318521
O O14 0.624318 0.315248 0.398920
O O15 0.582852 0.189182 0.139875
O O16 0.509498 0.000000 0.274103
O O17 0.188063 0.000000 0.455071
O O18 0.822569 0.500000 0.900150
#
# Coordination Sequence:
#
# PCOD8090975 Si02
#       7
#     8   8   8   8   8   8   8
#     4  10  22  40  56  75 109 151 189 225 268 327
#     4  10  20  37  61  85 111 144 181 222 273 331
#     4  11  23  37  56  81 111 144 183 233 278 318
#     4  10  19  34  54  76 109 147 179 216 264 323
#     4  11  22  35  55  83 113 143 180 228 278 322
#     4  10  20  36  58  80 106 146 190 226 269 325
#     4   9  20  38  59  86 115 141 176 226 278 326
#
# _framework density 18.858305000000001
#
# number of rings (size 3 to 8) (size 9 to 14) (size 15 to 20)
#    0.000    1.857    1.429    2.571    0.000    6.571 
#    0.000    0.714    0.000    4.286    0.000    0.000 
#    0.000    0.000    0.000    0.000    0.000    0.000 
#
# Total GULP energy -347316.346357 kJ/mol
# GULP energy per Si atom -12404.155227 kJ/mol
# Density = 1.881538 g / cm^3
# Si number density = 18.858305 Si / 1000 Ang^3
#
#
#
# Elastic Constant Matrix: (Units=GPa)
#
#
# Indices 1 2 3 4 5 6 
#
# 1 88.3682 54.4862 48.4914 0.0000 -10.9179 0.0001
# 2 54.4862 103.5181 52.9588 0.0001 -7.5254 0.0002
# 3 48.4914 52.9588 89.5075 0.0000 -12.4682 0.0000
# 4 0.0000 0.0001 0.0000 26.4192 0.0000 -3.7015
# 5 -10.9179 -7.5254 -12.4682 0.0000 28.6086 0.0000
# 6 0.0001 0.0002 0.0000 -3.7015 0.0000 29.6719
#
#
#
# Elastic Compliance Matrix: (Units=1/GPa)
#
#
# Indices 1 2 3 4 5 6 
#
# 1 0.019138 -0.006833 -0.005918 0.000000 0.002927 0.000000
# 2 -0.006833 0.016293 -0.006073 0.000000 -0.000969 0.000000
# 3 -0.005918 -0.006073 0.018561 0.000000 0.004233 0.000000
# 4 0.000000 0.000000 0.000000 0.038525 0.000000 0.004806
# 5 0.002927 -0.000969 0.004233 0.000000 0.037662 0.000000
# 6 0.000000 0.000000 0.000000 0.004806 0.000000 0.034301
#
#
# Mechanical properties :
#
#
# Convention : Reuss Voigt Hill
#
# Bulk Modulus (GPa) = 61.18142 65.91850 63.54996
# Shear Modulus (GPa) = 24.08740 25.30378 24.69559
#
# Velocity S-wave (km/s) = 3.57779 3.66701 3.62267
# Velocity P-wave (km/s) = 7.04134 7.27735 7.16032
#
# Compressibility (1/GPa) = 0.01634483
#
# Stress axis : x y z
#
# Youngs Moduli (GPa) = 52.25080 61.37465 53.87569
#
# Poissons Ratio (x) = 0.41939 0.31882
# Poissons Ratio (y) = 0.35704 0.32720
# Poissons Ratio (z) = 0.30920 0.37274
#
# Static dielectric constant tensor:
#      x y z
#    x 3.381300 0.000000 -0.148000 
#    y 0.000000 3.498180 0.000000 
#    z -0.148000 0.000000 3.491750 
# 
# 
# High freq. dielectric constant tensor:
#      x y z
#    x 1.729190 0.000000 -0.009810 
#    y 0.000000 1.735810 0.000000 
#    z -0.009810 0.000000 1.731600 
# 
# From -- ./inp_files/237345.got.cif
#   From: 2010.06.25/outbox.cif.g09.slc.cpg/sg12_119_cif.got.tgz:237345.got - 2010.06.28 00:19:55.
