data_PCOD8090091
_publ_section_title
;
Structure prediction by ZEFSAII (Michael W. Deem and Ramdas Pophale) SiO2 
 PCOD8090091
Probable space group: C 2/M
;
_chemical_formula_sum "Si O2"
_cell_formula_units_Z 64
_cell_length_a 32.821802
_cell_length_b 8.776390
_cell_length_c 25.004036
_cell_angle_alpha 90.000000
_cell_angle_beta 26.480816
_cell_angle_gamma 90.000000
_cell_volume 3211.619706
_symmetry_space_group_name_H-M "C 2/M"
_symmetry_group_IT_number 12
_symmetry_cell_setting 'monoclinic'
loop_
_space_group_symop_operation_xyz
x,y,z
-x,y,-z
-x,-y,-z
x,-y,z
1/2+x,1/2+y,z
1/2-x,1/2+y,-z
1/2-x,1/2-y,-z
1/2+x,1/2-y,z
loop_
_atom_site_type_symbol
_atom_site_label
_atom_site_fract_x
_atom_site_fract_y
_atom_site_fract_z
Si Si1 0.429235 0.175978 0.042405
Si Si2 0.706865 0.318856 0.179685
Si Si3 0.773583 0.178872 0.415581
Si Si4 0.963394 0.326109 0.189854
Si Si5 0.139555 0.180988 0.485944
Si Si6 0.728372 0.681335 0.272724
Si Si7 0.615798 0.820988 0.091206
Si Si8 0.065881 0.180373 0.258438
O O1 0.329232 0.250154 0.165559
O O2 0.420911 0.000000 0.068627
O O3 0.500000 0.257066 0.000000
O O4 0.462571 0.196064 0.943175
O O5 0.711316 0.500000 0.175702
O O6 0.694329 0.255885 0.255045
O O7 0.620348 0.262111 0.246811
O O8 0.800972 0.257341 0.042731
O O9 0.750000 0.250000 0.500000
O O10 0.878749 0.215300 0.279042
O O11 0.709220 0.245268 0.445465
O O12 0.758453 0.000000 0.436236
O O13 0.927250 0.500000 0.234040
O O14 0.017401 0.283125 0.180402
O O15 0.162887 0.233412 0.397928
O O16 0.037800 0.241708 0.617396
O O17 0.147216 0.000000 0.482810
O O18 0.733614 0.500000 0.263468
O O19 0.619090 0.741345 0.144519
O O20 0.627336 0.000000 0.085864
O O21 0.065719 0.000000 0.256163
#
# Coordination Sequence:
#
# PCOD8090091 Si02
#       8
#     8   8   8   8   8   8   8   8
#     4   9  15  25  47  79 107 135 176 222 265 315
#     4   9  17  32  53  82 114 142 182 234 281 323
#     4  12  25  40  58  80 110 148 186 229 277 328
#     4  10  19  33  55  83 109 139 181 227 275 326
#     4  10  21  37  57  83 113 148 188 228 277 332
#     4   9  16  30  54  82 113 146 183 231 274 322
#     4  10  19  33  55  81 110 144 185 229 276 334
#     4  10  21  34  52  80 113 146 183 232 283 328
#
# _framework density 19.92764
#
# number of rings (size 3 to 8) (size 9 to 14) (size 15 to 20)
#    0.000    2.125    1.250    3.000    0.000    5.500 
#    0.000    2.500    0.000    4.875    0.000    1.750 
#    0.000    0.000    0.000    0.000    0.000    0.000 
#
# Total GULP energy -396748.188341 kJ/mol
# GULP energy per Si atom -12398.380886 kJ/mol
# Density = 1.988228 g / cm^3
# Si number density = 19.927640 Si / 1000 Ang^3
#
#
#
# Elastic Constant Matrix: (Units=GPa)
#
#
# Indices 1 2 3 4 5 6 
#
# 1 159.1575 28.0067 54.0542 0.0064 6.3989 -0.0044
# 2 28.0067 32.2548 24.7853 0.0016 -0.5546 -0.0046
# 3 54.0542 24.7853 102.8725 -0.0177 -1.7916 0.0053
# 4 0.0064 0.0016 -0.0177 14.3859 0.0017 5.1487
# 5 6.3989 -0.5546 -1.7916 0.0017 33.8806 0.0044
# 6 -0.0044 -0.0046 0.0053 5.1487 0.0044 18.7625
#
#
#
# Elastic Compliance Matrix: (Units=1/GPa)
#
#
# Indices 1 2 3 4 5 6 
#
# 1 0.008292 -0.004736 -0.003248 -0.000009 -0.001815 0.000004
# 2 -0.004736 0.040752 -0.007310 -0.000017 0.001175 0.000015
# 3 -0.003248 -0.007310 0.013209 0.000023 0.001192 -0.000013
# 4 -0.000009 -0.000017 0.000023 0.077083 0.000002 -0.021153
# 5 -0.001815 0.001175 0.001192 0.000002 0.029941 -0.000008
# 6 0.000004 0.000015 -0.000013 -0.021153 -0.000008 0.059102
#
#
# Mechanical properties :
#
#
# Convention : Reuss Voigt Hill
#
# Bulk Modulus (GPa) = 31.57828 56.44194 44.01011
# Shear Modulus (GPa) = 18.55132 25.90171 22.22651
#
# Velocity S-wave (km/s) = 3.05443 3.60917 3.34333
# Velocity P-wave (km/s) = 5.32168 6.76410 6.08578
#
# Compressibility (1/GPa) = 0.03166734
#
# Stress axis : x y z
#
# Youngs Moduli (GPa) = 120.59090 24.53848 75.70437
#
# Poissons Ratio (x) = 0.11621 0.24588
# Poissons Ratio (y) = 0.57109 0.55337
# Poissons Ratio (z) = 0.39167 0.17937
#
# Static dielectric constant tensor:
#      x y z
#    x 3.649440 0.000050 -0.226020 
#    y 0.000050 3.160650 0.000090 
#    z -0.226020 0.000090 3.727070 
# 
# 
# High freq. dielectric constant tensor:
#      x y z
#    x 1.797210 0.000000 -0.001010 
#    y 0.000000 1.718410 0.000000 
#    z -0.001010 0.000000 1.785610 
# 
# From -- ./inp_files/353318.got.cif
#   From: 2010.06.25/outbox.cif.g09.slc.cpg/sg12_177_cif.got.tgz:353318.got - 2010.06.28 00:19:55.
