data_PCOD8090542
_publ_section_title
;
Structure prediction by ZEFSAII (Michael W. Deem and Ramdas Pophale) SiO2 
 PCOD8090542
Probable space group: C 2/M
;
_chemical_formula_sum "Si O2"
_cell_formula_units_Z 48
_cell_length_a 14.773229
_cell_length_b 19.553164
_cell_length_c 11.975588
_cell_angle_alpha 90.000000
_cell_angle_beta 47.376257
_cell_angle_gamma 90.000000
_cell_volume 2545.416528
_symmetry_space_group_name_H-M "C 2/M"
_symmetry_group_IT_number 12
_symmetry_cell_setting 'monoclinic'
loop_
_space_group_symop_operation_xyz
x,y,z
-x,y,-z
-x,-y,-z
x,-y,z
1/2+x,1/2+y,z
1/2-x,1/2+y,-z
1/2-x,1/2-y,-z
1/2+x,1/2-y,z
loop_
_atom_site_type_symbol
_atom_site_label
_atom_site_fract_x
_atom_site_fract_y
_atom_site_fract_z
Si Si1 0.697358 0.285891 0.155170
Si Si2 0.571285 0.691173 0.658711
Si Si3 0.716969 0.201112 0.680210
Si Si4 0.770713 0.575885 0.014206
Si Si5 0.962508 0.424297 0.159462
Si Si6 0.531164 0.577932 0.095821
O O1 0.552548 0.270762 0.277602
O O2 0.763062 0.263700 0.214791
O O3 0.750000 0.250000 0.000000
O O4 0.722395 0.367348 0.139856
O O5 0.648303 0.739267 0.674335
O O6 0.652557 0.678360 0.480896
O O7 0.537722 0.621448 0.751628
O O8 0.637162 0.132930 0.735891
O O9 0.757635 0.500000 0.079727
O O10 0.914908 0.589269 0.866554
O O11 0.680667 0.581733 0.981830
O O12 0.909753 0.500000 0.232109
O O13 0.000000 0.420608 0.000000
O O14 0.484323 0.500000 0.147290
O O15 0.500000 0.607596 0.000000
#
# Coordination Sequence:
#
# PCOD8090542 Si02
#       6
#     8   8   8   8   8   8
#     4  11  22  35  60  84 107 150 190 231 278 335
#     4  10  24  38  55  82 115 151 186 231 286 337
#     4  11  23  39  54  81 119 150 183 232 285 341
#     4   9  18  33  53  84 110 133 182 233 273 320
#     4  10  19  33  57  84 110 143 185 232 278 331
#     4   9  19  36  59  83 110 146 191 236 276 330
#
# _framework density 18.857424000000002
#
# number of rings (size 3 to 8) (size 9 to 14) (size 15 to 20)
#    0.000    2.000    1.667    1.500    4.667    0.667 
#    0.000    0.000    0.000    5.000    0.000    4.667 
#    0.000    0.000    0.000    0.000    0.000    0.000 
#
# Total GULP energy -297348.940181 kJ/mol
# GULP energy per Si atom -12389.539174 kJ/mol
# Density = 1.881450 g / cm^3
# Si number density = 18.857424 Si / 1000 Ang^3
#
#
#
# Elastic Constant Matrix: (Units=GPa)
#
#
# Indices 1 2 3 4 5 6 
#
# 1 123.8250 29.2309 55.0916 0.0000 -8.4343 -0.0001
# 2 29.2309 72.2102 43.3977 0.0001 -3.4336 -0.0002
# 3 55.0916 43.3977 105.3670 0.0001 -13.2842 -0.0002
# 4 0.0000 0.0001 0.0001 25.0082 -0.0001 -7.6625
# 5 -8.4343 -3.4336 -13.2842 -0.0001 31.1223 0.0002
# 6 -0.0001 -0.0002 -0.0002 -7.6625 0.0002 24.2092
#
#
#
# Elastic Compliance Matrix: (Units=1/GPa)
#
#
# Indices 1 2 3 4 5 6 
#
# 1 0.010624 -0.001302 -0.004939 0.000000 0.000627 0.000000
# 2 -0.001302 0.018612 -0.007155 0.000000 -0.001354 0.000000
# 3 -0.004939 -0.007155 0.015591 0.000000 0.004527 0.000000
# 4 0.000000 0.000000 0.000000 0.044281 0.000000 0.014016
# 5 0.000627 -0.001354 0.004527 0.000000 0.034084 0.000000
# 6 0.000000 0.000000 0.000000 0.014016 0.000000 0.045743
#
#
# Mechanical properties :
#
#
# Convention : Reuss Voigt Hill
#
# Bulk Modulus (GPa) = 55.45541 61.87140 58.66341
# Shear Modulus (GPa) = 24.78458 27.64675 26.21566
#
# Velocity S-wave (km/s) = 3.62928 3.83311 3.73259
# Velocity P-wave (km/s) = 6.85812 7.24373 7.05356
#
# Compressibility (1/GPa) = 0.01803251
#
# Stress axis : x y z
#
# Youngs Moduli (GPa) = 94.13059 53.73009 64.13999
#
# Poissons Ratio (x) = 0.06997 0.31680
# Poissons Ratio (y) = 0.12258 0.45894
# Poissons Ratio (z) = 0.46492 0.38446
#
# Static dielectric constant tensor:
#      x y z
#    x 3.898520 0.000000 -0.224050 
#    y 0.000000 3.644260 0.000000 
#    z -0.224050 0.000000 3.308640 
# 
# 
# High freq. dielectric constant tensor:
#      x y z
#    x 1.757840 0.000000 -0.018280 
#    y 0.000000 1.739920 0.000000 
#    z -0.018280 0.000000 1.693240 
# 
# From -- ./inp_files/147927.got.cif
#   From: 2010.06.25/outbox.cif.g09.slc.cpg/sg12_74_cif.got.tgz:147927.got - 2010.06.28 00:19:55.
