data_PCOD8090818
_publ_section_title
;
Structure prediction by ZEFSAII (Michael W. Deem and Ramdas Pophale) SiO2 
 PCOD8090818
Probable space group: C 2/M
;
_chemical_formula_sum "Si O2"
_cell_formula_units_Z 48
_cell_length_a 15.151811
_cell_length_b 12.419448
_cell_length_c 20.759778
_cell_angle_alpha 90.000000
_cell_angle_beta 39.970469
_cell_angle_gamma 90.000000
_cell_volume 2509.516968
_symmetry_space_group_name_H-M "C 2/M"
_symmetry_group_IT_number 12
_symmetry_cell_setting 'monoclinic'
loop_
_space_group_symop_operation_xyz
x,y,z
-x,y,-z
-x,-y,-z
x,-y,z
1/2+x,1/2+y,z
1/2-x,1/2+y,-z
1/2-x,1/2-y,-z
1/2+x,1/2-y,z
loop_
_atom_site_type_symbol
_atom_site_label
_atom_site_fract_x
_atom_site_fract_y
_atom_site_fract_z
Si Si1 0.385177 0.749965 0.238583
Si Si2 0.048293 0.762391 0.603110
Si Si3 0.866142 0.623654 0.117692
Si Si4 0.269584 0.875727 0.413529
Si Si5 0.083305 0.875141 0.208860
Si Si6 0.376844 0.121411 0.620028
O O1 0.383987 0.792027 0.166236
O O2 0.348518 0.852490 0.303092
O O3 0.533222 0.698398 0.176061
O O4 0.273336 0.657832 0.319688
O O5 0.119041 0.820543 0.502145
O O6 0.145588 0.666535 0.572922
O O7 0.018095 0.850433 0.674801
O O8 0.908043 0.704957 0.660065
O O9 0.848128 0.500000 0.152753
O O10 0.737668 0.655586 0.144074
O O11 0.000000 0.634606 0.000000
O O12 0.247601 0.000000 0.433576
O O13 0.073064 0.000000 0.195266
O O14 0.500000 0.129420 0.500000
O O15 0.365167 0.000000 0.652512
#
# Coordination Sequence:
#
# PCOD8090818 Si02
#       6
#     8   8   8   8   8   8
#     4  11  21  37  58  84 115 150 195 236 285 335
#     4  10  19  34  51  78 113 153 191 227 278 332
#     4  10  22  41  64  87 113 147 188 240 300 352
#     4  10  20  32  50  78 113 148 189 234 274 327
#     4  10  21  37  60  86 115 151 191 233 285 345
#     4  11  21  34  52  79 116 156 194 231 276 333
#
# _framework density 19.127185999999998
#
# number of rings (size 3 to 8) (size 9 to 14) (size 15 to 20)
#    0.000    1.667    3.333    2.000    0.000    0.667 
#    0.000    0.833    0.000    2.000    0.000    0.000 
#    0.000    0.000    0.000    0.000    0.000    0.000 
#
# Total GULP energy -297490.791302 kJ/mol
# GULP energy per Si atom -12395.449638 kJ/mol
# Density = 1.908365 g / cm^3
# Si number density = 19.127186 Si / 1000 Ang^3
#
#
#
# Elastic Constant Matrix: (Units=GPa)
#
#
# Indices 1 2 3 4 5 6 
#
# 1 116.4818 57.2496 45.0550 0.0000 -16.7180 0.0000
# 2 57.2496 112.9443 36.1527 0.0000 -4.5399 0.0000
# 3 45.0550 36.1527 63.7828 -0.0001 -6.4516 0.0001
# 4 0.0000 0.0000 -0.0001 19.6743 0.0001 -1.9992
# 5 -16.7180 -4.5399 -6.4516 0.0001 22.0605 0.0000
# 6 0.0000 0.0000 0.0001 -1.9992 0.0000 29.0375
#
#
#
# Elastic Compliance Matrix: (Units=1/GPa)
#
#
# Indices 1 2 3 4 5 6 
#
# 1 0.014879 -0.005025 -0.006828 0.000000 0.008245 0.000000
# 2 -0.005025 0.012518 -0.003782 0.000000 -0.002338 0.000000
# 3 -0.006828 -0.003782 0.022715 0.000000 0.000690 0.000000
# 4 0.000000 0.000000 0.000000 0.051186 0.000000 0.003524
# 5 0.008245 -0.002338 0.000690 0.000000 0.051299 0.000000
# 6 0.000000 0.000000 0.000000 0.003524 0.000000 0.034681
#
#
# Mechanical properties :
#
#
# Convention : Reuss Voigt Hill
#
# Bulk Modulus (GPa) = 53.07470 63.34706 58.21088
# Shear Modulus (GPa) = 22.23917 24.47123 23.35520
#
# Velocity S-wave (km/s) = 3.41354 3.58074 3.49814
# Velocity P-wave (km/s) = 6.58368 7.09129 6.84219
#
# Compressibility (1/GPa) = 0.01884137
#
# Stress axis : x y z
#
# Youngs Moduli (GPa) = 67.20767 79.88748 44.02362
#
# Poissons Ratio (x) = 0.40143 0.30061
# Poissons Ratio (y) = 0.33771 0.16650
# Poissons Ratio (z) = 0.45891 0.30214
#
# Static dielectric constant tensor:
#      x y z
#    x 3.654950 0.000000 -0.212180 
#    y 0.000000 3.466450 0.000000 
#    z -0.212180 0.000000 3.229710 
# 
# 
# High freq. dielectric constant tensor:
#      x y z
#    x 1.749360 0.000000 -0.014620 
#    y 0.000000 1.746230 0.000000 
#    z -0.014620 0.000000 1.715290 
# 
# From -- ./inp_files/143114.got.cif
#   From: 2010.06.25/outbox.cif.g09.slc.cpg/sg12_72_cif.got.tgz:143114.got - 2010.06.28 00:19:55.
