data_PCOD8090276
_publ_section_title
;
Structure prediction by ZEFSAII (Michael W. Deem and Ramdas Pophale) SiO2 
 PCOD8090276
Probable space group: C 2/M
;
_chemical_formula_sum "Si O2"
_cell_formula_units_Z 48
_cell_length_a 13.301856
_cell_length_b 13.581413
_cell_length_c 29.198420
_cell_angle_alpha 90.000000
_cell_angle_beta 27.414570
_cell_angle_gamma 90.000000
_cell_volume 2428.711628
_symmetry_space_group_name_H-M "C 2/M"
_symmetry_group_IT_number 12
_symmetry_cell_setting 'monoclinic'
loop_
_space_group_symop_operation_xyz
x,y,z
-x,y,-z
-x,-y,-z
x,-y,z
1/2+x,1/2+y,z
1/2-x,1/2+y,-z
1/2-x,1/2-y,-z
1/2+x,1/2-y,z
loop_
_atom_site_type_symbol
_atom_site_label
_atom_site_fract_x
_atom_site_fract_y
_atom_site_fract_z
Si Si1 0.802389 0.393917 0.613826
Si Si2 0.239492 0.309000 0.607894
Si Si3 0.921335 0.611564 0.805144
Si Si4 0.613792 0.112413 0.076532
Si Si5 0.907769 0.614937 0.674607
Si Si6 0.081123 0.196427 0.877808
O O1 0.674521 0.500000 0.668293
O O2 0.660615 0.303180 0.651879
O O3 0.896081 0.364030 0.625564
O O4 0.000000 0.409689 0.500000
O O5 0.500000 0.318466 0.500000
O O6 0.148087 0.377311 0.685656
O O7 0.134404 0.339497 0.601983
O O8 0.837755 0.500000 0.834341
O O9 0.959267 0.638690 0.842359
O O10 0.736094 0.682033 0.858933
O O11 0.484708 0.188226 0.096194
O O12 0.552887 0.000000 0.088096
O O13 0.871744 0.126788 0.966965
O O14 0.904315 0.500000 0.687722
O O15 0.703738 0.666177 0.781754
#
# Coordination Sequence:
#
# PCOD8090276 Si02
#       6
#     8   8   8   8   8   8
#     4   9  19  35  52  71  99 136 174 210 254 308
#     4  10  20  33  54  78 103 134 175 218 256 298
#     4  10  20  35  54  77 106 138 173 211 255 308
#     4  10  20  34  55  81 106 134 171 214 256 302
#     4  10  20  35  54  76 104 137 173 211 255 309
#     4  10  19  33  56  79 105 137 172 209 255 309
#
# _framework density 19.763565
#
# number of rings (size 3 to 8) (size 9 to 14) (size 15 to 20)
#    0.000    2.167    0.000    4.500    0.000    5.333 
#    0.000    3.333    0.000   24.000    0.000    0.000 
#    0.000    0.000    0.000    0.000    0.000    0.000 
#
# Total GULP energy -297503.609834 kJ/mol
# GULP energy per Si atom -12395.983743 kJ/mol
# Density = 1.971858 g / cm^3
# Si number density = 19.763565 Si / 1000 Ang^3
#
#
#
# Elastic Constant Matrix: (Units=GPa)
#
#
# Indices 1 2 3 4 5 6 
#
# 1 37.6595 40.1981 17.7646 0.0101 4.3025 0.0024
# 2 40.1981 127.5013 15.3826 -0.0313 -9.7011 0.0120
# 3 17.7646 15.3826 79.3816 -0.0135 -5.4572 -0.0011
# 4 0.0101 -0.0313 -0.0135 8.1506 0.0093 8.2479
# 5 4.3025 -9.7011 -5.4572 0.0093 27.7873 -0.0076
# 6 0.0024 0.0120 -0.0011 8.2479 -0.0076 29.3413
#
#
#
# Elastic Compliance Matrix: (Units=1/GPa)
#
#
# Indices 1 2 3 4 5 6 
#
# 1 0.049014 -0.015493 -0.008981 -0.000163 -0.014762 0.000044
# 2 -0.015493 0.013107 0.001426 0.000092 0.007255 -0.000028
# 3 -0.008981 0.001426 0.014659 0.000047 0.004767 -0.000011
# 4 -0.000163 0.000092 0.000047 0.171467 -0.000004 -0.048200
# 5 -0.014762 0.007255 0.004767 -0.000004 0.041742 0.000011
# 6 0.000044 -0.000028 -0.000011 -0.048200 0.000011 0.047631
#
#
# Mechanical properties :
#
#
# Convention : Reuss Voigt Hill
#
# Bulk Modulus (GPa) = 32.59036 43.47032 38.03034
# Shear Modulus (GPa) = 12.69213 24.46896 18.58055
#
# Velocity S-wave (km/s) = 2.53691 3.52246 3.06950
# Velocity P-wave (km/s) = 5.01070 6.21181 5.64330
#
# Compressibility (1/GPa) = 0.03068392
#
# Stress axis : x y z
#
# Youngs Moduli (GPa) = 20.40240 76.29226 68.21870
#
# Poissons Ratio (x) = 1.18196 0.61270
# Poissons Ratio (y) = 0.31608 -0.09727
# Poissons Ratio (z) = 0.18324 -0.10878
#
# Static dielectric constant tensor:
#      x y z
#    x 3.426850 0.000000 0.207380 
#    y 0.000000 4.089600 0.000030 
#    z 0.207380 0.000030 3.546990 
# 
# 
# High freq. dielectric constant tensor:
#      x y z
#    x 1.753590 0.000000 0.018760 
#    y 0.000000 1.786180 0.000000 
#    z 0.018760 0.000000 1.764750 
# 
# From -- ./inp_files/358336.got.cif
#   From: 2010.06.25/outbox.cif.g09.slc.cpg/sg12_180_cif.got.tgz:358336.got - 2010.06.28 00:19:55.
