data_PCOD8090647
_publ_section_title
;
Structure prediction by ZEFSAII (Michael W. Deem and Ramdas Pophale) SiO2 
 PCOD8090647
Probable space group: C 2/M
;
_chemical_formula_sum "Si O2"
_cell_formula_units_Z 56
_cell_length_a 19.107423
_cell_length_b 8.581157
_cell_length_c 20.867971
_cell_angle_alpha 90.000000
_cell_angle_beta 58.757143
_cell_angle_gamma 90.000000
_cell_volume 2925.380675
_symmetry_space_group_name_H-M "C 2/M"
_symmetry_group_IT_number 12
_symmetry_cell_setting 'monoclinic'
loop_
_space_group_symop_operation_xyz
x,y,z
-x,y,-z
-x,-y,-z
x,-y,z
1/2+x,1/2+y,z
1/2-x,1/2+y,-z
1/2-x,1/2-y,-z
1/2+x,1/2-y,z
loop_
_atom_site_type_symbol
_atom_site_label
_atom_site_fract_x
_atom_site_fract_y
_atom_site_fract_z
Si Si1 0.909979 0.671653 0.566319
Si Si2 0.762111 0.814449 0.565571
Si Si3 0.769092 0.177823 0.181733
Si Si4 0.785518 0.816019 0.918314
Si Si5 0.857790 0.186786 0.267265
Si Si6 0.036910 0.175937 0.203100
Si Si7 0.110750 0.173987 0.296866
O O1 0.873404 0.500000 0.601756
O O2 0.851191 0.753738 0.543368
O O3 0.924154 0.789345 0.617762
O O4 0.000000 0.643984 0.500000
O O5 0.750000 0.750000 0.500000
O O6 0.694735 0.757236 0.649321
O O7 0.760008 0.000000 0.564951
O O8 0.775291 0.270370 0.111446
O O9 0.825905 0.241810 0.212478
O O10 0.677389 0.195049 0.250494
O O11 0.790568 0.000000 0.156585
O O12 0.878415 0.747877 0.864354
O O13 0.789295 0.000000 0.919460
O O14 0.750000 0.750000 0.000000
O O15 0.950946 0.254942 0.224210
O O16 0.854962 0.000000 0.275696
O O17 0.038174 0.183914 0.279724
O O18 0.034677 0.000000 0.178633
O O19 0.150042 0.000000 0.275987
#
# Coordination Sequence:
#
# PCOD8090647 Si02
#       7
#     8   8   8   8   8   8   8
#     4  11  24  40  57  81 113 147 194 249 298 348
#     4  12  26  42  60  83 116 157 200 246 303 358
#     4  10  19  33  58  85 113 149 189 233 285 342
#     4  10  20  37  61  87 118 151 191 237 286 347
#     4  10  20  38  61  85 116 153 195 242 290 347
#     4   8  18  35  57  85 113 148 191 233 281 340
#     4  10  19  34  56  81 110 147 192 238 286 342
#
# _framework density 19.142807999999999
#
# number of rings (size 3 to 8) (size 9 to 14) (size 15 to 20)
#    0.000    1.857    1.429    3.857    2.000    1.714 
#    0.000    4.286    0.000    4.286    0.000    0.000 
#    0.000    0.000    0.000    0.000    0.000    0.000 
#
# Total GULP energy -346909.278382 kJ/mol
# GULP energy per Si atom -12389.617085 kJ/mol
# Density = 1.909924 g / cm^3
# Si number density = 19.142808 Si / 1000 Ang^3
#
#
#
# Elastic Constant Matrix: (Units=GPa)
#
#
# Indices 1 2 3 4 5 6 
#
# 1 145.8402 43.3894 77.2862 -0.0002 11.9096 -0.0004
# 2 43.3894 77.8681 41.7952 -0.0006 9.1361 -0.0009
# 3 77.2862 41.7952 138.0419 0.0000 23.4456 -0.0001
# 4 -0.0002 -0.0006 0.0000 29.9921 0.0000 4.2388
# 5 11.9096 9.1361 23.4456 0.0000 25.0836 -0.0001
# 6 -0.0004 -0.0009 -0.0001 4.2388 -0.0001 23.3104
#
#
#
# Elastic Compliance Matrix: (Units=1/GPa)
#
#
# Indices 1 2 3 4 5 6 
#
# 1 0.010386 -0.003212 -0.004997 0.000000 0.000909 0.000000
# 2 -0.003212 0.016374 -0.002859 0.000000 -0.001766 0.000000
# 3 -0.004997 -0.002859 0.012277 0.000000 -0.008061 0.000000
# 4 0.000000 0.000000 0.000000 0.034222 0.000000 -0.006223
# 5 0.000909 -0.001766 -0.008061 0.000000 0.047613 0.000000
# 6 0.000000 0.000000 0.000000 -0.006223 0.000000 0.044031
#
#
# Mechanical properties :
#
#
# Convention : Reuss Voigt Hill
#
# Bulk Modulus (GPa) = 59.16993 76.29911 67.73452
# Shear Modulus (GPa) = 25.95082 28.96250 27.45666
#
# Velocity S-wave (km/s) = 3.68590 3.89391 3.79133
# Velocity P-wave (km/s) = 7.00652 7.75636 7.39096
#
# Compressibility (1/GPa) = 0.01690048
#
# Stress axis : x y z
#
# Youngs Moduli (GPa) = 96.28120 61.07263 81.45551
#
# Poissons Ratio (x) = 0.19617 0.40703
# Poissons Ratio (y) = 0.30926 0.23290
# Poissons Ratio (z) = 0.48111 0.17462
#
# Static dielectric constant tensor:
#      x y z
#    x 3.523950 0.000000 0.308890 
#    y 0.000000 3.590460 0.000000 
#    z 0.308890 0.000000 3.315830 
# 
# 
# High freq. dielectric constant tensor:
#      x y z
#    x 1.746660 0.000000 0.015030 
#    y 0.000000 1.739150 0.000000 
#    z 0.015030 0.000000 1.737020 
# 
# From -- ./inp_files/275042.got.cif
#   From: 2010.06.25/outbox.cif.g09.slc.cpg/sg12_138_cif.got.tgz:275042.got - 2010.06.28 00:19:55.
