data_PCOD8090406
_publ_section_title
;
Structure prediction by ZEFSAII (Michael W. Deem and Ramdas Pophale) SiO2 
 PCOD8090406
Probable space group: C 2/M
;
_chemical_formula_sum "Si O2"
_cell_formula_units_Z 64
_cell_length_a 30.259435
_cell_length_b 9.171419
_cell_length_c 14.825398
_cell_angle_alpha 90.000000
_cell_angle_beta 128.684958
_cell_angle_gamma 90.000000
_cell_volume 3211.657410
_symmetry_space_group_name_H-M "C 2/M"
_symmetry_group_IT_number 12
_symmetry_cell_setting 'monoclinic'
loop_
_space_group_symop_operation_xyz
x,y,z
-x,y,-z
-x,-y,-z
x,-y,z
1/2+x,1/2+y,z
1/2-x,1/2+y,-z
1/2-x,1/2-y,-z
1/2+x,1/2-y,z
loop_
_atom_site_type_symbol
_atom_site_label
_atom_site_fract_x
_atom_site_fract_y
_atom_site_fract_z
Si Si1 0.288662 0.826472 0.868315
Si Si2 0.673264 0.170702 0.759048
Si Si3 0.010016 0.328004 0.260090
Si Si4 0.946451 0.341088 0.872326
Si Si5 0.152358 0.836455 0.204604
Si Si6 0.115475 0.672473 0.868714
Si Si7 0.880203 0.668959 0.498558
Si Si8 0.194775 0.836034 0.455201
O O1 0.230376 0.764202 0.832223
O O2 0.298651 0.756053 0.782451
O O3 0.284373 0.000000 0.855396
O O4 0.340858 0.775304 0.998323
O O5 0.638198 0.223878 0.800844
O O6 0.633446 0.204108 0.622562
O O7 0.689336 0.000000 0.784558
O O8 0.002500 0.500000 0.239420
O O9 0.947620 0.259506 0.198317
O O10 0.036628 0.265917 0.201190
O O11 0.054062 0.290012 0.397140
O O12 0.916977 0.500000 0.816959
O O13 0.907828 0.239997 0.886635
O O14 0.000000 0.371073 0.000000
O O15 0.157251 0.835686 0.318207
O O16 0.153150 0.000000 0.166408
O O17 0.111440 0.500000 0.865786
O O18 0.869192 0.500000 0.507045
O O19 0.837853 0.761122 0.505139
O O20 0.250000 0.750000 0.500000
O O21 0.210262 0.000000 0.504777
#
# Coordination Sequence:
#
# PCOD8090406 Si02
#       8
#     8   8   8   8   8   8   8   8
#     4  11  22  37  59  84 113 150 193 237 286 344
#     4  10  21  37  58  85 116 147 186 238 292 340
#     4   9  17  32  55  83 115 147 186 232 277 333
#     4  10  19  33  56  83 113 150 189 228 272 329
#     4  11  23  37  54  81 114 147 184 229 283 335
#     4   9  19  36  58  85 114 146 188 239 287 336
#     4  10  20  35  57  84 114 149 187 232 284 338
#     4  11  23  37  55  79 111 149 188 231 280 335
#
# _framework density 19.927406000000001
#
# number of rings (size 3 to 8) (size 9 to 14) (size 15 to 20)
#    0.000    1.875    1.250    3.000    0.000    7.750 
#    0.000    3.125    0.000    2.250    0.000    1.750 
#    0.000    0.000    0.000    0.000    0.000    0.000 
#
# Total GULP energy -396730.827486 kJ/mol
# GULP energy per Si atom -12397.838359 kJ/mol
# Density = 1.988205 g / cm^3
# Si number density = 19.927406 Si / 1000 Ang^3
#
#
#
# Elastic Constant Matrix: (Units=GPa)
#
#
# Indices 1 2 3 4 5 6 
#
# 1 122.2395 42.0030 31.3418 0.0000 6.5535 0.0000
# 2 42.0030 79.7241 28.0591 0.0000 3.9039 0.0000
# 3 31.3418 28.0591 80.1761 0.0000 6.2725 0.0000
# 4 0.0000 0.0000 0.0000 16.8976 0.0000 -1.0230
# 5 6.5535 3.9039 6.2725 0.0000 38.7367 0.0000
# 6 0.0000 0.0000 0.0000 -1.0230 0.0000 25.2871
#
#
#
# Elastic Compliance Matrix: (Units=1/GPa)
#
#
# Indices 1 2 3 4 5 6 
#
# 1 0.010426 -0.004606 -0.002392 0.000000 -0.000912 0.000000
# 2 -0.004606 0.016356 -0.003905 0.000000 -0.000237 0.000000
# 3 -0.002392 -0.003905 0.014901 0.000000 -0.001615 0.000000
# 4 0.000000 0.000000 0.000000 0.059325 0.000000 0.002400
# 5 -0.000912 -0.000237 -0.001615 0.000000 0.026255 0.000000
# 6 0.000000 0.000000 0.000000 0.002400 0.000000 0.039643
#
#
# Mechanical properties :
#
#
# Convention : Reuss Voigt Hill
#
# Bulk Modulus (GPa) = 50.31271 53.88306 52.09789
# Shear Modulus (GPa) = 25.59676 28.23334 26.91505
#
# Velocity S-wave (km/s) = 3.58788 3.76814 3.67911
# Velocity P-wave (km/s) = 6.51665 6.78455 6.65195
#
# Compressibility (1/GPa) = 0.01987569
#
# Stress axis : x y z
#
# Youngs Moduli (GPa) = 95.91729 61.13962 67.11150
#
# Poissons Ratio (x) = 0.28162 0.16054
# Poissons Ratio (y) = 0.44182 0.26207
# Poissons Ratio (z) = 0.22945 0.23875
#
# Static dielectric constant tensor:
#      x y z
#    x 3.720170 0.000000 0.029930 
#    y 0.000000 3.374650 0.000000 
#    z 0.029930 0.000000 3.805180 
# 
# 
# High freq. dielectric constant tensor:
#      x y z
#    x 1.781950 0.000000 0.001320 
#    y 0.000000 1.748060 0.000000 
#    z 0.001320 0.000000 1.784940 
# 
# From -- ./inp_files/250091.got.cif
#   From: 2010.06.25/outbox.cif.g09.slc.cpg/sg12_126_cif.got.tgz:250091.got - 2010.06.28 00:19:55.
