data_PCOD8090510
_publ_section_title
;
Structure prediction by ZEFSAII (Michael W. Deem and Ramdas Pophale) SiO2 
 PCOD8090510
Probable space group: C 2/M
;
_chemical_formula_sum "Si O2"
_cell_formula_units_Z 56
_cell_length_a 20.493760
_cell_length_b 8.908403
_cell_length_c 17.759632
_cell_angle_alpha 90.000000
_cell_angle_beta 63.742120
_cell_angle_gamma 90.000000
_cell_volume 2907.748419
_symmetry_space_group_name_H-M "C 2/M"
_symmetry_group_IT_number 12
_symmetry_cell_setting 'monoclinic'
loop_
_space_group_symop_operation_xyz
x,y,z
-x,y,-z
-x,-y,-z
x,-y,z
1/2+x,1/2+y,z
1/2-x,1/2+y,-z
1/2-x,1/2-y,-z
1/2+x,1/2-y,z
loop_
_atom_site_type_symbol
_atom_site_label
_atom_site_fract_x
_atom_site_fract_y
_atom_site_fract_z
Si Si1 0.652586 0.678044 0.757059
Si Si2 0.090848 0.678212 0.219497
Si Si3 0.424034 0.178214 0.507437
Si Si4 0.428744 0.178178 0.334682
Si Si5 0.580481 0.176463 0.934192
Si Si6 0.816411 0.321346 0.688587
Si Si7 0.172172 0.322846 0.030841
O O1 0.649536 0.500000 0.757313
O O2 0.629287 0.740978 0.688373
O O3 0.598944 0.737864 0.848519
O O4 0.734008 0.738356 0.731066
O O5 0.090753 0.500000 0.224107
O O6 0.142739 0.743118 0.258662
O O7 0.120140 0.735439 0.124284
O O8 0.009127 0.737030 0.272273
O O9 0.500000 0.244697 0.500000
O O10 0.410916 0.230148 0.428655
O O11 0.357969 0.237985 0.592861
O O12 0.428486 0.000000 0.508726
O O13 0.422585 0.000000 0.327675
O O14 0.584055 0.000000 0.916243
O O15 0.500000 0.224383 0.000000
O O16 0.636878 0.226137 0.970006
O O17 0.817316 0.500000 0.689414
O O18 0.181260 0.500000 0.031311
O O19 0.250000 0.250000 0.000000
#
# Coordination Sequence:
#
# PCOD8090510 Si02
#       7
#     8   8   8   8   8   8   8
#     4  11  23  36  52  78 114 148 175 213 275 337
#     4   9  16  30  53  78 101 131 174 222 265 303
#     4   9  15  28  53  85 108 131 180 233 265 300
#     4  10  19  33  57  82 105 135 180 230 266 306
#     4  10  21  39  60  79 104 141 188 232 264 306
#     4   9  17  30  50  79 112 141 175 222 267 311
#     4  10  20  33  52  78 106 136 172 217 268 319
#
# _framework density 19.258887000000001
#
# number of rings (size 3 to 8) (size 9 to 14) (size 15 to 20)
#    0.000    2.286    1.429    2.143    0.000    4.857 
#    0.000    2.143    0.000    3.000    0.000    0.000 
#    0.000    0.000    0.000    0.000    0.000    0.000 
#
# Total GULP energy -347227.758794 kJ/mol
# GULP energy per Si atom -12400.991386 kJ/mol
# Density = 1.921505 g / cm^3
# Si number density = 19.258887 Si / 1000 Ang^3
#
#
#
# Elastic Constant Matrix: (Units=GPa)
#
#
# Indices 1 2 3 4 5 6 
#
# 1 112.6824 22.3017 27.3636 0.0000 7.8883 0.0000
# 2 22.3017 24.1933 20.7720 0.0001 2.8206 0.0000
# 3 27.3636 20.7720 115.3366 0.0000 10.0071 0.0000
# 4 0.0000 0.0001 0.0000 14.3078 0.0000 0.8137
# 5 7.8883 2.8206 10.0071 0.0000 39.0592 0.0000
# 6 0.0000 0.0000 0.0000 0.8137 0.0000 26.3617
#
#
#
# Elastic Compliance Matrix: (Units=1/GPa)
#
#
# Indices 1 2 3 4 5 6 
#
# 1 0.011005 -0.009282 -0.000823 0.000000 -0.001341 0.000000
# 2 -0.009282 0.056788 -0.008010 0.000000 -0.000174 0.000000
# 3 -0.000823 -0.008010 0.010476 0.000000 -0.001939 0.000000
# 4 0.000000 0.000000 0.000000 0.070015 0.000000 -0.002161
# 5 -0.001341 -0.000174 -0.001939 0.000000 0.026383 0.000000
# 6 0.000000 0.000000 0.000000 -0.002161 0.000000 0.038001
#
#
# Mechanical properties :
#
#
# Convention : Reuss Voigt Hill
#
# Bulk Modulus (GPa) = 23.78722 43.67635 33.73178
# Shear Modulus (GPa) = 19.01789 28.06407 23.54098
#
# Velocity S-wave (km/s) = 3.14584 3.82147 3.50000
# Velocity P-wave (km/s) = 5.05699 6.49610 5.82119
#
# Compressibility (1/GPa) = 0.04203939
#
# Stress axis : x y z
#
# Youngs Moduli (GPa) = 90.86538 17.60945 95.45246
#
# Poissons Ratio (x) = 0.16345 0.07855
# Poissons Ratio (y) = 0.84340 0.76459
# Poissons Ratio (z) = 0.07478 0.14105
#
# Static dielectric constant tensor:
#      x y z
#    x 3.913630 0.000000 0.574540 
#    y 0.000000 2.969970 0.000000 
#    z 0.574540 0.000000 5.228430 
# 
# 
# High freq. dielectric constant tensor:
#      x y z
#    x 1.762170 0.000000 0.002970 
#    y 0.000000 1.693680 0.000000 
#    z 0.002970 0.000000 1.767170 
# 
# From -- ./inp_files/275579.got.cif
#   From: 2010.06.25/outbox.cif.g09.slc.cpg/sg12_138_cif.got.tgz:275579.got - 2010.06.28 00:19:55.
