data_PCOD8090622
_publ_section_title
;
Structure prediction by ZEFSAII (Michael W. Deem and Ramdas Pophale) SiO2 
 PCOD8090622
Probable space group: C 2/M
;
_chemical_formula_sum "Si O2"
_cell_formula_units_Z 56
_cell_length_a 11.577141
_cell_length_b 19.460240
_cell_length_c 13.790566
_cell_angle_alpha 90.000000
_cell_angle_beta 70.959440
_cell_angle_gamma 90.000000
_cell_volume 2936.944161
_symmetry_space_group_name_H-M "C 2/M"
_symmetry_group_IT_number 12
_symmetry_cell_setting 'monoclinic'
loop_
_space_group_symop_operation_xyz
x,y,z
-x,y,-z
-x,-y,-z
x,-y,z
1/2+x,1/2+y,z
1/2-x,1/2+y,-z
1/2-x,1/2-y,-z
1/2+x,1/2-y,z
loop_
_atom_site_type_symbol
_atom_site_label
_atom_site_fract_x
_atom_site_fract_y
_atom_site_fract_z
Si Si1 0.415378 0.786752 0.147557
Si Si2 0.618246 0.368978 0.912299
Si Si3 0.256669 0.686030 0.630398
Si Si4 0.641446 0.171773 0.458223
Si Si5 0.950374 0.921926 0.621291
Si Si6 0.823362 0.680640 0.977598
Si Si7 0.171521 0.921697 0.693185
O O1 0.407769 0.708599 0.114081
O O2 0.351156 0.792265 0.268254
O O3 0.555996 0.809174 0.121517
O O4 0.356832 0.836585 0.080612
O O5 0.736033 0.375761 0.951321
O O6 0.643139 0.417258 0.814251
O O7 0.500000 0.398080 0.000000
O O8 0.343924 0.749963 0.581361
O O9 0.197086 0.657877 0.548743
O O10 0.333311 0.626916 0.663099
O O11 0.500000 0.152239 0.500000
O O12 0.709210 0.122582 0.363802
O O13 0.000000 0.916729 0.500000
O O14 0.054600 0.894110 0.665176
O O15 0.912092 0.000000 0.657814
O O16 0.750000 0.750000 0.000000
O O17 0.198050 0.000000 0.656153
#
# Coordination Sequence:
#
# PCOD8090622 Si02
#       7
#     8   8   8   8   8   8   8
#     4  10  19  33  57  89 118 153 193 248 303 358
#     4  11  21  36  59  86 119 156 197 252 304 356
#     4  11  23  36  62  93 123 154 202 253 303 360
#     4  11  25  38  57  94 128 158 196 251 310 360
#     4  10  21  41  65  85 116 160 206 248 291 357
#     4   9  18  33  53  84 116 154 192 236 304 360
#     4  11  25  43  62  87 121 167 208 249 305 364
#
# _framework density 19.067437999999999
#
# number of rings (size 3 to 8) (size 9 to 14) (size 15 to 20)
#    0.000    1.571    5.714    0.429    6.000    0.571 
#    0.000    0.000    0.000    0.000    0.000    2.000 
#    0.000    0.000    0.000    0.000    0.000    0.000 
#
# Total GULP energy -347230.206445 kJ/mol
# GULP energy per Si atom -12401.078802 kJ/mol
# Density = 1.902404 g / cm^3
# Si number density = 19.067438 Si / 1000 Ang^3
#
#
#
# Elastic Constant Matrix: (Units=GPa)
#
#
# Indices 1 2 3 4 5 6 
#
# 1 137.1506 37.5297 40.6797 0.0000 -11.6760 0.0000
# 2 37.5297 52.8094 12.8407 0.0000 -2.8191 0.0000
# 3 40.6797 12.8407 108.6705 0.0000 -12.1125 0.0000
# 4 0.0000 0.0000 0.0000 19.1543 0.0000 1.0359
# 5 -11.6760 -2.8191 -12.1125 0.0000 31.6451 0.0000
# 6 0.0000 0.0000 0.0000 1.0359 0.0000 16.8975
#
#
#
# Elastic Compliance Matrix: (Units=1/GPa)
#
#
# Indices 1 2 3 4 5 6 
#
# 1 0.010025 -0.006339 -0.002773 0.000000 0.002073 0.000000
# 2 -0.006339 0.023529 -0.000454 0.000000 -0.000417 0.000000
# 3 -0.002773 -0.000454 0.010629 0.000000 0.003005 0.000000
# 4 0.000000 0.000000 0.000000 0.052381 0.000000 -0.003211
# 5 0.002073 -0.000417 0.003005 0.000000 0.033478 0.000000
# 6 0.000000 0.000000 0.000000 -0.003211 0.000000 0.059377
#
#
# Mechanical properties :
#
#
# Convention : Reuss Voigt Hill
#
# Bulk Modulus (GPa) = 39.91793 53.41453 46.66623
# Shear Modulus (GPa) = 23.05200 27.37808 25.21504
#
# Velocity S-wave (km/s) = 3.48080 3.79338 3.64045
# Velocity P-wave (km/s) = 6.09387 6.87463 6.49599
#
# Compressibility (1/GPa) = 0.02505140
#
# Stress axis : x y z
#
# Youngs Moduli (GPa) = 99.75263 42.50023 94.08649
#
# Poissons Ratio (x) = 0.26943 0.26086
# Poissons Ratio (y) = 0.63238 0.04268
# Poissons Ratio (z) = 0.27657 0.01928
#
# Static dielectric constant tensor:
#      x y z
#    x 3.691090 0.000000 0.051570 
#    y 0.000000 3.218810 0.000000 
#    z 0.051570 0.000000 3.515240 
# 
# 
# High freq. dielectric constant tensor:
#      x y z
#    x 1.750850 0.000000 0.003280 
#    y 0.000000 1.704430 0.000000 
#    z 0.003280 0.000000 1.749240 
# 
# From -- ./inp_files/206122.got.cif
#   From: 2010.06.25/outbox.cif.g09.slc.cpg/sg12_104_cif.got.tgz:206122.got - 2010.06.28 00:19:55.
