data_PCOD8090833
_publ_section_title
;
Structure prediction by ZEFSAII (Michael W. Deem and Ramdas Pophale) SiO2 
 PCOD8090833
Probable space group: C 2/M
;
_chemical_formula_sum "Si O2"
_cell_formula_units_Z 64
_cell_length_a 17.646043
_cell_length_b 11.601811
_cell_length_c 32.709641
_cell_angle_alpha 90.000000
_cell_angle_beta 31.320493
_cell_angle_gamma 90.000000
_cell_volume 3481.014265
_symmetry_space_group_name_H-M "C 2/M"
_symmetry_group_IT_number 12
_symmetry_cell_setting 'monoclinic'
loop_
_space_group_symop_operation_xyz
x,y,z
-x,y,-z
-x,-y,-z
x,-y,z
1/2+x,1/2+y,z
1/2-x,1/2+y,-z
1/2-x,1/2-y,-z
1/2+x,1/2-y,z
loop_
_atom_site_type_symbol
_atom_site_label
_atom_site_fract_x
_atom_site_fract_y
_atom_site_fract_z
Si Si1 0.845489 0.127944 0.243196
Si Si2 0.402824 0.277559 0.672111
Si Si3 0.946934 0.228320 0.788103
Si Si4 0.520976 0.726470 0.090628
Si Si5 0.305296 0.133086 0.924912
Si Si6 0.230600 0.628267 0.824046
Si Si7 0.313673 0.631888 0.490108
Si Si8 0.927262 0.370613 0.341129
O O1 0.712172 0.217543 0.305233
O O2 0.947035 0.145455 0.235674
O O3 0.939963 0.139301 0.158394
O O4 0.780681 0.000000 0.274985
O O5 0.319801 0.364313 0.740607
O O6 0.512215 0.351215 0.592958
O O7 0.481616 0.180590 0.663017
O O8 0.854843 0.308465 0.860379
O O9 0.834146 0.152511 0.814621
O O10 0.049446 0.302377 0.711200
O O11 0.601864 0.825183 0.079135
O O12 0.404812 0.784074 0.113557
O O13 0.634539 0.656585 0.010696
O O14 0.335426 0.000000 0.905781
O O15 0.168626 0.500000 0.857126
O O16 0.278103 0.500000 0.488147
O O17 0.250000 0.750000 0.500000
O O18 0.245300 0.632022 0.567322
O O19 0.983417 0.500000 0.308354
#
# Coordination Sequence:
#
# PCOD8090833 Si02
#       8
#     8   8   8   8   8   8   8   8
#     4  10  19  34  53  74 103 135 171 214 259 305
#     4   9  18  31  53  79 100 131 175 213 252 303
#     4  10  21  33  50  76 102 134 170 203 254 313
#     4   9  20  34  53  78  96 126 172 209 251 304
#     4  10  19  35  54  73 101 130 163 208 253 300
#     4  10  19  34  52  73 103 132 164 208 254 301
#     4   9  17  31  53  81 109 137 174 219 264 310
#     4   9  17  32  52  75 104 134 167 209 256 305
#
# _framework density 18.385446000000002
#
# number of rings (size 3 to 8) (size 9 to 14) (size 15 to 20)
#    0.000    2.500    0.000    2.250    0.000    1.000 
#    0.000    8.125    0.000    2.250    0.000    0.000 
#    0.000    0.000    0.000    0.000    0.000    0.000 
#
# Total GULP energy -396563.060661 kJ/mol
# GULP energy per Si atom -12392.595646 kJ/mol
# Density = 1.834360 g / cm^3
# Si number density = 18.385446 Si / 1000 Ang^3
#
#
#
# Elastic Constant Matrix: (Units=GPa)
#
#
# Indices 1 2 3 4 5 6 
#
# 1 86.2284 23.9827 15.2856 0.0002 -3.3537 0.0004
# 2 23.9827 104.0891 14.8284 0.0000 1.0325 0.0002
# 3 15.2856 14.8284 87.7388 -0.0012 -3.0067 -0.0001
# 4 0.0002 0.0000 -0.0012 16.5326 0.0001 -3.6466
# 5 -3.3537 1.0325 -3.0067 0.0001 22.2061 0.0001
# 6 0.0004 0.0002 -0.0001 -3.6466 0.0001 4.8168
#
#
#
# Elastic Compliance Matrix: (Units=1/GPa)
#
#
# Indices 1 2 3 4 5 6 
#
# 1 0.012722 -0.002707 -0.001696 -0.000001 0.001817 -0.000001
# 2 -0.002707 0.010431 -0.001328 0.000000 -0.001074 0.000000
# 3 -0.001696 -0.001328 0.011966 0.000001 0.001426 0.000001
# 4 -0.000001 0.000000 0.000001 0.072611 0.000000 0.054971
# 5 0.001817 -0.001074 0.001426 0.000000 0.045550 -0.000001
# 6 -0.000001 0.000000 0.000001 0.054971 -0.000001 0.249224
#
#
# Mechanical properties :
#
#
# Convention : Reuss Voigt Hill
#
# Bulk Modulus (GPa) = 42.27458 42.91663 42.59560
# Shear Modulus (GPa) = 11.85249 23.64173 17.74711
#
# Velocity S-wave (km/s) = 2.54178 3.58983 3.11027
# Velocity P-wave (km/s) = 5.62651 6.36992 6.00972
#
# Compressibility (1/GPa) = 0.02365488
#
# Stress axis : x y z
#
# Youngs Moduli (GPa) = 78.60675 95.86991 83.56789
#
# Poissons Ratio (x) = 0.25956 0.14177
# Poissons Ratio (y) = 0.21282 0.11098
# Poissons Ratio (z) = 0.13335 0.12731
#
# Static dielectric constant tensor:
#      x y z
#    x 3.135160 0.000000 -0.112940 
#    y 0.000000 3.416910 0.000000 
#    z -0.112940 0.000000 3.696550 
# 
# 
# High freq. dielectric constant tensor:
#      x y z
#    x 1.684020 0.000000 -0.008260 
#    y 0.000000 1.722690 0.000000 
#    z -0.008260 0.000000 1.721320 
# 
# From -- ./inp_files/379091.got.cif
#   From: 2010.06.25/outbox.cif.g09.slc.cpg/sg12_190_cif.got.tgz:379091.got - 2010.06.28 00:19:55.
