data_PCOD8090606
_publ_section_title
;
Structure prediction by ZEFSAII (Michael W. Deem and Ramdas Pophale) SiO2 
 PCOD8090606
Probable space group: C 2/M
;
_chemical_formula_sum "Si O2"
_cell_formula_units_Z 56
_cell_length_a 29.171699
_cell_length_b 9.414631
_cell_length_c 20.264920
_cell_angle_alpha 90.000000
_cell_angle_beta 27.877215
_cell_angle_gamma 90.000000
_cell_volume 2602.341534
_symmetry_space_group_name_H-M "C 2/M"
_symmetry_group_IT_number 12
_symmetry_cell_setting 'monoclinic'
loop_
_space_group_symop_operation_xyz
x,y,z
-x,y,-z
-x,-y,-z
x,-y,z
1/2+x,1/2+y,z
1/2-x,1/2+y,-z
1/2-x,1/2-y,-z
1/2+x,1/2-y,z
loop_
_atom_site_type_symbol
_atom_site_label
_atom_site_fract_x
_atom_site_fract_y
_atom_site_fract_z
Si Si1 0.286243 0.154822 0.011596
Si Si2 0.503697 0.158032 0.693051
Si Si3 0.077102 0.660406 0.844824
Si Si4 0.462061 0.333917 0.475029
Si Si5 0.043602 0.841567 0.758720
Si Si6 0.764610 0.341639 0.256839
Si Si7 0.677164 0.654957 0.925809
O O1 0.401851 0.134429 0.859709
O O2 0.234277 0.000000 0.077829
O O3 0.250000 0.250000 0.000000
O O4 0.255534 0.237788 0.117116
O O5 0.483252 0.240082 0.649971
O O6 0.571512 0.251426 0.657081
O O7 0.549812 0.000000 0.621979
O O8 0.049402 0.500000 0.857438
O O9 0.077782 0.763518 0.781456
O O10 0.189742 0.663672 0.727918
O O11 0.000000 0.708074 0.000000
O O12 0.500000 0.289941 0.500000
O O13 0.483315 0.500000 0.435646
O O14 0.348306 0.296829 0.606160
O O15 0.091516 0.000000 0.693738
O O16 0.927404 0.861847 0.907590
O O17 0.778551 0.500000 0.209340
O O18 0.831936 0.227647 0.133447
O O19 0.727642 0.500000 0.856625
#
# Coordination Sequence:
#
# PCOD8090606 Si02
#       7
#     8   8   8   8   8   8   8
#     4  10  21  35  54  81 112 146 187 237 293 350
#     4  10  22  40  60  83 114 152 196 242 291 347
#     4  10  19  33  57  87 122 157 190 234 292 352
#     4  10  23  42  62  84 113 154 200 245 291 339
#     4  10  20  35  58  87 120 154 189 233 289 349
#     4  10  21  37  57  84 117 155 196 237 288 350
#     4  10  20  33  52  82 117 151 185 231 286 344
#
# _framework density 21.519082000000001
#
# number of rings (size 3 to 8) (size 9 to 14) (size 15 to 20)
#    0.000    2.000    1.429    1.714    2.000    4.571 
#    0.000    0.714    0.000    0.000    0.000    0.000 
#    0.000    0.000    0.000    0.000    0.000    0.000 
#
# Total GULP energy -346972.897490 kJ/mol
# GULP energy per Si atom -12391.889196 kJ/mol
# Density = 2.147010 g / cm^3
# Si number density = 21.519082 Si / 1000 Ang^3
#
#
#
# Elastic Constant Matrix: (Units=GPa)
#
#
# Indices 1 2 3 4 5 6 
#
# 1 139.8975 78.8981 12.2339 0.0013 13.5762 0.0002
# 2 78.8981 184.3709 11.6155 -0.0007 23.5822 -0.0007
# 3 12.2339 11.6155 25.0099 -0.0027 2.9945 0.0007
# 4 0.0013 -0.0007 -0.0027 19.4282 0.0011 4.0778
# 5 13.5762 23.5822 2.9945 0.0011 34.3121 -0.0004
# 6 0.0002 -0.0007 0.0007 4.0778 -0.0004 37.4100
#
#
#
# Elastic Compliance Matrix: (Units=1/GPa)
#
#
# Indices 1 2 3 4 5 6 
#
# 1 0.009646 -0.003830 -0.002828 -0.000001 -0.000938 0.000000
# 2 -0.003830 0.007601 -0.001225 0.000001 -0.003601 0.000000
# 3 -0.002828 -0.001225 0.042142 0.000006 -0.001717 -0.000001
# 4 -0.000001 0.000001 0.000006 0.052677 -0.000002 -0.005742
# 5 -0.000938 -0.003601 -0.001717 -0.000002 0.032140 0.000001
# 6 0.000000 0.000000 -0.000001 -0.005742 0.000001 0.027357
#
#
# Mechanical properties :
#
#
# Convention : Reuss Voigt Hill
#
# Bulk Modulus (GPa) = 22.92353 61.64147 42.28250
# Shear Modulus (GPa) = 24.76848 34.66545 29.71697
#
# Velocity S-wave (km/s) = 3.39632 4.01798 3.72016
# Velocity P-wave (km/s) = 5.10449 7.08751 6.17610
#
# Compressibility (1/GPa) = 0.04362329
#
# Stress axis : x y z
#
# Youngs Moduli (GPa) = 103.66664 131.56812 23.72928
#
# Poissons Ratio (x) = 0.50389 0.06710
# Poissons Ratio (y) = 0.39703 0.02908
# Poissons Ratio (z) = 0.29313 0.16122
#
# Static dielectric constant tensor:
#      x y z
#    x 2.860200 -0.000010 -1.024540 
#    y -0.000010 4.330240 0.000000 
#    z -1.024540 0.000000 2.763240 
# 
# 
# High freq. dielectric constant tensor:
#      x y z
#    x 1.848340 0.000000 0.006490 
#    y 0.000000 1.859140 0.000000 
#    z 0.006490 0.000000 1.797540 
# 
# From -- ./inp_files/329506.got.cif
#   From: 2010.06.25/outbox.cif.g09.slc.cpg/sg12_165_cif.got.tgz:329506.got - 2010.06.28 00:19:55.
