data_PCOD8090269
_publ_section_title
;
Structure prediction by ZEFSAII (Michael W. Deem and Ramdas Pophale) SiO2 
 PCOD8090269
Probable space group: C 2/M
;
_chemical_formula_sum "Si O2"
_cell_formula_units_Z 64
_cell_length_a 30.899917
_cell_length_b 8.859405
_cell_length_c 11.242715
_cell_angle_alpha 90.000000
_cell_angle_beta 93.016836
_cell_angle_gamma 90.000000
_cell_volume 3073.482675
_symmetry_space_group_name_H-M "C 2/M"
_symmetry_group_IT_number 12
_symmetry_cell_setting 'monoclinic'
loop_
_space_group_symop_operation_xyz
x,y,z
-x,y,-z
-x,-y,-z
x,-y,z
1/2+x,1/2+y,z
1/2-x,1/2+y,-z
1/2-x,1/2-y,-z
1/2+x,1/2-y,z
loop_
_atom_site_type_symbol
_atom_site_label
_atom_site_fract_x
_atom_site_fract_y
_atom_site_fract_z
Si Si1 0.047342 0.333025 0.514428
Si Si2 0.857944 0.321130 0.885442
Si Si3 0.898195 0.328183 0.128485
Si Si4 0.865450 0.674246 0.369893
Si Si5 0.986762 0.823302 0.126402
Si Si6 0.761682 0.679447 0.871438
Si Si7 0.936634 0.666526 0.748176
Si Si8 0.723371 0.679125 0.607480
O O1 0.038127 0.500000 0.568915
O O2 0.086379 0.255723 0.594247
O O3 0.069677 0.347710 0.391265
O O4 0.000000 0.248435 0.500000
O O5 0.855620 0.500000 0.893192
O O6 0.810163 0.261791 0.850651
O O7 0.891589 0.265567 0.790450
O O8 0.875219 0.252608 0.011858
O O9 0.911373 0.500000 0.104829
O O10 0.862613 0.316196 0.227081
O O11 0.942116 0.242894 0.167332
O O12 0.862274 0.500000 0.413856
O O13 0.826464 0.770458 0.419935
O O14 0.023939 0.778760 0.223429
O O15 0.981696 0.000000 0.119852
O O16 0.000000 0.756402 0.000000
O O17 0.757528 0.500000 0.885766
O O18 0.736778 0.731160 0.745322
O O19 0.750000 0.750000 0.000000
O O20 0.945644 0.500000 0.805742
O O21 0.727938 0.500000 0.597698
O O22 0.750000 0.750000 0.500000
#
# Coordination Sequence:
#
# PCOD8090269 Si02
#       8
#     8   8   8   8   8   8   8   8
#     4   9  18  33  56  87 115 146 193 243 288 340
#     4   9  18  32  55  84 108 139 188 242 292 347
#     4  10  19  34  58  85 111 147 194 242 293 355
#     4  10  21  38  64  91 119 155 200 252 303 360
#     4  11  22  34  49  76 116 154 186 234 294 353
#     4  10  22  41  65  92 122 157 203 257 315 372
#     4  10  19  33  56  78 105 145 191 240 285 343
#     4  11  25  43  66  95 130 170 212 258 314 380
#
# _framework density 20.823284000000001
#
# number of rings (size 3 to 8) (size 9 to 14) (size 15 to 20)
#    0.000    2.000    1.250    2.250    1.750    5.000 
#    0.000    1.875    0.000    1.500    0.000    0.000 
#    0.000    0.000    0.000    0.000    0.000    0.000 
#
# Total GULP energy -396429.218588 kJ/mol
# GULP energy per Si atom -12388.413081 kJ/mol
# Density = 2.077589 g / cm^3
# Si number density = 20.823284 Si / 1000 Ang^3
#
#
#
# Elastic Constant Matrix: (Units=GPa)
#
#
# Indices 1 2 3 4 5 6 
#
# 1 163.1166 27.4407 46.4729 0.0000 2.8393 0.0000
# 2 27.4407 47.2178 22.9496 0.0000 -4.8607 0.0000
# 3 46.4729 22.9496 109.9731 0.0000 -5.5859 0.0000
# 4 0.0000 0.0000 0.0000 19.5063 0.0000 -4.6944
# 5 2.8393 -4.8607 -5.5859 0.0000 26.4843 0.0000
# 6 0.0000 0.0000 0.0000 -4.6944 0.0000 23.0013
#
#
#
# Elastic Compliance Matrix: (Units=1/GPa)
#
#
# Indices 1 2 3 4 5 6 
#
# 1 0.007446 -0.003283 -0.002560 0.000000 -0.001941 0.000000
# 2 -0.003283 0.025309 -0.003680 0.000000 0.004221 0.000000
# 3 -0.002560 -0.003680 0.011041 0.000000 0.001928 0.000000
# 4 0.000000 0.000000 0.000000 0.053913 0.000000 0.011003
# 5 -0.001941 0.004221 0.001928 0.000000 0.039147 0.000000
# 6 0.000000 0.000000 0.000000 0.011003 0.000000 0.045722
#
#
# Mechanical properties :
#
#
# Convention : Reuss Voigt Hill
#
# Bulk Modulus (GPa) = 40.40317 57.11486 48.75901
# Shear Modulus (GPa) = 23.82375 28.69467 26.25921
#
# Velocity S-wave (km/s) = 3.38611 3.71618 3.55498
# Velocity P-wave (km/s) = 5.89344 6.77505 6.34956
#
# Compressibility (1/GPa) = 0.02475053
#
# Stress axis : x y z
#
# Youngs Moduli (GPa) = 134.30037 39.51105 90.57265
#
# Poissons Ratio (x) = 0.12970 0.23187
# Poissons Ratio (y) = 0.44087 0.33331
# Poissons Ratio (z) = 0.34382 0.14540
#
# Static dielectric constant tensor:
#      x y z
#    x 3.978150 0.000000 -0.006560 
#    y 0.000000 3.349290 0.000000 
#    z -0.006560 0.000000 3.993630 
# 
# 
# High freq. dielectric constant tensor:
#      x y z
#    x 1.827190 0.000000 -0.004400 
#    y 0.000000 1.765000 0.000000 
#    z -0.004400 0.000000 1.826940 
# 
# From -- ./inp_files/187560.got.cif
#   From: 2010.06.25/outbox.cif.g09.slc.cpg/sg12_94_cif.got.tgz:187560.got - 2010.06.28 00:19:55.
