data_PCOD8090474
_publ_section_title
;
Structure prediction by ZEFSAII (Michael W. Deem and Ramdas Pophale) SiO2 
 PCOD8090474
Probable space group: C 2/M
;
_chemical_formula_sum "Si O2"
_cell_formula_units_Z 64
_cell_length_a 25.346760
_cell_length_b 15.110316
_cell_length_c 8.561646
_cell_angle_alpha 90.000000
_cell_angle_beta 87.767087
_cell_angle_gamma 90.000000
_cell_volume 3276.599657
_symmetry_space_group_name_H-M "C 2/M"
_symmetry_group_IT_number 12
_symmetry_cell_setting 'monoclinic'
loop_
_space_group_symop_operation_xyz
x,y,z
-x,y,-z
-x,-y,-z
x,-y,z
1/2+x,1/2+y,z
1/2-x,1/2+y,-z
1/2-x,1/2-y,-z
1/2+x,1/2-y,z
loop_
_atom_site_type_symbol
_atom_site_label
_atom_site_fract_x
_atom_site_fract_y
_atom_site_fract_z
Si Si1 0.123304 0.897263 0.346005
Si Si2 0.999860 0.599527 0.183662
Si Si3 0.390983 0.854721 0.347024
Si Si4 0.301567 0.735852 0.794224
Si Si5 0.550212 0.755033 0.397764
Si Si6 0.692879 0.902958 0.411646
Si Si7 0.688293 0.402851 0.641407
Si Si8 0.814620 0.254409 0.149709
O O1 0.168911 0.856704 0.232992
O O2 0.071895 0.836081 0.319694
O O3 0.142241 0.886190 0.521835
O O4 0.112244 0.000000 0.303990
O O5 0.023374 0.500000 0.201060
O O6 0.941609 0.595151 0.269515
O O7 0.036558 0.670388 0.269102
O O8 0.000000 0.625153 0.000000
O O9 0.407317 0.790563 0.485130
O O10 0.344083 0.912531 0.430187
O O11 0.365356 0.806443 0.203030
O O12 0.324682 0.818570 0.691130
O O13 0.240460 0.714161 0.766055
O O14 0.311237 0.767761 0.967628
O O15 0.500000 0.725269 0.500000
O O16 0.754606 0.886469 0.447666
O O17 0.688114 0.000000 0.326875
O O18 0.684514 0.500000 0.710229
O O19 0.678360 0.346403 0.797330
#
# Coordination Sequence:
#
# PCOD8090474 Si02
#       8
#     8   8   8   8   8   8   8   8
#     4  11  21  37  60  85 113 152 197 242 292 343
#     4  10  24  43  63  89 120 152 188 242 304 364
#     4  11  20  35  61  87 114 154 193 239 288 355
#     4  10  21  36  55  86 123 162 192 238 292 345
#     4  10  22  39  60  87 112 151 193 245 295 345
#     4  10  19  33  56  86 117 150 193 240 286 349
#     4   9  18  33  56  84 115 152 197 240 283 341
#     4  10  20  35  57  83 123 161 194 235 292 351
#
# _framework density 19.532443000000001
#
# number of rings (size 3 to 8) (size 9 to 14) (size 15 to 20)
#    0.000    1.875    2.500    1.125    1.750    5.500 
#    0.000    3.750    0.000    0.375    0.000    0.000 
#    0.000    0.000    0.000    0.000    0.000    0.000 
#
# Total GULP energy -396425.188632 kJ/mol
# GULP energy per Si atom -12388.287145 kJ/mol
# Density = 1.948799 g / cm^3
# Si number density = 19.532443 Si / 1000 Ang^3
#
#
#
# Elastic Constant Matrix: (Units=GPa)
#
#
# Indices 1 2 3 4 5 6 
#
# 1 63.8277 47.0470 19.1209 0.0000 7.7452 0.0000
# 2 47.0470 138.5953 33.9108 0.0000 0.1872 0.0000
# 3 19.1209 33.9108 61.4805 0.0000 -2.4745 0.0000
# 4 0.0000 0.0000 0.0000 22.3010 0.0000 0.8514
# 5 7.7452 0.1872 -2.4745 0.0000 25.7479 0.0000
# 6 0.0000 0.0000 0.0000 0.8514 0.0000 25.2971
#
#
#
# Elastic Compliance Matrix: (Units=1/GPa)
#
#
# Indices 1 2 3 4 5 6 
#
# 1 0.022602 -0.006789 -0.003570 0.000000 -0.007092 0.000000
# 2 -0.006789 0.010387 -0.003552 0.000000 0.001625 0.000000
# 3 -0.003570 -0.003552 0.019454 0.000000 0.002969 0.000000
# 4 0.000000 0.000000 0.000000 0.044899 0.000000 -0.001511
# 5 -0.007092 0.001625 0.002969 0.000000 0.041245 0.000000
# 6 0.000000 0.000000 0.000000 -0.001511 0.000000 0.039581
#
#
# Mechanical properties :
#
#
# Convention : Reuss Voigt Hill
#
# Bulk Modulus (GPa) = 40.61725 51.56231 46.08978
# Shear Modulus (GPa) = 23.34299 25.59085 24.46692
#
# Velocity S-wave (km/s) = 3.46076 3.62356 3.54309
# Velocity P-wave (km/s) = 6.06704 6.63042 6.35498
#
# Compressibility (1/GPa) = 0.02462008
#
# Stress axis : x y z
#
# Youngs Moduli (GPa) = 44.24478 96.27608 51.40232
#
# Poissons Ratio (x) = 0.65363 0.18351
# Poissons Ratio (y) = 0.30038 0.18259
# Poissons Ratio (z) = 0.15795 0.34199
#
# Static dielectric constant tensor:
#      x y z
#    x 3.705120 0.000000 -0.096710 
#    y 0.000000 3.584880 0.000000 
#    z -0.096710 0.000000 3.378180 
# 
# 
# High freq. dielectric constant tensor:
#      x y z
#    x 1.762150 0.000000 -0.006480 
#    y 0.000000 1.760250 0.000000 
#    z -0.006480 0.000000 1.743010 
# 
# From -- ./inp_files/96878.got.cif
#   From: 2010.06.25/outbox.cif.g09.slc.cpg/sg12_49_cif.got.tgz:96878.got - 2010.06.28 00:19:55.
