data_PCOD8090970
_publ_section_title
;
Structure prediction by ZEFSAII (Michael W. Deem and Ramdas Pophale) SiO2 
 PCOD8090970
Probable space group: C 2/M
;
_chemical_formula_sum "Si O2"
_cell_formula_units_Z 56
_cell_length_a 9.494855
_cell_length_b 18.567566
_cell_length_c 27.344324
_cell_angle_alpha 90.000000
_cell_angle_beta 141.295820
_cell_angle_gamma 90.000000
_cell_volume 3014.384507
_symmetry_space_group_name_H-M "C 2/M"
_symmetry_group_IT_number 12
_symmetry_cell_setting 'monoclinic'
loop_
_space_group_symop_operation_xyz
x,y,z
-x,y,-z
-x,-y,-z
x,-y,z
1/2+x,1/2+y,z
1/2-x,1/2+y,-z
1/2-x,1/2-y,-z
1/2+x,1/2-y,z
loop_
_atom_site_type_symbol
_atom_site_label
_atom_site_fract_x
_atom_site_fract_y
_atom_site_fract_z
Si Si1 0.754499 0.335296 0.447254
Si Si2 0.057944 0.916004 0.875748
Si Si3 0.023307 0.083651 0.303658
Si Si4 0.253061 0.333237 0.445071
Si Si5 0.827881 0.826512 0.999911
Si Si6 0.382076 0.915636 0.874855
Si Si7 0.156708 0.583386 0.696542
O O1 0.557678 0.373934 0.363336
O O2 0.756054 0.360618 0.502707
O O3 0.712758 0.251183 0.428368
O O4 0.000000 0.361377 0.500000
O O5 0.055987 0.869727 0.924458
O O6 0.261500 0.894611 0.893737
O O7 0.817782 0.900126 0.785916
O O8 0.082069 0.000000 0.895627
O O9 0.782458 0.102191 0.214828
O O10 0.217418 0.107494 0.318695
O O11 0.039582 0.000000 0.319586
O O12 0.500000 0.358380 0.500000
O O13 0.072370 0.371566 0.360937
O O14 0.750000 0.750000 0.000000
O O15 0.604696 0.870021 0.924317
O O16 0.000000 0.819672 0.000000
O O17 0.443066 0.000000 0.892627
O O18 0.094282 0.500000 0.678005
#
# Coordination Sequence:
#
# PCOD8090970 Si02
#       7
#     8   8   8   8   8   8   8
#     4  10  19  34  54  76 106 148 192 230 272 330
#     4   9  19  38  63  86 112 152 191 227 281 343
#     4   9  18  34  59  86 106 138 189 234 270 321
#     4  10  21  34  49  77 113 149 188 229 282 330
#     4  12  25  40  59  87 118 149 188 231 279 334
#     4   9  19  38  62  87 116 148 186 231 283 343
#     4   9  18  35  58  82 110 144 184 227 275 331
#
# _framework density 18.577589
#
# number of rings (size 3 to 8) (size 9 to 14) (size 15 to 20)
#    0.000    2.286    1.429    3.429    0.000    4.571 
#    2.571    0.000    0.000    0.000    0.000    0.000 
#    0.000    0.000    0.000    0.000    0.000    0.000 
#
# Total GULP energy -347032.728286 kJ/mol
# GULP energy per Si atom -12394.026010 kJ/mol
# Density = 1.853531 g / cm^3
# Si number density = 18.577589 Si / 1000 Ang^3
#
#
#
# Elastic Constant Matrix: (Units=GPa)
#
#
# Indices 1 2 3 4 5 6 
#
# 1 114.4947 46.7132 55.7696 0.0003 4.0825 0.0000
# 2 46.7132 73.1849 64.4561 0.0009 2.1396 -0.0001
# 3 55.7696 64.4561 140.6928 0.0040 3.6272 -0.0004
# 4 0.0003 0.0009 0.0040 9.4703 0.0019 1.0887
# 5 4.0825 2.1396 3.6272 0.0019 41.3050 -0.0002
# 6 0.0000 -0.0001 -0.0004 1.0887 -0.0002 28.3346
#
#
#
# Elastic Compliance Matrix: (Units=1/GPa)
#
#
# Indices 1 2 3 4 5 6 
#
# 1 0.012197 -0.005905 -0.002111 0.000001 -0.000714 0.000000
# 2 -0.005905 0.025768 -0.009467 0.000002 0.000080 0.000000
# 3 -0.002111 -0.009467 0.012291 -0.000004 -0.000380 0.000000
# 4 0.000001 0.000002 -0.000004 0.106062 -0.000005 -0.004075
# 5 -0.000714 0.000080 -0.000380 -0.000005 0.024310 0.000000
# 6 0.000000 0.000000 0.000000 -0.004075 0.000000 0.035449
#
#
# Mechanical properties :
#
#
# Convention : Reuss Voigt Hill
#
# Bulk Modulus (GPa) = 65.39775 73.58336 69.49055
# Shear Modulus (GPa) = 19.52056 26.58423 23.05239
#
# Velocity S-wave (km/s) = 3.24506 3.78694 3.52642
# Velocity P-wave (km/s) = 7.02278 7.66915 7.35307
#
# Compressibility (1/GPa) = 0.01529105
#
# Stress axis : x y z
#
# Youngs Moduli (GPa) = 81.98714 38.80712 81.35809
#
# Poissons Ratio (x) = 0.22916 0.17175
# Poissons Ratio (y) = 0.48414 0.77020
# Poissons Ratio (z) = 0.17308 0.36738
#
# Static dielectric constant tensor:
#      x y z
#    x 3.340400 0.000000 -0.006200 
#    y 0.000000 3.270410 0.000000 
#    z -0.006200 0.000000 3.505730 
# 
# 
# High freq. dielectric constant tensor:
#      x y z
#    x 1.706190 0.000000 -0.000650 
#    y 0.000000 1.713320 0.000000 
#    z -0.000650 0.000000 1.737820 
# 
# From -- ./inp_files/257169.got.cif
#   From: 2010.06.25/outbox.cif.g09.slc.cpg/sg12_129_cif.got.tgz:257169.got - 2010.06.28 00:19:55.
