data_PCOD8090694
_publ_section_title
;
Structure prediction by ZEFSAII (Michael W. Deem and Ramdas Pophale) SiO2 
 PCOD8090694
Probable space group: C 2/M
;
_chemical_formula_sum "Si O2"
_cell_formula_units_Z 64
_cell_length_a 13.186515
_cell_length_b 18.024495
_cell_length_c 14.162057
_cell_angle_alpha 90.000000
_cell_angle_beta 86.135702
_cell_angle_gamma 90.000000
_cell_volume 3358.388776
_symmetry_space_group_name_H-M "C 2/M"
_symmetry_group_IT_number 12
_symmetry_cell_setting 'monoclinic'
loop_
_space_group_symop_operation_xyz
x,y,z
-x,y,-z
-x,-y,-z
x,-y,z
1/2+x,1/2+y,z
1/2-x,1/2+y,-z
1/2-x,1/2-y,-z
1/2+x,1/2-y,z
loop_
_atom_site_type_symbol
_atom_site_label
_atom_site_fract_x
_atom_site_fract_y
_atom_site_fract_z
Si Si1 0.178713 0.168002 0.560233
Si Si2 0.269072 0.416293 0.162874
Si Si3 0.888755 0.087104 0.973245
Si Si4 0.447887 0.583088 0.295487
Si Si5 0.770919 0.414748 0.381785
Si Si6 0.657340 0.804422 0.293180
Si Si7 0.951283 0.683567 0.406953
Si Si8 0.848190 0.145259 0.772281
O O1 0.110387 0.102007 0.605086
O O2 0.206960 0.140657 0.453938
O O3 0.280533 0.178893 0.615123
O O4 0.115466 0.243927 0.563528
O O5 0.227838 0.500000 0.171497
O O6 0.373456 0.407275 0.212641
O O7 0.180290 0.365574 0.211316
O O8 0.300346 0.395261 0.054412
O O9 0.850001 0.128691 0.882785
O O10 0.897919 0.000000 0.950649
O O11 0.000000 0.116053 0.000000
O O12 0.491290 0.500000 0.299091
O O13 0.538952 0.639860 0.276572
O O14 0.770608 0.500000 0.417625
O O15 0.884954 0.383737 0.370091
O O16 0.724298 0.411536 0.279646
O O17 0.537849 0.801334 0.323563
O O18 0.693381 0.727547 0.244613
O O19 0.000000 0.654007 0.500000
#
# Coordination Sequence:
#
# PCOD8090694 Si02
#       8
#     8   8   8   8   8   8   8   8
#     4  11  22  41  60  85 121 157 201 251 303 359
#     4   9  20  38  62  90 118 154 205 253 298 357
#     4  10  19  36  63  94 125 157 195 250 314 366
#     4  10  19  33  58  89 118 152 194 245 303 360
#     4  12  26  40  58  89 124 164 209 251 299 361
#     4  11  23  40  64  88 121 163 201 249 306 362
#     4  12  23  41  61  82 116 164 206 247 296 356
#     4  12  22  37  60  91 130 157 195 252 311 371
#
# _framework density 19.056757999999999
#
# number of rings (size 3 to 8) (size 9 to 14) (size 15 to 20)
#    0.000    1.125    5.000    2.625    0.000    1.750 
#    0.000    1.250    0.000    0.000    0.000    2.625 
#    0.000    0.000    0.000    0.000    0.000    0.000 
#
# Total GULP energy -396814.676443 kJ/mol
# GULP energy per Si atom -12400.458639 kJ/mol
# Density = 1.901338 g / cm^3
# Si number density = 19.056758 Si / 1000 Ang^3
#
#
#
# Elastic Constant Matrix: (Units=GPa)
#
#
# Indices 1 2 3 4 5 6 
#
# 1 73.1125 39.4814 39.5806 0.0000 -12.4163 0.0000
# 2 39.4814 103.5204 38.3115 0.0000 -5.1481 0.0000
# 3 39.5806 38.3115 108.5834 0.0000 8.5043 0.0000
# 4 0.0000 0.0000 0.0000 20.2345 0.0000 -0.6347
# 5 -12.4163 -5.1481 8.5043 0.0000 20.8029 0.0000
# 6 0.0000 0.0000 0.0000 -0.6347 0.0000 27.3118
#
#
#
# Elastic Compliance Matrix: (Units=1/GPa)
#
#
# Indices 1 2 3 4 5 6 
#
# 1 0.023551 -0.005225 -0.007997 0.000000 0.016033 0.000000
# 2 -0.005225 0.012693 -0.002661 0.000000 0.001110 0.000000
# 3 -0.007997 -0.002661 0.013935 0.000000 -0.011128 0.000000
# 4 0.000000 0.000000 0.000000 0.049457 0.000000 0.001149
# 5 0.016033 0.001110 -0.011128 0.000000 0.062463 0.000000
# 6 0.000000 0.000000 0.000000 0.001149 0.000000 0.036641
#
#
# Mechanical properties :
#
#
# Convention : Reuss Voigt Hill
#
# Bulk Modulus (GPa) = 54.30896 57.77368 56.04132
# Shear Modulus (GPa) = 21.12887 24.85934 22.99411
#
# Velocity S-wave (km/s) = 3.33338 3.61569 3.47740
# Velocity P-wave (km/s) = 6.58602 6.91472 6.75237
#
# Compressibility (1/GPa) = 0.01841317
#
# Stress axis : x y z
#
# Youngs Moduli (GPa) = 42.46059 78.78593 71.76272
#
# Poissons Ratio (x) = 0.41168 0.57388
# Poissons Ratio (y) = 0.22187 0.19093
# Poissons Ratio (z) = 0.33955 0.20961
#
# Static dielectric constant tensor:
#      x y z
#    x 3.485840 0.000000 -0.040780 
#    y 0.000000 3.551950 0.000000 
#    z -0.040780 0.000000 3.508500 
# 
# 
# High freq. dielectric constant tensor:
#      x y z
#    x 1.733660 0.000000 -0.003960 
#    y 0.000000 1.739170 0.000000 
#    z -0.003960 0.000000 1.737420 
# 
# From -- ./inp_files/206672.got.cif
#   From: 2010.06.25/outbox.cif.g09.slc.cpg/sg12_104_cif.got.tgz:206672.got - 2010.06.28 00:19:55.
