data_PCOD8090167
_publ_section_title
;
Structure prediction by ZEFSAII (Michael W. Deem and Ramdas Pophale) SiO2 
 PCOD8090167
Probable space group: C 2/M
;
_chemical_formula_sum "Si O2"
_cell_formula_units_Z 48
_cell_length_a 20.529914
_cell_length_b 9.070029
_cell_length_c 15.020339
_cell_angle_alpha 90.000000
_cell_angle_beta 111.571434
_cell_angle_gamma 90.000000
_cell_volume 2600.996486
_symmetry_space_group_name_H-M "C 2/M"
_symmetry_group_IT_number 12
_symmetry_cell_setting 'monoclinic'
loop_
_space_group_symop_operation_xyz
x,y,z
-x,y,-z
-x,-y,-z
x,-y,z
1/2+x,1/2+y,z
1/2-x,1/2+y,-z
1/2-x,1/2-y,-z
1/2+x,1/2-y,z
loop_
_atom_site_type_symbol
_atom_site_label
_atom_site_fract_x
_atom_site_fract_y
_atom_site_fract_z
Si Si1 0.331381 0.670733 0.312660
Si Si2 0.679161 0.173918 0.186063
Si Si3 0.322531 0.671839 0.514588
Si Si4 0.177895 0.326384 0.986716
Si Si5 0.423445 0.826709 0.219555
Si Si6 0.916050 0.325259 0.702247
O O1 0.335492 0.500000 0.288795
O O2 0.256396 0.738450 0.245215
O O3 0.342419 0.696316 0.422318
O O4 0.393242 0.753334 0.292903
O O5 0.623525 0.234507 0.229550
O O6 0.683070 0.000000 0.199183
O O7 0.654567 0.219518 0.074770
O O8 0.314869 0.500000 0.533741
O O9 0.250000 0.750000 0.500000
O O10 0.385059 0.743878 0.601291
O O11 0.190023 0.500000 0.986528
O O12 0.118207 0.272173 0.888906
O O13 0.250000 0.250000 0.000000
O O14 0.503489 0.778917 0.247356
O O15 0.416234 0.000000 0.227704
O O16 0.906696 0.500000 0.685106
#
# Coordination Sequence:
#
# PCOD8090167 Si02
#       6
#     8   8   8   8   8   8
#     4  10  20  36  58  81 108 146 186 224 272 334
#     4   9  17  33  57  80 106 145 185 221 269 330
#     4  11  22  37  59  85 110 144 188 230 274 327
#     4  10  19  33  55  83 109 142 185 225 272 325
#     4  10  22  36  55  85 116 144 180 233 280 318
#     4  10  21  39  57  80 116 148 182 228 278 328
#
# _framework density 18.454467000000001
#
# number of rings (size 3 to 8) (size 9 to 14) (size 15 to 20)
#    0.000    2.000    3.333    0.500    0.000    3.333 
#    0.000    7.500    0.000    0.000    0.000    3.500 
#    0.000    0.000    0.000    0.000    0.000    0.000 
#
# Total GULP energy -297639.650241 kJ/mol
# GULP energy per Si atom -12401.652093 kJ/mol
# Density = 1.841246 g / cm^3
# Si number density = 18.454467 Si / 1000 Ang^3
#
#
#
# Elastic Constant Matrix: (Units=GPa)
#
#
# Indices 1 2 3 4 5 6 
#
# 1 149.5537 42.5251 75.7674 0.0000 2.0359 0.0000
# 2 42.5251 39.5708 43.5730 0.0000 4.0748 0.0000
# 3 75.7674 43.5730 142.8124 0.0000 7.6239 0.0000
# 4 0.0000 0.0000 0.0000 26.9892 0.0000 -0.0635
# 5 2.0359 4.0748 7.6239 0.0000 34.0579 0.0000
# 6 0.0000 0.0000 0.0000 -0.0635 0.0000 29.1642
#
#
#
# Elastic Compliance Matrix: (Units=1/GPa)
#
#
# Indices 1 2 3 4 5 6 
#
# 1 0.010560 -0.007869 -0.003257 0.000000 0.001039 0.000000
# 2 -0.007869 0.044053 -0.009119 0.000000 -0.002759 0.000000
# 3 -0.003257 -0.009119 0.011582 0.000000 -0.001307 0.000000
# 4 0.000000 0.000000 0.000000 0.037052 0.000000 0.000081
# 5 0.001039 -0.002759 -0.001307 0.000000 0.029922 0.000000
# 6 0.000000 0.000000 0.000000 0.000081 0.000000 0.034289
#
#
# Mechanical properties :
#
#
# Convention : Reuss Voigt Hill
#
# Bulk Modulus (GPa) = 38.90239 72.85201 55.87720
# Shear Modulus (GPa) = 23.09296 29.38033 26.23665
#
# Velocity S-wave (km/s) = 3.54128 3.99437 3.77463
# Velocity P-wave (km/s) = 6.15198 7.79972 7.02433
#
# Compressibility (1/GPa) = 0.02570536
#
# Stress axis : x y z
#
# Youngs Moduli (GPa) = 94.69648 22.70010 86.33948
#
# Poissons Ratio (x) = 0.17863 0.28122
# Poissons Ratio (y) = 0.74516 0.78731
# Poissons Ratio (z) = 0.30844 0.20700
#
# Static dielectric constant tensor:
#      x y z
#    x 3.506300 0.000000 -0.024010 
#    y 0.000000 3.262370 0.000000 
#    z -0.024010 0.000000 3.819680 
# 
# 
# High freq. dielectric constant tensor:
#      x y z
#    x 1.717190 0.000000 -0.004510 
#    y 0.000000 1.693320 0.000000 
#    z -0.004510 0.000000 1.731260 
# 
# From -- ./inp_files/229872.got.cif
#   From: 2010.06.25/outbox.cif.g09.slc.cpg/sg12_115_cif.got.tgz:229872.got - 2010.06.28 00:19:55.
