data_PCOD8090305
_publ_section_title
;
Structure prediction by ZEFSAII (Michael W. Deem and Ramdas Pophale) SiO2 
 PCOD8090305
Probable space group: C 2/M
;
_chemical_formula_sum "Si O2"
_cell_formula_units_Z 64
_cell_length_a 19.562528
_cell_length_b 9.085205
_cell_length_c 19.062921
_cell_angle_alpha 90.000000
_cell_angle_beta 84.577164
_cell_angle_gamma 90.000000
_cell_volume 3372.881279
_symmetry_space_group_name_H-M "C 2/M"
_symmetry_group_IT_number 12
_symmetry_cell_setting 'monoclinic'
loop_
_space_group_symop_operation_xyz
x,y,z
-x,y,-z
-x,-y,-z
x,-y,z
1/2+x,1/2+y,z
1/2-x,1/2+y,-z
1/2-x,1/2-y,-z
1/2+x,1/2-y,z
loop_
_atom_site_type_symbol
_atom_site_label
_atom_site_fract_x
_atom_site_fract_y
_atom_site_fract_z
Si Si1 0.515453 0.834516 0.074745
Si Si2 0.498260 0.325118 0.581418
Si Si3 0.336158 0.164185 0.980416
Si Si4 0.898111 0.324703 0.694156
Si Si5 0.386664 0.335656 0.330529
Si Si6 0.757737 0.175748 0.264371
Si Si7 0.285741 0.674083 0.105402
Si Si8 0.494522 0.334370 0.789844
O O1 0.597108 0.836011 0.074625
O O2 0.484717 0.729324 0.136857
O O3 0.484573 0.000000 0.084899
O O4 0.500000 0.768209 0.000000
O O5 0.500000 0.285096 0.500000
O O6 0.491663 0.500000 0.596266
O O7 0.432152 0.246769 0.621708
O O8 0.569231 0.262870 0.609941
O O9 0.279772 0.229689 0.932931
O O10 0.316051 0.000000 0.005435
O O11 0.347288 0.255054 0.052755
O O12 0.904911 0.500000 0.690110
O O13 0.818506 0.274241 0.705600
O O14 0.937206 0.267267 0.759117
O O15 0.369031 0.500000 0.356696
O O16 0.313797 0.260460 0.315644
O O17 0.434249 0.334318 0.257865
O O18 0.778037 0.236575 0.185144
O O19 0.762076 0.000000 0.261988
O O20 0.294305 0.500000 0.106910
O O21 0.465453 0.500000 0.798852
#
# Coordination Sequence:
#
# PCOD8090305 Si02
#       8
#     8   8   8   8   8   8   8   8
#     4  10  21  34  48  67  97 134 171 216 270 318
#     4   9  18  35  58  81 109 144 175 206 247 299
#     4   9  18  32  44  62  91 123 162 205 259 315
#     4  10  19  33  56  81 105 135 170 210 255 307
#     4   8  16  31  51  76 103 133 172 211 253 306
#     4   9  17  30  50  75 101 131 169 212 259 305
#     4   9  17  29  48  66  86 121 163 208 253 304
#     4  10  20  34  53  75 101 135 177 221 261 311
#
# _framework density 18.974874
#
# number of rings (size 3 to 8) (size 9 to 14) (size 15 to 20)
#    0.000    2.750    0.000    2.250    1.750    3.000 
#    0.000    4.375    0.000    7.500    0.000    0.000 
#    0.000    0.000    0.000    0.000    0.000    0.000 
#
# Total GULP energy -396508.665609 kJ/mol
# GULP energy per Si atom -12390.895800 kJ/mol
# Density = 1.893169 g / cm^3
# Si number density = 18.974874 Si / 1000 Ang^3
#
#
#
# Elastic Constant Matrix: (Units=GPa)
#
#
# Indices 1 2 3 4 5 6 
#
# 1 80.7137 16.1705 33.9028 0.0000 14.9204 0.0000
# 2 16.1705 48.3832 34.0200 0.0000 0.0603 0.0000
# 3 33.9028 34.0200 133.7237 0.0000 12.0261 0.0000
# 4 0.0000 0.0000 0.0000 26.8494 0.0000 -3.6421
# 5 14.9204 0.0603 12.0261 0.0000 20.1395 0.0000
# 6 0.0000 0.0000 0.0000 -3.6421 0.0000 16.9358
#
#
#
# Elastic Compliance Matrix: (Units=1/GPa)
#
#
# Indices 1 2 3 4 5 6 
#
# 1 0.016009 -0.003839 -0.002131 0.000000 -0.010576 0.000000
# 2 -0.003839 0.026394 -0.006330 0.000000 0.006545 0.000000
# 3 -0.002131 -0.006330 0.010023 0.000000 -0.004388 0.000000
# 4 0.000000 0.000000 0.000000 0.038364 0.000000 0.008250
# 5 -0.010576 0.006545 -0.004388 0.000000 0.060089 0.000000
# 6 0.000000 0.000000 0.000000 0.008250 0.000000 0.060821
#
#
# Mechanical properties :
#
#
# Convention : Reuss Voigt Hill
#
# Bulk Modulus (GPa) = 35.93711 47.88966 41.91338
# Shear Modulus (GPa) = 20.36032 24.70010 22.53021
#
# Velocity S-wave (km/s) = 3.27924 3.61186 3.44956
# Velocity P-wave (km/s) = 5.77221 6.53355 6.16464
#
# Compressibility (1/GPa) = 0.02782639
#
# Stress axis : x y z
#
# Youngs Moduli (GPa) = 62.46607 37.88717 99.76693
#
# Poissons Ratio (x) = 0.14544 0.21259
# Poissons Ratio (y) = 0.23980 0.63154
# Poissons Ratio (z) = 0.13311 0.23983
#
# Static dielectric constant tensor:
#      x y z
#    x 3.619900 0.000000 0.118680 
#    y 0.000000 3.240840 0.000000 
#    z 0.118680 0.000000 3.479990 
# 
# 
# High freq. dielectric constant tensor:
#      x y z
#    x 1.739300 0.000000 0.008860 
#    y 0.000000 1.705020 0.000000 
#    z 0.008860 0.000000 1.729510 
# 
# From -- ./inp_files/319190.got.cif
#   From: 2010.06.25/outbox.cif.g09.slc.cpg/sg12_160_cif.got.tgz:319190.got - 2010.06.28 00:19:55.
