data_PCOD8090572
_publ_section_title
;
Structure prediction by ZEFSAII (Michael W. Deem and Ramdas Pophale) SiO2 
 PCOD8090572
Probable space group: C 2/M
;
_chemical_formula_sum "Si O2"
_cell_formula_units_Z 64
_cell_length_a 30.542310
_cell_length_b 9.046107
_cell_length_c 18.929989
_cell_angle_alpha 90.000000
_cell_angle_beta 141.389485
_cell_angle_gamma 90.000000
_cell_volume 3263.732590
_symmetry_space_group_name_H-M "C 2/M"
_symmetry_group_IT_number 12
_symmetry_cell_setting 'monoclinic'
loop_
_space_group_symop_operation_xyz
x,y,z
-x,y,-z
-x,-y,-z
x,-y,z
1/2+x,1/2+y,z
1/2-x,1/2+y,-z
1/2-x,1/2-y,-z
1/2+x,1/2-y,z
loop_
_atom_site_type_symbol
_atom_site_label
_atom_site_fract_x
_atom_site_fract_y
_atom_site_fract_z
Si Si1 0.179452 0.328753 0.715431
Si Si2 0.208059 0.327897 0.508233
Si Si3 0.293255 0.329192 0.750699
Si Si4 0.817821 0.323446 0.119024
Si Si5 0.047066 0.173643 0.495087
Si Si6 0.457837 0.324996 0.246775
Si Si7 0.429491 0.825886 0.874970
Si Si8 0.942673 0.673403 0.730005
O O1 0.160152 0.500000 0.686523
O O2 0.256519 0.298742 0.779843
O O3 0.178607 0.273102 0.794778
O O4 0.123149 0.245758 0.596089
O O5 0.217304 0.500000 0.506367
O O6 0.250000 0.250000 0.500000
O O7 0.238622 0.277058 0.621714
O O8 0.126094 0.285715 0.402125
O O9 0.312264 0.500000 0.764773
O O10 0.364573 0.238919 0.836395
O O11 0.814403 0.500000 0.106936
O O12 0.884786 0.259441 0.163092
O O13 0.750000 0.250000 0.000000
O O14 0.000000 0.233995 0.500000
O O15 0.009484 0.220212 0.375433
O O16 0.057278 0.000000 0.513461
O O17 0.444159 0.500000 0.226364
O O18 0.492665 0.268377 0.218273
O O19 0.428488 0.775870 0.792336
O O20 0.423975 0.000000 0.874701
O O21 0.500000 0.765542 0.000000
O O22 0.961357 0.500000 0.749418
#
# Coordination Sequence:
#
# PCOD8090572 Si02
#       8
#     8   8   8   8   8   8   8   8
#     4  10  22  39  61  89 119 153 194 238 289 350
#     4  10  19  33  57  85 116 150 186 230 283 344
#     4  10  21  37  58  86 117 148 187 236 288 343
#     4  11  24  42  63  86 116 156 200 246 293 344
#     4  10  20  36  59  88 122 154 189 236 291 348
#     4  11  23  39  61  89 120 154 195 242 291 350
#     4  10  22  40  60  83 112 150 197 241 286 343
#     4  10  21  38  59  85 118 152 190 240 291 346
#
# _framework density 19.609449999999999
#
# number of rings (size 3 to 8) (size 9 to 14) (size 15 to 20)
#    0.000    1.750    2.500    1.500    0.000    5.500 
#    0.000    2.500    0.000    0.000    0.000    0.000 
#    0.000    0.000    0.000    0.000    0.000    0.000 
#
# Total GULP energy -396920.046372 kJ/mol
# GULP energy per Si atom -12403.751449 kJ/mol
# Density = 1.956482 g / cm^3
# Si number density = 19.609450 Si / 1000 Ang^3
#
#
#
# Elastic Constant Matrix: (Units=GPa)
#
#
# Indices 1 2 3 4 5 6 
#
# 1 111.1159 33.4769 28.5785 0.0000 24.6931 0.0000
# 2 33.4769 49.1443 34.4656 0.0000 13.0853 0.0000
# 3 28.5785 34.4656 102.6907 0.0000 28.9150 0.0000
# 4 0.0000 0.0000 0.0000 29.2197 0.0000 6.9137
# 5 24.6931 13.0853 28.9150 0.0000 25.7040 0.0000
# 6 0.0000 0.0000 0.0000 6.9137 0.0000 34.2286
#
#
#
# Elastic Compliance Matrix: (Units=1/GPa)
#
#
# Indices 1 2 3 4 5 6 
#
# 1 0.013192 -0.007388 0.001929 0.000000 -0.011082 0.000000
# 2 -0.007388 0.031219 -0.008701 0.000000 0.000993 0.000000
# 3 0.001929 -0.008701 0.016679 0.000000 -0.016186 0.000000
# 4 0.000000 0.000000 0.000000 0.035941 0.000000 -0.007260
# 5 -0.011082 0.000993 -0.016186 0.000000 0.067253 0.000000
# 6 0.000000 0.000000 0.000000 -0.007260 0.000000 0.030682
#
#
# Mechanical properties :
#
#
# Convention : Reuss Voigt Hill
#
# Bulk Modulus (GPa) = 30.51742 50.66586 40.59164
# Shear Modulus (GPa) = 21.34824 28.92577 25.13701
#
# Velocity S-wave (km/s) = 3.30308 3.84486 3.58422
# Velocity P-wave (km/s) = 5.49031 6.75309 6.15417
#
# Compressibility (1/GPa) = 0.03276817
#
# Stress axis : x y z
#
# Youngs Moduli (GPa) = 75.80218 32.03158 59.95494
#
# Poissons Ratio (x) = 0.23666 -0.11564
# Poissons Ratio (y) = 0.56006 0.52170
# Poissons Ratio (z) = -0.14620 0.27872
#
# Static dielectric constant tensor:
#      x y z
#    x 3.525920 0.000000 0.021710 
#    y 0.000000 3.449840 0.000000 
#    z 0.021710 0.000000 3.613890 
# 
# 
# High freq. dielectric constant tensor:
#      x y z
#    x 1.776100 0.000000 0.002820 
#    y 0.000000 1.755930 0.000000 
#    z 0.002820 0.000000 1.763080 
# 
# From -- ./inp_files/295781.got.cif
#   From: 2010.06.25/outbox.cif.g09.slc.cpg/sg12_148_cif.got.tgz:295781.got - 2010.06.28 00:19:55.
