data_PCOD8090102
_publ_section_title
;
Structure prediction by ZEFSAII (Michael W. Deem and Ramdas Pophale) SiO2 
 PCOD8090102
Probable space group: C 2/M
;
_chemical_formula_sum "Si O2"
_cell_formula_units_Z 36
_cell_length_a 9.523058
_cell_length_b 23.166270
_cell_length_c 9.016277
_cell_angle_alpha 90.000000
_cell_angle_beta 119.800294
_cell_angle_gamma 90.000000
_cell_volume 1726.079795
_symmetry_space_group_name_H-M "C 2/M"
_symmetry_group_IT_number 12
_symmetry_cell_setting 'monoclinic'
loop_
_space_group_symop_operation_xyz
x,y,z
-x,y,-z
-x,-y,-z
x,-y,z
1/2+x,1/2+y,z
1/2-x,1/2+y,-z
1/2-x,1/2-y,-z
1/2+x,1/2-y,z
loop_
_atom_site_type_symbol
_atom_site_label
_atom_site_fract_x
_atom_site_fract_y
_atom_site_fract_z
Si Si1 0.506757 0.436161 0.243390
Si Si2 0.779011 0.730653 0.679936
Si Si3 0.763458 0.435339 0.118889
Si Si4 0.500000 0.354279 0.500000
Si Si5 0.923080 0.678047 0.295096
O O1 0.501455 0.500000 0.310241
O O2 0.636647 0.433316 0.183569
O O3 0.565643 0.392661 0.400185
O O4 0.329280 0.421495 0.083606
O O5 0.750000 0.750000 0.500000
O O6 0.646587 0.681959 0.646235
O O7 0.743202 0.783766 0.776088
O O8 0.963032 0.706967 0.773417
O O9 0.842261 0.500000 0.153210
O O10 0.895988 0.386348 0.219584
O O11 0.000000 0.675760 0.500000
#
# Coordination Sequence:
#
# PCOD8090102 Si02
#       5
#     8   8   8   4   8
#     4   9  19  35  58  86 112 150 190 239 285 337
#     4  10  19  33  55  81 115 150 183 235 286 332
#     4   9  19  37  59  82 117 151 190 236 285 336
#     4  12  19  34  62  82 113 148 192 236 288 342
#     4  10  19  34  57  82 115 152 190 232 284 340
#
# _framework density 20.856507000000001
#
# number of rings (size 3 to 8) (size 9 to 14) (size 15 to 20)
#    0.000    2.222    3.333    4.333    0.000    0.444 
#    0.000    4.444    4.889    2.667    0.000    0.000 
#    0.000    0.000    0.000    0.000    0.000    0.000 
#
# Total GULP energy -223006.367326 kJ/mol
# GULP energy per Si atom -12389.242629 kJ/mol
# Density = 2.080904 g / cm^3
# Si number density = 20.856507 Si / 1000 Ang^3
#
#
#
# Elastic Constant Matrix: (Units=GPa)
#
#
# Indices 1 2 3 4 5 6 
#
# 1 88.0461 46.8402 -0.0367 0.0000 8.3606 0.0000
# 2 46.8402 142.5528 28.0621 0.0000 6.0774 0.0000
# 3 -0.0367 28.0621 25.5680 0.0000 -2.2229 0.0000
# 4 0.0000 0.0000 0.0000 13.4965 0.0000 13.6176
# 5 8.3606 6.0774 -2.2229 0.0000 15.4626 0.0000
# 6 0.0000 0.0000 0.0000 13.6176 0.0000 22.8702
#
#
#
# Elastic Compliance Matrix: (Units=1/GPa)
#
#
# Indices 1 2 3 4 5 6 
#
# 1 0.014967 -0.005905 0.006077 0.000000 -0.004898 0.000000
# 2 -0.005905 0.011676 -0.013108 0.000000 -0.003280 0.000000
# 3 0.006077 -0.013108 0.054349 0.000000 0.009679 0.000000
# 4 0.000000 0.000000 0.000000 0.185592 0.000000 -0.110507
# 5 -0.004898 -0.003280 0.009679 0.000000 0.070001 0.000000
# 6 0.000000 0.000000 0.000000 -0.110507 0.000000 0.109524
#
#
# Mechanical properties :
#
#
# Convention : Reuss Voigt Hill
#
# Bulk Modulus (GPa) = 18.14283 45.09978 31.62130
# Shear Modulus (GPa) = 10.19670 22.45260 16.32465
#
# Velocity S-wave (km/s) = 2.21350 3.28461 2.80074
# Velocity P-wave (km/s) = 3.90520 6.00464 5.06489
#
# Compressibility (1/GPa) = 0.05511819
#
# Stress axis : x y z
#
# Youngs Moduli (GPa) = 66.81399 85.64883 18.39973
#
# Poissons Ratio (x) = 0.50579 -0.11182
# Poissons Ratio (y) = 0.39456 0.24119
# Poissons Ratio (z) = -0.40603 1.12270
#
# Static dielectric constant tensor:
#      x y z
#    x 3.906010 0.000000 0.065030 
#    y 0.000000 5.346540 0.000000 
#    z 0.065030 0.000000 3.525690 
# 
# 
# High freq. dielectric constant tensor:
#      x y z
#    x 1.801520 0.000000 -0.011040 
#    y 0.000000 1.834590 0.000000 
#    z -0.011040 0.000000 1.777360 
# 
# From -- ./inp_files/39518.got.cif
#   From: 2010.06.25/outbox.cif.g09.slc.cpg/sg12_20_cif.got.tgz:39518.got - 2010.06.28 00:19:55.
