data_PCOD8090111
_publ_section_title
;
Structure prediction by ZEFSAII (Michael W. Deem and Ramdas Pophale) SiO2 
 PCOD8090111
Probable space group: C 2/M
;
_chemical_formula_sum "Si O2"
_cell_formula_units_Z 40
_cell_length_a 17.824977
_cell_length_b 12.263432
_cell_length_c 10.275310
_cell_angle_alpha 90.000000
_cell_angle_beta 104.769243
_cell_angle_gamma 90.000000
_cell_volume 2171.923960
_symmetry_space_group_name_H-M "C 2/M"
_symmetry_group_IT_number 12
_symmetry_cell_setting 'monoclinic'
loop_
_space_group_symop_operation_xyz
x,y,z
-x,y,-z
-x,-y,-z
x,-y,z
1/2+x,1/2+y,z
1/2-x,1/2+y,-z
1/2-x,1/2-y,-z
1/2+x,1/2-y,z
loop_
_atom_site_type_symbol
_atom_site_label
_atom_site_fract_x
_atom_site_fract_y
_atom_site_fract_z
Si Si1 0.113283 0.500000 0.647232
Si Si2 0.850800 0.287703 0.678234
Si Si3 0.056905 0.500000 0.330383
Si Si4 0.545633 0.621448 0.144125
Si Si5 0.051490 0.120624 0.639884
Si Si6 0.678569 0.229969 0.633297
O O1 0.078267 0.500000 0.489381
O O2 0.169883 0.605872 0.684032
O O3 0.038941 0.500000 0.716197
O O4 0.902923 0.396267 0.722991
O O5 0.882169 0.195597 0.788111
O O6 0.761347 0.289424 0.682442
O O7 0.852768 0.257503 0.527542
O O8 0.575959 0.500000 0.123171
O O9 0.491573 0.617571 0.244379
O O10 0.500000 0.670244 0.000000
O O11 0.124260 0.196962 0.699109
O O12 0.000000 0.170993 0.500000
O O13 0.078791 0.000000 0.608965
#
# Coordination Sequence:
#
# PCOD8090111 Si02
#       6
#     4   8   4   8   8   8
#     4   9  18  30  48  76 110 150 175 214 275 341
#     4  10  20  33  52  81 114 143 177 231 279 322
#     4   9  18  32  51  74 110 145 181 219 271 334
#     4  10  21  37  57  79 109 148 185 221 271 335
#     4  10  19  33  55  82 108 143 181 228 270 325
#     4  10  20  31  53  83 115 138 179 232 281 320
#
# _framework density 18.416851999999999
#
# number of rings (size 3 to 8) (size 9 to 14) (size 15 to 20)
#    0.000    2.200    2.000    1.200    5.600    0.000 
#    0.000    1.500    0.000    0.000    0.000    0.000 
#    0.000    0.000    0.000    0.000    0.000    0.000 
#
# Total GULP energy -247778.695406 kJ/mol
# GULP energy per Si atom -12388.934770 kJ/mol
# Density = 1.837493 g / cm^3
# Si number density = 18.416852 Si / 1000 Ang^3
#
#
#
# Elastic Constant Matrix: (Units=GPa)
#
#
# Indices 1 2 3 4 5 6 
#
# 1 84.0704 41.4888 19.5826 0.0000 1.6608 0.0000
# 2 41.4888 77.0892 23.3290 0.0000 5.3747 0.0000
# 3 19.5826 23.3290 66.6778 0.0000 9.0457 0.0000
# 4 0.0000 0.0000 0.0000 18.5769 0.0000 0.7649
# 5 1.6608 5.3747 9.0457 0.0000 13.2577 0.0000
# 6 0.0000 0.0000 0.0000 0.7649 0.0000 37.7346
#
#
#
# Elastic Compliance Matrix: (Units=1/GPa)
#
#
# Indices 1 2 3 4 5 6 
#
# 1 0.016517 -0.008394 -0.002309 0.000000 0.002909 0.000000
# 2 -0.008394 0.018859 -0.003569 0.000000 -0.004159 0.000000
# 3 -0.002309 -0.003569 0.018391 0.000000 -0.010812 0.000000
# 4 0.000000 0.000000 0.000000 0.053875 0.000000 -0.001092
# 5 0.002909 -0.004159 -0.010812 0.000000 0.084127 0.000000
# 6 0.000000 0.000000 0.000000 -0.001092 0.000000 0.026523
#
#
# Mechanical properties :
#
#
# Convention : Reuss Voigt Hill
#
# Bulk Modulus (GPa) = 39.64373 44.07092 41.85732
# Shear Modulus (GPa) = 19.58906 23.47630 21.53268
#
# Velocity S-wave (km/s) = 3.26490 3.57419 3.42304
# Velocity P-wave (km/s) = 5.98208 6.40428 6.19678
#
# Compressibility (1/GPa) = 0.02522467
#
# Stress axis : x y z
#
# Youngs Moduli (GPa) = 60.54222 53.02385 54.37392
#
# Poissons Ratio (x) = 0.44506 0.12555
# Poissons Ratio (y) = 0.50817 0.19407
# Poissons Ratio (z) = 0.13979 0.18925
#
# Static dielectric constant tensor:
#      x y z
#    x 3.405040 0.000000 -0.028390 
#    y 0.000000 3.771930 0.000000 
#    z -0.028390 0.000000 3.001030 
# 
# 
# High freq. dielectric constant tensor:
#      x y z
#    x 1.715360 0.000000 -0.004710 
#    y 0.000000 1.722890 0.000000 
#    z -0.004710 0.000000 1.664850 
# 
# From -- ./inp_files/152902.got.cif
#   From: 2010.06.25/outbox.cif.g09.slc.cpg/sg12_77_cif.got.tgz:152902.got - 2010.06.28 00:19:55.
