data_PCOD8090499
_publ_section_title
;
Structure prediction by ZEFSAII (Michael W. Deem and Ramdas Pophale) SiO2 
 PCOD8090499
Probable space group: C 2/M
;
_chemical_formula_sum "Si O2"
_cell_formula_units_Z 40
_cell_length_a 13.965577
_cell_length_b 15.838074
_cell_length_c 14.947374
_cell_angle_alpha 90.000000
_cell_angle_beta 144.535333
_cell_angle_gamma 90.000000
_cell_volume 1918.246768
_symmetry_space_group_name_H-M "C 2/M"
_symmetry_group_IT_number 12
_symmetry_cell_setting 'monoclinic'
loop_
_space_group_symop_operation_xyz
x,y,z
-x,y,-z
-x,-y,-z
x,-y,z
1/2+x,1/2+y,z
1/2-x,1/2+y,-z
1/2-x,1/2-y,-z
1/2+x,1/2-y,z
loop_
_atom_site_type_symbol
_atom_site_label
_atom_site_fract_x
_atom_site_fract_y
_atom_site_fract_z
Si Si1 0.296800 0.347701 0.125112
Si Si2 0.826993 0.901924 0.771700
Si Si3 0.801498 0.000000 0.248507
Si Si4 0.690693 0.342181 0.427532
Si Si5 0.190713 0.162908 0.062474
Si Si6 0.805364 0.000000 0.453275
O O1 0.232047 0.418966 0.143069
O O2 0.494004 0.343463 0.275114
O O3 0.221081 0.261234 0.102475
O O4 0.232668 0.366473 0.974615
O O5 0.735482 0.863849 0.614995
O O6 0.728331 0.886603 0.790460
O O7 0.860897 0.000000 0.781060
O O8 0.997046 0.852894 0.912219
O O9 0.733548 0.000000 0.297973
O O10 0.997958 0.000000 0.397949
O O11 0.750000 0.250000 0.500000
O O12 0.757253 0.414479 0.545653
#
# Coordination Sequence:
#
# PCOD8090499 Si02
#       6
#     8   8   4   8   8   4
#     4   9  19  33  51  79 101 134 170 211 256 302
#     4  10  19  33  57  78  96 134 176 214 254 306
#     4   9  18  30  53  73  98 131 174 212 239 298
#     4  10  20  34  55  75 106 137 173 213 253 303
#     4   9  18  31  53  79 102 124 171 214 259 296
#     4   9  18  34  49  74  98 136 180 205 243 300
#
# _framework density 20.852374999999999
#
# number of rings (size 3 to 8) (size 9 to 14) (size 15 to 20)
#    0.000    2.600    1.000    1.200    8.400    0.000 
#    0.000    0.000    4.400    7.200    0.000    0.000 
#    0.000    0.000    0.000    0.000    0.000    0.000 
#
# Total GULP energy -247831.579314 kJ/mol
# GULP energy per Si atom -12391.578966 kJ/mol
# Density = 2.080491 g / cm^3
# Si number density = 20.852375 Si / 1000 Ang^3
#
#
#
# Elastic Constant Matrix: (Units=GPa)
#
#
# Indices 1 2 3 4 5 6 
#
# 1 77.4406 58.2818 52.9026 -0.0003 -57.1170 -0.0002
# 2 58.2818 174.2803 66.0156 -0.0005 -44.4648 -0.0003
# 3 52.9026 66.0156 68.6372 -0.0007 -50.6659 -0.0005
# 4 -0.0003 -0.0005 -0.0007 36.7211 -0.0006 -8.6404
# 5 -57.1170 -44.4648 -50.6659 -0.0006 51.1714 -0.0004
# 6 -0.0002 -0.0003 -0.0005 -8.6404 -0.0004 35.0771
#
#
#
# Elastic Compliance Matrix: (Units=1/GPa)
#
#
# Indices 1 2 3 4 5 6 
#
# 1 0.087543 -0.010393 0.029672 0.000004 0.118063 0.000003
# 2 -0.010393 0.010369 -0.014398 -0.000001 -0.016847 -0.000001
# 3 0.029672 -0.014398 0.077140 0.000004 0.096987 0.000003
# 4 0.000004 -0.000001 0.000004 0.028908 0.000008 0.007121
# 5 0.118063 -0.016847 0.096987 0.000008 0.232713 0.000006
# 6 0.000003 -0.000001 0.000003 0.007121 0.000006 0.030263
#
#
# Mechanical properties :
#
#
# Convention : Reuss Voigt Hill
#
# Bulk Modulus (GPa) = 5.41083 74.97312 40.19198
# Shear Modulus (GPa) = 9.63799 34.13780 21.88790
#
# Velocity S-wave (km/s) = 2.15222 4.05052 3.24336
# Velocity P-wave (km/s) = 2.96252 7.60973 5.77427
#
# Compressibility (1/GPa) = 0.18481438
#
# Stress axis : x y z
#
# Youngs Moduli (GPa) = 11.42289 96.43849 12.96339
#
# Poissons Ratio (x) = 1.00233 -0.38465
# Poissons Ratio (y) = 0.11872 0.18665
# Poissons Ratio (z) = -0.33894 1.38853
#
# Static dielectric constant tensor:
#      x y z
#    x 4.143620 0.000000 -0.876810 
#    y 0.000000 3.806550 0.000000 
#    z -0.876810 0.000000 3.819540 
# 
# 
# High freq. dielectric constant tensor:
#      x y z
#    x 1.802580 0.000000 -0.051480 
#    y 0.000000 1.824150 0.000000 
#    z -0.051480 0.000000 1.792290 
# 
# From -- ./inp_files/141872.got.cif
#   From: 2010.06.25/outbox.cif.g09.slc.cpg/sg12_71_cif.got.tgz:141872.got - 2010.06.28 00:19:55.
