data_PCOD8090009
_publ_section_title
;
Structure prediction by ZEFSAII (Michael W. Deem and Ramdas Pophale) SiO2 
 PCOD8090009
Probable space group: C 2/M
;
_chemical_formula_sum "Si O2"
_cell_formula_units_Z 64
_cell_length_a 20.054746
_cell_length_b 9.458004
_cell_length_c 19.624682
_cell_angle_alpha 90.000000
_cell_angle_beta 82.283008
_cell_angle_gamma 90.000000
_cell_volume 3688.655919
_symmetry_space_group_name_H-M "C 2/M"
_symmetry_group_IT_number 12
_symmetry_cell_setting 'monoclinic'
loop_
_space_group_symop_operation_xyz
x,y,z
-x,y,-z
-x,-y,-z
x,-y,z
1/2+x,1/2+y,z
1/2-x,1/2+y,-z
1/2-x,1/2-y,-z
1/2+x,1/2-y,z
loop_
_atom_site_type_symbol
_atom_site_label
_atom_site_fract_x
_atom_site_fract_y
_atom_site_fract_z
Si Si1 0.575335 0.160058 0.463765
Si Si2 0.040280 0.334567 0.174861
Si Si3 0.022703 0.661395 0.329745
Si Si4 0.408186 0.335012 0.179668
Si Si5 0.815906 0.835882 0.473895
Si Si6 0.163230 0.664811 0.064539
Si Si7 0.895815 0.160896 0.334145
Si Si8 0.314677 0.664417 0.069322
O O1 0.500000 0.182541 0.500000
O O2 0.577391 0.185893 0.381648
O O3 0.622893 0.275603 0.490578
O O4 0.599855 0.000000 0.477283
O O5 0.025984 0.500000 0.166880
O O6 0.106576 0.286231 0.125505
O O7 0.053473 0.295604 0.252286
O O8 0.976166 0.250708 0.154799
O O9 0.998744 0.500000 0.332164
O O10 0.956238 0.748541 0.356354
O O11 0.425542 0.500000 0.171132
O O12 0.379097 0.296015 0.258530
O O13 0.350909 0.290037 0.134119
O O14 0.750000 0.750000 0.500000
O O15 0.830938 0.816713 0.391135
O O16 0.805943 0.000000 0.493952
O O17 0.157262 0.500000 0.048210
O O18 0.235731 0.701264 0.087261
O O19 0.151677 0.749179 0.996504
O O20 0.920464 0.000000 0.333528
O O21 0.325432 0.500000 0.051968
#
# Coordination Sequence:
#
# PCOD8090009 Si02
#       8
#     8   8   8   8   8   8   8   8
#     4  10  19  33  55  80 103 133 172 212 254 302
#     4   9  18  32  50  75 102 131 164 202 248 290
#     4   9  17  31  52  77 102 131 167 206 250 301
#     4   9  18  33  52  75  99 127 165 204 245 294
#     4  11  23  37  53  75 105 138 173 214 259 304
#     4   9  18  33  51  72  99 129 163 203 244 289
#     4   9  18  33  52  74  99 132 168 206 252 298
#     4   9  18  33  52  72  96 130 167 200 241 293
#
# _framework density 17.350494000000001
#
# number of rings (size 3 to 8) (size 9 to 14) (size 15 to 20)
#    0.000    2.625    1.250    0.375    0.000    2.750 
#    2.250    2.500    0.000    0.000    0.000    0.000 
#    0.000    0.000    0.000    0.000    0.000    0.000 
#
# Total GULP energy -396771.637762 kJ/mol
# GULP energy per Si atom -12399.113680 kJ/mol
# Density = 1.731100 g / cm^3
# Si number density = 17.350494 Si / 1000 Ang^3
#
#
#
# Elastic Constant Matrix: (Units=GPa)
#
#
# Indices 1 2 3 4 5 6 
#
# 1 97.0437 52.6724 71.1975 0.0000 -2.8165 0.0000
# 2 52.6724 69.8666 51.8581 0.0000 -3.4308 0.0000
# 3 71.1975 51.8581 115.6626 0.0000 -1.2478 0.0000
# 4 0.0000 0.0000 0.0000 26.9168 0.0000 0.0152
# 5 -2.8165 -3.4308 -1.2478 0.0000 29.6650 0.0000
# 6 0.0000 0.0000 0.0000 0.0152 0.0000 30.7251
#
#
#
# Elastic Compliance Matrix: (Units=1/GPa)
#
#
# Indices 1 2 3 4 5 6 
#
# 1 0.022748 -0.010089 -0.009473 0.000000 0.000594 0.000000
# 2 -0.010089 0.026056 -0.005452 0.000000 0.001826 0.000000
# 3 -0.009473 -0.005452 0.016912 0.000000 -0.000818 0.000000
# 4 0.000000 0.000000 0.000000 0.037151 0.000000 -0.000018
# 5 0.000594 0.001826 -0.000818 0.000000 0.033943 0.000000
# 6 0.000000 0.000000 0.000000 -0.000018 0.000000 0.032547
#
#
# Mechanical properties :
#
#
# Convention : Reuss Voigt Hill
#
# Bulk Modulus (GPa) = 63.74271 70.44767 67.09519
# Shear Modulus (GPa) = 22.26037 24.58439 23.42238
#
# Velocity S-wave (km/s) = 3.58576 3.76829 3.67816
# Velocity P-wave (km/s) = 7.34586 7.72167 7.53611
#
# Compressibility (1/GPa) = 0.01568807
#
# Stress axis : x y z
#
# Youngs Moduli (GPa) = 43.96012 38.37931 59.12816
#
# Poissons Ratio (x) = 0.38722 0.56010
# Poissons Ratio (y) = 0.44353 0.32236
# Poissons Ratio (z) = 0.41642 0.20924
#
# Static dielectric constant tensor:
#      x y z
#    x 3.198070 0.000000 0.067070 
#    y 0.000000 3.255390 0.000000 
#    z 0.067070 0.000000 3.512500 
# 
# 
# High freq. dielectric constant tensor:
#      x y z
#    x 1.651120 0.000000 0.001810 
#    y 0.000000 1.671030 0.000000 
#    z 0.001810 0.000000 1.679820 
# 
# From -- ./inp_files/319115.got.cif
#   From: 2010.06.25/outbox.cif.g09.slc.cpg/sg12_160_cif.got.tgz:319115.got - 2010.06.28 00:19:55.
