data_PCOD8090482
_publ_section_title
;
Structure prediction by ZEFSAII (Michael W. Deem and Ramdas Pophale) SiO2 
 PCOD8090482
Probable space group: C 2/M
;
_chemical_formula_sum "Si O2"
_cell_formula_units_Z 32
_cell_length_a 24.739675
_cell_length_b 14.426220
_cell_length_c 8.023916
_cell_angle_alpha 90.000000
_cell_angle_beta 146.038230
_cell_angle_gamma 90.000000
_cell_volume 1599.796132
_symmetry_space_group_name_H-M "C 2/M"
_symmetry_group_IT_number 12
_symmetry_cell_setting 'monoclinic'
loop_
_space_group_symop_operation_xyz
x,y,z
-x,y,-z
-x,-y,-z
x,-y,z
1/2+x,1/2+y,z
1/2-x,1/2+y,-z
1/2-x,1/2-y,-z
1/2+x,1/2-y,z
loop_
_atom_site_type_symbol
_atom_site_label
_atom_site_fract_x
_atom_site_fract_y
_atom_site_fract_z
Si Si1 0.089237 0.242630 0.634752
Si Si2 0.272661 0.395975 0.530395
Si Si3 0.513766 0.602497 0.855070
Si Si4 0.220985 0.272340 0.679892
O O1 0.139890 0.297614 0.611358
O O2 0.000000 0.297896 0.500000
O O3 0.037630 0.152221 0.428684
O O4 0.171701 0.212221 0.974078
O O5 0.233568 0.500000 0.388433
O O6 0.200721 0.340489 0.471546
O O7 0.285220 0.336063 0.392722
O O8 0.372247 0.403375 0.886301
O O9 0.466695 0.500000 0.746393
O O10 0.500000 0.653157 0.000000
#
# Coordination Sequence:
#
# PCOD8090482 Si02
#       4
#     8   8   8   8
#     4  11  21  35  53  84 121 150 182 230 279 347
#     4  10  20  38  60  85 115 145 190 241 285 336
#     4  10  19  33  56  87 116 143 180 241 304 342
#     4  10  22  36  57  87 114 156 187 224 292 337
#
# _framework density 20.002548999999998
#
# number of rings (size 3 to 8) (size 9 to 14) (size 15 to 20)
#    0.000    1.750    5.000    0.000    0.000    1.500 
#    0.000    3.750    0.000    4.500    0.000    0.000 
#    0.000    0.000    0.000    0.000    0.000    0.000 
#
# Total GULP energy -198218.335759 kJ/mol
# GULP energy per Si atom -12388.645985 kJ/mol
# Density = 1.995702 g / cm^3
# Si number density = 20.002549 Si / 1000 Ang^3
#
#
#
# Elastic Constant Matrix: (Units=GPa)
#
#
# Indices 1 2 3 4 5 6 
#
# 1 141.2172 26.0195 18.1016 0.0000 16.8115 0.0000
# 2 26.0195 93.6541 25.0503 0.0000 -8.9200 0.0000
# 3 18.1016 25.0503 87.9529 0.0000 -1.3987 0.0000
# 4 0.0000 0.0000 0.0000 22.8665 0.0000 -1.8019
# 5 16.8115 -8.9200 -1.3987 0.0000 35.0719 0.0000
# 6 0.0000 0.0000 0.0000 -1.8019 0.0000 16.2342
#
#
#
# Elastic Compliance Matrix: (Units=1/GPa)
#
#
# Indices 1 2 3 4 5 6 
#
# 1 0.008214 -0.002434 -0.001071 0.000000 -0.004599 0.000000
# 2 -0.002434 0.012563 -0.003010 0.000000 0.004242 0.000000
# 3 -0.001071 -0.003010 0.012451 0.000000 0.000244 0.000000
# 4 0.000000 0.000000 0.000000 0.044118 0.000000 0.004897
# 5 -0.004599 0.004242 0.000244 0.000000 0.031806 0.000000
# 6 0.000000 0.000000 0.000000 0.004897 0.000000 0.062142
#
#
# Mechanical properties :
#
#
# Convention : Reuss Voigt Hill
#
# Bulk Modulus (GPa) = 49.50458 51.24076 50.37267
# Shear Modulus (GPa) = 26.17033 31.74471 28.95752
#
# Velocity S-wave (km/s) = 3.62104 3.98808 3.80898
# Velocity P-wave (km/s) = 6.50272 6.84683 6.67699
#
# Compressibility (1/GPa) = 0.02020015
#
# Stress axis : x y z
#
# Youngs Moduli (GPa) = 121.73597 79.59993 80.31386
#
# Poissons Ratio (x) = 0.19374 0.08598
# Poissons Ratio (y) = 0.29629 0.24172
# Poissons Ratio (z) = 0.13033 0.23957
#
# Static dielectric constant tensor:
#      x y z
#    x 4.058020 0.000000 0.073170 
#    y 0.000000 3.396290 0.000000 
#    z 0.073170 0.000000 3.524220 
# 
# 
# High freq. dielectric constant tensor:
#      x y z
#    x 1.803720 0.000000 -0.005930 
#    y 0.000000 1.731870 0.000000 
#    z -0.005930 0.000000 1.766780 
# 
# From -- ./inp_files/57685.got.cif
#   From: 2010.06.25/outbox.cif.g09.slc.cpg/sg12_29_cif.got.tgz:57685.got - 2010.06.28 00:19:55.
