data_PCOD8090717
_publ_section_title
;
Structure prediction by ZEFSAII (Michael W. Deem and Ramdas Pophale) SiO2 
 PCOD8090717
Probable space group: C 2/M
;
_chemical_formula_sum "Si O2"
_cell_formula_units_Z 48
_cell_length_a 23.477695
_cell_length_b 22.461025
_cell_length_c 11.258882
_cell_angle_alpha 90.000000
_cell_angle_beta 158.832248
_cell_angle_gamma 90.000000
_cell_volume 2143.914721
_symmetry_space_group_name_H-M "C 2/M"
_symmetry_group_IT_number 12
_symmetry_cell_setting 'monoclinic'
loop_
_space_group_symop_operation_xyz
x,y,z
-x,y,-z
-x,-y,-z
x,-y,z
1/2+x,1/2+y,z
1/2-x,1/2+y,-z
1/2-x,1/2-y,-z
1/2+x,1/2-y,z
loop_
_atom_site_type_symbol
_atom_site_label
_atom_site_fract_x
_atom_site_fract_y
_atom_site_fract_z
Si Si1 0.759816 0.246601 0.748301
Si Si2 0.492293 0.067701 0.616453
Si Si3 0.769052 0.361827 0.472011
Si Si4 0.605542 0.862575 0.042799
Si Si5 0.362823 0.431832 0.981738
Si Si6 0.483194 0.322089 0.328374
O O1 0.738012 0.206888 0.586834
O O2 0.903901 0.292375 0.005125
O O3 0.613670 0.287320 0.505488
O O4 0.811278 0.202652 0.954896
O O5 0.500000 0.096163 0.500000
O O6 0.313601 0.073727 0.311781
O O7 0.549694 0.000000 0.724303
O O8 0.622351 0.100922 0.952456
O O9 0.751770 0.368941 0.582128
O O10 0.639688 0.403721 0.156496
O O11 0.943115 0.385695 0.781789
O O12 0.422155 0.500000 0.094676
O O13 0.483330 0.392722 0.296375
O O14 0.500000 0.311996 0.500000
#
# Coordination Sequence:
#
# PCOD8090717 Si02
#       6
#     8   8   8   8   8   8
#     4  11  21  39  55  86 121 151 194 249 288 347
#     4   9  19  35  57  86 119 154 194 244 293 343
#     4   9  19  36  56  87 115 153 199 233 296 342
#     4  10  19  33  59  85 115 154 196 240 284 355
#     4   9  20  39  59  83 117 156 196 243 296 348
#     4  11  24  38  59  87 117 161 197 238 297 349
#
# _framework density 22.388950000000001
#
# number of rings (size 3 to 8) (size 9 to 14) (size 15 to 20)
#    0.000    2.167    1.667    1.000    2.333    1.667 
#    0.000    4.167    0.000    1.000    0.000    0.000 
#    0.000    0.000    0.000    0.000    0.000    0.000 
#
# Total GULP energy -297326.515270 kJ/mol
# GULP energy per Si atom -12388.604803 kJ/mol
# Density = 2.233799 g / cm^3
# Si number density = 22.388950 Si / 1000 Ang^3
#
#
#
# Elastic Constant Matrix: (Units=GPa)
#
#
# Indices 1 2 3 4 5 6 
#
# 1 89.0625 43.3031 42.8632 0.0000 -49.1045 0.0000
# 2 43.3031 137.4122 45.8873 0.0000 -22.4829 0.0000
# 3 42.8632 45.8873 74.4147 0.0000 -36.1356 0.0000
# 4 0.0000 0.0000 0.0000 35.3474 0.0000 -1.9885
# 5 -49.1045 -22.4829 -36.1356 0.0000 47.9582 0.0000
# 6 0.0000 0.0000 0.0000 -1.9885 0.0000 20.5934
#
#
#
# Elastic Compliance Matrix: (Units=1/GPa)
#
#
# Indices 1 2 3 4 5 6 
#
# 1 0.028166 -0.004307 -0.000858 0.000000 0.026173 0.000000
# 2 -0.004307 0.009823 -0.005491 0.000000 -0.003942 0.000000
# 3 -0.000858 -0.005491 0.024667 0.000000 0.015134 0.000000
# 4 0.000000 0.000000 0.000000 0.028445 0.000000 0.002747
# 5 0.026173 -0.003942 0.015134 0.000000 0.057205 0.000000
# 6 0.000000 0.000000 0.000000 0.002747 0.000000 0.048825
#
#
# Mechanical properties :
#
#
# Convention : Reuss Voigt Hill
#
# Bulk Modulus (GPa) = 24.18709 62.77742 43.48225
# Shear Modulus (GPa) = 21.53092 32.03551 26.78322
#
# Velocity S-wave (km/s) = 3.10445 3.78678 3.46246
# Velocity P-wave (km/s) = 4.86588 6.87168 5.95385
#
# Compressibility (1/GPa) = 0.04134437
#
# Stress axis : x y z
#
# Youngs Moduli (GPa) = 35.50415 101.79893 40.53977
#
# Poissons Ratio (x) = 0.43845 0.03478
# Poissons Ratio (y) = 0.15292 0.22260
# Poissons Ratio (z) = 0.03046 0.55896
#
# Static dielectric constant tensor:
#      x y z
#    x 3.938240 0.000000 -0.402540 
#    y 0.000000 4.130650 0.000000 
#    z -0.402540 0.000000 4.016230 
# 
# 
# High freq. dielectric constant tensor:
#      x y z
#    x 1.865360 0.000000 -0.024650 
#    y 0.000000 1.878290 0.000000 
#    z -0.024650 0.000000 1.875030 
# 
# From -- ./inp_files/121874.got.cif
#   From: 2010.06.25/outbox.cif.g09.slc.cpg/sg12_61_cif.got.tgz:121874.got - 2010.06.28 00:19:55.
