data_PCOD8090533
_publ_section_title
;
Structure prediction by ZEFSAII (Michael W. Deem and Ramdas Pophale) SiO2 
 PCOD8090533
Probable space group: C 2/M
;
_chemical_formula_sum "Si O2"
_cell_formula_units_Z 56
_cell_length_a 30.490650
_cell_length_b 9.533981
_cell_length_c 20.913212
_cell_angle_alpha 90.000000
_cell_angle_beta 150.944324
_cell_angle_gamma 90.000000
_cell_volume 2952.523758
_symmetry_space_group_name_H-M "C 2/M"
_symmetry_group_IT_number 12
_symmetry_cell_setting 'monoclinic'
loop_
_space_group_symop_operation_xyz
x,y,z
-x,y,-z
-x,-y,-z
x,-y,z
1/2+x,1/2+y,z
1/2-x,1/2+y,-z
1/2-x,1/2-y,-z
1/2+x,1/2-y,z
loop_
_atom_site_type_symbol
_atom_site_label
_atom_site_fract_x
_atom_site_fract_y
_atom_site_fract_z
Si Si1 0.718516 0.165917 0.397934
Si Si2 0.339200 0.843604 0.912511
Si Si3 0.537401 0.165415 0.479213
Si Si4 0.698104 0.341339 0.628351
Si Si5 0.116283 0.342538 0.814320
Si Si6 0.195704 0.158134 0.017856
Si Si7 0.529565 0.837853 0.104786
O O1 0.750000 0.250000 0.500000
O O2 0.787877 0.198214 0.428180
O O3 0.619623 0.225438 0.251786
O O4 0.715766 0.000000 0.409945
O O5 0.295894 0.827708 0.786914
O O6 0.319336 0.000000 0.913789
O O7 0.293575 0.730480 0.900186
O O8 0.446411 0.817715 0.047269
O O9 0.500000 0.217961 0.500000
O O10 0.629817 0.240054 0.578021
O O11 0.464803 0.207955 0.333469
O O12 0.555630 0.000000 0.504882
O O13 0.661315 0.500000 0.587251
O O14 0.099683 0.500000 0.818548
O O15 0.121292 0.239550 0.881014
O O16 0.207050 0.336052 0.889640
O O17 0.161382 0.000000 0.982823
O O18 0.550970 0.000000 0.117695
O O19 0.500000 0.765083 0.000000
#
# Coordination Sequence:
#
# PCOD8090533 Si02
#       7
#     8   8   8   8   8   8   8
#     4  10  21  38  59  84 115 150 189 233 284 337
#     4  10  19  33  57  84 107 137 184 230 271 324
#     4  10  21  37  57  80 110 148 187 226 272 333
#     4  10  21  36  56  83 113 145 184 235 283 329
#     4   9  19  36  54  73 104 145 185 220 263 325
#     4  10  20  34  54  79 107 139 176 226 280 323
#     4   9  16  33  60  81 101 139 188 226 259 317
#
# _framework density 18.966825
#
# number of rings (size 3 to 8) (size 9 to 14) (size 15 to 20)
#    0.000    2.286    1.429    1.286    0.000    4.857 
#    0.000    5.000    0.000    0.857    0.000    0.000 
#    0.000    0.000    0.000    0.000    0.000    0.000 
#
# Total GULP energy -347177.796836 kJ/mol
# GULP energy per Si atom -12399.207030 kJ/mol
# Density = 1.892366 g / cm^3
# Si number density = 18.966825 Si / 1000 Ang^3
#
#
#
# Elastic Constant Matrix: (Units=GPa)
#
#
# Indices 1 2 3 4 5 6 
#
# 1 91.3953 47.8238 40.7781 0.0000 -17.5717 0.0000
# 2 47.8238 78.8723 39.1098 0.0000 -10.2374 0.0000
# 3 40.7781 39.1098 114.1702 0.0000 -5.5904 0.0000
# 4 0.0000 0.0000 0.0000 21.9412 0.0000 -5.2575
# 5 -17.5717 -10.2374 -5.5904 0.0000 26.6738 0.0000
# 6 0.0000 0.0000 0.0000 -5.2575 0.0000 28.2797
#
#
#
# Elastic Compliance Matrix: (Units=1/GPa)
#
#
# Indices 1 2 3 4 5 6 
#
# 1 0.018412 -0.008479 -0.003271 0.000000 0.008189 0.000000
# 2 -0.008479 0.019816 -0.003698 0.000000 0.001244 0.000000
# 3 -0.003271 -0.003698 0.011133 0.000000 -0.001241 0.000000
# 4 0.000000 0.000000 0.000000 0.047701 0.000000 0.008868
# 5 0.008189 0.001244 -0.001241 0.000000 0.043102 0.000000
# 6 0.000000 0.000000 0.000000 0.008868 0.000000 0.037010
#
#
# Mechanical properties :
#
#
# Convention : Reuss Voigt Hill
#
# Bulk Modulus (GPa) = 54.15933 59.98459 57.07196
# Shear Modulus (GPa) = 23.33983 25.82734 24.58359
#
# Velocity S-wave (km/s) = 3.51174 3.69414 3.60409
# Velocity P-wave (km/s) = 6.71266 7.06331 6.89022
#
# Compressibility (1/GPa) = 0.01846404
#
# Stress axis : x y z
#
# Youngs Moduli (GPa) = 54.31176 50.46535 89.82146
#
# Poissons Ratio (x) = 0.42792 0.29377
# Poissons Ratio (y) = 0.46053 0.33220
# Poissons Ratio (z) = 0.17763 0.18664
#
# Static dielectric constant tensor:
#      x y z
#    x 3.323270 0.000000 -0.087510 
#    y 0.000000 3.328980 0.000000 
#    z -0.087510 0.000000 3.558040 
# 
# 
# High freq. dielectric constant tensor:
#      x y z
#    x 1.735670 0.000000 -0.005720 
#    y 0.000000 1.714380 0.000000 
#    z -0.005720 0.000000 1.742660 
# 
# From -- ./inp_files/329718.got.cif
#   From: 2010.06.25/outbox.cif.g09.slc.cpg/sg12_165_cif.got.tgz:329718.got - 2010.06.28 00:19:55.
