data_PCOD8090081
_publ_section_title
;
Structure prediction by ZEFSAII (Michael W. Deem and Ramdas Pophale) SiO2 
 PCOD8090081
Probable space group: C 2/M
;
_chemical_formula_sum "Si O2"
_cell_formula_units_Z 48
_cell_length_a 18.691298
_cell_length_b 18.529804
_cell_length_c 21.146309
_cell_angle_alpha 90.000000
_cell_angle_beta 159.832010
_cell_angle_gamma 90.000000
_cell_volume 2525.103315
_symmetry_space_group_name_H-M "C 2/M"
_symmetry_group_IT_number 12
_symmetry_cell_setting 'monoclinic'
loop_
_space_group_symop_operation_xyz
x,y,z
-x,y,-z
-x,-y,-z
x,-y,z
1/2+x,1/2+y,z
1/2-x,1/2+y,-z
1/2-x,1/2-y,-z
1/2+x,1/2-y,z
loop_
_atom_site_type_symbol
_atom_site_label
_atom_site_fract_x
_atom_site_fract_y
_atom_site_fract_z
Si Si1 0.848654 0.219453 0.427431
Si Si2 0.133329 0.918993 0.944369
Si Si3 0.049210 0.345335 0.273255
Si Si4 0.999294 0.803225 0.073288
Si Si5 0.911804 0.773326 0.251912
Si Si6 0.405752 0.418978 0.631819
O O1 0.686036 0.162644 0.322963
O O2 0.721720 0.281852 0.285933
O O3 0.000000 0.182849 0.500000
O O4 0.987231 0.254573 0.598509
O O5 0.071966 0.879297 0.957522
O O6 0.941809 0.916415 0.736937
O O7 0.195123 0.000000 0.013638
O O8 0.328862 0.879724 0.073102
O O9 0.167199 0.398907 0.419598
O O10 0.022288 0.266946 0.284357
O O11 0.833017 0.741370 0.953384
O O12 0.000000 0.814583 0.000000
O O13 0.945649 0.859564 0.277612
O O14 0.456646 0.500000 0.648615
#
# Coordination Sequence:
#
# PCOD8090081 Si02
#       6
#     8   8   8   8   8   8
#     4  11  20  33  54  83 110 139 175 230 272 318
#     4  10  21  36  56  81 110 144 183 226 272 322
#     4  10  20  35  58  81 107 142 188 229 268 318
#     4  11  21  35  55  81 111 145 182 224 272 322
#     4  10  20  36  56  81 107 142 186 232 268 317
#     4  10  19  33  55  81 109 137 174 225 275 321
#
# _framework density 19.009122999999999
#
# number of rings (size 3 to 8) (size 9 to 14) (size 15 to 20)
#    0.000    1.667    1.667    5.500    0.000    3.000 
#    0.000    0.000    0.000   13.500    0.000    0.000 
#    0.000    0.000    0.000    0.000    0.000    0.000 
#
# Total GULP energy -297525.116735 kJ/mol
# GULP energy per Si atom -12396.879864 kJ/mol
# Density = 1.896586 g / cm^3
# Si number density = 19.009123 Si / 1000 Ang^3
#
#
#
# Elastic Constant Matrix: (Units=GPa)
#
#
# Indices 1 2 3 4 5 6 
#
# 1 110.8867 50.3659 26.5452 0.1318 11.1993 0.0587
# 2 50.3659 109.8001 28.6461 -0.1288 6.7882 -0.0001
# 3 26.5452 28.6461 71.3368 -0.3531 -2.9977 -0.0235
# 4 0.1318 -0.1288 -0.3531 21.5052 -0.2223 -5.1941
# 5 11.1993 6.7882 -2.9977 -0.2223 27.8407 0.0168
# 6 0.0587 -0.0001 -0.0235 -5.1941 0.0168 15.4684
#
#
#
# Elastic Compliance Matrix: (Units=1/GPa)
#
#
# Indices 1 2 3 4 5 6 
#
# 1 0.012208 -0.004598 -0.002870 -0.000221 -0.004101 -0.000121
# 2 -0.004598 0.012149 -0.003229 0.000039 -0.001460 0.000028
# 3 -0.002870 -0.003229 0.016541 0.000344 0.003725 0.000147
# 4 -0.000221 0.000039 0.000344 0.050619 0.000510 0.016998
# 5 -0.004101 -0.001460 0.003725 0.000510 0.038329 0.000151
# 6 -0.000121 0.000028 0.000147 0.016998 0.000151 0.070356
#
#
# Mechanical properties :
#
#
# Convention : Reuss Voigt Hill
#
# Bulk Modulus (GPa) = 51.26939 55.90423 53.58681
# Shear Modulus (GPa) = 21.92047 25.39394 23.65720
#
# Velocity S-wave (km/s) = 3.39950 3.65894 3.53160
# Velocity P-wave (km/s) = 6.51447 6.87920 6.69932
#
# Compressibility (1/GPa) = 0.01950482
#
# Stress axis : x y z
#
# Youngs Moduli (GPa) = 81.91246 82.30943 60.45654
#
# Poissons Ratio (x) = 0.37846 0.17350
# Poissons Ratio (y) = 0.37663 0.19521
# Poissons Ratio (z) = 0.23508 0.26577
#
# Static dielectric constant tensor:
#      x y z
#    x 3.390880 -0.000060 -0.131660 
#    y -0.000060 3.336420 -0.000220 
#    z -0.131660 -0.000220 3.786100 
# 
# 
# High freq. dielectric constant tensor:
#      x y z
#    x 1.723550 0.000000 -0.014520 
#    y 0.000000 1.714710 -0.000020 
#    z -0.014520 -0.000020 1.760440 
# 
# From -- ./inp_files/285441.got.cif
#   From: 2010.06.25/outbox.cif.g09.slc.cpg/sg12_143_cif.got.tgz:285441.got - 2010.06.28 00:19:55.
