data_PCOD8090985
_publ_section_title
;
Structure prediction by ZEFSAII (Michael W. Deem and Ramdas Pophale) SiO2 
 PCOD8090985
Probable space group: C 2/M
;
_chemical_formula_sum "Si O2"
_cell_formula_units_Z 48
_cell_length_a 23.852209
_cell_length_b 8.677072
_cell_length_c 20.931471
_cell_angle_alpha 90.000000
_cell_angle_beta 38.660004
_cell_angle_gamma 90.000000
_cell_volume 2706.272193
_symmetry_space_group_name_H-M "C 2/M"
_symmetry_group_IT_number 12
_symmetry_cell_setting 'monoclinic'
loop_
_space_group_symop_operation_xyz
x,y,z
-x,y,-z
-x,-y,-z
x,-y,z
1/2+x,1/2+y,z
1/2-x,1/2+y,-z
1/2-x,1/2-y,-z
1/2+x,1/2-y,z
loop_
_atom_site_type_symbol
_atom_site_label
_atom_site_fract_x
_atom_site_fract_y
_atom_site_fract_z
Si Si1 0.022035 0.172459 0.075179
Si Si2 0.190895 0.682725 0.110108
Si Si3 0.202585 0.182421 0.863213
Si Si4 0.318560 0.818134 0.388895
Si Si5 0.175337 0.182690 0.749187
Si Si6 0.987546 0.825747 0.770604
O O1 0.049245 0.174028 0.124912
O O2 0.925320 0.251182 0.150847
O O3 0.011781 0.000000 0.058029
O O4 0.103327 0.254924 0.964882
O O5 0.194439 0.500000 0.101217
O O6 0.227884 0.743833 0.145852
O O7 0.087932 0.737692 0.202640
O O8 0.250000 0.750000 0.000000
O O9 0.231217 0.222108 0.764360
O O10 0.194528 0.000000 0.878842
O O11 0.250000 0.750000 0.500000
O O12 0.284533 0.765571 0.348745
O O13 0.417303 0.758555 0.318634
O O14 0.317877 0.000000 0.393445
O O15 0.172863 0.000000 0.737072
O O16 0.999070 0.000000 0.734842
#
# Coordination Sequence:
#
# PCOD8090985 Si02
#       6
#     8   8   8   8   8   8
#     4   8  13  24  45  71  99 134 175 212 247 298
#     4  11  20  31  48  74 110 151 189 221 253 300
#     4   9  16  27  46  73 105 145 183 211 248 306
#     4  11  22  38  59  82 105 130 166 216 273 323
#     4   9  17  30  51  76 103 136 176 216 259 310
#     4  10  19  34  54  77 105 139 181 222 263 308
#
# _framework density 17.736575999999999
#
# number of rings (size 3 to 8) (size 9 to 14) (size 15 to 20)
#    0.000    2.333    1.667    4.000    0.000    2.000 
#    0.000    1.667    0.000    3.000    0.000    7.000 
#    0.000    0.000    0.000    0.000    0.000    0.000 
#
# Total GULP energy -297380.755108 kJ/mol
# GULP energy per Si atom -12390.864796 kJ/mol
# Density = 1.769621 g / cm^3
# Si number density = 17.736576 Si / 1000 Ang^3
#
#
#
# Elastic Constant Matrix: (Units=GPa)
#
#
# Indices 1 2 3 4 5 6 
#
# 1 133.9926 40.9341 60.5529 -0.0005 18.6940 -0.0001
# 2 40.9341 88.4373 41.4042 -0.0065 5.2408 0.0054
# 3 60.5529 41.4042 107.1357 -0.0006 12.9415 0.0011
# 4 -0.0005 -0.0065 -0.0006 23.6242 0.0010 -1.9682
# 5 18.6940 5.2408 12.9415 0.0010 18.8964 -0.0010
# 6 -0.0001 0.0054 0.0011 -1.9682 -0.0010 22.6630
#
#
#
# Elastic Compliance Matrix: (Units=1/GPa)
#
#
# Indices 1 2 3 4 5 6 
#
# 1 0.011347 -0.002722 -0.004466 0.000000 -0.007412 0.000001
# 2 -0.002722 0.014459 -0.004241 0.000004 0.001587 -0.000003
# 3 -0.004466 -0.004241 0.013978 -0.000001 -0.003978 0.000000
# 4 0.000000 0.000004 -0.000001 0.042638 -0.000002 0.003703
# 5 -0.007412 0.001587 -0.003978 -0.000002 0.062537 0.000002
# 6 0.000001 -0.000003 0.000000 0.003703 0.000002 0.044446
#
#
# Mechanical properties :
#
#
# Convention : Reuss Voigt Hill
#
# Bulk Modulus (GPa) = 59.08289 68.37199 63.72744
# Shear Modulus (GPa) = 22.94577 25.48167 24.21372
#
# Velocity S-wave (km/s) = 3.60070 3.79446 3.69885
# Velocity P-wave (km/s) = 7.11831 7.60457 7.36546
#
# Compressibility (1/GPa) = 0.01692537
#
# Stress axis : x y z
#
# Youngs Moduli (GPa) = 88.12928 69.16169 71.54209
#
# Poissons Ratio (x) = 0.18826 0.31951
# Poissons Ratio (y) = 0.23988 0.30342
# Poissons Ratio (z) = 0.39359 0.29332
#
# Static dielectric constant tensor:
#      x y z
#    x 3.508220 0.000000 0.082490 
#    y 0.000000 3.063660 0.000000 
#    z 0.082490 0.000000 3.129900 
# 
# 
# High freq. dielectric constant tensor:
#      x y z
#    x 1.692010 0.000000 0.007050 
#    y 0.000000 1.659190 0.000000 
#    z 0.007050 0.000000 1.658530 
# 
# From -- ./inp_files/323498.got.cif
#   From: 2010.06.25/outbox.cif.g09.slc.cpg/sg12_162_cif.got.tgz:323498.got - 2010.06.28 00:19:55.
