data_PCOD8090626
_publ_section_title
;
Structure prediction by ZEFSAII (Michael W. Deem and Ramdas Pophale) SiO2 
 PCOD8090626
Probable space group: C 2/M
;
_chemical_formula_sum "Si O2"
_cell_formula_units_Z 48
_cell_length_a 18.932314
_cell_length_b 14.212163
_cell_length_c 12.287041
_cell_angle_alpha 90.000000
_cell_angle_beta 131.697096
_cell_angle_gamma 90.000000
_cell_volume 2468.544681
_symmetry_space_group_name_H-M "C 2/M"
_symmetry_group_IT_number 12
_symmetry_cell_setting 'monoclinic'
loop_
_space_group_symop_operation_xyz
x,y,z
-x,y,-z
-x,-y,-z
x,-y,z
1/2+x,1/2+y,z
1/2-x,1/2+y,-z
1/2-x,1/2-y,-z
1/2+x,1/2-y,z
loop_
_atom_site_type_symbol
_atom_site_label
_atom_site_fract_x
_atom_site_fract_y
_atom_site_fract_z
Si Si1 0.729510 0.249033 0.806948
Si Si2 0.308715 0.733878 0.668378
Si Si3 0.452424 0.107212 0.834527
Si Si4 0.548124 0.392682 0.290105
Si Si5 0.596663 0.230538 0.859634
Si Si6 0.899130 0.105150 0.419344
O O1 0.744067 0.198712 0.704196
O O2 0.653680 0.198052 0.809018
O O3 0.687598 0.350772 0.734276
O O4 0.830263 0.259379 0.966821
O O5 0.250000 0.750000 0.500000
O O6 0.355689 0.834534 0.743595
O O7 0.389305 0.654197 0.740309
O O8 0.519940 0.151397 0.810396
O O9 0.429453 0.000000 0.777279
O O10 0.500000 0.111532 0.000000
O O11 0.520372 0.500000 0.231002
O O12 0.452405 0.332274 0.209012
O O13 0.615198 0.390831 0.465479
O O14 0.000000 0.156327 0.500000
O O15 0.905368 0.000000 0.379384
#
# Coordination Sequence:
#
# PCOD8090626 Si02
#       6
#     8   8   8   8   8   8
#     4  11  21  36  56  87 119 152 188 235 293 339
#     4  11  22  37  59  89 120 151 191 239 289 346
#     4  10  21  40  63  85 113 151 199 246 287 334
#     4  10  21  38  60  86 116 154 193 237 287 340
#     4  10  22  38  58  86 121 152 190 236 291 353
#     4  10  19  33  57  90 116 143 194 247 292 330
#
# _framework density 19.444655999999998
#
# number of rings (size 3 to 8) (size 9 to 14) (size 15 to 20)
#    0.000    1.667    5.000    0.000    0.000    2.000 
#    0.000    5.000    0.000    1.000    0.000    0.000 
#    0.000    0.000    0.000    0.000    0.000    0.000 
#
# Total GULP energy -297460.150657 kJ/mol
# GULP energy per Si atom -12394.172944 kJ/mol
# Density = 1.940040 g / cm^3
# Si number density = 19.444656 Si / 1000 Ang^3
#
#
#
# Elastic Constant Matrix: (Units=GPa)
#
#
# Indices 1 2 3 4 5 6 
#
# 1 124.2113 26.2694 20.3342 0.0000 -23.6114 0.0000
# 2 26.2694 102.2850 26.6234 0.0000 1.6495 0.0000
# 3 20.3342 26.6234 94.6471 0.0000 -2.3797 0.0000
# 4 0.0000 0.0000 0.0000 26.7042 0.0000 0.8839
# 5 -23.6114 1.6495 -2.3797 0.0000 34.4612 0.0000
# 6 0.0000 0.0000 0.0000 0.8839 0.0000 17.5883
#
#
#
# Elastic Compliance Matrix: (Units=1/GPa)
#
#
# Indices 1 2 3 4 5 6 
#
# 1 0.010084 -0.002355 -0.001330 0.000000 0.006930 0.000000
# 2 -0.002355 0.011117 -0.002680 0.000000 -0.002331 0.000000
# 3 -0.001330 -0.002680 0.011605 0.000000 0.000019 0.000000
# 4 0.000000 0.000000 0.000000 0.037510 0.000000 -0.001885
# 5 0.006930 -0.002331 0.000019 0.000000 0.033879 0.000000
# 6 0.000000 0.000000 0.000000 -0.001885 0.000000 0.056951
#
#
# Mechanical properties :
#
#
# Convention : Reuss Voigt Hill
#
# Bulk Modulus (GPa) = 49.80918 51.95528 50.88223
# Shear Modulus (GPa) = 27.69053 32.27850 29.98452
#
# Velocity S-wave (km/s) = 3.77778 4.07875 3.93115
# Velocity P-wave (km/s) = 6.68583 6.99709 6.84323
#
# Compressibility (1/GPa) = 0.02007662
#
# Stress axis : x y z
#
# Youngs Moduli (GPa) = 99.16734 89.95558 86.16654
#
# Poissons Ratio (x) = 0.21189 0.11457
# Poissons Ratio (y) = 0.23359 0.23089
# Poissons Ratio (z) = 0.13186 0.24104
#
# Static dielectric constant tensor:
#      x y z
#    x 3.875100 0.000000 -0.074030 
#    y 0.000000 3.417260 0.000000 
#    z -0.074030 0.000000 3.607810 
# 
# 
# High freq. dielectric constant tensor:
#      x y z
#    x 1.776860 0.000000 -0.001290 
#    y 0.000000 1.723810 0.000000 
#    z -0.001290 0.000000 1.755620 
# 
# From -- ./inp_files/166861.got.cif
#   From: 2010.06.25/outbox.cif.g09.slc.cpg/sg12_84_cif.got.tgz:166861.got - 2010.06.28 00:19:55.
