data_PCOD8090439
_publ_section_title
;
Structure prediction by ZEFSAII (Michael W. Deem and Ramdas Pophale) SiO2 
 PCOD8090439
Probable space group: C 2/M
;
_chemical_formula_sum "Si O2"
_cell_formula_units_Z 64
_cell_length_a 15.009412
_cell_length_b 17.829614
_cell_length_c 17.384585
_cell_angle_alpha 90.000000
_cell_angle_beta 134.706769
_cell_angle_gamma 90.000000
_cell_volume 3306.482784
_symmetry_space_group_name_H-M "C 2/M"
_symmetry_group_IT_number 12
_symmetry_cell_setting 'monoclinic'
loop_
_space_group_symop_operation_xyz
x,y,z
-x,y,-z
-x,-y,-z
x,-y,z
1/2+x,1/2+y,z
1/2-x,1/2+y,-z
1/2-x,1/2-y,-z
1/2+x,1/2-y,z
loop_
_atom_site_type_symbol
_atom_site_label
_atom_site_fract_x
_atom_site_fract_y
_atom_site_fract_z
Si Si1 0.585981 0.337242 0.762547
Si Si2 0.595432 0.159003 0.768356
Si Si3 0.226170 0.336671 0.994422
Si Si4 0.198373 0.835866 0.386060
Si Si5 0.623465 0.088730 0.620023
Si Si6 0.503729 0.081249 0.089976
Si Si7 0.780099 0.912020 0.296333
Si Si8 0.188931 0.339156 0.382974
O O1 0.600904 0.248443 0.762031
O O2 0.664873 0.369963 0.884190
O O3 0.444407 0.361743 0.691364
O O4 0.626143 0.372920 0.705946
O O5 0.622022 0.119508 0.704898
O O6 0.457204 0.136272 0.717417
O O7 0.705135 0.131160 0.894621
O O8 0.250000 0.250000 0.000000
O O9 0.093532 0.352433 0.953464
O O10 0.254174 0.879224 0.347308
O O11 0.207905 0.747857 0.376335
O O12 0.276685 0.858816 0.508757
O O13 0.500000 0.116511 0.500000
O O14 0.631441 0.000000 0.627273
O O15 0.640078 0.112934 0.191000
O O16 0.476685 0.000000 0.115791
O O17 0.500000 0.061607 0.000000
O O18 0.789367 0.883065 0.390057
O O19 0.805268 0.000000 0.307605
#
# Coordination Sequence:
#
# PCOD8090439 Si02
#       8
#     8   8   8   8   8   8   8   8
#     4  10  22  38  58  85 119 159 189 229 293 356
#     4  10  20  38  60  87 114 147 200 249 282 328
#     4  10  20  36  57  86 119 151 195 238 284 335
#     4  10  22  40  59  82 116 156 194 237 292 348
#     4  11  23  39  62  88 115 151 198 248 294 341
#     4  10  19  33  56  84 116 152 189 232 284 341
#     4  11  22  35  57  90 121 150 189 237 292 350
#     4  10  20  37  61  86 114 149 194 243 288 343
#
# _framework density 19.355916000000001
#
# number of rings (size 3 to 8) (size 9 to 14) (size 15 to 20)
#    0.000    1.750    3.750    0.750    0.000    2.500 
#    0.000    1.250    0.000    0.750    0.000    0.000 
#    0.000    0.000    0.000    0.000    0.000    0.000 
#
# Total GULP energy -396569.708319 kJ/mol
# GULP energy per Si atom -12392.803385 kJ/mol
# Density = 1.931186 g / cm^3
# Si number density = 19.355916 Si / 1000 Ang^3
#
#
#
# Elastic Constant Matrix: (Units=GPa)
#
#
# Indices 1 2 3 4 5 6 
#
# 1 142.0124 47.2518 29.5943 0.0000 -5.5249 0.0000
# 2 47.2518 45.4012 5.4798 0.0000 1.2471 0.0000
# 3 29.5943 5.4798 55.3727 0.0000 -4.8892 0.0000
# 4 0.0000 0.0000 0.0000 19.8444 0.0000 4.6325
# 5 -5.5249 1.2471 -4.8892 0.0000 36.5551 0.0000
# 6 0.0000 0.0000 0.0000 4.6325 0.0000 20.2203
#
#
#
# Elastic Compliance Matrix: (Units=1/GPa)
#
#
# Indices 1 2 3 4 5 6 
#
# 1 0.012224 -0.012138 -0.005193 0.000000 0.001567 0.000000
# 2 -0.012138 0.034386 0.002852 0.000000 -0.002626 0.000000
# 3 -0.005193 0.002852 0.020720 0.000000 0.001889 0.000000
# 4 0.000000 0.000000 0.000000 0.053239 0.000000 -0.012197
# 5 0.001567 -0.002626 0.001889 0.000000 0.027935 0.000000
# 6 0.000000 0.000000 0.000000 -0.012197 0.000000 0.052250
#
#
# Mechanical properties :
#
#
# Convention : Reuss Voigt Hill
#
# Bulk Modulus (GPa) = 26.06093 45.27091 35.66592
# Shear Modulus (GPa) = 20.61836 26.02131 23.31983
#
# Velocity S-wave (km/s) = 3.26732 3.67053 3.47478
# Velocity P-wave (km/s) = 5.26565 6.43453 5.87921
#
# Compressibility (1/GPa) = 0.03837161
#
# Stress axis : x y z
#
# Youngs Moduli (GPa) = 81.80930 29.08123 48.26345
#
# Poissons Ratio (x) = 0.35299 0.25065
# Poissons Ratio (y) = 0.99300 -0.13767
# Poissons Ratio (z) = 0.42487 -0.08295
#
# Static dielectric constant tensor:
#      x y z
#    x 3.369930 0.000000 -0.076430 
#    y 0.000000 3.402720 0.000000 
#    z -0.076430 0.000000 3.915270 
# 
# 
# High freq. dielectric constant tensor:
#      x y z
#    x 1.751970 0.000000 -0.011980 
#    y 0.000000 1.739710 0.000000 
#    z -0.011980 0.000000 1.763470 
# 
# From -- ./inp_files/271769.got.cif
#   From: 2010.06.25/outbox.cif.g09.slc.cpg/sg12_136_cif.got.tgz:271769.got - 2010.06.28 00:19:55.
