data_PCOD8090740
_publ_section_title
;
Structure prediction by ZEFSAII (Michael W. Deem and Ramdas Pophale) SiO2 
 PCOD8090740
Probable space group: C 2/M
;
_chemical_formula_sum "Si O2"
_cell_formula_units_Z 64
_cell_length_a 17.699787
_cell_length_b 13.951343
_cell_length_c 14.454819
_cell_angle_alpha 90.000000
_cell_angle_beta 59.171000
_cell_angle_gamma 90.000000
_cell_volume 3065.056538
_symmetry_space_group_name_H-M "C 2/M"
_symmetry_group_IT_number 12
_symmetry_cell_setting 'monoclinic'
loop_
_space_group_symop_operation_xyz
x,y,z
-x,y,-z
-x,-y,-z
x,-y,z
1/2+x,1/2+y,z
1/2-x,1/2+y,-z
1/2-x,1/2-y,-z
1/2+x,1/2-y,z
loop_
_atom_site_type_symbol
_atom_site_label
_atom_site_fract_x
_atom_site_fract_y
_atom_site_fract_z
Si Si1 0.453103 0.741184 0.627303
Si Si2 0.632712 0.241602 0.594701
Si Si3 0.755051 0.610523 0.585960
Si Si4 0.527679 0.891660 0.077521
Si Si5 0.791471 0.614201 0.959360
Si Si6 0.337396 0.106578 0.264924
Si Si7 0.698858 0.388207 0.197607
Si Si8 0.687988 0.891457 0.255389
O O1 0.500000 0.715251 0.500000
O O2 0.527948 0.749199 0.659567
O O3 0.384894 0.659696 0.701802
O O4 0.402028 0.840974 0.656880
O O5 0.670950 0.349540 0.581777
O O6 0.661850 0.181249 0.485888
O O7 0.683345 0.184097 0.644425
O O8 0.772744 0.500000 0.545400
O O9 0.740650 0.616129 0.706601
O O10 0.611524 0.844405 0.075448
O O11 0.442758 0.890504 0.194984
O O12 0.556569 0.000000 0.032919
O O13 0.500000 0.837272 0.000000
O O14 0.790031 0.500000 0.963751
O O15 0.771402 0.650464 0.866607
O O16 0.719713 0.651513 0.079978
O O17 0.286978 0.133732 0.202068
O O18 0.307245 0.000000 0.314813
O O19 0.677683 0.500000 0.207336
O O20 0.658856 0.000000 0.255774
#
# Coordination Sequence:
#
# PCOD8090740 Si02
#       8
#     8   8   8   8   8   8   8   8
#     4  12  25  41  58  85 125 163 203 248 297 358
#     4  11  23  39  59  84 118 154 195 251 293 356
#     4  10  22  41  64  86 111 152 201 251 300 347
#     4   9  14  25  48  83 122 155 187 236 297 353
#     4   9  17  33  59  90 122 158 198 244 302 359
#     4  10  19  33  59  90 121 156 196 242 301 360
#     4  10  22  39  61  90 124 161 201 246 298 358
#     4  10  21  39  64  90 119 156 199 249 304 359
#
# _framework density 20.880528000000002
#
# number of rings (size 3 to 8) (size 9 to 14) (size 15 to 20)
#    0.000    1.875    2.500    1.875    1.750    3.500 
#    0.000    0.000    0.000    0.000    0.000    3.500 
#    0.000    0.000    0.000    0.000    0.000    0.000 
#
# Total GULP energy -396450.946808 kJ/mol
# GULP energy per Si atom -12389.092088 kJ/mol
# Density = 2.083300 g / cm^3
# Si number density = 20.880528 Si / 1000 Ang^3
#
#
#
# Elastic Constant Matrix: (Units=GPa)
#
#
# Indices 1 2 3 4 5 6 
#
# 1 87.3774 42.3870 42.8632 0.0000 3.0141 0.0000
# 2 42.3870 73.3844 41.3965 0.0000 0.0414 0.0000
# 3 42.8632 41.3965 141.5229 0.0000 10.8367 0.0000
# 4 0.0000 0.0000 0.0000 14.7590 0.0000 -15.7120
# 5 3.0141 0.0414 10.8367 0.0000 34.2534 0.0000
# 6 0.0000 0.0000 0.0000 -15.7120 0.0000 4.9785
#
#
#
# Elastic Compliance Matrix: (Units=1/GPa)
#
#
# Indices 1 2 3 4 5 6 
#
# 1 0.016720 -0.008177 -0.002624 0.000000 -0.000631 0.000000
# 2 -0.008177 0.020397 -0.003631 0.000000 0.001844 0.000000
# 3 -0.002624 -0.003631 0.009126 0.000000 -0.002652 0.000000
# 4 0.000000 0.000000 0.000000 -0.028713 0.000000 -0.090617
# 5 -0.000631 0.001844 -0.002652 0.000000 0.030086 0.000000
# 6 0.000000 0.000000 0.000000 -0.090617 0.000000 -0.085121
#
#
# Mechanical properties :
#
#
# Convention : Reuss Voigt Hill
#
# Bulk Modulus (GPa) = 57.53923 61.73090 59.63506
# Shear Modulus (GPa) = -1756.24733 22.50737 -866.86998
#
# Velocity S-wave (km/s) = -29.03307 3.28672 -20.39751
# Velocity P-wave (km/s) = 33.11006 6.63562 22.93736
#
# Compressibility (1/GPa) = 0.01737945
#
# Stress axis : x y z
#
# Youngs Moduli (GPa) = 59.80746 49.02632 109.57944
#
# Poissons Ratio (x) = 0.40090 0.28752
# Poissons Ratio (y) = 0.48906 0.39787
# Poissons Ratio (z) = 0.15693 0.17801
#
# Static dielectric constant tensor:
#      x y z
#    x 3.676390 0.000000 0.241770 
#    y 0.000000 3.610070 0.000000 
#    z 0.241770 0.000000 3.977400 
# 
# 
# High freq. dielectric constant tensor:
#      x y z
#    x 1.805640 0.000000 0.019680 
#    y 0.000000 1.799560 0.000000 
#    z 0.019680 0.000000 1.821220 
# 
# From -- ./inp_files/225244.got.cif
#   From: 2010.06.25/outbox.cif.g09.slc.cpg/sg12_113_cif.got.tgz:225244.got - 2010.06.28 00:19:55.
