data_PCOD8090126
_publ_section_title
;
Structure prediction by ZEFSAII (Michael W. Deem and Ramdas Pophale) SiO2 
 PCOD8090126
Probable space group: C 2/M
;
_chemical_formula_sum "Si O2"
_cell_formula_units_Z 56
_cell_length_a 27.286037
_cell_length_b 9.145504
_cell_length_c 14.613686
_cell_angle_alpha 90.000000
_cell_angle_beta 53.161704
_cell_angle_gamma 90.000000
_cell_volume 2918.619067
_symmetry_space_group_name_H-M "C 2/M"
_symmetry_group_IT_number 12
_symmetry_cell_setting 'monoclinic'
loop_
_space_group_symop_operation_xyz
x,y,z
-x,y,-z
-x,-y,-z
x,-y,z
1/2+x,1/2+y,z
1/2-x,1/2+y,-z
1/2-x,1/2-y,-z
1/2+x,1/2-y,z
loop_
_atom_site_type_symbol
_atom_site_label
_atom_site_fract_x
_atom_site_fract_y
_atom_site_fract_z
Si Si1 0.770368 0.328092 0.387070
Si Si2 0.240119 0.328579 0.916771
Si Si3 0.821330 0.826400 0.662655
Si Si4 0.002291 0.826129 0.777920
Si Si5 0.455755 0.674101 0.469764
Si Si6 0.592103 0.830030 0.815624
Si Si7 0.395435 0.829889 0.988682
O O1 0.762683 0.500000 0.407454
O O2 0.750000 0.250000 0.500000
O O3 0.726130 0.266014 0.358407
O O4 0.839244 0.285554 0.286077
O O5 0.242814 0.500000 0.930892
O O6 0.295938 0.276531 0.789589
O O7 0.175530 0.285839 0.942734
O O8 0.250000 0.250000 0.000000
O O9 0.888479 0.761384 0.567249
O O10 0.823395 0.000000 0.655583
O O11 0.022694 0.771262 0.654297
O O12 0.047901 0.767203 0.803883
O O13 0.001131 0.000000 0.783911
O O14 0.934624 0.764770 0.873260
O O15 0.500000 0.734534 0.500000
O O16 0.454836 0.500000 0.472399
O O17 0.581643 0.795591 0.934251
O O18 0.578973 0.000000 0.809931
O O19 0.405160 0.000000 0.955497
#
# Coordination Sequence:
#
# PCOD8090126 Si02
#       7
#     8   8   8   8   8   8   8
#     4  10  19  33  55  82 110 146 188 231 277 329
#     4  10  21  37  60  86 111 145 189 234 280 329
#     4   9  17  34  57  78 107 145 186 227 269 330
#     4  11  23  36  56  88 116 144 186 239 290 327
#     4   9  19  34  53  80 111 144 183 226 277 334
#     4  10  20  37  58  80 110 152 194 226 276 347
#     4  10  21  39  59  82 113 153 193 226 273 343
#
# _framework density 19.187156000000002
#
# number of rings (size 3 to 8) (size 9 to 14) (size 15 to 20)
#    0.000    2.143    1.429    1.714    2.000    4.571 
#    0.000    0.714    0.000    3.429    0.000    0.000 
#    0.000    0.000    0.000    0.000    0.000    0.000 
#
# Total GULP energy -347204.530968 kJ/mol
# GULP energy per Si atom -12400.161820 kJ/mol
# Density = 1.914349 g / cm^3
# Si number density = 19.187156 Si / 1000 Ang^3
#
#
#
# Elastic Constant Matrix: (Units=GPa)
#
#
# Indices 1 2 3 4 5 6 
#
# 1 97.8728 31.0478 59.6355 0.0000 3.3851 0.0000
# 2 31.0478 35.5883 42.3384 0.0000 -0.8531 0.0000
# 3 59.6355 42.3384 174.6539 0.0000 -1.9473 0.0000
# 4 0.0000 0.0000 0.0000 31.3452 0.0000 3.8910
# 5 3.3851 -0.8531 -1.9473 0.0000 39.3779 0.0000
# 6 0.0000 0.0000 0.0000 3.8910 0.0000 21.7153
#
#
#
# Elastic Compliance Matrix: (Units=1/GPa)
#
#
# Indices 1 2 3 4 5 6 
#
# 1 0.015112 -0.009926 -0.002772 0.000000 -0.001651 0.000000
# 2 -0.009926 0.046011 -0.007748 0.000000 0.001467 0.000000
# 3 -0.002772 -0.007748 0.008556 0.000000 0.000494 0.000000
# 4 0.000000 0.000000 0.000000 0.032629 0.000000 -0.005847
# 5 -0.001651 0.001467 0.000494 0.000000 0.025593 0.000000
# 6 0.000000 0.000000 0.000000 -0.005847 0.000000 0.047098
#
#
# Mechanical properties :
#
#
# Convention : Reuss Voigt Hill
#
# Bulk Modulus (GPa) = 34.73768 63.79538 49.26653
# Shear Modulus (GPa) = 22.17411 30.16055 26.16733
#
# Velocity S-wave (km/s) = 3.40321 3.96904 3.69696
# Velocity P-wave (km/s) = 5.79538 7.37059 6.62993
#
# Compressibility (1/GPa) = 0.02878718
#
# Stress axis : x y z
#
# Youngs Moduli (GPa) = 66.17076 21.73372 116.87625
#
# Poissons Ratio (x) = 0.21572 0.32403
# Poissons Ratio (y) = 0.65678 0.90559
# Poissons Ratio (z) = 0.18346 0.16840
#
# Static dielectric constant tensor:
#      x y z
#    x 3.716370 0.000000 -0.062340 
#    y 0.000000 3.158160 0.000000 
#    z -0.062340 0.000000 3.806140 
# 
# 
# High freq. dielectric constant tensor:
#      x y z
#    x 1.758060 0.000000 -0.004160 
#    y 0.000000 1.705780 0.000000 
#    z -0.004160 0.000000 1.766300 
# 
# From -- ./inp_files/238244.got.cif
#   From: 2010.06.25/outbox.cif.g09.slc.cpg/sg12_120_cif.got.tgz:238244.got - 2010.06.28 00:19:55.
