data_PCOD8090078
_publ_section_title
;
Structure prediction by ZEFSAII (Michael W. Deem and Ramdas Pophale) SiO2 
 PCOD8090078
Probable space group: C 2/M
;
_chemical_formula_sum "Si O2"
_cell_formula_units_Z 56
_cell_length_a 29.935781
_cell_length_b 9.409642
_cell_length_c 11.683288
_cell_angle_alpha 90.000000
_cell_angle_beta 115.757683
_cell_angle_gamma 90.000000
_cell_volume 2964.012257
_symmetry_space_group_name_H-M "C 2/M"
_symmetry_group_IT_number 12
_symmetry_cell_setting 'monoclinic'
loop_
_space_group_symop_operation_xyz
x,y,z
-x,y,-z
-x,-y,-z
x,-y,z
1/2+x,1/2+y,z
1/2-x,1/2+y,-z
1/2-x,1/2-y,-z
1/2+x,1/2-y,z
loop_
_atom_site_type_symbol
_atom_site_label
_atom_site_fract_x
_atom_site_fract_y
_atom_site_fract_z
Si Si1 0.575612 0.835827 0.795862
Si Si2 0.941753 0.834572 0.442251
Si Si3 0.490564 0.165707 0.864984
Si Si4 0.316410 0.161299 0.018575
Si Si5 0.098410 0.664254 0.389781
Si Si6 0.261751 0.834536 0.186003
Si Si7 0.710956 0.834957 0.530872
O O1 0.583877 0.742706 0.692605
O O2 0.529606 0.771882 0.816606
O O3 0.566942 0.000000 0.749840
O O4 0.624678 0.821067 0.927916
O O5 0.920806 0.766762 0.533584
O O6 0.000000 0.807831 0.500000
O O7 0.927978 0.000000 0.424809
O O8 0.434383 0.193879 0.760394
O O9 0.502642 0.000000 0.887963
O O10 0.500000 0.236837 0.000000
O O11 0.290476 0.255932 0.892779
O O12 0.299940 0.000000 0.977913
O O13 0.300017 0.208107 0.128333
O O14 0.092567 0.500000 0.422991
O O15 0.155512 0.698622 0.424520
O O16 0.285316 0.786687 0.332630
O O17 0.250051 0.000000 0.173493
O O18 0.750000 0.750000 0.500000
O O19 0.723585 0.000000 0.531303
#
# Coordination Sequence:
#
# PCOD8090078 Si02
#       7
#     8   8   8   8   8   8   8
#     4  10  19  33  55  81 108 142 183 225 270 324
#     4  11  22  34  53  83 117 146 179 224 273 330
#     4   9  18  32  52  79 107 137 178 225 269 317
#     4   9  18  32  54  81 105 134 177 226 273 323
#     4  10  20  37  60  82 108 145 186 229 276 325
#     4   9  18  34  51  73 108 141 175 221 276 330
#     4  10  22  38  57  81 109 146 190 233 275 325
#
# _framework density 18.893308999999999
#
# number of rings (size 3 to 8) (size 9 to 14) (size 15 to 20)
#    0.000    2.286    1.429    1.286    0.000    5.714 
#    0.000    5.714    0.000    1.714    0.000    0.000 
#    0.000    0.000    0.000    0.000    0.000    0.000 
#
# Total GULP energy -347222.706357 kJ/mol
# GULP energy per Si atom -12400.810941 kJ/mol
# Density = 1.885031 g / cm^3
# Si number density = 18.893309 Si / 1000 Ang^3
#
#
#
# Elastic Constant Matrix: (Units=GPa)
#
#
# Indices 1 2 3 4 5 6 
#
# 1 103.2140 41.2711 53.6020 0.0000 13.5001 0.0000
# 2 41.2711 59.1519 41.3529 0.0000 3.2813 0.0000
# 3 53.6020 41.3529 127.5493 0.0000 9.6449 0.0000
# 4 0.0000 0.0000 0.0000 23.6922 0.0000 2.4117
# 5 13.5001 3.2813 9.6449 0.0000 30.2930 0.0000
# 6 0.0000 0.0000 0.0000 2.4117 0.0000 27.1203
#
#
#
# Elastic Compliance Matrix: (Units=1/GPa)
#
#
# Indices 1 2 3 4 5 6 
#
# 1 0.015328 -0.007989 -0.003484 0.000000 -0.004856 0.000000
# 2 -0.007989 0.026025 -0.005263 0.000000 0.002417 0.000000
# 3 -0.003484 -0.005263 0.011118 0.000000 -0.001417 0.000000
# 4 0.000000 0.000000 0.000000 0.042593 0.000000 -0.003788
# 5 -0.004856 0.002417 -0.001417 0.000000 0.035364 0.000000
# 6 0.000000 0.000000 0.000000 -0.003788 0.000000 0.037210
#
#
# Mechanical properties :
#
#
# Convention : Reuss Voigt Hill
#
# Bulk Modulus (GPa) = 52.63699 62.48523 57.56111
# Shear Modulus (GPa) = 24.10298 26.46704 25.28501
#
# Velocity S-wave (km/s) = 3.57563 3.74688 3.66225
# Velocity P-wave (km/s) = 6.70577 7.20162 6.95811
#
# Compressibility (1/GPa) = 0.01899805
#
# Stress axis : x y z
#
# Youngs Moduli (GPa) = 65.24123 38.42440 89.94693
#
# Poissons Ratio (x) = 0.30699 0.31337
# Poissons Ratio (y) = 0.52124 0.47338
# Poissons Ratio (z) = 0.22730 0.20222
#
# Static dielectric constant tensor:
#      x y z
#    x 3.486980 0.000000 0.126780 
#    y 0.000000 3.277860 0.000000 
#    z 0.126780 0.000000 3.618510 
# 
# 
# High freq. dielectric constant tensor:
#      x y z
#    x 1.730470 0.000000 0.011850 
#    y 0.000000 1.709650 0.000000 
#    z 0.011850 0.000000 1.738330 
# 
# From -- ./inp_files/186853.got.cif
#   From: 2010.06.25/outbox.cif.g09.slc.cpg/sg12_94_cif.got.tgz:186853.got - 2010.06.28 00:19:55.
