data_PCOD8090822
_publ_section_title
;
Structure prediction by ZEFSAII (Michael W. Deem and Ramdas Pophale) SiO2 
 PCOD8090822
Probable space group: C 2/M
;
_chemical_formula_sum "Si O2"
_cell_formula_units_Z 56
_cell_length_a 23.869072
_cell_length_b 8.606366
_cell_length_c 19.076067
_cell_angle_alpha 90.000000
_cell_angle_beta 129.643667
_cell_angle_gamma 90.000000
_cell_volume 3017.520719
_symmetry_space_group_name_H-M "C 2/M"
_symmetry_group_IT_number 12
_symmetry_cell_setting 'monoclinic'
loop_
_space_group_symop_operation_xyz
x,y,z
-x,y,-z
-x,-y,-z
x,-y,z
1/2+x,1/2+y,z
1/2-x,1/2+y,-z
1/2-x,1/2-y,-z
1/2+x,1/2-y,z
loop_
_atom_site_type_symbol
_atom_site_label
_atom_site_fract_x
_atom_site_fract_y
_atom_site_fract_z
Si Si1 0.586171 0.316626 0.343729
Si Si2 0.380868 0.328805 0.376515
Si Si3 0.279792 0.170047 0.811678
Si Si4 0.826748 0.314984 0.705238
Si Si5 0.721215 0.314061 0.904749
Si Si6 0.568605 0.315464 0.727645
Si Si7 0.176898 0.680487 0.539347
O O1 0.593065 0.500000 0.360811
O O2 0.606738 0.269545 0.280800
O O3 0.504402 0.256371 0.292909
O O4 0.641717 0.227533 0.438061
O O5 0.408568 0.500000 0.422648
O O6 0.301526 0.346666 0.281067
O O7 0.431130 0.259022 0.353874
O O8 0.380238 0.217424 0.443627
O O9 0.325832 0.251302 0.785496
O O10 0.273903 0.251944 0.883586
O O11 0.314045 0.000000 0.850372
O O12 0.837085 0.500000 0.712880
O O13 0.750833 0.276695 0.606756
O O14 0.723350 0.500000 0.905959
O O15 0.638809 0.252740 0.826491
O O16 0.750000 0.250000 0.000000
O O17 0.572255 0.500000 0.729405
O O18 0.196355 0.500000 0.554668
#
# Coordination Sequence:
#
# PCOD8090822 Si02
#       7
#     8   8   8   8   8   8   8
#     4  11  21  33  48  68  94 130 168 204 239 280
#     4   8  14  30  51  68  88 124 166 201 233 279
#     4   7  13  27  49  70  92 120 153 189 231 277
#     4  10  19  34  52  69  91 127 169 207 238 276
#     4   9  16  31  54  80 100 119 148 188 235 288
#     4   8  17  33  52  70  96 131 163 190 235 296
#     4  11  21  32  46  69  97 127 163 208 248 281
#
# _framework density 18.558282999999999
#
# number of rings (size 3 to 8) (size 9 to 14) (size 15 to 20)
#    0.000    2.857    0.000    5.143    0.000    0.571 
#    0.000   12.857    0.000    0.857    0.000    6.000 
#    0.000    0.000    0.000    0.000    0.000    0.000 
#
# Total GULP energy -346882.797348 kJ/mol
# GULP energy per Si atom -12388.671334 kJ/mol
# Density = 1.851604 g / cm^3
# Si number density = 18.558283 Si / 1000 Ang^3
#
#
#
# Elastic Constant Matrix: (Units=GPa)
#
#
# Indices 1 2 3 4 5 6 
#
# 1 148.6989 14.9816 40.6188 0.0000 -31.6547 0.0000
# 2 14.9816 39.8664 9.1491 0.0000 -5.1508 0.0000
# 3 40.6188 9.1491 55.2708 0.0000 -27.3204 0.0000
# 4 0.0000 0.0000 0.0000 21.6505 0.0000 -6.8865
# 5 -31.6547 -5.1508 -27.3204 0.0000 29.2101 0.0000
# 6 0.0000 0.0000 0.0000 -6.8865 0.0000 23.5707
#
#
#
# Elastic Compliance Matrix: (Units=1/GPa)
#
#
# Indices 1 2 3 4 5 6 
#
# 1 0.009197 -0.001870 -0.003135 0.000000 0.006704 0.000000
# 2 -0.001870 0.026472 -0.003165 0.000000 -0.000320 0.000000
# 3 -0.003135 -0.003165 0.035273 0.000000 0.029035 0.000000
# 4 0.000000 0.000000 0.000000 0.050920 0.000000 0.014877
# 5 0.006704 -0.000320 0.029035 0.000000 0.068601 0.000000
# 6 0.000000 0.000000 0.000000 0.014877 0.000000 0.046772
#
#
# Mechanical properties :
#
#
# Convention : Reuss Voigt Hill
#
# Bulk Modulus (GPa) = 18.31510 41.48167 29.89839
# Shear Modulus (GPa) = 18.39743 26.82539 22.61141
#
# Velocity S-wave (km/s) = 3.15196 3.80605 3.49435
# Velocity P-wave (km/s) = 4.81008 6.45874 5.69439
#
# Compressibility (1/GPa) = 0.05459975
#
# Stress axis : x y z
#
# Youngs Moduli (GPa) = 108.72941 37.77602 28.35032
#
# Poissons Ratio (x) = 0.07066 0.08889
# Poissons Ratio (y) = 0.20337 0.08974
# Poissons Ratio (z) = 0.34091 0.11957
#
# Static dielectric constant tensor:
#      x y z
#    x 4.008330 0.000000 -0.456500 
#    y 0.000000 3.099200 0.000000 
#    z -0.456500 0.000000 3.330290 
# 
# 
# High freq. dielectric constant tensor:
#      x y z
#    x 1.728490 0.000000 -0.033160 
#    y 0.000000 1.687700 0.000000 
#    z -0.033160 0.000000 1.686570 
# 
# From -- ./inp_files/287316.got.cif
#   From: 2010.06.25/outbox.cif.g09.slc.cpg/sg12_144_cif.got.tgz:287316.got - 2010.06.28 00:19:55.
