data_PCOD8090659
_publ_section_title
;
Structure prediction by ZEFSAII (Michael W. Deem and Ramdas Pophale) SiO2 
 PCOD8090659
Probable space group: C 2/M
;
_chemical_formula_sum "Si O2"
_cell_formula_units_Z 56
_cell_length_a 15.203037
_cell_length_b 8.955667
_cell_length_c 22.315509
_cell_angle_alpha 90.000000
_cell_angle_beta 108.316084
_cell_angle_gamma 90.000000
_cell_volume 2884.400949
_symmetry_space_group_name_H-M "C 2/M"
_symmetry_group_IT_number 12
_symmetry_cell_setting 'monoclinic'
loop_
_space_group_symop_operation_xyz
x,y,z
-x,y,-z
-x,-y,-z
x,-y,z
1/2+x,1/2+y,z
1/2-x,1/2+y,-z
1/2-x,1/2-y,-z
1/2+x,1/2-y,z
loop_
_atom_site_type_symbol
_atom_site_label
_atom_site_fract_x
_atom_site_fract_y
_atom_site_fract_z
Si Si1 0.401788 0.324888 0.501617
Si Si2 0.409910 0.672039 0.640224
Si Si3 0.126238 0.823068 0.079017
Si Si4 0.311296 0.677720 0.153353
Si Si5 0.577973 0.323499 0.937513
Si Si6 0.094084 0.676606 0.713220
Si Si7 0.293902 0.171896 0.378321
O O1 0.500000 0.261508 0.500000
O O2 0.395881 0.500000 0.490831
O O3 0.389351 0.279177 0.567785
O O4 0.320395 0.254554 0.445005
O O5 0.443702 0.500000 0.650098
O O6 0.486926 0.778087 0.685363
O O7 0.315453 0.694974 0.657477
O O8 0.206772 0.737200 0.130954
O O9 0.029559 0.774399 0.089344
O O10 0.142433 0.000000 0.087468
O O11 0.124283 0.768358 0.009399
O O12 0.311435 0.500000 0.155069
O O13 0.364992 0.741156 0.106325
O O14 0.362975 0.739466 0.221757
O O15 0.581021 0.500000 0.938195
O O16 0.103489 0.500000 0.724051
O O17 0.148712 0.733427 0.666003
O O18 0.317464 0.000000 0.393727
#
# Coordination Sequence:
#
# PCOD8090659 Si02
#       7
#     8   8   8   8   8   8   8
#     4  10  19  33  58  87 113 138 170 220 279 328
#     4  10  21  39  59  81 109 142 178 222 276 327
#     4   9  17  35  60  84 110 142 180 221 263 320
#     4  11  22  36  55  81 112 146 181 222 273 321
#     4   8  17  34  58  84 111 144 179 216 268 325
#     4  11  24  40  55  77 107 146 190 228 264 314
#     4  10  22  38  58  81 108 143 183 223 268 324
#
# _framework density 19.414777999999998
#
# number of rings (size 3 to 8) (size 9 to 14) (size 15 to 20)
#    0.000    2.143    1.429    2.571    0.000    3.143 
#    0.000    9.286    0.000    0.000    0.000    0.000 
#    0.000    0.000    0.000    0.000    0.000    0.000 
#
# Total GULP energy -347248.237425 kJ/mol
# GULP energy per Si atom -12401.722765 kJ/mol
# Density = 1.937059 g / cm^3
# Si number density = 19.414778 Si / 1000 Ang^3
#
#
#
# Elastic Constant Matrix: (Units=GPa)
#
#
# Indices 1 2 3 4 5 6 
#
# 1 86.1657 23.7932 36.9891 0.0000 19.9849 0.0000
# 2 23.7932 50.2344 34.5156 0.0000 8.5919 0.0000
# 3 36.9891 34.5156 98.0276 0.0000 14.3808 0.0000
# 4 0.0000 0.0000 0.0000 32.3500 0.0000 6.0462
# 5 19.9849 8.5919 14.3808 0.0000 20.9016 0.0000
# 6 0.0000 0.0000 0.0000 6.0462 0.0000 28.7587
#
#
#
# Elastic Compliance Matrix: (Units=1/GPa)
#
#
# Indices 1 2 3 4 5 6 
#
# 1 0.016891 -0.003627 -0.003277 0.000000 -0.012405 0.000000
# 2 -0.003627 0.027503 -0.007970 0.000000 -0.002354 0.000000
# 3 -0.003277 -0.007970 0.014797 0.000000 -0.003772 0.000000
# 4 0.000000 0.000000 0.000000 0.032176 0.000000 -0.006765
# 5 -0.012405 -0.002354 -0.003772 0.000000 0.063266 0.000000
# 6 0.000000 0.000000 0.000000 -0.006765 0.000000 0.036194
#
#
# Mechanical properties :
#
#
# Convention : Reuss Voigt Hill
#
# Bulk Modulus (GPa) = 33.96309 47.22485 40.59397
# Shear Modulus (GPa) = 21.70230 25.67737 23.68983
#
# Velocity S-wave (km/s) = 3.34701 3.64066 3.49692
# Velocity P-wave (km/s) = 5.69808 6.48456 6.10400
#
# Compressibility (1/GPa) = 0.02944373
#
# Stress axis : x y z
#
# Youngs Moduli (GPa) = 59.20392 36.35915 67.58084
#
# Poissons Ratio (x) = 0.13189 0.22143
# Poissons Ratio (y) = 0.21475 0.53862
# Poissons Ratio (z) = 0.19398 0.28978
#
# Static dielectric constant tensor:
#      x y z
#    x 3.835210 0.000000 -0.124010 
#    y 0.000000 3.280830 0.000000 
#    z -0.124010 0.000000 3.522090 
# 
# 
# High freq. dielectric constant tensor:
#      x y z
#    x 1.768840 0.000000 0.003760 
#    y 0.000000 1.735400 0.000000 
#    z 0.003760 0.000000 1.753140 
# 
# From -- ./inp_files/339069.got.cif
#   From: 2010.06.25/outbox.cif.g09.slc.cpg/sg12_170_cif.got.tgz:339069.got - 2010.06.28 00:19:55.
