data_PCOD8090889
_publ_section_title
;
Structure prediction by ZEFSAII (Michael W. Deem and Ramdas Pophale) SiO2 
 PCOD8090889
Probable space group: C 2/M
;
_chemical_formula_sum "Si O2"
_cell_formula_units_Z 48
_cell_length_a 19.426651
_cell_length_b 8.651540
_cell_length_c 16.643963
_cell_angle_alpha 90.000000
_cell_angle_beta 111.140344
_cell_angle_gamma 90.000000
_cell_volume 2609.095594
_symmetry_space_group_name_H-M "C 2/M"
_symmetry_group_IT_number 12
_symmetry_cell_setting 'monoclinic'
loop_
_space_group_symop_operation_xyz
x,y,z
-x,y,-z
-x,-y,-z
x,-y,z
1/2+x,1/2+y,z
1/2-x,1/2+y,-z
1/2-x,1/2-y,-z
1/2+x,1/2-y,z
loop_
_atom_site_type_symbol
_atom_site_label
_atom_site_fract_x
_atom_site_fract_y
_atom_site_fract_z
Si Si1 0.169015 0.316562 0.977482
Si Si2 0.919337 0.316091 0.214308
Si Si3 0.414965 0.182696 0.733677
Si Si4 0.223569 0.183758 0.405362
Si Si5 0.299746 0.822148 0.280977
Si Si6 0.852979 0.178789 0.864975
O O1 0.174173 0.500000 0.983152
O O2 0.130993 0.253398 0.042232
O O3 0.250000 0.250000 0.000000
O O4 0.117015 0.257014 0.883551
O O5 0.914212 0.500000 0.213258
O O6 0.872741 0.247728 0.270852
O O7 0.003414 0.260425 0.256783
O O8 0.359497 0.263210 0.648110
O O9 0.401271 0.232755 0.819305
O O10 0.406329 0.000000 0.722704
O O11 0.250000 0.250000 0.500000
O O12 0.277433 0.251568 0.357758
O O13 0.224971 0.000000 0.407601
O O14 0.233470 0.801196 0.190087
O O15 0.315371 0.000000 0.304554
O O16 0.876070 0.000000 0.874332
#
# Coordination Sequence:
#
# PCOD8090889 Si02
#       6
#     8   8   8   8   8   8
#     4  11  20  32  52  78 107 142 188 231 269 313
#     4   9  18  33  53  77 107 142 179 222 269 321
#     4  10  20  35  56  80 107 138 177 222 271 322
#     4  10  20  36  60  83 107 136 173 218 266 326
#     4   8  15  31  54  76  99 136 179 215 257 312
#     4  10  19  34  53  74 107 146 185 225 264 314
#
# _framework density 18.397179999999999
#
# number of rings (size 3 to 8) (size 9 to 14) (size 15 to 20)
#    0.000    2.333    1.667    3.000    0.000    0.667 
#    0.000    7.500    0.000    5.000    0.000    0.000 
#    0.000    0.000    0.000    0.000    0.000    0.000 
#
# Total GULP energy -297526.268844 kJ/mol
# GULP energy per Si atom -12396.927869 kJ/mol
# Density = 1.835531 g / cm^3
# Si number density = 18.397180 Si / 1000 Ang^3
#
#
#
# Elastic Constant Matrix: (Units=GPa)
#
#
# Indices 1 2 3 4 5 6 
#
# 1 149.1487 31.4880 76.9170 0.0000 -1.7040 0.0000
# 2 31.4880 57.5129 33.0151 0.0000 0.1274 0.0000
# 3 76.9170 33.0151 151.9914 0.0000 -6.0356 0.0000
# 4 0.0000 0.0000 0.0000 28.8080 0.0000 -0.9697
# 5 -1.7040 0.1274 -6.0356 0.0000 20.2502 0.0000
# 6 0.0000 0.0000 0.0000 -0.9697 0.0000 23.8307
#
#
#
# Elastic Compliance Matrix: (Units=1/GPa)
#
#
# Indices 1 2 3 4 5 6 
#
# 1 0.009448 -0.002761 -0.004199 0.000000 -0.000439 0.000000
# 2 -0.002761 0.020712 -0.003153 0.000000 -0.001303 0.000000
# 3 -0.004199 -0.003153 0.009488 0.000000 0.002494 0.000000
# 4 0.000000 0.000000 0.000000 0.034760 0.000000 0.001414
# 5 -0.000439 -0.001303 0.002494 0.000000 0.050097 0.000000
# 6 0.000000 0.000000 0.000000 0.001414 0.000000 0.042020
#
#
# Mechanical properties :
#
#
# Convention : Reuss Voigt Hill
#
# Bulk Modulus (GPa) = 51.48988 71.27703 61.38345
# Shear Modulus (GPa) = 25.87627 29.05997 27.46812
#
# Velocity S-wave (km/s) = 3.75445 3.97872 3.86821
# Velocity P-wave (km/s) = 6.84421 7.74173 7.30677
#
# Compressibility (1/GPa) = 0.01942129
#
# Stress axis : x y z
#
# Youngs Moduli (GPa) = 105.84129 48.28040 105.39349
#
# Poissons Ratio (x) = 0.13332 0.44254
# Poissons Ratio (y) = 0.29227 0.33234
# Poissons Ratio (z) = 0.44442 0.15224
#
# Static dielectric constant tensor:
#      x y z
#    x 2.296480 0.000000 1.390060 
#    y 0.000000 3.209190 0.000000 
#    z 1.390060 0.000000 1.495980 
# 
# 
# High freq. dielectric constant tensor:
#      x y z
#    x 1.715800 0.000000 -0.014070 
#    y 0.000000 1.695400 0.000000 
#    z -0.014070 0.000000 1.706530 
# 
# From -- ./inp_files/230346.got.cif
#   From: 2010.06.25/outbox.cif.g09.slc.cpg/sg12_116_cif.got.tgz:230346.got - 2010.06.28 00:19:55.
