data_PCOD8090711
_publ_section_title
;
Structure prediction by ZEFSAII (Michael W. Deem and Ramdas Pophale) SiO2 
 PCOD8090711
Probable space group: C 2/M
;
_chemical_formula_sum "Si O2"
_cell_formula_units_Z 40
_cell_length_a 26.280729
_cell_length_b 13.801137
_cell_length_c 7.781264
_cell_angle_alpha 90.000000
_cell_angle_beta 40.169958
_cell_angle_gamma 90.000000
_cell_volume 1820.541553
_symmetry_space_group_name_H-M "C 2/M"
_symmetry_group_IT_number 12
_symmetry_cell_setting 'monoclinic'
loop_
_space_group_symop_operation_xyz
x,y,z
-x,y,-z
-x,-y,-z
x,-y,z
1/2+x,1/2+y,z
1/2-x,1/2+y,-z
1/2-x,1/2-y,-z
1/2+x,1/2-y,z
loop_
_atom_site_type_symbol
_atom_site_label
_atom_site_fract_x
_atom_site_fract_y
_atom_site_fract_z
Si Si1 0.336823 0.393152 0.110100
Si Si2 0.990941 0.109250 0.321086
Si Si3 0.310841 0.199544 0.015507
Si Si4 0.360836 0.753486 0.540017
Si Si5 0.671120 0.110201 0.683135
O O1 0.331436 0.500000 0.038244
O O2 0.328043 0.315156 0.982221
O O3 0.266126 0.377674 0.428024
O O4 0.421045 0.381484 0.988831
O O5 0.936986 0.186190 0.362773
O O6 0.000000 0.132617 0.500000
O O7 0.958254 0.000000 0.378697
O O8 0.216580 0.184767 0.266861
O O9 0.352949 0.141809 0.061826
O O10 0.349305 0.172035 0.732506
O O11 0.371448 0.819951 0.343734
O O12 0.643991 0.000000 0.720846
#
# Coordination Sequence:
#
# PCOD8090711 Si02
#       5
#     8   8   8   8   8
#     4   9  17  33  58  86 118 150 180 230 295 351
#     4  10  19  33  58  92 124 151 182 231 299 364
#     4  10  20  36  58  85 117 155 194 237 286 339
#     4  10  20  35  60  87 114 155 196 232 288 350
#     4  10  22  40  59  83 118 154 199 249 281 328
#
# _framework density 21.971484
#
# number of rings (size 3 to 8) (size 9 to 14) (size 15 to 20)
#    0.000    2.200    2.000    2.400    0.000    1.600 
#    0.000    7.000    0.000   13.800    0.000    0.000 
#    0.000    0.000    0.000    0.000    0.000    0.000 
#
# Total GULP energy -247854.568542 kJ/mol
# GULP energy per Si atom -12392.728427 kJ/mol
# Density = 2.192148 g / cm^3
# Si number density = 21.971484 Si / 1000 Ang^3
#
#
#
# Elastic Constant Matrix: (Units=GPa)
#
#
# Indices 1 2 3 4 5 6 
#
# 1 130.0873 68.3742 41.3863 0.0000 6.8355 0.0000
# 2 68.3742 107.6235 29.8284 0.0000 -13.4916 0.0000
# 3 41.3863 29.8284 32.3986 0.0000 -4.9514 0.0000
# 4 0.0000 0.0000 0.0000 20.7396 0.0000 -10.7107
# 5 6.8355 -13.4916 -4.9514 0.0000 43.0444 0.0000
# 6 0.0000 0.0000 0.0000 -10.7107 0.0000 28.5611
#
#
#
# Elastic Compliance Matrix: (Units=1/GPa)
#
#
# Indices 1 2 3 4 5 6 
#
# 1 0.016901 -0.007136 -0.016053 0.000000 -0.006767 0.000000
# 2 -0.007136 0.015789 -0.004571 0.000000 0.005556 0.000000
# 3 -0.016053 -0.004571 0.056749 0.000000 0.007644 0.000000
# 4 0.000000 0.000000 0.000000 0.059798 0.000000 0.022425
# 5 -0.006767 0.005556 0.007644 0.000000 0.026927 0.000000
# 6 0.000000 0.000000 0.000000 0.022425 0.000000 0.043422
#
#
# Mechanical properties :
#
#
# Convention : Reuss Voigt Hill
#
# Bulk Modulus (GPa) = 29.48365 61.03193 45.25779
# Shear Modulus (GPa) = 17.45727 27.17039 22.31383
#
# Velocity S-wave (km/s) = 2.82182 3.52038 3.19028
# Velocity P-wave (km/s) = 4.90562 6.66049 5.84924
#
# Compressibility (1/GPa) = 0.03391710
#
# Stress axis : x y z
#
# Youngs Moduli (GPa) = 59.16859 63.33571 17.62143
#
# Poissons Ratio (x) = 0.45199 0.28288
# Poissons Ratio (y) = 0.42225 0.08055
# Poissons Ratio (z) = 0.94985 0.28952
#
# Static dielectric constant tensor:
#      x y z
#    x 3.843310 0.000000 -0.031050 
#    y 0.000000 3.826690 0.000000 
#    z -0.031050 0.000000 3.940400 
# 
# 
# High freq. dielectric constant tensor:
#      x y z
#    x 1.854270 0.000000 0.006960 
#    y 0.000000 1.844490 0.000000 
#    z 0.006960 0.000000 1.848470 
# 
# From -- ./inp_files/103867.got.cif
#   From: 2010.06.25/outbox.cif.g09.slc.cpg/sg12_52_cif.got.tgz:103867.got - 2010.06.28 00:19:55.
