data_PCOD8090751
_publ_section_title
;
Structure prediction by ZEFSAII (Michael W. Deem and Ramdas Pophale) SiO2 
 PCOD8090751
Probable space group: C 2/M
;
_chemical_formula_sum "Si O2"
_cell_formula_units_Z 56
_cell_length_a 21.422502
_cell_length_b 19.304060
_cell_length_c 8.702709
_cell_angle_alpha 90.000000
_cell_angle_beta 129.100233
_cell_angle_gamma 90.000000
_cell_volume 2792.926907
_symmetry_space_group_name_H-M "C 2/M"
_symmetry_group_IT_number 12
_symmetry_cell_setting 'monoclinic'
loop_
_space_group_symop_operation_xyz
x,y,z
-x,y,-z
-x,-y,-z
x,-y,z
1/2+x,1/2+y,z
1/2-x,1/2+y,-z
1/2-x,1/2-y,-z
1/2+x,1/2-y,z
loop_
_atom_site_type_symbol
_atom_site_label
_atom_site_fract_x
_atom_site_fract_y
_atom_site_fract_z
Si Si1 0.071116 0.923367 0.228391
Si Si2 0.151348 0.316124 0.255604
Si Si3 0.430659 0.827619 0.188922
Si Si4 0.046547 0.200131 0.422608
Si Si5 0.043564 0.575893 0.230272
Si Si6 0.199360 0.171380 0.333954
Si Si7 0.692735 0.221646 0.775147
O O1 0.049475 0.867270 0.322088
O O2 0.150530 0.900003 0.255752
O O3 0.087285 0.000000 0.324831
O O4 0.000000 0.928971 0.000000
O O5 0.110995 0.365110 0.320554
O O6 0.134098 0.234133 0.256175
O O7 0.246203 0.327227 0.427782
O O8 0.129041 0.332733 0.047864
O O9 0.491968 0.762716 0.267516
O O10 0.482545 0.898416 0.268090
O O11 0.376029 0.827779 0.256218
O O12 0.139309 0.220706 0.604762
O O13 0.000000 0.174202 0.500000
O O14 0.078259 0.500000 0.328205
O O15 0.000000 0.571702 0.000000
O O16 0.251235 0.180665 0.258245
O O17 0.750000 0.250000 0.000000
#
# Coordination Sequence:
#
# PCOD8090751 Si02
#       7
#     8   8   8   8   8   8   8
#     4  11  25  42  61  86 119 163 209 249 299 361
#     4  10  19  33  60  88 114 149 193 247 301 353
#     4  10  19  36  59  88 119 151 193 244 298 357
#     4  10  22  39  65  92 119 154 198 250 307 358
#     4   9  18  32  53  83 116 149 186 227 282 355
#     4  11  21  36  58  86 119 152 195 251 301 349
#     4  11  22  36  58  91 121 150 193 253 300 352
#
# _framework density 20.050649
#
# number of rings (size 3 to 8) (size 9 to 14) (size 15 to 20)
#    0.000    1.714    1.429    4.286    2.000    2.000 
#    0.000    0.714    0.000    8.143    0.000    0.000 
#    0.000    0.000    0.000    0.000    0.000    0.000 
#
# Total GULP energy -346882.241339 kJ/mol
# GULP energy per Si atom -12388.651476 kJ/mol
# Density = 2.000501 g / cm^3
# Si number density = 20.050649 Si / 1000 Ang^3
#
#
#
# Elastic Constant Matrix: (Units=GPa)
#
#
# Indices 1 2 3 4 5 6 
#
# 1 127.1850 78.2979 26.1826 0.0000 -0.7997 0.0000
# 2 78.2979 140.5553 22.6369 0.0000 -2.4339 0.0000
# 3 26.1826 22.6369 77.2656 0.0000 -0.6124 0.0000
# 4 0.0000 0.0000 0.0000 3.1701 0.0000 -39.6131
# 5 -0.7997 -2.4339 -0.6124 0.0000 23.4930 0.0000
# 6 0.0000 0.0000 0.0000 -39.6131 0.0000 -73.7230
#
#
#
# Elastic Compliance Matrix: (Units=1/GPa)
#
#
# Indices 1 2 3 4 5 6 
#
# 1 0.012338 -0.006512 -0.002276 0.000000 -0.000314 0.000000
# 2 -0.006512 0.010916 -0.000984 0.000000 0.000884 0.000000
# 3 -0.002276 -0.000984 0.014003 0.000000 0.000186 0.000000
# 4 0.000000 0.000000 0.000000 0.040891 0.000000 -0.021972
# 5 -0.000314 0.000884 0.000186 0.000000 0.042652 0.000000
# 6 0.000000 0.000000 0.000000 -0.021972 0.000000 -0.001758
#
#
# Mechanical properties :
#
#
# Convention : Reuss Voigt Hill
#
# Bulk Modulus (GPa) = 56.45425 66.58229 61.51827
# Shear Modulus (GPa) = 34.60440 5.11391 19.85916
#
# Velocity S-wave (km/s) = 4.15884 1.59876 3.15056
# Velocity P-wave (km/s) = 7.16088 6.05699 6.63195
#
# Compressibility (1/GPa) = 0.01771346
#
# Stress axis : x y z
#
# Youngs Moduli (GPa) = 81.05088 91.60837 71.41135
#
# Poissons Ratio (x) = 0.59655 0.16250
# Poissons Ratio (y) = 0.52780 0.07030
# Poissons Ratio (z) = 0.18444 0.09018
#
# Static dielectric constant tensor:
#      x y z
#    x 3.812990 0.000000 0.130090 
#    y 0.000000 3.876130 0.000000 
#    z 0.130090 0.000000 3.951320 
# 
# 
# High freq. dielectric constant tensor:
#      x y z
#    x 1.792350 0.000000 0.005610 
#    y 0.000000 1.755220 0.000000 
#    z 0.005610 0.000000 1.788850 
# 
# From -- ./inp_files/89681.got.cif
#   From: 2010.06.25/outbox.cif.g09.slc.cpg/sg12_45_cif.got.tgz:89681.got - 2010.06.28 00:19:55.
