data_PCOD8090231
_publ_section_title
;
Structure prediction by ZEFSAII (Michael W. Deem and Ramdas Pophale) SiO2 
 PCOD8090231
Probable space group: C 2/M
;
_chemical_formula_sum "Si O2"
_cell_formula_units_Z 56
_cell_length_a 24.801055
_cell_length_b 13.004856
_cell_length_c 8.789177
_cell_angle_alpha 90.000000
_cell_angle_beta 63.204185
_cell_angle_gamma 90.000000
_cell_volume 2530.404309
_symmetry_space_group_name_H-M "C 2/M"
_symmetry_group_IT_number 12
_symmetry_cell_setting 'monoclinic'
loop_
_space_group_symop_operation_xyz
x,y,z
-x,y,-z
-x,-y,-z
x,-y,z
1/2+x,1/2+y,z
1/2-x,1/2+y,-z
1/2-x,1/2-y,-z
1/2+x,1/2-y,z
loop_
_atom_site_type_symbol
_atom_site_label
_atom_site_fract_x
_atom_site_fract_y
_atom_site_fract_z
Si Si1 0.108907 0.232739 0.028802
Si Si2 0.728476 0.322262 0.750101
Si Si3 0.063084 0.687010 0.510663
Si Si4 0.164798 0.612147 0.185187
Si Si5 0.773631 0.388163 0.378030
Si Si6 0.933048 0.112196 0.638016
Si Si7 0.914725 0.617977 0.194517
O O1 0.151719 0.306537 0.072346
O O2 0.067806 0.160740 0.189216
O O3 0.157220 0.162833 0.876768
O O4 0.068846 0.305551 0.967498
O O5 0.769172 0.368235 0.830876
O O6 0.738700 0.382608 0.581228
O O7 0.747378 0.201817 0.708109
O O8 0.112794 0.609626 0.380837
O O9 0.092389 0.801979 0.447593
O O10 0.049849 0.660151 0.702456
O O11 0.000000 0.678716 0.500000
O O12 0.165467 0.500000 0.107310
O O13 0.760473 0.500000 0.320880
O O14 0.844385 0.374240 0.322244
O O15 0.000000 0.090248 0.500000
O O16 0.899246 0.000000 0.676599
O O17 0.934425 0.500000 0.132537
#
# Coordination Sequence:
#
# PCOD8090231 Si02
#       7
#     8   8   8   8   8   8   8
#     4  10  22  37  59  89 122 153 202 253 298 362
#     4  10  19  33  55  84 123 158 195 243 291 356
#     4  10  21  38  63  89 117 158 208 252 293 358
#     4  11  21  36  57  83 121 165 200 241 303 357
#     4   9  18  33  55  84 122 165 198 236 294 359
#     4   9  20  42  65  82 110 153 199 253 309 355
#     4  10  19  36  61  90 127 164 197 243 304 360
#
# _framework density 22.130851
#
# number of rings (size 3 to 8) (size 9 to 14) (size 15 to 20)
#    0.000    2.143    1.429    1.714    0.000    2.857 
#    0.000   10.000    0.000   14.143    0.000    0.000 
#    0.000    0.000    0.000    0.000    0.000    0.000 
#
# Total GULP energy -346984.568271 kJ/mol
# GULP energy per Si atom -12392.306010 kJ/mol
# Density = 2.208048 g / cm^3
# Si number density = 22.130851 Si / 1000 Ang^3
#
#
#
# Elastic Constant Matrix: (Units=GPa)
#
#
# Indices 1 2 3 4 5 6 
#
# 1 51.4668 18.8859 21.5627 0.0000 8.9536 0.0000
# 2 18.8859 139.7149 30.1769 0.0000 -3.9157 0.0000
# 3 21.5627 30.1769 106.9464 0.0000 -1.0992 0.0000
# 4 0.0000 0.0000 0.0000 19.1806 0.0000 1.5800
# 5 8.9536 -3.9157 -1.0992 0.0000 23.6392 0.0000
# 6 0.0000 0.0000 0.0000 1.5800 0.0000 17.6735
#
#
#
# Elastic Compliance Matrix: (Units=1/GPa)
#
#
# Indices 1 2 3 4 5 6 
#
# 1 0.023802 -0.002587 -0.004168 0.000000 -0.009638 0.000000
# 2 -0.002587 0.007935 -0.001695 0.000000 0.002216 0.000000
# 3 -0.004168 -0.001695 0.010687 0.000000 0.001795 0.000000
# 4 0.000000 0.000000 0.000000 0.052523 0.000000 -0.004695
# 5 -0.009638 0.002216 0.001795 0.000000 0.046404 0.000000
# 6 0.000000 0.000000 0.000000 -0.004695 0.000000 0.057002
#
#
# Mechanical properties :
#
#
# Convention : Reuss Voigt Hill
#
# Bulk Modulus (GPa) = 39.17722 48.81991 43.99856
# Shear Modulus (GPa) = 22.34519 27.26548 24.80534
#
# Velocity S-wave (km/s) = 3.18100 3.51381 3.35154
# Velocity P-wave (km/s) = 5.58862 6.21048 5.90774
#
# Compressibility (1/GPa) = 0.02552504
#
# Stress axis : x y z
#
# Youngs Moduli (GPa) = 42.01258 126.01922 93.56739
#
# Poissons Ratio (x) = 0.32605 0.39000
# Poissons Ratio (y) = 0.10870 0.15856
# Poissons Ratio (z) = 0.17511 0.21356
#
# Static dielectric constant tensor:
#      x y z
#    x 3.526840 0.000000 -0.060240 
#    y 0.000000 4.428270 0.000000 
#    z -0.060240 0.000000 4.163060 
# 
# 
# High freq. dielectric constant tensor:
#      x y z
#    x 1.831390 0.000000 -0.009470 
#    y 0.000000 1.876810 0.000000 
#    z -0.009470 0.000000 1.879920 
# 
# From -- ./inp_files/96238.got.cif
#   From: 2010.06.25/outbox.cif.g09.slc.cpg/sg12_49_cif.got.tgz:96238.got - 2010.06.28 00:19:55.
