data_PCOD8090651
_publ_section_title
;
Structure prediction by ZEFSAII (Michael W. Deem and Ramdas Pophale) SiO2 
 PCOD8090651
Probable space group: C 2/M
;
_chemical_formula_sum "Si O2"
_cell_formula_units_Z 64
_cell_length_a 20.628288
_cell_length_b 8.517623
_cell_length_c 21.693152
_cell_angle_alpha 90.000000
_cell_angle_beta 61.426578
_cell_angle_gamma 90.000000
_cell_volume 3347.342346
_symmetry_space_group_name_H-M "C 2/M"
_symmetry_group_IT_number 12
_symmetry_cell_setting 'monoclinic'
loop_
_space_group_symop_operation_xyz
x,y,z
-x,y,-z
-x,-y,-z
x,-y,z
1/2+x,1/2+y,z
1/2-x,1/2+y,-z
1/2-x,1/2-y,-z
1/2+x,1/2-y,z
loop_
_atom_site_type_symbol
_atom_site_label
_atom_site_fract_x
_atom_site_fract_y
_atom_site_fract_z
Si Si1 0.663293 0.684359 0.916921
Si Si2 0.027728 0.816246 0.551545
Si Si3 0.091732 0.682773 0.070168
Si Si4 0.828651 0.186564 0.444539
Si Si5 0.595527 0.183850 0.706600
Si Si6 0.045137 0.182865 0.290565
Si Si7 0.328669 0.186033 0.841444
Si Si8 0.931165 0.184859 0.154790
O O1 0.670048 0.500000 0.908822
O O2 0.745840 0.754395 0.877590
O O3 0.617468 0.748616 0.879803
O O4 0.622057 0.724779 0.998193
O O5 0.108032 0.751933 0.536736
O O6 0.000000 0.736991 0.500000
O O7 0.967047 0.779214 0.631678
O O8 0.036295 0.000000 0.536963
O O9 0.102720 0.500000 0.052865
O O10 0.136686 0.738628 0.109471
O O11 0.006806 0.720373 0.119174
O O12 0.750000 0.250000 0.500000
O O13 0.845893 0.252279 0.369139
O O14 0.828447 0.000000 0.441827
O O15 0.511733 0.217318 0.724273
O O16 0.611990 0.273305 0.762978
O O17 0.606754 0.000000 0.710981
O O18 0.127483 0.232236 0.234568
O O19 0.030140 0.000000 0.284175
O O20 0.332525 0.000000 0.830724
O O21 0.946879 0.000000 0.142820
#
# Coordination Sequence:
#
# PCOD8090651 Si02
#       8
#     8   8   8   8   8   8   8   8
#     4  10  23  40  56  79 114 152 185 230 286 337
#     4   8  16  33  56  82 113 144 182 227 270 320
#     4  11  22  36  59  85 109 144 189 235 278 333
#     4  10  20  36  59  86 117 150 187 229 278 333
#     4  11  21  36  59  84 112 148 192 237 279 329
#     4  10  19  33  58  86 110 147 190 229 275 331
#     4  10  21  38  57  80 113 149 186 229 280 331
#     4  11  22  38  59  82 112 149 190 232 282 338
#
# _framework density 19.119647000000001
#
# number of rings (size 3 to 8) (size 9 to 14) (size 15 to 20)
#    0.000    1.875    1.250    4.125    0.000    3.500 
#    2.250    0.000    0.000   12.750    0.000    0.000 
#    0.000    0.000    0.000    0.000    0.000    0.000 
#
# Total GULP energy -396862.446413 kJ/mol
# GULP energy per Si atom -12401.951450 kJ/mol
# Density = 1.907613 g / cm^3
# Si number density = 19.119647 Si / 1000 Ang^3
#
#
#
# Elastic Constant Matrix: (Units=GPa)
#
#
# Indices 1 2 3 4 5 6 
#
# 1 117.8570 11.0970 62.7021 -0.0010 5.4526 -0.0019
# 2 11.0970 25.2375 4.9962 -0.0014 3.8134 -0.0033
# 3 62.7021 4.9962 132.8999 -0.0005 3.7942 0.0004
# 4 -0.0010 -0.0014 -0.0005 31.3914 0.0002 -5.6918
# 5 5.4526 3.8134 3.7942 0.0002 31.1058 -0.0004
# 6 -0.0019 -0.0033 0.0004 -5.6918 -0.0004 21.8085
#
#
#
# Elastic Compliance Matrix: (Units=1/GPa)
#
#
# Indices 1 2 3 4 5 6 
#
# 1 0.011759 -0.003968 -0.005373 0.000000 -0.000920 0.000001
# 2 -0.003968 0.041965 0.000423 0.000003 -0.004501 0.000007
# 3 -0.005373 0.000423 0.010053 0.000000 -0.000336 -0.000001
# 4 0.000000 0.000003 0.000000 0.033438 -0.000001 0.008727
# 5 -0.000920 -0.004501 -0.000336 -0.000001 0.032902 0.000000
# 6 0.000001 0.000007 -0.000001 0.008727 0.000000 0.048131
#
#
# Mechanical properties :
#
#
# Convention : Reuss Voigt Hill
#
# Bulk Modulus (GPa) = 21.76675 48.17610 34.97143
# Shear Modulus (GPa) = 23.65205 30.00774 26.82990
#
# Velocity S-wave (km/s) = 3.52099 3.96595 3.75008
# Velocity P-wave (km/s) = 5.28574 6.79879 6.08944
#
# Compressibility (1/GPa) = 0.04594163
#
# Stress axis : x y z
#
# Youngs Moduli (GPa) = 85.03858 23.82955 99.47313
#
# Poissons Ratio (x) = 0.09456 0.53443
# Poissons Ratio (y) = 0.33744 -0.04208
# Poissons Ratio (z) = 0.45688 -0.01008
#
# Static dielectric constant tensor:
#      x y z
#    x 3.651090 0.000000 0.113520 
#    y 0.000000 3.328950 0.000000 
#    z 0.113520 0.000000 3.683250 
# 
# 
# High freq. dielectric constant tensor:
#      x y z
#    x 1.736320 0.000000 0.001020 
#    y 0.000000 1.734430 0.000000 
#    z 0.001020 0.000000 1.756360 
# 
# From -- ./inp_files/319840.got.cif
#   From: 2010.06.25/outbox.cif.g09.slc.cpg/sg12_160_cif.got.tgz:319840.got - 2010.06.28 00:19:55.
