data_PCOD8090600
_publ_section_title
;
Structure prediction by ZEFSAII (Michael W. Deem and Ramdas Pophale) SiO2 
 PCOD8090600
Probable space group: C 2/M
;
_chemical_formula_sum "Si O2"
_cell_formula_units_Z 48
_cell_length_a 20.196689
_cell_length_b 8.827650
_cell_length_c 24.415221
_cell_angle_alpha 90.000000
_cell_angle_beta 34.833466
_cell_angle_gamma 90.000000
_cell_volume 2486.387958
_symmetry_space_group_name_H-M "C 2/M"
_symmetry_group_IT_number 12
_symmetry_cell_setting 'monoclinic'
loop_
_space_group_symop_operation_xyz
x,y,z
-x,y,-z
-x,-y,-z
x,-y,z
1/2+x,1/2+y,z
1/2-x,1/2+y,-z
1/2-x,1/2-y,-z
1/2+x,1/2-y,z
loop_
_atom_site_type_symbol
_atom_site_label
_atom_site_fract_x
_atom_site_fract_y
_atom_site_fract_z
Si Si1 0.567526 0.675053 0.608407
Si Si2 0.383338 0.323226 0.110315
Si Si3 0.863626 0.178320 0.898052
Si Si4 0.416353 0.824705 0.200740
Si Si5 0.647905 0.176322 0.210315
Si Si6 0.709473 0.173848 0.605016
O O1 0.532776 0.500000 0.634115
O O2 0.450276 0.772698 0.679281
O O3 0.628491 0.718001 0.624204
O O4 0.655313 0.709990 0.498640
O O5 0.386190 0.500000 0.123349
O O6 0.366444 0.227650 0.176666
O O7 0.275365 0.282935 0.144929
O O8 0.500000 0.273294 0.000000
O O9 0.881024 0.231575 0.824486
O O10 0.970935 0.227207 0.862387
O O11 0.851550 0.000000 0.908666
O O12 0.750000 0.250000 0.000000
O O13 0.316014 0.796458 0.313873
O O14 0.452094 0.000000 0.174168
O O15 0.636651 0.000000 0.204965
O O16 0.681705 0.000000 0.607462
#
# Coordination Sequence:
#
# PCOD8090600 Si02
#       6
#     8   8   8   8   8   8
#     4  10  19  33  57  87 117 155 195 238 293 354
#     4  10  23  42  61  81 113 158 201 243 296 355
#     4  12  24  38  59  87 117 150 193 244 295 350
#     4  11  22  38  61  88 118 152 193 244 296 349
#     4  11  22  38  59  86 119 154 195 247 299 348
#     4   9  19  35  56  85 120 153 192 240 294 349
#
# _framework density 19.305112000000001
#
# number of rings (size 3 to 8) (size 9 to 14) (size 15 to 20)
#    0.000    1.500    1.667    4.000    0.000    4.333 
#    0.000    0.833    0.000    5.000    0.000    0.000 
#    0.000    0.000    0.000    0.000    0.000    0.000 
#
# Total GULP energy -297695.575486 kJ/mol
# GULP energy per Si atom -12403.982312 kJ/mol
# Density = 1.926117 g / cm^3
# Si number density = 19.305112 Si / 1000 Ang^3
#
#
#
# Elastic Constant Matrix: (Units=GPa)
#
#
# Indices 1 2 3 4 5 6 
#
# 1 56.6939 29.7830 24.0441 0.0001 1.8148 -0.0001
# 2 29.7830 99.2836 38.0829 0.0002 -1.1380 -0.0002
# 3 24.0441 38.0829 123.1233 0.0001 -3.7934 -0.0001
# 4 0.0001 0.0002 0.0001 33.9804 0.0000 -0.4582
# 5 1.8148 -1.1380 -3.7934 0.0000 34.4136 0.0000
# 6 -0.0001 -0.0002 -0.0001 -0.4582 0.0000 31.2033
#
#
#
# Elastic Compliance Matrix: (Units=1/GPa)
#
#
# Indices 1 2 3 4 5 6 
#
# 1 0.021691 -0.005539 -0.002572 0.000000 -0.001611 0.000000
# 2 -0.005539 0.012842 -0.002878 0.000000 0.000399 0.000000
# 3 -0.002572 -0.002878 0.009548 0.000000 0.001093 0.000000
# 4 0.000000 0.000000 0.000000 0.029435 0.000000 0.000432
# 5 -0.001611 0.000399 0.001093 0.000000 0.029277 0.000000
# 6 0.000000 0.000000 0.000000 0.000432 0.000000 0.032054
#
#
# Mechanical properties :
#
#
# Convention : Reuss Voigt Hill
#
# Bulk Modulus (GPa) = 45.24323 51.43565 48.33944
# Shear Modulus (GPa) = 30.45200 32.39882 31.42541
#
# Velocity S-wave (km/s) = 3.97597 4.10109 4.03901
# Velocity P-wave (km/s) = 6.67566 7.00904 6.84438
#
# Compressibility (1/GPa) = 0.02210275
#
# Stress axis : x y z
#
# Youngs Moduli (GPa) = 46.10280 77.86810 104.73136
#
# Poissons Ratio (x) = 0.43127 0.26941
# Poissons Ratio (y) = 0.25534 0.30145
# Poissons Ratio (z) = 0.11859 0.22413
#
# Static dielectric constant tensor:
#      x y z
#    x 3.217630 0.000000 -0.049090 
#    y 0.000000 3.580440 0.000000 
#    z -0.049090 0.000000 3.772850 
# 
# 
# High freq. dielectric constant tensor:
#      x y z
#    x 1.723850 0.000000 0.001010 
#    y 0.000000 1.759710 0.000000 
#    z 0.001010 0.000000 1.772580 
# 
# From -- ./inp_files/365369.got.cif
#   From: 2010.06.25/outbox.cif.g09.slc.cpg/sg12_183_cif.got.tgz:365369.got - 2010.06.28 00:19:55.
