data_PCOD8090388
_publ_section_title
;
Structure prediction by ZEFSAII (Michael W. Deem and Ramdas Pophale) SiO2 
 PCOD8090388
Probable space group: C 2/M
;
_chemical_formula_sum "Si O2"
_cell_formula_units_Z 48
_cell_length_a 29.190093
_cell_length_b 8.894834
_cell_length_c 10.269192
_cell_angle_alpha 90.000000
_cell_angle_beta 100.080686
_cell_angle_gamma 90.000000
_cell_volume 2625.141847
_symmetry_space_group_name_H-M "C 2/M"
_symmetry_group_IT_number 12
_symmetry_cell_setting 'monoclinic'
loop_
_space_group_symop_operation_xyz
x,y,z
-x,y,-z
-x,-y,-z
x,-y,z
1/2+x,1/2+y,z
1/2-x,1/2+y,-z
1/2-x,1/2-y,-z
1/2+x,1/2-y,z
loop_
_atom_site_type_symbol
_atom_site_label
_atom_site_fract_x
_atom_site_fract_y
_atom_site_fract_z
Si Si1 0.777539 0.676226 0.395963
Si Si2 0.033015 0.676110 0.130338
Si Si3 0.360585 0.177203 0.816012
Si Si4 0.138333 0.823367 0.457225
Si Si5 0.032182 0.823962 0.400643
Si Si6 0.723629 0.323375 0.106005
O O1 0.781088 0.500000 0.422003
O O2 0.750000 0.750000 0.500000
O O3 0.829336 0.747822 0.416786
O O4 0.752935 0.714775 0.248845
O O5 0.025937 0.500000 0.143528
O O6 0.086193 0.716076 0.120772
O O7 0.017471 0.749252 0.258052
O O8 0.000000 0.740231 0.000000
O O9 0.347117 0.253809 0.673516
O O10 0.327386 0.247904 0.909471
O O11 0.352389 0.000000 0.801135
O O12 0.085146 0.784821 0.464617
O O13 0.147751 0.000000 0.455147
O O14 0.000000 0.759477 0.500000
O O15 0.024681 0.000000 0.379346
O O16 0.717786 0.500000 0.080364
O O17 0.750000 0.250000 0.000000
#
# Coordination Sequence:
#
# PCOD8090388 Si02
#       6
#     8   8   8   8   8   8
#     4  11  22  36  58  84 110 142 183 227 270 325
#     4   9  19  36  57  82 110 142 183 226 269 324
#     4  10  19  34  58  81 109 146 184 226 273 323
#     4  10  19  33  56  83 111 144 185 227 269 321
#     4   9  19  36  56  80 113 145 179 225 273 322
#     4  11  24  40  57  80 112 147 183 225 276 327
#
# _framework density 18.284725999999999
#
# number of rings (size 3 to 8) (size 9 to 14) (size 15 to 20)
#    0.000    2.000    1.667    2.000    0.000    4.000 
#    3.000    0.000    0.000    0.000    0.000    0.000 
#    0.000    0.000    0.000    0.000    0.000    0.000 
#
# Total GULP energy -297667.218144 kJ/mol
# GULP energy per Si atom -12402.800756 kJ/mol
# Density = 1.824311 g / cm^3
# Si number density = 18.284726 Si / 1000 Ang^3
#
#
#
# Elastic Constant Matrix: (Units=GPa)
#
#
# Indices 1 2 3 4 5 6 
#
# 1 127.2925 51.4541 84.2178 0.0000 -8.3082 0.0000
# 2 51.4541 78.8225 60.7662 0.0000 -1.0547 0.0000
# 3 84.2178 60.7662 124.5887 0.0000 -7.3468 0.0000
# 4 0.0000 0.0000 0.0000 30.3115 0.0000 -1.6092
# 5 -8.3082 -1.0547 -7.3468 0.0000 38.4816 0.0000
# 6 0.0000 0.0000 0.0000 -1.6092 0.0000 27.4064
#
#
#
# Elastic Compliance Matrix: (Units=1/GPa)
#
#
# Indices 1 2 3 4 5 6 
#
# 1 0.014754 -0.003191 -0.008328 0.000000 0.001508 0.000000
# 2 -0.003191 0.021091 -0.008229 0.000000 -0.001682 0.000000
# 3 -0.008328 -0.008229 0.017750 0.000000 0.001365 0.000000
# 4 0.000000 0.000000 0.000000 0.033094 0.000000 0.001943
# 5 0.001508 -0.001682 0.001365 0.000000 0.026527 0.000000
# 6 0.000000 0.000000 0.000000 0.001943 0.000000 0.036602
#
#
# Mechanical properties :
#
#
# Convention : Reuss Voigt Hill
#
# Bulk Modulus (GPa) = 70.92589 80.39775 75.66182
# Shear Modulus (GPa) = 25.77137 28.19093 26.98115
#
# Velocity S-wave (km/s) = 3.75833 3.93080 3.84554
# Velocity P-wave (km/s) = 7.59653 8.04158 7.82222
#
# Compressibility (1/GPa) = 0.01409922
#
# Stress axis : x y z
#
# Youngs Moduli (GPa) = 67.77810 47.41312 56.33757
#
# Poissons Ratio (x) = 0.15128 0.46918
# Poissons Ratio (y) = 0.21626 0.46362
# Poissons Ratio (z) = 0.56446 0.39018
#
# Static dielectric constant tensor:
#      x y z
#    x 3.668460 0.000000 0.111190 
#    y 0.000000 3.423620 0.000000 
#    z 0.111190 0.000000 3.347000 
# 
# 
# High freq. dielectric constant tensor:
#      x y z
#    x 1.720200 0.000000 0.004380 
#    y 0.000000 1.717850 0.000000 
#    z 0.004380 0.000000 1.692130 
# 
# From -- ./inp_files/108596.got.cif
#   From: 2010.06.25/outbox.cif.g09.slc.cpg/sg12_55_cif.got.tgz:108596.got - 2010.06.28 00:19:55.
