data_PCOD8090409
_publ_section_title
;
Structure prediction by ZEFSAII (Michael W. Deem and Ramdas Pophale) SiO2 
 PCOD8090409
Probable space group: C 2/M
;
_chemical_formula_sum "Si O2"
_cell_formula_units_Z 52
_cell_length_a 18.402505
_cell_length_b 12.647223
_cell_length_c 20.436255
_cell_angle_alpha 90.000000
_cell_angle_beta 145.394515
_cell_angle_gamma 90.000000
_cell_volume 2701.236075
_symmetry_space_group_name_H-M "C 2/M"
_symmetry_group_IT_number 12
_symmetry_cell_setting 'monoclinic'
loop_
_space_group_symop_operation_xyz
x,y,z
-x,y,-z
-x,-y,-z
x,-y,z
1/2+x,1/2+y,z
1/2-x,1/2+y,-z
1/2-x,1/2-y,-z
1/2+x,1/2-y,z
loop_
_atom_site_type_symbol
_atom_site_label
_atom_site_fract_x
_atom_site_fract_y
_atom_site_fract_z
Si Si1 0.681155 0.881272 0.833771
Si Si2 0.460677 0.379604 0.090544
Si Si3 0.729214 0.376968 0.633442
Si Si4 0.544537 0.238713 0.270253
Si Si5 0.727407 0.697353 0.775929
Si Si6 0.500000 0.762689 0.000000
Si Si7 0.533900 0.617156 0.379169
O O1 0.572176 0.838370 0.800590
O O2 0.696363 0.816093 0.777521
O O3 0.648286 0.000000 0.787702
O O4 0.808381 0.875886 0.971408
O O5 0.511392 0.500000 0.124265
O O6 0.500416 0.329911 0.188514
O O7 0.525368 0.311772 0.081091
O O8 0.753641 0.500000 0.668738
O O9 0.843134 0.334133 0.673198
O O10 0.721388 0.308530 0.693339
O O11 0.596673 0.361127 0.496444
O O12 0.589589 0.298246 0.369467
O O13 0.620478 0.621583 0.728372
O O14 0.870699 0.665904 0.908638
O O15 0.570822 0.500000 0.382197
#
# Coordination Sequence:
#
# PCOD8090409 Si02
#       7
#     8   8   8   8   8   4   8
#     4   9  20  36  57  83 116 156 184 220 281 340
#     4  10  19  33  56  83 115 152 186 223 278 338
#     4  11  22  38  59  83 111 150 191 231 283 331
#     4  11  20  36  58  85 116 142 189 236 278 326
#     4  10  20  37  60  82 113 146 191 230 274 334
#     4  10  19  36  55  86 118 144 181 234 283 330
#     4  10  22  39  59  82 112 150 191 231 277 334
#
# _framework density 19.250447000000001
#
# number of rings (size 3 to 8) (size 9 to 14) (size 15 to 20)
#    0.000    1.846    1.538    3.000    0.000    1.846 
#    0.000    1.538    0.000    9.231    0.000    0.000 
#    0.000    0.000    0.000    0.000    0.000    0.000 
#
# Total GULP energy -322376.514248 kJ/mol
# GULP energy per Si atom -12399.096702 kJ/mol
# Density = 1.920663 g / cm^3
# Si number density = 19.250447 Si / 1000 Ang^3
#
#
#
# Elastic Constant Matrix: (Units=GPa)
#
#
# Indices 1 2 3 4 5 6 
#
# 1 83.8258 15.1675 31.0211 0.0001 -0.1304 0.0000
# 2 15.1675 65.1060 44.8154 0.0001 -5.3814 0.0000
# 3 31.0211 44.8154 85.7978 0.0003 -2.7774 0.0001
# 4 0.0001 0.0001 0.0003 24.9802 0.0002 -7.2532
# 5 -0.1304 -5.3814 -2.7774 0.0002 33.6979 0.0001
# 6 0.0000 0.0000 0.0001 -7.2532 0.0001 19.7976
#
#
#
# Elastic Compliance Matrix: (Units=1/GPa)
#
#
# Indices 1 2 3 4 5 6 
#
# 1 0.013781 0.000312 -0.005156 0.000000 -0.000322 0.000000
# 2 0.000312 0.024257 -0.012692 0.000000 0.002829 0.000000
# 3 -0.005156 -0.012692 0.020136 0.000000 -0.000387 0.000000
# 4 0.000000 0.000000 0.000000 0.044797 0.000000 0.016412
# 5 -0.000322 0.002829 -0.000387 0.000000 0.030094 0.000000
# 6 0.000000 0.000000 0.000000 0.016412 0.000000 0.056524
#
#
# Mechanical properties :
#
#
# Convention : Reuss Voigt Hill
#
# Bulk Modulus (GPa) = 43.28468 46.30417 44.79443
# Shear Modulus (GPa) = 21.51827 25.27683 23.39755
#
# Velocity S-wave (km/s) = 3.34699 3.62754 3.49008
# Velocity P-wave (km/s) = 6.12130 6.45377 6.28973
#
# Compressibility (1/GPa) = 0.02310286
#
# Stress axis : x y z
#
# Youngs Moduli (GPa) = 72.56595 41.22548 49.66175
#
# Poissons Ratio (x) = -0.01286 0.25605
# Poissons Ratio (y) = -0.02264 0.63028
# Poissons Ratio (z) = 0.37414 0.52321
#
# Static dielectric constant tensor:
#      x y z
#    x 3.563570 0.000000 0.088720 
#    y 0.000000 3.533480 0.000000 
#    z 0.088720 0.000000 3.589960 
# 
# 
# High freq. dielectric constant tensor:
#      x y z
#    x 1.756620 0.000000 0.004690 
#    y 0.000000 1.742920 0.000000 
#    z 0.004690 0.000000 1.747150 
# 
# From -- ./inp_files/315625.got.cif
#   From: 2010.06.25/outbox.cif.g09.slc.cpg/sg12_158_cif.got.tgz:315625.got - 2010.06.28 00:19:55.
