data_PCOD8090364
_publ_section_title
;
Structure prediction by ZEFSAII (Michael W. Deem and Ramdas Pophale) SiO2 
 PCOD8090364
Probable space group: C 2/M
;
_chemical_formula_sum "Si O2"
_cell_formula_units_Z 56
_cell_length_a 17.895600
_cell_length_b 8.820928
_cell_length_c 18.458070
_cell_angle_alpha 90.000000
_cell_angle_beta 76.726679
_cell_angle_gamma 90.000000
_cell_volume 2835.876121
_symmetry_space_group_name_H-M "C 2/M"
_symmetry_group_IT_number 12
_symmetry_cell_setting 'monoclinic'
loop_
_space_group_symop_operation_xyz
x,y,z
-x,y,-z
-x,-y,-z
x,-y,z
1/2+x,1/2+y,z
1/2-x,1/2+y,-z
1/2-x,1/2-y,-z
1/2+x,1/2-y,z
loop_
_atom_site_type_symbol
_atom_site_label
_atom_site_fract_x
_atom_site_fract_y
_atom_site_fract_z
Si Si1 0.738533 0.824871 0.705084
Si Si2 0.377000 0.824058 0.144751
Si Si3 0.412363 0.669884 0.995795
Si Si4 0.030656 0.676220 0.572551
Si Si5 0.413280 0.324246 0.705942
Si Si6 0.547850 0.176830 0.154056
Si Si7 0.308729 0.677705 0.431507
O O1 0.690105 0.775195 0.785912
O O2 0.827056 0.793792 0.700117
O O3 0.711352 0.722769 0.645281
O O4 0.722287 0.000000 0.689734
O O5 0.362359 0.734538 0.073320
O O6 0.458356 0.783581 0.163130
O O7 0.374017 0.000000 0.125721
O O8 0.384573 0.500000 0.983882
O O9 0.500000 0.672100 0.000000
O O10 0.402791 0.774814 0.927235
O O11 0.050510 0.500000 0.577595
O O12 0.105996 0.773218 0.568206
O O13 0.000000 0.713968 0.500000
O O14 0.967344 0.721138 0.644994
O O15 0.435789 0.500000 0.692307
O O16 0.421410 0.275960 0.786910
O O17 0.560660 0.000000 0.166674
O O18 0.302000 0.500000 0.441520
O O19 0.250000 0.750000 0.500000
#
# Coordination Sequence:
#
# PCOD8090364 Si02
#       7
#     8   8   8   8   8   8   8
#     4  10  22  40  60  84 118 155 192 238 289 343
#     4   9  18  34  56  81 109 145 188 233 286 345
#     4   9  17  30  51  80 112 143 182 236 290 342
#     4  11  24  42  64  89 118 153 193 236 283 338
#     4  11  23  38  58  85 117 153 193 238 288 341
#     4  10  19  33  56  82 111 149 192 238 288 347
#     4  12  25  41  64  91 120 153 191 236 285 340
#
# _framework density 19.746984999999999
#
# number of rings (size 3 to 8) (size 9 to 14) (size 15 to 20)
#    0.000    1.714    0.000    4.714    0.000    8.571 
#    0.000    0.714    0.000    0.000    0.000    0.000 
#    0.000    0.000    0.000    0.000    0.000    0.000 
#
# Total GULP energy -347339.784800 kJ/mol
# GULP energy per Si atom -12404.992314 kJ/mol
# Density = 1.970204 g / cm^3
# Si number density = 19.746985 Si / 1000 Ang^3
#
#
#
# Elastic Constant Matrix: (Units=GPa)
#
#
# Indices 1 2 3 4 5 6 
#
# 1 81.8259 45.6413 52.3752 0.0000 -6.3836 0.0000
# 2 45.6413 93.9659 52.8556 0.0000 -0.8814 0.0000
# 3 52.3752 52.8556 138.8993 0.0000 -6.6611 0.0000
# 4 0.0000 0.0000 0.0000 47.0592 0.0000 15.7003
# 5 -6.3836 -0.8814 -6.6611 0.0000 29.7258 0.0000
# 6 0.0000 0.0000 0.0000 15.7003 0.0000 58.3622
#
#
#
# Elastic Compliance Matrix: (Units=1/GPa)
#
#
# Indices 1 2 3 4 5 6 
#
# 1 0.019065 -0.006702 -0.004500 0.000000 0.002887 0.000000
# 2 -0.006702 0.015913 -0.003614 0.000000 -0.001777 0.000000
# 3 -0.004500 -0.003614 0.010331 0.000000 0.001241 0.000000
# 4 0.000000 0.000000 0.000000 0.023345 0.000000 -0.006280
# 5 0.002887 -0.001777 0.001241 0.000000 0.034486 0.000000
# 6 0.000000 0.000000 0.000000 -0.006280 0.000000 0.018824
#
#
# Mechanical properties :
#
#
# Convention : Reuss Voigt Hill
#
# Bulk Modulus (GPa) = 63.78378 68.49281 66.13830
# Shear Modulus (GPa) = 31.88326 37.95070 34.91698
#
# Velocity S-wave (km/s) = 4.02255 4.38864 4.20958
# Velocity P-wave (km/s) = 7.34474 7.77437 7.56261
#
# Compressibility (1/GPa) = 0.01567797
#
# Stress axis : x y z
#
# Youngs Moduli (GPa) = 52.45223 62.84001 96.79592
#
# Poissons Ratio (x) = 0.42114 0.43560
# Poissons Ratio (y) = 0.35153 0.34979
# Poissons Ratio (z) = 0.23604 0.22709
#
# Static dielectric constant tensor:
#      x y z
#    x 3.497230 0.000000 -0.046490 
#    y 0.000000 3.710090 0.000000 
#    z -0.046490 0.000000 3.846930 
# 
# 
# High freq. dielectric constant tensor:
#      x y z
#    x 1.756380 0.000000 0.000070 
#    y 0.000000 1.777670 0.000000 
#    z 0.000070 0.000000 1.788850 
# 
# From -- ./inp_files/275338.got.cif
#   From: 2010.06.25/outbox.cif.g09.slc.cpg/sg12_138_cif.got.tgz:275338.got - 2010.06.28 00:19:55.
