data_PCOD8090058
_publ_section_title
;
Structure prediction by ZEFSAII (Michael W. Deem and Ramdas Pophale) SiO2 
 PCOD8090058
Probable space group: C 2/M
;
_chemical_formula_sum "Si O2"
_cell_formula_units_Z 64
_cell_length_a 29.805917
_cell_length_b 8.756575
_cell_length_c 12.028860
_cell_angle_alpha 90.000000
_cell_angle_beta 86.498733
_cell_angle_gamma 90.000000
_cell_volume 3133.645317
_symmetry_space_group_name_H-M "C 2/M"
_symmetry_group_IT_number 12
_symmetry_cell_setting 'monoclinic'
loop_
_space_group_symop_operation_xyz
x,y,z
-x,y,-z
-x,-y,-z
x,-y,z
1/2+x,1/2+y,z
1/2-x,1/2+y,-z
1/2-x,1/2-y,-z
1/2+x,1/2-y,z
loop_
_atom_site_type_symbol
_atom_site_label
_atom_site_fract_x
_atom_site_fract_y
_atom_site_fract_z
Si Si1 0.901281 0.672973 0.599090
Si Si2 0.164534 0.179936 0.777710
Si Si3 0.988601 0.673528 0.708764
Si Si4 0.752088 0.819319 0.376861
Si Si5 0.140232 0.181461 0.020446
Si Si6 0.589108 0.822272 0.651041
Si Si7 0.040400 0.820560 0.067161
Si Si8 0.672166 0.678216 0.252907
O O1 0.884906 0.500000 0.627159
O O2 0.954858 0.685129 0.609567
O O3 0.891338 0.715592 0.473284
O O4 0.875462 0.791934 0.681005
O O5 0.204955 0.248171 0.697029
O O6 0.116611 0.226687 0.736268
O O7 0.168477 0.000000 0.776331
O O8 0.166406 0.238553 0.905697
O O9 0.990634 0.500000 0.753603
O O10 0.969290 0.784726 0.804309
O O11 0.037496 0.730362 0.664235
O O12 0.750000 0.750000 0.500000
O O13 0.708992 0.776802 0.311069
O O14 0.754959 0.000000 0.389668
O O15 0.089282 0.248997 0.027260
O O16 0.167963 0.234666 0.125403
O O17 0.136564 0.000000 0.024218
O O18 0.594278 0.000000 0.677474
O O19 0.041558 0.000000 0.047980
O O20 0.000000 0.747340 0.000000
O O21 0.684280 0.500000 0.258947
#
# Coordination Sequence:
#
# PCOD8090058 Si02
#       8
#     8   8   8   8   8   8   8   8
#     4  10  20  36  57  81 115 156 196 239 289 346
#     4  10  22  41  62  84 112 150 194 238 285 343
#     4  10  20  34  53  80 114 151 193 239 289 343
#     4  11  24  42  65  92 120 150 191 238 291 352
#     4   9  19  37  58  83 116 152 192 239 288 340
#     4  10  21  36  55  82 116 153 192 239 295 346
#     4  10  19  33  55  80 111 155 199 239 286 340
#     4  11  22  38  62  88 118 154 193 240 295 348
#
# _framework density 20.423497000000001
#
# number of rings (size 3 to 8) (size 9 to 14) (size 15 to 20)
#    0.000    1.875    1.250    2.625    0.000    7.250 
#    0.000    1.875    0.000    2.250    0.000    0.000 
#    0.000    0.000    0.000    0.000    0.000    0.000 
#
# Total GULP energy -396781.570812 kJ/mol
# GULP energy per Si atom -12399.424088 kJ/mol
# Density = 2.037701 g / cm^3
# Si number density = 20.423497 Si / 1000 Ang^3
#
#
#
# Elastic Constant Matrix: (Units=GPa)
#
#
# Indices 1 2 3 4 5 6 
#
# 1 114.5649 17.3072 60.4127 0.0000 2.2337 0.0000
# 2 17.3072 23.8056 25.0615 0.0000 -1.8905 0.0000
# 3 60.4127 25.0615 159.4633 0.0000 -0.0875 0.0000
# 4 0.0000 0.0000 0.0000 27.9739 0.0000 2.5880
# 5 2.2337 -1.8905 -0.0875 0.0000 38.8790 0.0000
# 6 0.0000 0.0000 0.0000 2.5880 0.0000 27.0250
#
#
#
# Elastic Compliance Matrix: (Units=1/GPa)
#
#
# Indices 1 2 3 4 5 6 
#
# 1 0.011316 -0.004533 -0.003575 0.000000 -0.000879 0.000000
# 2 -0.004533 0.052382 -0.006514 0.000000 0.002793 0.000000
# 3 -0.003575 -0.006514 0.008649 0.000000 -0.000092 0.000000
# 4 0.000000 0.000000 0.000000 0.036067 0.000000 -0.003454
# 5 -0.000879 0.002793 -0.000092 0.000000 0.025907 0.000000
# 6 0.000000 0.000000 0.000000 -0.003454 0.000000 0.037334
#
#
# Mechanical properties :
#
#
# Convention : Reuss Voigt Hill
#
# Bulk Modulus (GPa) = 23.20007 55.93296 39.56651
# Shear Modulus (GPa) = 23.22720 31.77907 27.50314
#
# Velocity S-wave (km/s) = 3.37601 3.94890 3.67364
# Velocity P-wave (km/s) = 5.15566 6.94534 6.11631
#
# Compressibility (1/GPa) = 0.04310332
#
# Stress axis : x y z
#
# Youngs Moduli (GPa) = 88.37183 19.09070 115.61925
#
# Poissons Ratio (x) = 0.08654 0.41335
# Poissons Ratio (y) = 0.40059 0.75309
# Poissons Ratio (z) = 0.31594 0.12435
#
# Static dielectric constant tensor:
#      x y z
#    x 3.918240 0.000000 -0.069950 
#    y 0.000000 3.381710 0.000000 
#    z -0.069950 0.000000 3.895830 
# 
# 
# High freq. dielectric constant tensor:
#      x y z
#    x 1.803940 0.000000 0.003290 
#    y 0.000000 1.770130 0.000000 
#    z 0.003290 0.000000 1.809580 
# 
# From -- ./inp_files/187622.got.cif
#   From: 2010.06.25/outbox.cif.g09.slc.cpg/sg12_94_cif.got.tgz:187622.got - 2010.06.28 00:19:55.
