data_PCOD8090726
_publ_section_title
;
Structure prediction by ZEFSAII (Michael W. Deem and Ramdas Pophale) SiO2 
 PCOD8090726
Probable space group: C 2/M
;
_chemical_formula_sum "Si O2"
_cell_formula_units_Z 64
_cell_length_a 25.155053
_cell_length_b 22.506651
_cell_length_c 11.138788
_cell_angle_alpha 90.000000
_cell_angle_beta 31.982881
_cell_angle_gamma 90.000000
_cell_volume 3340.227377
_symmetry_space_group_name_H-M "C 2/M"
_symmetry_group_IT_number 12
_symmetry_cell_setting 'monoclinic'
loop_
_space_group_symop_operation_xyz
x,y,z
-x,y,-z
-x,-y,-z
x,-y,z
1/2+x,1/2+y,z
1/2-x,1/2+y,-z
1/2-x,1/2-y,-z
1/2+x,1/2-y,z
loop_
_atom_site_type_symbol
_atom_site_label
_atom_site_fract_x
_atom_site_fract_y
_atom_site_fract_z
Si Si1 0.355133 0.932294 0.181108
Si Si2 0.003822 0.066905 0.350517
Si Si3 0.580830 0.067594 0.676143
Si Si4 0.047798 0.773294 0.779739
Si Si5 0.153397 0.318776 0.429333
Si Si6 0.114847 0.820503 0.078551
Si Si7 0.170837 0.866404 0.423252
Si Si8 0.847876 0.227654 0.749291
O O1 0.357897 0.921198 0.318543
O O2 0.277675 0.888766 0.264801
O O3 0.323366 0.000000 0.216518
O O4 0.463871 0.919347 0.918154
O O5 0.000000 0.076781 0.500000
O O6 0.894995 0.078879 0.499796
O O7 0.036529 0.000000 0.256792
O O8 0.084509 0.110145 0.132432
O O9 0.622036 0.112239 0.495232
O O10 0.597262 0.000000 0.600298
O O11 0.114886 0.714771 0.623321
O O12 0.116347 0.832513 0.638434
O O13 0.000000 0.765756 0.000000
O O14 0.955537 0.778775 0.865152
O O15 0.272912 0.313040 0.184322
O O16 0.101857 0.284484 0.414667
O O17 0.086996 0.800450 0.268560
O O18 0.183538 0.820379 0.290188
O O19 0.750000 0.250000 0.000000
#
# Coordination Sequence:
#
# PCOD8090726 Si02
#       8
#     8   8   8   8   8   8   8   8
#     4   9  19  36  58  82 112 151 194 239 286 341
#     4  10  19  33  59  88 114 151 193 233 283 342
#     4   9  20  38  57  82 114 150 194 238 286 346
#     4  10  24  37  54  90 119 149 189 238 287 340
#     4  10  22  36  60  84 108 154 192 232 290 343
#     4  10  21  40  59  79 126 152 188 242 281 344
#     4  10  19  35  60  82 117 150 188 240 289 341
#     4   9  19  37  54  85 109 147 191 227 287 338
#
# _framework density 19.160371999999999
#
# number of rings (size 3 to 8) (size 9 to 14) (size 15 to 20)
#    0.000    2.375    1.250    1.125    3.500    4.000 
#    0.000    1.250    0.000    1.875    0.000    8.750 
#    0.000    0.000    0.000    0.000    0.000    0.000 
#
# Total GULP energy -396586.290842 kJ/mol
# GULP energy per Si atom -12393.321589 kJ/mol
# Density = 1.911676 g / cm^3
# Si number density = 19.160372 Si / 1000 Ang^3
#
#
#
# Elastic Constant Matrix: (Units=GPa)
#
#
# Indices 1 2 3 4 5 6 
#
# 1 103.1394 60.0694 50.7823 0.0000 -3.0649 0.0000
# 2 60.0694 126.0536 57.1837 0.0000 3.6968 0.0000
# 3 50.7823 57.1837 104.3562 0.0000 7.8360 0.0000
# 4 0.0000 0.0000 0.0000 31.8467 0.0000 -1.6358
# 5 -3.0649 3.6968 7.8360 0.0000 29.6843 0.0000
# 6 0.0000 0.0000 0.0000 -1.6358 0.0000 18.0222
#
#
#
# Elastic Compliance Matrix: (Units=1/GPa)
#
#
# Indices 1 2 3 4 5 6 
#
# 1 0.015170 -0.005142 -0.004826 0.000000 0.003481 0.000000
# 2 -0.005142 0.012302 -0.004166 0.000000 -0.000963 0.000000
# 3 -0.004826 -0.004166 0.014500 0.000000 -0.003807 0.000000
# 4 0.000000 0.000000 0.000000 0.031548 0.000000 0.002863
# 5 0.003481 -0.000963 -0.003807 0.000000 0.035172 0.000000
# 6 0.000000 0.000000 0.000000 0.002863 0.000000 0.055747
#
#
# Mechanical properties :
#
#
# Convention : Reuss Voigt Hill
#
# Bulk Modulus (GPa) = 72.97580 74.40223 73.68901
# Shear Modulus (GPa) = 25.34544 26.94488 26.14516
#
# Velocity S-wave (km/s) = 3.64098 3.75411 3.69798
# Velocity P-wave (km/s) = 7.47297 7.59649 7.53498
#
# Compressibility (1/GPa) = 0.01370317
#
# Stress axis : x y z
#
# Youngs Moduli (GPa) = 65.92062 81.28900 68.96618
#
# Poissons Ratio (x) = 0.41798 0.33281
# Poissons Ratio (y) = 0.33896 0.28735
# Poissons Ratio (z) = 0.31812 0.33869
#
# Static dielectric constant tensor:
#      x y z
#    x 3.717220 0.000000 0.177130 
#    y 0.000000 3.244700 0.000000 
#    z 0.177130 0.000000 3.507430 
# 
# 
# High freq. dielectric constant tensor:
#      x y z
#    x 1.733410 0.000000 -0.002900 
#    y 0.000000 1.751890 0.000000 
#    z -0.002900 0.000000 1.743550 
# 
# From -- ./inp_files/184704.got.cif
#   From: 2010.06.25/outbox.cif.g09.slc.cpg/sg12_93_cif.got.tgz:184704.got - 2010.06.28 00:19:55.
