data_PCOD8090203
_publ_section_title
;
Structure prediction by ZEFSAII (Michael W. Deem and Ramdas Pophale) SiO2 
 PCOD8090203
Probable space group: C 2/M
;
_chemical_formula_sum "Si O2"
_cell_formula_units_Z 48
_cell_length_a 10.102648
_cell_length_b 18.997323
_cell_length_c 14.572062
_cell_angle_alpha 90.000000
_cell_angle_beta 69.717882
_cell_angle_gamma 90.000000
_cell_volume 2623.313327
_symmetry_space_group_name_H-M "C 2/M"
_symmetry_group_IT_number 12
_symmetry_cell_setting 'monoclinic'
loop_
_space_group_symop_operation_xyz
x,y,z
-x,y,-z
-x,-y,-z
x,-y,z
1/2+x,1/2+y,z
1/2-x,1/2+y,-z
1/2-x,1/2-y,-z
1/2+x,1/2-y,z
loop_
_atom_site_type_symbol
_atom_site_label
_atom_site_fract_x
_atom_site_fract_y
_atom_site_fract_z
Si Si1 0.411073 0.583239 0.725930
Si Si2 0.137004 0.416761 0.274070
Si Si3 0.904687 0.811319 0.887355
Si Si4 0.318681 0.083498 0.362639
Si Si5 0.709656 0.416737 0.580688
Si Si6 0.292042 0.311320 0.112644
O O1 0.411206 0.500000 0.742681
O O2 0.404655 0.618591 0.826687
O O3 0.279438 0.608996 0.696861
O O4 0.550623 0.608262 0.638451
O O5 0.153888 0.500000 0.257320
O O6 0.189077 0.391737 0.361547
O O7 0.231343 0.381410 0.173311
O O8 0.976300 0.391003 0.303139
O O9 0.824244 0.749999 0.851514
O O10 0.064208 0.786827 0.871585
O O11 0.820881 0.830279 0.999999
O O12 0.264019 0.116553 0.471964
O O13 0.313867 0.000000 0.372270
O O14 0.714162 0.500000 0.571681
#
# Coordination Sequence:
#
# PCOD8090203 Si02
#       6
#     8   8   8   8   8   8
#     4  10  19  33  55  84 110 137 177 222 264 305
#     4  10  19  33  55  84 110 137 177 222 264 305
#     4  10  22  39  58  78 103 140 179 216 266 324
#     4   9  18  30  50  81 114 144 173 211 262 315
#     4   9  16  30  52  79 110 142 177 215 258 311
#     4  10  22  39  58  78 103 140 179 216 266 324
#
# _framework density 18.297471000000002
#
# number of rings (size 3 to 8) (size 9 to 14) (size 15 to 20)
#    0.000    2.333    1.667    1.000    2.333    4.667 
#    0.000    1.667    0.000    9.000    0.000    0.000 
#    0.000    0.000    0.000    0.000    0.000    0.000 
#
# Total GULP energy -297610.697110 kJ/mol
# GULP energy per Si atom -12400.445713 kJ/mol
# Density = 1.825583 g / cm^3
# Si number density = 18.297471 Si / 1000 Ang^3
#
#
#
# Elastic Constant Matrix: (Units=GPa)
#
#
# Indices 1 2 3 4 5 6 
#
# 1 155.7770 32.5240 47.6210 0.0000 -1.2507 0.0000
# 2 32.5240 46.1330 39.5575 0.0000 0.1687 0.0000
# 3 47.6210 39.5575 95.5646 0.0000 -0.1941 0.0000
# 4 0.0000 0.0000 0.0000 12.9499 0.0000 -0.1988
# 5 -1.2507 0.1687 -0.1941 0.0000 28.0417 0.0000
# 6 0.0000 0.0000 0.0000 -0.1988 0.0000 21.2246
#
#
#
# Elastic Compliance Matrix: (Units=1/GPa)
#
#
# Indices 1 2 3 4 5 6 
#
# 1 0.007907 -0.003407 -0.002529 0.000000 0.000356 0.000000
# 2 -0.003407 0.035074 -0.012822 0.000000 -0.000452 0.000000
# 3 -0.002529 -0.012822 0.017032 0.000000 0.000082 0.000000
# 4 0.000000 0.000000 0.000000 0.077232 0.000000 0.000723
# 5 0.000356 -0.000452 0.000082 0.000000 0.035680 0.000000
# 6 0.000000 0.000000 0.000000 0.000723 0.000000 0.047122
#
#
# Mechanical properties :
#
#
# Convention : Reuss Voigt Hill
#
# Bulk Modulus (GPa) = 44.44945 59.65332 52.05138
# Shear Modulus (GPa) = 18.86358 24.29472 21.57915
#
# Velocity S-wave (km/s) = 3.21431 3.64780 3.43789
# Velocity P-wave (km/s) = 6.17423 7.10033 6.65341
#
# Compressibility (1/GPa) = 0.02249746
#
# Stress axis : x y z
#
# Youngs Moduli (GPa) = 126.47417 28.51104 58.71365
#
# Poissons Ratio (x) = 0.09714 0.14849
# Poissons Ratio (y) = 0.43090 0.75280
# Poissons Ratio (z) = 0.31985 0.36556
#
# Static dielectric constant tensor:
#      x y z
#    x 3.728470 0.000000 -0.007260 
#    y 0.000000 2.904760 0.000000 
#    z -0.007260 0.000000 3.425960 
# 
# 
# High freq. dielectric constant tensor:
#      x y z
#    x 1.732000 0.000000 -0.000410 
#    y 0.000000 1.661460 0.000000 
#    z -0.000410 0.000000 1.714790 
# 
# From -- ./inp_files/122573.got.cif
#   From: 2010.06.25/outbox.cif.g09.slc.cpg/sg12_62_cif.got.tgz:122573.got - 2010.06.28 00:19:55.
