data_PCOD8090005
_publ_section_title
;
Structure prediction by ZEFSAII (Michael W. Deem and Ramdas Pophale) SiO2 
 PCOD8090005
Probable space group: C 2/M
;
_chemical_formula_sum "Si O2"
_cell_formula_units_Z 64
_cell_length_a 16.943872
_cell_length_b 17.357507
_cell_length_c 23.469886
_cell_angle_alpha 90.000000
_cell_angle_beta 150.095179
_cell_angle_gamma 90.000000
_cell_volume 3441.351357
_symmetry_space_group_name_H-M "C 2/M"
_symmetry_group_IT_number 12
_symmetry_cell_setting 'monoclinic'
loop_
_space_group_symop_operation_xyz
x,y,z
-x,y,-z
-x,-y,-z
x,-y,z
1/2+x,1/2+y,z
1/2-x,1/2+y,-z
1/2-x,1/2-y,-z
1/2+x,1/2-y,z
loop_
_atom_site_type_symbol
_atom_site_label
_atom_site_fract_x
_atom_site_fract_y
_atom_site_fract_z
Si Si1 0.987803 0.585775 0.336965
Si Si2 0.653633 0.587692 0.432680
Si Si3 0.291371 0.908500 0.105633
Si Si4 0.579189 0.785649 0.884737
Si Si5 0.310027 0.704158 0.647255
Si Si6 0.531824 0.320722 0.456696
Si Si7 0.008676 0.802819 0.069168
Si Si8 0.824294 0.320013 0.319897
O O1 0.932397 0.500000 0.314942
O O2 0.880596 0.618122 0.218733
O O3 0.968740 0.630199 0.385092
O O4 0.169297 0.590685 0.431706
O O5 0.608430 0.500000 0.386720
O O6 0.638755 0.643796 0.369127
O O7 0.539160 0.613733 0.412867
O O8 0.396861 0.874448 0.119341
O O9 0.276095 0.000000 0.088737
O O10 0.119483 0.869153 0.998049
O O11 0.474206 0.740483 0.772379
O O12 0.498978 0.774013 0.896206
O O13 0.750000 0.750000 0.000000
O O14 0.193787 0.771141 0.552120
O O15 0.217351 0.659953 0.640612
O O16 0.500000 0.356436 0.500000
O O17 0.377622 0.268641 0.348386
O O18 0.177814 0.841008 0.187317
O O19 0.000000 0.772350 0.000000
#
# Coordination Sequence:
#
# PCOD8090005 Si02
#       8
#     8   8   8   8   8   8   8   8
#     4  10  20  32  52  82 114 148 180 222 279 332
#     4  11  23  36  55  83 113 147 184 227 278 329
#     4  10  20  34  54  81 113 145 180 226 279 329
#     4   9  20  35  54  81 106 143 182 222 270 320
#     4  10  20  35  57  80 110 144 187 226 273 328
#     4  10  21  36  57  80 107 147 190 232 271 320
#     4  10  19  33  55  79 109 139 185 230 272 324
#     4  10  20  34  52  81 108 146 186 225 271 327
#
# _framework density 18.597346000000002
#
# number of rings (size 3 to 8) (size 9 to 14) (size 15 to 20)
#    0.000    2.000    2.500    1.125    1.750    1.500 
#    0.000    6.250    0.000    4.875    0.000    0.000 
#    0.000    0.000    0.000    0.000    0.000    0.000 
#
# Total GULP energy -396524.897895 kJ/mol
# GULP energy per Si atom -12391.403059 kJ/mol
# Density = 1.855502 g / cm^3
# Si number density = 18.597346 Si / 1000 Ang^3
#
#
#
# Elastic Constant Matrix: (Units=GPa)
#
#
# Indices 1 2 3 4 5 6 
#
# 1 127.8999 67.0587 17.5146 -0.0009 -16.3667 -0.0005
# 2 67.0587 83.7481 29.9733 -0.0012 -9.6808 -0.0003
# 3 17.5146 29.9733 76.9772 -0.0157 -4.9522 -0.0080
# 4 -0.0009 -0.0012 -0.0157 21.5626 -0.0040 1.8672
# 5 -16.3667 -9.6808 -4.9522 -0.0040 25.1119 -0.0008
# 6 -0.0005 -0.0003 -0.0080 1.8672 -0.0008 22.9563
#
#
#
# Elastic Compliance Matrix: (Units=1/GPa)
#
#
# Indices 1 2 3 4 5 6 
#
# 1 0.014211 -0.011318 0.001508 0.000002 0.005196 0.000001
# 2 -0.011318 0.023371 -0.006502 -0.000004 0.000351 -0.000002
# 3 0.001508 -0.006502 0.015275 0.000011 0.001488 0.000004
# 4 0.000002 -0.000004 0.000011 0.046706 0.000009 -0.003799
# 5 0.005196 0.000351 0.001488 0.000009 0.043637 0.000001
# 6 0.000001 -0.000002 0.000004 -0.003799 0.000001 0.043870
#
#
# Mechanical properties :
#
#
# Convention : Reuss Voigt Hill
#
# Bulk Modulus (GPa) = 49.42600 57.52425 53.47513
# Shear Modulus (GPa) = 22.08088 25.53139 23.80614
#
# Velocity S-wave (km/s) = 3.44948 3.70922 3.58171
# Velocity P-wave (km/s) = 6.51919 7.02446 6.77653
#
# Compressibility (1/GPa) = 0.02023227
#
# Stress axis : x y z
#
# Youngs Moduli (GPa) = 70.36648 42.78798 65.46464
#
# Poissons Ratio (x) = 0.48429 -0.09871
# Poissons Ratio (y) = 0.79643 0.42568
# Poissons Ratio (z) = -0.10610 0.27822
#
# Static dielectric constant tensor:
#      x y z
#    x 3.801600 0.000000 0.045410 
#    y 0.000000 3.302220 0.000000 
#    z 0.045410 0.000000 3.567860 
# 
# 
# High freq. dielectric constant tensor:
#      x y z
#    x 1.728260 0.000000 0.000870 
#    y 0.000000 1.689100 0.000000 
#    z 0.000870 0.000000 1.729800 
# 
# From -- ./inp_files/344062.got.cif
#   From: 2010.06.25/outbox.cif.g09.slc.cpg/sg12_173_cif.got.tgz:344062.got - 2010.06.28 00:19:55.
