data_PCOD8090732
_publ_section_title
;
Structure prediction by ZEFSAII (Michael W. Deem and Ramdas Pophale) SiO2 
 PCOD8090732
Probable space group: C 2/M
;
_chemical_formula_sum "Si O2"
_cell_formula_units_Z 44
_cell_length_a 13.277223
_cell_length_b 19.478195
_cell_length_c 9.053707
_cell_angle_alpha 90.000000
_cell_angle_beta 66.545604
_cell_angle_gamma 90.000000
_cell_volume 2147.980427
_symmetry_space_group_name_H-M "C 2/M"
_symmetry_group_IT_number 12
_symmetry_cell_setting 'monoclinic'
loop_
_space_group_symop_operation_xyz
x,y,z
-x,y,-z
-x,-y,-z
x,-y,z
1/2+x,1/2+y,z
1/2-x,1/2+y,-z
1/2-x,1/2-y,-z
1/2+x,1/2-y,z
loop_
_atom_site_type_symbol
_atom_site_label
_atom_site_fract_x
_atom_site_fract_y
_atom_site_fract_z
Si Si1 0.285024 0.079020 0.138825
Si Si2 0.966835 0.922041 0.688109
Si Si3 0.696026 0.923666 0.205128
Si Si4 0.000000 0.624310 0.500000
Si Si5 0.658293 0.332261 0.684205
Si Si6 0.654356 0.177643 0.652132
O O1 0.158062 0.101848 0.217000
O O2 0.358434 0.122473 0.209856
O O3 0.296846 0.000000 0.180020
O O4 0.332286 0.092864 0.948121
O O5 0.000000 0.917577 0.500000
O O6 0.041979 0.869811 0.736045
O O7 0.983475 0.000000 0.736990
O O8 0.585602 0.923866 0.365731
O O9 0.780810 0.867671 0.214574
O O10 0.748083 0.000000 0.187018
O O11 0.059274 0.672604 0.585152
O O12 0.644110 0.252386 0.731789
O O13 0.727922 0.337065 0.492359
#
# Coordination Sequence:
#
# PCOD8090732 Si02
#       6
#     8   8   8   4   8   8
#     4  10  22  39  60  87 118 148 194 247 291 340
#     4  10  19  33  59  89 114 149 188 232 287 346
#     4  10  22  40  60  86 117 152 193 243 290 341
#     4  10  23  40  60  82 113 154 200 240 287 346
#     4  10  21  36  60  86 120 155 190 234 286 355
#     4  10  22  38  59  86 116 157 195 240 285 340
#
# _framework density 20.484359000000001
#
# number of rings (size 3 to 8) (size 9 to 14) (size 15 to 20)
#    0.000    2.000    1.818    0.818    1.273    7.273 
#    0.000    6.364    0.000    0.000    0.000    0.000 
#    0.000    0.000    0.000    0.000    0.000    0.000 
#
# Total GULP energy -272850.943637 kJ/mol
# GULP energy per Si atom -12402.315620 kJ/mol
# Density = 2.043774 g / cm^3
# Si number density = 20.484359 Si / 1000 Ang^3
#
#
#
# Elastic Constant Matrix: (Units=GPa)
#
#
# Indices 1 2 3 4 5 6 
#
# 1 111.7757 63.3269 40.9760 0.0000 18.3212 0.0000
# 2 63.3269 138.6301 48.9182 0.0000 30.3802 0.0000
# 3 40.9760 48.9182 92.9933 0.0000 16.7110 0.0000
# 4 0.0000 0.0000 0.0000 25.0109 0.0000 7.7360
# 5 18.3212 30.3802 16.7110 0.0000 26.0228 0.0000
# 6 0.0000 0.0000 0.0000 7.7360 0.0000 27.9320
#
#
#
# Elastic Compliance Matrix: (Units=1/GPa)
#
#
# Indices 1 2 3 4 5 6 
#
# 1 0.012854 -0.004370 -0.003002 0.000000 -0.002021 0.000000
# 2 -0.004370 0.012279 -0.002838 0.000000 -0.009436 0.000000
# 3 -0.003002 -0.002838 0.014237 0.000000 -0.003715 0.000000
# 4 0.000000 0.000000 0.000000 0.043729 0.000000 -0.012111
# 5 -0.002021 -0.009436 -0.003715 0.000000 0.053252 0.000000
# 6 0.000000 0.000000 0.000000 -0.012111 0.000000 0.039156
#
#
# Mechanical properties :
#
#
# Convention : Reuss Voigt Hill
#
# Bulk Modulus (GPa) = 52.77072 72.20457 62.48765
# Shear Modulus (GPa) = 24.72283 28.47167 26.59725
#
# Velocity S-wave (km/s) = 3.47783 3.73221 3.60727
# Velocity P-wave (km/s) = 6.47646 7.34150 6.92251
#
# Compressibility (1/GPa) = 0.01894990
#
# Stress axis : x y z
#
# Youngs Moduli (GPa) = 77.79789 81.44126 70.23964
#
# Poissons Ratio (x) = 0.35586 0.21087
# Poissons Ratio (y) = 0.33994 0.19935
# Poissons Ratio (z) = 0.23356 0.23114
#
# Static dielectric constant tensor:
#      x y z
#    x 3.637260 0.000000 -0.085260 
#    y 0.000000 3.640120 0.000000 
#    z -0.085260 0.000000 3.651880 
# 
# 
# High freq. dielectric constant tensor:
#      x y z
#    x 1.794740 0.000000 0.002230 
#    y 0.000000 1.799370 0.000000 
#    z 0.002230 0.000000 1.794290 
# 
# From -- ./inp_files/49193.got.cif
#   From: 2010.06.25/outbox.cif.g09.slc.cpg/sg12_25_cif.got.tgz:49193.got - 2010.06.28 00:19:55.
