data_PCOD8090780
_publ_section_title
;
Structure prediction by ZEFSAII (Michael W. Deem and Ramdas Pophale) SiO2 
 PCOD8090780
Probable space group: C 2/M
;
_chemical_formula_sum "Si O2"
_cell_formula_units_Z 56
_cell_length_a 18.545733
_cell_length_b 24.472414
_cell_length_c 10.609916
_cell_angle_alpha 90.000000
_cell_angle_beta 138.031816
_cell_angle_gamma 90.000000
_cell_volume 3220.146784
_symmetry_space_group_name_H-M "C 2/M"
_symmetry_group_IT_number 12
_symmetry_cell_setting 'monoclinic'
loop_
_space_group_symop_operation_xyz
x,y,z
-x,y,-z
-x,-y,-z
x,-y,z
1/2+x,1/2+y,z
1/2-x,1/2+y,-z
1/2-x,1/2-y,-z
1/2+x,1/2-y,z
loop_
_atom_site_type_symbol
_atom_site_label
_atom_site_fract_x
_atom_site_fract_y
_atom_site_fract_z
Si Si1 0.588271 0.438226 0.008170
Si Si2 0.215338 0.689154 0.989531
Si Si3 0.730899 0.337211 0.198815
Si Si4 0.044995 0.940083 0.415723
Si Si5 0.448279 0.756744 0.065021
Si Si6 0.662934 0.758216 0.492335
Si Si7 0.620130 0.663142 0.610509
O O1 0.631855 0.500000 0.077248
O O2 0.542535 0.428837 0.807164
O O3 0.500000 0.426478 0.000000
O O4 0.686754 0.397782 0.166656
O O5 0.193742 0.660087 0.827904
O O6 0.114757 0.691944 0.954994
O O7 0.250000 0.750000 0.000000
O O8 0.310333 0.652783 0.174155
O O9 0.811088 0.317861 0.414825
O O10 0.626962 0.296617 0.049431
O O11 0.127484 0.888991 0.524188
O O12 0.000000 0.938675 0.500000
O O13 0.098538 0.000000 0.461087
O O14 0.544212 0.745928 0.287610
O O15 0.500000 0.775137 0.000000
O O16 0.750000 0.750000 0.500000
O O17 0.680180 0.714364 0.625164
O O18 0.500000 0.677549 0.500000
#
# Coordination Sequence:
#
# PCOD8090780 Si02
#       7
#     8   8   8   8   8   8   8
#     4  10  21  36  54  79 113 148 178 223 278 327
#     4  10  19  34  47  74 107 145 181 215 266 319
#     4  11  21  35  53  78 110 143 180 216 268 331
#     4   9  18  32  52  78 105 140 182 218 266 323
#     4  11  20  35  49  72 114 141 173 224 260 322
#     4  12  23  32  50  77 103 146 184 215 273 326
#     4  11  19  32  53  75 108 143 176 220 264 322
#
# _framework density 17.390511
#
# number of rings (size 3 to 8) (size 9 to 14) (size 15 to 20)
#    0.000    1.429    4.286    4.714    2.000    0.000 
#    0.000    0.000    0.000    0.000    0.000    3.000 
#    0.000    4.000    0.000    0.000    0.000    0.000 
#
# Total GULP energy -346884.774139 kJ/mol
# GULP energy per Si atom -12388.741934 kJ/mol
# Density = 1.735093 g / cm^3
# Si number density = 17.390511 Si / 1000 Ang^3
#
#
#
# Elastic Constant Matrix: (Units=GPa)
#
#
# Indices 1 2 3 4 5 6 
#
# 1 109.0800 23.1046 9.9198 0.0000 -7.4119 0.0000
# 2 23.1046 91.9354 12.0386 0.0000 -0.9140 0.0000
# 3 9.9198 12.0386 63.7415 0.0000 -7.8810 0.0000
# 4 0.0000 0.0000 0.0000 32.4286 0.0000 1.6343
# 5 -7.4119 -0.9140 -7.8810 0.0000 27.2493 0.0000
# 6 0.0000 0.0000 0.0000 1.6343 0.0000 20.2052
#
#
#
# Elastic Compliance Matrix: (Units=1/GPa)
#
#
# Indices 1 2 3 4 5 6 
#
# 1 0.009902 -0.002360 -0.000801 0.000000 0.002383 0.000000
# 2 -0.002360 0.011717 -0.001946 0.000000 -0.000812 0.000000
# 3 -0.000801 -0.001946 0.016744 0.000000 0.004560 0.000000
# 4 0.000000 0.000000 0.000000 0.030963 0.000000 -0.002504
# 5 0.002383 -0.000812 0.004560 0.000000 0.038638 0.000000
# 6 0.000000 0.000000 0.000000 -0.002504 0.000000 0.049695
#
#
# Mechanical properties :
#
#
# Convention : Reuss Voigt Hill
#
# Bulk Modulus (GPa) = 35.52401 39.43145 37.47773
# Shear Modulus (GPa) = 28.20777 30.62289 29.41533
#
# Velocity S-wave (km/s) = 4.03180 4.20086 4.11720
# Velocity P-wave (km/s) = 6.49195 6.80095 6.64825
#
# Compressibility (1/GPa) = 0.02814998
#
# Stress axis : x y z
#
# Youngs Moduli (GPa) = 100.98786 85.34560 59.72192
#
# Poissons Ratio (x) = 0.20142 0.04782
# Poissons Ratio (y) = 0.23833 0.11622
# Poissons Ratio (z) = 0.08086 0.16609
#
# Static dielectric constant tensor:
#      x y z
#    x 8.583340 0.000000 12.370920 
#    y 0.000000 3.384490 0.000000 
#    z 12.370920 0.000000 34.273250 
# 
# 
# High freq. dielectric constant tensor:
#      x y z
#    x 1.678590 0.000000 -0.031800 
#    y 0.000000 1.646720 0.000000 
#    z -0.031800 0.000000 1.660050 
# 
# From -- ./inp_files/160330.got.cif
#   From: 2010.06.25/outbox.cif.g09.slc.cpg/sg12_81_cif.got.tgz:160330.got - 2010.06.28 00:19:55.
