data_PCOD8090761
_publ_section_title
;
Structure prediction by ZEFSAII (Michael W. Deem and Ramdas Pophale) SiO2 
 PCOD8090761
Probable space group: C 2/M
;
_chemical_formula_sum "Si O2"
_cell_formula_units_Z 56
_cell_length_a 14.895932
_cell_length_b 13.496095
_cell_length_c 28.040305
_cell_angle_alpha 90.000000
_cell_angle_beta 27.712719
_cell_angle_gamma 90.000000
_cell_volume 2621.485900
_symmetry_space_group_name_H-M "C 2/M"
_symmetry_group_IT_number 12
_symmetry_cell_setting 'monoclinic'
loop_
_space_group_symop_operation_xyz
x,y,z
-x,y,-z
-x,-y,-z
x,-y,z
1/2+x,1/2+y,z
1/2-x,1/2+y,-z
1/2-x,1/2-y,-z
1/2+x,1/2-y,z
loop_
_atom_site_type_symbol
_atom_site_label
_atom_site_fract_x
_atom_site_fract_y
_atom_site_fract_z
Si Si1 0.027986 0.296785 0.089195
Si Si2 0.042071 0.740981 0.620162
Si Si3 0.680923 0.610963 0.208225
Si Si4 0.180597 0.743062 0.724041
Si Si5 0.386166 0.387528 0.099836
Si Si6 0.553451 0.112275 0.699956
Si Si7 0.629207 0.386300 0.125574
O O1 0.899180 0.378747 0.123550
O O2 0.975281 0.315098 0.169402
O O3 0.945191 0.186833 0.114563
O O4 0.253367 0.318805 0.969407
O O5 0.250000 0.750000 0.500000
O O6 0.061779 0.638162 0.639696
O O7 0.977566 0.821707 0.690243
O O8 0.893040 0.746451 0.646296
O O9 0.604569 0.500000 0.251189
O O10 0.714049 0.636909 0.137434
O O11 0.183835 0.685041 0.671976
O O12 0.094777 0.854621 0.762993
O O13 0.428307 0.500000 0.097549
O O14 0.169869 0.375283 0.182475
O O15 0.500000 0.356116 0.000000
O O16 0.628079 0.000000 0.672183
O O17 0.643529 0.500000 0.103248
#
# Coordination Sequence:
#
# PCOD8090761 Si02
#       7
#     8   8   8   8   8   8   8
#     4  11  20  35  60  93 134 174 216 257 309 387
#     4  11  25  46  70  93 124 167 218 282 342 393
#     4  10  20  38  62  89 126 165 209 263 319 378
#     4  11  23  41  64  95 130 173 214 272 323 393
#     4  10  19  33  60  94 133 180 219 259 317 389
#     4  11  23  44  68  98 135 174 217 272 331 394
#     4  11  22  36  60  92 132 173 214 257 314 387
#
# _framework density 21.361930999999998
#
# number of rings (size 3 to 8) (size 9 to 14) (size 15 to 20)
#    0.000    1.286    4.286    3.000    0.000    6.286 
#    0.000    2.143    0.000    1.714    0.000    0.000 
#    0.000    0.000    0.000    0.000    0.000    0.000 
#
# Total GULP energy -346951.993874 kJ/mol
# GULP energy per Si atom -12391.142638 kJ/mol
# Density = 2.131331 g / cm^3
# Si number density = 21.361931 Si / 1000 Ang^3
#
#
#
# Elastic Constant Matrix: (Units=GPa)
#
#
# Indices 1 2 3 4 5 6 
#
# 1 97.4582 31.6193 16.0186 0.0038 -11.2317 -0.0020
# 2 31.6193 93.1949 22.2732 0.0074 3.5091 -0.0004
# 3 16.0186 22.2732 90.4385 0.0217 -15.0537 -0.0078
# 4 0.0038 0.0074 0.0217 11.6238 -0.0060 3.3054
# 5 -11.2317 3.5091 -15.0537 -0.0060 25.5444 -0.0005
# 6 -0.0020 -0.0004 -0.0078 3.3054 -0.0005 12.5766
#
#
#
# Elastic Compliance Matrix: (Units=1/GPa)
#
#
# Indices 1 2 3 4 5 6 
#
# 1 0.012399 -0.004405 -0.000114 0.000002 0.005989 0.000002
# 2 -0.004405 0.013268 -0.003452 -0.000003 -0.005794 -0.000002
# 3 -0.000114 -0.003452 0.013303 -0.000022 0.008264 0.000014
# 4 0.000002 -0.000003 -0.000022 0.092980 0.000009 -0.024437
# 5 0.005989 -0.005794 0.008264 0.000009 0.047447 0.000005
# 6 0.000002 -0.000002 0.000014 -0.024437 0.000005 0.085935
#
#
# Mechanical properties :
#
#
# Convention : Reuss Voigt Hill
#
# Bulk Modulus (GPa) = 43.42563 46.76821 45.09692
# Shear Modulus (GPa) = 17.30404 24.02765 20.66585
#
# Velocity S-wave (km/s) = 2.84921 3.35742 3.11370
# Velocity P-wave (km/s) = 5.58540 6.08034 5.83811
#
# Compressibility (1/GPa) = 0.02302788
#
# Stress axis : x y z
#
# Youngs Moduli (GPa) = 80.65161 75.37032 75.17052
#
# Poissons Ratio (x) = 0.33200 0.00859
# Poissons Ratio (y) = 0.35527 0.25947
# Poissons Ratio (z) = 0.00922 0.26016
#
# Static dielectric constant tensor:
#      x y z
#    x 4.057510 0.000000 0.074230 
#    y 0.000000 3.961990 0.000080 
#    z 0.074230 0.000080 3.466510 
# 
# 
# High freq. dielectric constant tensor:
#      x y z
#    x 1.855020 0.000000 0.003980 
#    y 0.000000 1.836490 0.000000 
#    z 0.003980 0.000000 1.812510 
# 
# From -- ./inp_files/361379.got.cif
#   From: 2010.06.25/outbox.cif.g09.slc.cpg/sg12_181_cif.got.tgz:361379.got - 2010.06.28 00:19:55.
