data_PCOD8090020
_publ_section_title
;
Structure prediction by ZEFSAII (Michael W. Deem and Ramdas Pophale) SiO2 
 PCOD8090020
Probable space group: C 2/M
;
_chemical_formula_sum "Si O2"
_cell_formula_units_Z 56
_cell_length_a 8.960239
_cell_length_b 18.791359
_cell_length_c 22.498943
_cell_angle_alpha 90.000000
_cell_angle_beta 53.317816
_cell_angle_gamma 90.000000
_cell_volume 3038.039273
_symmetry_space_group_name_H-M "C 2/M"
_symmetry_group_IT_number 12
_symmetry_cell_setting 'monoclinic'
loop_
_space_group_symop_operation_xyz
x,y,z
-x,y,-z
-x,-y,-z
x,-y,z
1/2+x,1/2+y,z
1/2-x,1/2+y,-z
1/2-x,1/2-y,-z
1/2+x,1/2-y,z
loop_
_atom_site_type_symbol
_atom_site_label
_atom_site_fract_x
_atom_site_fract_y
_atom_site_fract_z
Si Si1 0.540347 0.676090 0.423717
Si Si2 0.083966 0.673178 0.160588
Si Si3 0.565725 0.326824 0.839413
Si Si4 0.753190 0.081924 0.715917
Si Si5 0.188504 0.676091 0.423717
Si Si6 0.171828 0.176054 1.000000
Si Si7 0.900943 0.081924 0.284083
O O1 0.500000 0.649510 0.500000
O O2 0.668488 0.617440 0.362352
O O3 0.347176 0.687409 0.435216
O O4 0.653046 0.749999 0.397970
O O5 0.242028 0.684154 0.171983
O O6 0.169624 0.638602 0.078633
O O7 0.992091 0.750001 0.171941
O O8 0.938363 0.617058 0.219398
O O9 0.596555 0.382945 0.780603
O O10 0.405522 0.361399 0.921368
O O11 0.896869 0.091844 0.735421
O O12 0.716231 0.000000 0.709897
O O13 0.244457 0.617443 0.362351
O O14 0.000000 0.649512 0.500000
O O15 0.250000 0.250000 0.000000
O O16 0.000000 0.194220 0.000000
O O17 0.845919 0.000000 0.290107
#
# Coordination Sequence:
#
# PCOD8090020 Si02
#       7
#     8   8   8   8   8   8   8
#     4  10  20  35  56  79 103 132 168 212 258 305
#     4  10  19  33  55  80 105 136 174 216 261 309
#     4  10  19  33  55  80 105 136 174 216 261 309
#     4  10  22  38  53  74 107 142 175 214 259 306
#     4  10  20  35  56  79 103 132 168 212 258 305
#     4   8  16  30  49  76 105 131 167 215 261 304
#     4  10  22  38  53  74 107 142 175 214 259 306
#
# _framework density 18.432941
#
# number of rings (size 3 to 8) (size 9 to 14) (size 15 to 20)
#    0.000    2.286    0.000    3.429    0.000    6.857 
#    0.000    0.714    0.000    4.286    0.000    0.000 
#    0.000    0.000    0.000    0.000    0.000    0.000 
#
# Total GULP energy -347022.557742 kJ/mol
# GULP energy per Si atom -12393.662776 kJ/mol
# Density = 1.839099 g / cm^3
# Si number density = 18.432941 Si / 1000 Ang^3
#
#
#
# Elastic Constant Matrix: (Units=GPa)
#
#
# Indices 1 2 3 4 5 6 
#
# 1 90.2030 57.0186 78.6121 -0.0003 2.4847 -0.0004
# 2 57.0186 118.3628 94.7408 -0.0004 1.9998 -0.0001
# 3 78.6121 94.7408 166.1196 -0.0005 1.5381 0.0003
# 4 -0.0003 -0.0004 -0.0005 -4.0066 0.0003 -1.4512
# 5 2.4847 1.9998 1.5381 0.0003 29.2029 -0.0002
# 6 -0.0004 -0.0001 0.0003 -1.4512 -0.0002 23.4220
#
#
#
# Elastic Compliance Matrix: (Units=1/GPa)
#
#
# Indices 1 2 3 4 5 6 
#
# 1 0.019758 -0.003724 -0.007216 0.000000 -0.001046 0.000000
# 2 -0.003724 0.016257 -0.007506 -0.000001 -0.000401 0.000000
# 3 -0.007216 -0.007506 0.013712 0.000000 0.000406 0.000000
# 4 0.000000 -0.000001 0.000000 -0.244110 0.000003 -0.015125
# 5 -0.001046 -0.000401 0.000406 0.000003 0.034338 0.000000
# 6 0.000000 0.000000 0.000000 -0.015125 0.000000 0.041758
#
#
# Mechanical properties :
#
#
# Convention : Reuss Voigt Hill
#
# Bulk Modulus (GPa) = 77.91537 92.82535 85.37036
# Shear Modulus (GPa) = -64.83671 19.34459 -22.74606
#
# Velocity S-wave (km/s) = -5.93723 3.24305 -3.51663
# Velocity P-wave (km/s) = 2.15397 8.03062 5.47043
#
# Compressibility (1/GPa) = 0.01283444
#
# Stress axis : x y z
#
# Youngs Moduli (GPa) = 50.61206 61.51162 72.93099
#
# Poissons Ratio (x) = 0.22908 0.52630
# Poissons Ratio (y) = 0.18849 0.54739
# Poissons Ratio (z) = 0.36524 0.46168
#
# Static dielectric constant tensor:
#      x y z
#    x 3.485460 0.000000 0.035510 
#    y 0.000000 3.137600 0.000000 
#    z 0.035510 0.000000 4.156340 
# 
# 
# High freq. dielectric constant tensor:
#      x y z
#    x 1.725170 0.000000 0.000740 
#    y 0.000000 1.686010 0.000000 
#    z 0.000740 0.000000 1.739100 
# 
# From -- ./inp_files/333323.got.cif
#   From: 2010.06.25/outbox.cif.g09.slc.cpg/sg12_167_cif.got.tgz:333323.got - 2010.06.28 00:19:55.
