data_PCOD8090611
_publ_section_title
;
Structure prediction by ZEFSAII (Michael W. Deem and Ramdas Pophale) SiO2 
 PCOD8090611
Probable space group: C 2/M
;
_chemical_formula_sum "Si O2"
_cell_formula_units_Z 56
_cell_length_a 19.957178
_cell_length_b 9.037251
_cell_length_c 17.335823
_cell_angle_alpha 90.000000
_cell_angle_beta 108.565492
_cell_angle_gamma 90.000000
_cell_volume 2963.944777
_symmetry_space_group_name_H-M "C 2/M"
_symmetry_group_IT_number 12
_symmetry_cell_setting 'monoclinic'
loop_
_space_group_symop_operation_xyz
x,y,z
-x,y,-z
-x,-y,-z
x,-y,z
1/2+x,1/2+y,z
1/2-x,1/2+y,-z
1/2-x,1/2-y,-z
1/2+x,1/2-y,z
loop_
_atom_site_type_symbol
_atom_site_label
_atom_site_fract_x
_atom_site_fract_y
_atom_site_fract_z
Si Si1 0.307167 0.828727 0.265502
Si Si2 0.688270 0.671951 0.577735
Si Si3 0.649006 0.329310 0.160095
Si Si4 0.154115 0.329213 0.416445
Si Si5 0.819997 0.829714 0.998505
Si Si6 0.449069 0.174272 0.758233
Si Si7 0.902806 0.828354 0.179305
O O1 0.336080 0.759617 0.355360
O O2 0.223183 0.807414 0.230426
O O3 0.340836 0.743479 0.206425
O O4 0.329001 0.000000 0.269732
O O5 0.672234 0.500000 0.583885
O O6 0.770572 0.704441 0.594212
O O7 0.643129 0.730943 0.488742
O O8 0.625111 0.500000 0.153066
O O9 0.589520 0.233846 0.180060
O O10 0.653957 0.268690 0.074429
O O11 0.148405 0.500000 0.438454
O O12 0.094617 0.282709 0.333930
O O13 0.883134 0.807066 0.082411
O O14 0.798768 0.000000 0.980899
O O15 0.750000 0.750000 0.000000
O O16 0.524684 0.247499 0.776079
O O17 0.457552 0.000000 0.770011
O O18 0.909658 0.000000 0.203522
#
# Coordination Sequence:
#
# PCOD8090611 Si02
#       7
#     8   8   8   8   8   8   8
#     4  11  21  36  60  88 118 153 195 240 287 346
#     4  10  19  33  57  88 118 148 191 241 288 342
#     4  10  21  37  60  87 116 152 195 240 289 344
#     4   9  19  35  55  83 117 152 190 236 289 342
#     4  10  21  38  60  87 117 151 194 244 291 341
#     4  11  23  40  60  85 120 157 195 239 289 348
#     4  11  24  40  60  85 119 157 194 241 295 348
#
# _framework density 18.893737999999999
#
# number of rings (size 3 to 8) (size 9 to 14) (size 15 to 20)
#    0.000    1.714    2.857    1.714    0.000    4.000 
#    0.000    3.571    0.000    4.286    0.000    0.000 
#    0.000    0.000    0.000    0.000    0.000    0.000 
#
# Total GULP energy -347331.835560 kJ/mol
# GULP energy per Si atom -12404.708413 kJ/mol
# Density = 1.885074 g / cm^3
# Si number density = 18.893738 Si / 1000 Ang^3
#
#
#
# Elastic Constant Matrix: (Units=GPa)
#
#
# Indices 1 2 3 4 5 6 
#
# 1 39.8425 21.5728 9.6506 0.0000 4.1174 0.0000
# 2 21.5728 81.3429 43.4043 0.0000 -2.7746 0.0000
# 3 9.6506 43.4043 104.7209 0.0000 -8.8593 0.0000
# 4 0.0000 0.0000 0.0000 32.4372 0.0000 -3.8170
# 5 4.1174 -2.7746 -8.8593 0.0000 29.8501 0.0000
# 6 0.0000 0.0000 0.0000 -3.8170 0.0000 35.7742
#
#
#
# Elastic Compliance Matrix: (Units=1/GPa)
#
#
# Indices 1 2 3 4 5 6 
#
# 1 0.030008 -0.008255 0.000247 0.000000 -0.004833 0.000000
# 2 -0.008255 0.018063 -0.006654 0.000000 0.000843 0.000000
# 3 0.000247 -0.006654 0.012544 0.000000 0.003070 0.000000
# 4 0.000000 0.000000 0.000000 0.031221 0.000000 0.003331
# 5 -0.004833 0.000843 0.003070 0.000000 0.035157 0.000000
# 6 0.000000 0.000000 0.000000 0.003331 0.000000 0.028309
#
#
# Mechanical properties :
#
#
# Convention : Reuss Voigt Hill
#
# Bulk Modulus (GPa) = 31.95884 41.68462 36.82173
# Shear Modulus (GPa) = 25.63366 29.69755 27.66560
#
# Velocity S-wave (km/s) = 3.68737 3.96892 3.83073
# Velocity P-wave (km/s) = 5.92290 6.56610 6.25278
#
# Compressibility (1/GPa) = 0.03129025
#
# Stress axis : x y z
#
# Youngs Moduli (GPa) = 33.32424 55.36331 79.71769
#
# Poissons Ratio (x) = 0.45704 -0.01971
# Poissons Ratio (y) = 0.27510 0.53048
# Poissons Ratio (z) = -0.00824 0.36841
#
# Static dielectric constant tensor:
#      x y z
#    x 3.215480 0.000000 -0.050760 
#    y 0.000000 3.518150 0.000000 
#    z -0.050760 0.000000 3.643040 
# 
# 
# High freq. dielectric constant tensor:
#      x y z
#    x 1.713830 0.000000 -0.006890 
#    y 0.000000 1.741160 0.000000 
#    z -0.006890 0.000000 1.748010 
# 
# From -- ./inp_files/275151.got.cif
#   From: 2010.06.25/outbox.cif.g09.slc.cpg/sg12_138_cif.got.tgz:275151.got - 2010.06.28 00:19:55.
