data_PCOD8090245
_publ_section_title
;
Structure prediction by ZEFSAII (Michael W. Deem and Ramdas Pophale) SiO2 
 PCOD8090245
Probable space group: C 2/M
;
_chemical_formula_sum "Si O2"
_cell_formula_units_Z 64
_cell_length_a 15.104923
_cell_length_b 8.852298
_cell_length_c 33.436995
_cell_angle_alpha 90.000000
_cell_angle_beta 134.272789
_cell_angle_gamma 90.000000
_cell_volume 3201.323556
_symmetry_space_group_name_H-M "C 2/M"
_symmetry_group_IT_number 12
_symmetry_cell_setting 'monoclinic'
loop_
_space_group_symop_operation_xyz
x,y,z
-x,y,-z
-x,-y,-z
x,-y,z
1/2+x,1/2+y,z
1/2-x,1/2+y,-z
1/2-x,1/2-y,-z
1/2+x,1/2-y,z
loop_
_atom_site_type_symbol
_atom_site_label
_atom_site_fract_x
_atom_site_fract_y
_atom_site_fract_z
Si Si1 0.892646 0.834376 0.498220
Si Si2 0.040775 0.679109 0.685981
Si Si3 0.607515 0.822207 0.004343
Si Si4 0.649868 0.674555 0.875037
Si Si5 0.706209 0.178025 0.812651
Si Si6 0.096690 0.179712 0.621108
Si Si7 0.274991 0.678111 0.612483
Si Si8 0.982248 0.825014 0.893145
O O1 0.790106 0.716220 0.450714
O O2 0.000000 0.849107 0.500000
O O3 0.959943 0.781006 0.560237
O O4 0.830534 0.000000 0.484203
O O5 0.018988 0.500000 0.677046
O O6 0.913646 0.763772 0.654436
O O7 0.132911 0.727794 0.750262
O O8 0.105656 0.737281 0.666165
O O9 0.582859 0.752178 0.953310
O O10 0.611632 0.000000 0.000080
O O11 0.500000 0.768786 0.000000
O O12 0.735413 0.760900 0.062997
O O13 0.673452 0.500000 0.872468
O O14 0.634463 0.761553 0.828679
O O15 0.524784 0.699500 0.860769
O O16 0.845444 0.245932 0.854933
O O17 0.713253 0.000000 0.817445
O O18 0.205454 0.240897 0.627077
O O19 0.112915 0.000000 0.630751
O O20 0.272245 0.500000 0.618334
O O21 0.981515 0.000000 0.904069
#
# Coordination Sequence:
#
# PCOD8090245 Si02
#       8
#     8   8   8   8   8   8   8   8
#     4   8  16  33  57  85 119 154 188 233 288 348
#     4  11  24  41  59  82 115 154 200 250 296 348
#     4  10  19  33  55  85 119 150 183 223 275 338
#     4  10  21  37  58  84 115 150 185 228 281 340
#     4  10  23  41  58  80 110 145 190 241 287 334
#     4  10  21  39  62  89 120 154 193 238 293 353
#     4  11  22  37  60  89 119 154 195 239 292 352
#     4  10  21  37  58  84 112 145 187 232 282 335
#
# _framework density 19.991731999999999
#
# number of rings (size 3 to 8) (size 9 to 14) (size 15 to 20)
#    0.000    2.000    1.250    3.000    0.000    6.500 
#    0.000    1.250    0.000    0.000    0.000    0.000 
#    0.000    0.000    0.000    0.000    0.000    0.000 
#
# Total GULP energy -396815.363516 kJ/mol
# GULP energy per Si atom -12400.480110 kJ/mol
# Density = 1.994623 g / cm^3
# Si number density = 19.991732 Si / 1000 Ang^3
#
#
#
# Elastic Constant Matrix: (Units=GPa)
#
#
# Indices 1 2 3 4 5 6 
#
# 1 51.3819 6.8143 5.2578 0.0000 -4.8275 0.0000
# 2 6.8143 45.4283 20.4809 0.0000 0.5809 0.0000
# 3 5.2578 20.4809 88.9169 0.0000 -13.4917 0.0000
# 4 0.0000 0.0000 0.0000 27.2741 0.0000 -4.2805
# 5 -4.8275 0.5809 -13.4917 0.0000 27.7008 0.0000
# 6 0.0000 0.0000 0.0000 -4.2805 0.0000 30.4333
#
#
#
# Elastic Compliance Matrix: (Units=1/GPa)
#
#
# Indices 1 2 3 4 5 6 
#
# 1 0.020207 -0.003109 0.000071 0.000000 0.003621 0.000000
# 2 -0.003109 0.025366 -0.006286 0.000000 -0.004136 0.000000
# 3 0.000071 -0.006286 0.013727 0.000000 0.006830 0.000000
# 4 0.000000 0.000000 0.000000 0.037492 0.000000 0.005273
# 5 0.003621 -0.004136 0.006830 0.000000 0.040144 0.000000
# 6 0.000000 0.000000 0.000000 0.005273 0.000000 0.033600
#
#
# Mechanical properties :
#
#
# Convention : Reuss Voigt Hill
#
# Bulk Modulus (GPa) = 24.60014 27.87034 26.23524
# Shear Modulus (GPa) = 24.66244 27.29325 25.97785
#
# Velocity S-wave (km/s) = 3.51612 3.69891 3.60867
# Velocity P-wave (km/s) = 5.36805 5.67571 5.52403
#
# Compressibility (1/GPa) = 0.04065018
#
# Stress axis : x y z
#
# Youngs Moduli (GPa) = 49.48669 39.42259 72.85140
#
# Poissons Ratio (x) = 0.12258 -0.00516
# Poissons Ratio (y) = 0.15387 0.45798
# Poissons Ratio (z) = -0.00350 0.24783
#
# Static dielectric constant tensor:
#      x y z
#    x 3.602640 0.000000 0.016720 
#    y 0.000000 3.514990 0.000000 
#    z 0.016720 0.000000 3.896670 
# 
# 
# High freq. dielectric constant tensor:
#      x y z
#    x 1.782110 0.000000 -0.003400 
#    y 0.000000 1.772590 0.000000 
#    z -0.003400 0.000000 1.779990 
# 
# From -- ./inp_files/375650.got.cif
#   From: 2010.06.25/outbox.cif.g09.slc.cpg/sg12_188_cif.got.tgz:375650.got - 2010.06.28 00:19:55.
