data_PCOD8090057
_publ_section_title
;
Structure prediction by ZEFSAII (Michael W. Deem and Ramdas Pophale) SiO2 
 PCOD8090057
Probable space group: C 2/M
;
_chemical_formula_sum "Si O2"
_cell_formula_units_Z 56
_cell_length_a 19.621407
_cell_length_b 8.926566
_cell_length_c 17.367038
_cell_angle_alpha 90.000000
_cell_angle_beta 117.136570
_cell_angle_gamma 90.000000
_cell_volume 2707.024573
_symmetry_space_group_name_H-M "C 2/M"
_symmetry_group_IT_number 12
_symmetry_cell_setting 'monoclinic'
loop_
_space_group_symop_operation_xyz
x,y,z
-x,y,-z
-x,-y,-z
x,-y,z
1/2+x,1/2+y,z
1/2-x,1/2+y,-z
1/2-x,1/2-y,-z
1/2+x,1/2-y,z
loop_
_atom_site_type_symbol
_atom_site_label
_atom_site_fract_x
_atom_site_fract_y
_atom_site_fract_z
Si Si1 0.927529 0.674611 0.175766
Si Si2 0.960287 0.162923 0.668762
Si Si3 0.184373 0.676877 0.743877
Si Si4 0.683624 0.825232 0.418185
Si Si5 0.066706 0.164097 0.586949
Si Si6 0.508921 0.676136 0.093028
Si Si7 0.834409 0.675782 0.770787
O O1 0.926067 0.500000 0.158390
O O2 0.858549 0.720100 0.197873
O O3 0.010855 0.719983 0.252541
O O4 0.931279 0.762268 0.096110
O O5 0.891768 0.243375 0.587485
O O6 0.030668 0.131579 0.650315
O O7 0.935482 0.000000 0.691028
O O8 0.193881 0.500000 0.742317
O O9 0.138970 0.729649 0.642558
O O10 0.266544 0.755967 0.788351
O O11 0.750000 0.750000 0.500000
O O12 0.687015 0.789986 0.329054
O O13 0.681330 0.000000 0.435158
O O14 0.000000 0.239508 0.500000
O O15 0.092269 0.000000 0.565238
O O16 0.513040 0.500000 0.107624
O O17 0.586663 0.747948 0.165244
O O18 0.500000 0.720984 0.000000
O O19 0.839793 0.500000 0.789482
#
# Coordination Sequence:
#
# PCOD8090057 Si02
#       7
#     8   8   8   8   8   8   8
#     4  10  20  38  62  89 121 158 199 243 296 361
#     4  10  19  33  55  80 111 154 199 248 300 351
#     4  10  22  38  59  87 120 159 202 251 306 360
#     4  11  24  38  55  82 118 160 206 254 306 364
#     4   9  19  34  52  77 112 154 202 251 298 355
#     4  11  24  42  68  99 126 156 199 250 306 370
#     4  11  24  42  64  90 124 163 207 256 308 369
#
# _framework density 20.686919
#
# number of rings (size 3 to 8) (size 9 to 14) (size 15 to 20)
#    0.000    1.714    1.429    2.571    2.000    5.429 
#    0.000    0.714    0.000    0.000    0.000    0.000 
#    0.000    0.000    0.000    0.000    0.000    0.000 
#
# Total GULP energy -346935.457071 kJ/mol
# GULP energy per Si atom -12390.552038 kJ/mol
# Density = 2.063983 g / cm^3
# Si number density = 20.686919 Si / 1000 Ang^3
#
#
#
# Elastic Constant Matrix: (Units=GPa)
#
#
# Indices 1 2 3 4 5 6 
#
# 1 82.7805 44.2320 25.4797 0.0000 6.9034 0.0000
# 2 44.2320 104.8023 29.6601 0.0000 -4.6608 0.0000
# 3 25.4797 29.6601 70.8954 0.0000 -11.0156 0.0000
# 4 0.0000 0.0000 0.0000 29.0613 0.0000 0.4859
# 5 6.9034 -4.6608 -11.0156 0.0000 17.1446 0.0000
# 6 0.0000 0.0000 0.0000 0.4859 0.0000 32.7320
#
#
#
# Elastic Compliance Matrix: (Units=1/GPa)
#
#
# Indices 1 2 3 4 5 6 
#
# 1 0.018604 -0.006767 -0.005893 0.000000 -0.013117 0.000000
# 2 -0.006767 0.013285 -0.002379 0.000000 0.004808 0.000000
# 3 -0.005893 -0.002379 0.019426 0.000000 0.014208 0.000000
# 4 0.000000 0.000000 0.000000 0.034419 0.000000 -0.000511
# 5 -0.013117 0.004808 0.014208 0.000000 0.074045 0.000000
# 6 0.000000 0.000000 0.000000 -0.000511 0.000000 0.030559
#
#
# Mechanical properties :
#
#
# Convention : Reuss Voigt Hill
#
# Bulk Modulus (GPa) = 47.08864 50.80240 48.94552
# Shear Modulus (GPa) = 21.97858 26.39466 24.18662
#
# Velocity S-wave (km/s) = 3.26304 3.57586 3.42303
# Velocity P-wave (km/s) = 6.08346 6.45447 6.27171
#
# Compressibility (1/GPa) = 0.02123654
#
# Stress axis : x y z
#
# Youngs Moduli (GPa) = 53.75215 75.27310 51.47741
#
# Poissons Ratio (x) = 0.50940 0.30336
# Poissons Ratio (y) = 0.36376 0.12245
# Poissons Ratio (z) = 0.31677 0.17905
#
# Static dielectric constant tensor:
#      x y z
#    x 3.928380 0.000000 -0.240050 
#    y 0.000000 3.963710 0.000000 
#    z -0.240050 0.000000 3.749220 
# 
# 
# High freq. dielectric constant tensor:
#      x y z
#    x 1.811840 0.000000 -0.008930 
#    y 0.000000 1.820000 0.000000 
#    z -0.008930 0.000000 1.787180 
# 
# From -- ./inp_files/281689.got.cif
#   From: 2010.06.25/outbox.cif.g09.slc.cpg/sg12_141_cif.got.tgz:281689.got - 2010.06.28 00:19:55.
