data_PCOD8090391
_publ_section_title
;
Structure prediction by ZEFSAII (Michael W. Deem and Ramdas Pophale) SiO2 
 PCOD8090391
Probable space group: C 2/M
;
_chemical_formula_sum "Si O2"
_cell_formula_units_Z 64
_cell_length_a 32.689282
_cell_length_b 8.910645
_cell_length_c 24.998557
_cell_angle_alpha 90.000000
_cell_angle_beta 153.582518
_cell_angle_gamma 90.000000
_cell_volume 3239.665154
_symmetry_space_group_name_H-M "C 2/M"
_symmetry_group_IT_number 12
_symmetry_cell_setting 'monoclinic'
loop_
_space_group_symop_operation_xyz
x,y,z
-x,y,-z
-x,-y,-z
x,-y,z
1/2+x,1/2+y,z
1/2-x,1/2+y,-z
1/2-x,1/2-y,-z
1/2+x,1/2-y,z
loop_
_atom_site_type_symbol
_atom_site_label
_atom_site_fract_x
_atom_site_fract_y
_atom_site_fract_z
Si Si1 0.230498 0.323665 0.420641
Si Si2 0.061987 0.827838 0.023838
Si Si3 0.068342 0.675859 0.744552
Si Si4 0.358583 0.178339 0.481799
Si Si5 0.520124 0.174247 0.171698
Si Si6 0.214300 0.677379 0.829130
Si Si7 0.107464 0.177697 0.898911
Si Si8 0.272748 0.827525 0.273537
O O1 0.248890 0.500000 0.446052
O O2 0.250000 0.250000 0.500000
O O3 0.295856 0.253926 0.452774
O O4 0.125500 0.287137 0.282120
O O5 0.042755 0.723546 0.951095
O O6 0.040330 0.000000 0.982665
O O7 0.166439 0.807596 0.164050
O O8 0.000000 0.772521 0.000000
O O9 0.077058 0.500000 0.766441
O O10 0.123010 0.720329 0.754812
O O11 0.115527 0.763578 0.848173
O O12 0.963319 0.725515 0.614430
O O13 0.330771 0.242563 0.390532
O O14 0.344087 0.000000 0.468164
O O15 0.486786 0.261154 0.185583
O O16 0.506408 0.000000 0.167147
O O17 0.226993 0.500000 0.838692
O O18 0.206022 0.747960 0.759536
O O19 0.305004 0.739702 0.965275
O O20 0.104727 0.000000 0.894842
O O21 0.301296 0.000000 0.302764
#
# Coordination Sequence:
#
# PCOD8090391 Si02
#       8
#     8   8   8   8   8   8   8   8
#     4  11  24  40  58  81 113 151 190 233 281 335
#     4  10  19  33  56  83 111 146 187 228 272 330
#     4  10  21  36  56  85 116 147 187 238 290 335
#     4  10  21  37  59  85 114 150 191 234 282 334
#     4  11  23  37  55  82 114 145 182 232 285 334
#     4   9  18  34  57  84 115 147 188 238 283 334
#     4  11  21  36  59  84 113 151 191 233 284 342
#     4   9  17  33  56  83 115 148 188 232 274 331
#
# _framework density 19.755127999999999
#
# number of rings (size 3 to 8) (size 9 to 14) (size 15 to 20)
#    0.000    1.875    1.250    3.000    0.000    7.250 
#    0.000    3.750    0.000    0.000    0.000    1.750 
#    0.000    0.000    0.000    0.000    0.000    0.000 
#
# Total GULP energy -396849.347691 kJ/mol
# GULP energy per Si atom -12401.542115 kJ/mol
# Density = 1.971016 g / cm^3
# Si number density = 19.755128 Si / 1000 Ang^3
#
#
#
# Elastic Constant Matrix: (Units=GPa)
#
#
# Indices 1 2 3 4 5 6 
#
# 1 165.2195 33.6818 63.2575 0.0000 -5.6829 0.0000
# 2 33.6818 44.2479 33.2000 0.0000 0.5558 0.0000
# 3 63.2575 33.2000 109.7153 0.0000 -10.7500 0.0000
# 4 0.0000 0.0000 0.0000 15.8259 0.0000 -4.2067
# 5 -5.6829 0.5558 -10.7500 0.0000 40.8051 0.0000
# 6 0.0000 0.0000 0.0000 -4.2067 0.0000 26.8377
#
#
#
# Elastic Compliance Matrix: (Units=1/GPa)
#
#
# Indices 1 2 3 4 5 6 
#
# 1 0.008161 -0.003495 -0.003625 0.000000 0.000229 0.000000
# 2 -0.003495 0.031050 -0.007668 0.000000 -0.002930 0.000000
# 3 -0.003625 -0.007668 0.013843 0.000000 0.003246 0.000000
# 4 0.000000 0.000000 0.000000 0.065935 0.000000 0.010335
# 5 0.000229 -0.002930 0.003246 0.000000 0.025434 0.000000
# 6 0.000000 0.000000 0.000000 0.010335 0.000000 0.038881
#
#
# Mechanical properties :
#
#
# Convention : Reuss Voigt Hill
#
# Bulk Modulus (GPa) = 42.59259 64.38460 53.48859
# Shear Modulus (GPa) = 22.65454 29.29663 25.97559
#
# Velocity S-wave (km/s) = 3.39007 3.85514 3.63006
# Velocity P-wave (km/s) = 6.07705 7.24418 6.68613
#
# Compressibility (1/GPa) = 0.02347826
#
# Stress axis : x y z
#
# Youngs Moduli (GPa) = 122.53541 32.20562 72.23820
#
# Poissons Ratio (x) = 0.11256 0.26188
# Poissons Ratio (y) = 0.42825 0.55392
# Poissons Ratio (z) = 0.44422 0.24695
#
# Static dielectric constant tensor:
#      x y z
#    x 5.089670 0.000000 -0.350660 
#    y 0.000000 3.312080 0.000000 
#    z -0.350660 0.000000 3.843390 
# 
# 
# High freq. dielectric constant tensor:
#      x y z
#    x 1.787940 0.000000 -0.000920 
#    y 0.000000 1.736520 0.000000 
#    z -0.000920 0.000000 1.776320 
# 
# From -- ./inp_files/353589.got.cif
#   From: 2010.06.25/outbox.cif.g09.slc.cpg/sg12_177_cif.got.tgz:353589.got - 2010.06.28 00:19:55.
