data_PCOD8090830
_publ_section_title
;
Structure prediction by ZEFSAII (Michael W. Deem and Ramdas Pophale) SiO2 
 PCOD8090830
Probable space group: C 2/M
;
_chemical_formula_sum "Si O2"
_cell_formula_units_Z 56
_cell_length_a 14.537923
_cell_length_b 9.028884
_cell_length_c 26.323395
_cell_angle_alpha 90.000000
_cell_angle_beta 65.559664
_cell_angle_gamma 90.000000
_cell_volume 3145.625833
_symmetry_space_group_name_H-M "C 2/M"
_symmetry_group_IT_number 12
_symmetry_cell_setting 'monoclinic'
loop_
_space_group_symop_operation_xyz
x,y,z
-x,y,-z
-x,-y,-z
x,-y,z
1/2+x,1/2+y,z
1/2-x,1/2+y,-z
1/2-x,1/2-y,-z
1/2+x,1/2-y,z
loop_
_atom_site_type_symbol
_atom_site_label
_atom_site_fract_x
_atom_site_fract_y
_atom_site_fract_z
Si Si1 0.960066 0.324828 0.851649
Si Si2 0.266898 0.674957 0.641330
Si Si3 0.175777 0.675920 0.765458
Si Si4 0.737822 0.675263 0.148433
Si Si5 0.546595 0.824179 0.937808
Si Si6 0.509902 0.670956 0.438067
Si Si7 0.321392 0.174644 0.442920
O O1 0.945351 0.500000 0.851837
O O2 0.861205 0.249724 0.851626
O O3 0.059103 0.273387 0.797385
O O4 0.978247 0.272551 0.905694
O O5 0.257417 0.500000 0.646594
O O6 0.222192 0.745649 0.703283
O O7 0.382192 0.721677 0.607242
O O8 0.204973 0.733737 0.607152
O O9 0.178163 0.500000 0.763679
O O10 0.244135 0.728060 0.797514
O O11 0.723488 0.500000 0.148652
O O12 0.836835 0.726990 0.094201
O O13 0.544744 0.000000 0.939930
O O14 0.500000 0.755272 0.000000
O O15 0.500000 0.697934 0.500000
O O16 0.485999 0.500000 0.430680
O O17 0.435761 0.780119 0.425964
O O18 0.250000 0.250000 0.500000
O O19 0.305221 0.000000 0.451062
#
# Coordination Sequence:
#
# PCOD8090830 Si02
#       7
#     8   8   8   8   8   8   8
#     4   9  17  30  50  72  95 126 163 200 238 279
#     4   9  18  33  52  70  95 128 159 193 238 291
#     4   8  16  32  50  68  92 128 165 192 231 292
#     4   9  17  30  50  72  94 124 163 201 237 279
#     4   8  15  29  47  68  97 133 167 193 226 284
#     4  10  19  34  52  72  96 125 158 191 236 291
#     4  11  21  34  52  74  97 125 158 194 238 288
#
# _framework density 17.802499000000001
#
# number of rings (size 3 to 8) (size 9 to 14) (size 15 to 20)
#    0.000    2.857    1.429    2.143    0.000    2.000 
#    0.000    2.857    0.000    4.286    0.000    0.000 
#    0.000    0.000    0.000    0.000    0.000    0.000 
#
# Total GULP energy -347063.467544 kJ/mol
# GULP energy per Si atom -12395.123841 kJ/mol
# Density = 1.776198 g / cm^3
# Si number density = 17.802499 Si / 1000 Ang^3
#
#
#
# Elastic Constant Matrix: (Units=GPa)
#
#
# Indices 1 2 3 4 5 6 
#
# 1 172.4797 36.9007 92.9363 0.0000 0.1170 0.0000
# 2 36.9007 30.8089 28.9144 0.0000 2.1985 0.0000
# 3 92.9363 28.9144 184.7464 0.0000 1.5703 0.0000
# 4 0.0000 0.0000 0.0000 10.1684 0.0000 -1.0559
# 5 0.1170 2.1985 1.5703 0.0000 21.4736 0.0000
# 6 0.0000 0.0000 0.0000 -1.0559 0.0000 35.7066
#
#
#
# Elastic Compliance Matrix: (Units=1/GPa)
#
#
# Indices 1 2 3 4 5 6 
#
# 1 0.009393 -0.008066 -0.003472 0.000000 0.001028 0.000000
# 2 -0.008066 0.045232 -0.002984 0.000000 -0.004369 0.000000
# 3 -0.003472 -0.002984 0.007628 0.000000 -0.000233 0.000000
# 4 0.000000 0.000000 0.000000 0.098647 0.000000 0.002917
# 5 0.001028 -0.004369 -0.000233 0.000000 0.047027 0.000000
# 6 0.000000 0.000000 0.000000 0.002917 0.000000 0.028092
#
#
# Mechanical properties :
#
#
# Convention : Reuss Voigt Hill
#
# Bulk Modulus (GPa) = 30.11209 78.39309 54.25259
# Shear Modulus (GPa) = 18.10718 28.75531 23.43124
#
# Velocity S-wave (km/s) = 3.19268 4.02336 3.63185
# Velocity P-wave (km/s) = 5.52650 8.10640 6.93743
#
# Compressibility (1/GPa) = 0.03320925
#
# Stress axis : x y z
#
# Youngs Moduli (GPa) = 106.45854 22.10841 131.09049
#
# Poissons Ratio (x) = 0.17832 0.45510
# Poissons Ratio (y) = 0.85868 0.39124
# Poissons Ratio (z) = 0.36959 0.06598
#
# Static dielectric constant tensor:
#      x y z
#    x 3.363840 0.000000 0.042110 
#    y 0.000000 2.866020 0.000000 
#    z 0.042110 0.000000 3.834790 
# 
# 
# High freq. dielectric constant tensor:
#      x y z
#    x 1.698090 0.000000 -0.000410 
#    y 0.000000 1.642970 0.000000 
#    z -0.000410 0.000000 1.697320 
# 
# From -- ./inp_files/337867.got.cif
#   From: 2010.06.25/outbox.cif.g09.slc.cpg/sg12_169_cif.got.tgz:337867.got - 2010.06.28 00:19:55.
