data_PCOD8090844
_publ_section_title
;
Structure prediction by ZEFSAII (Michael W. Deem and Ramdas Pophale) SiO2 
 PCOD8090844
Probable space group: C 2/M
;
_chemical_formula_sum "Si O2"
_cell_formula_units_Z 40
_cell_length_a 9.891883
_cell_length_b 14.328764
_cell_length_c 20.344127
_cell_angle_alpha 90.000000
_cell_angle_beta 52.035044
_cell_angle_gamma 90.000000
_cell_volume 2273.350003
_symmetry_space_group_name_H-M "C 2/M"
_symmetry_group_IT_number 12
_symmetry_cell_setting 'monoclinic'
loop_
_space_group_symop_operation_xyz
x,y,z
-x,y,-z
-x,-y,-z
x,-y,z
1/2+x,1/2+y,z
1/2-x,1/2+y,-z
1/2-x,1/2-y,-z
1/2+x,1/2-y,z
loop_
_atom_site_type_symbol
_atom_site_label
_atom_site_fract_x
_atom_site_fract_y
_atom_site_fract_z
Si Si1 0.812037 0.859601 0.049210
Si Si2 0.319773 0.000000 0.369845
Si Si3 0.282074 0.500000 0.811145
Si Si4 0.663817 0.656619 0.497778
Si Si5 0.549743 0.000000 0.181706
Si Si6 0.993969 0.000000 0.375531
Si Si7 0.308924 0.852495 0.060833
O O1 0.666004 0.910069 0.134335
O O2 0.812289 0.755848 0.078787
O O3 0.779373 0.866857 0.982074
O O4 0.000000 0.905062 0.000000
O O5 0.306937 0.904927 0.416410
O O6 0.493556 0.000000 0.274927
O O7 0.159938 0.000000 0.370217
O O8 0.454226 0.500000 0.716263
O O9 0.292567 0.407835 0.852789
O O10 0.112449 0.500000 0.817648
O O11 0.500000 0.679944 0.500000
O O12 0.750000 0.750000 0.500000
O O13 0.609361 0.594319 0.576859
O O14 0.500000 0.894036 0.000000
#
# Coordination Sequence:
#
# PCOD8090844 Si02
#       7
#     8   4   4   8   4   4   8
#     4  10  21  33  51  74 106 135 173 218 261 297
#     4   8  18  33  53  79 105 133 173 205 244 316
#     4  11  19  32  57  75 100 136 180 214 243 302
#     4   9  17  35  60  79 102 135 167 204 253 307
#     4  11  19  33  54  77 101 138 173 212 259 299
#     4   8  18  33  52  82 104 131 172 208 247 307
#     4  10  19  34  52  75  97 136 183 213 246 304
#
# _framework density 17.595179000000002
#
# number of rings (size 3 to 8) (size 9 to 14) (size 15 to 20)
#    0.000    2.400    2.000    2.400    0.000    1.600 
#    0.000    2.000    8.800    0.000    0.000    0.000 
#    0.000    0.000    0.000    0.000    0.000    0.000 
#
# Total GULP energy -247910.383466 kJ/mol
# GULP energy per Si atom -12395.519173 kJ/mol
# Density = 1.755513 g / cm^3
# Si number density = 17.595179 Si / 1000 Ang^3
#
#
#
# Elastic Constant Matrix: (Units=GPa)
#
#
# Indices 1 2 3 4 5 6 
#
# 1 66.9715 36.9101 31.5298 0.0007 -2.9088 0.0002
# 2 36.9101 133.8041 74.2106 0.0004 5.9562 0.0002
# 3 31.5298 74.2106 159.3933 0.0022 7.6700 0.0003
# 4 0.0007 0.0004 0.0022 -10.7562 -0.0008 -12.5129
# 5 -2.9088 5.9562 7.6700 -0.0008 21.6275 -0.0003
# 6 0.0002 0.0002 0.0003 -12.5129 -0.0003 25.9435
#
#
#
# Elastic Compliance Matrix: (Units=1/GPa)
#
#
# Indices 1 2 3 4 5 6 
#
# 1 0.018317 -0.004206 -0.001871 0.000000 0.004285 0.000000
# 2 -0.004206 0.011068 -0.004219 0.000000 -0.002117 0.000000
# 3 -0.001871 -0.004219 0.008713 0.000001 -0.002180 0.000000
# 4 0.000000 0.000000 0.000001 -0.059554 -0.000003 -0.028724
# 5 0.004285 -0.002117 -0.002180 -0.000003 0.048170 -0.000001
# 6 0.000000 0.000000 0.000000 -0.028724 -0.000001 0.024691
#
#
# Mechanical properties :
#
#
# Convention : Reuss Voigt Hill
#
# Bulk Modulus (GPa) = 57.12471 71.71886 64.42179
# Shear Modulus (GPa) = 64.24027 21.86418 43.05222
#
# Velocity S-wave (km/s) = 6.04892 3.52891 4.95190
# Velocity P-wave (km/s) = 9.01790 7.57979 8.32994
#
# Compressibility (1/GPa) = 0.01750556
#
# Stress axis : x y z
#
# Youngs Moduli (GPa) = 54.59495 90.34985 114.76692
#
# Poissons Ratio (x) = 0.37997 0.21478
# Poissons Ratio (y) = 0.22960 0.48424
# Poissons Ratio (z) = 0.10217 0.38121
#
# Static dielectric constant tensor:
#      x y z
#    x 3.118180 0.000000 0.032710 
#    y 0.000000 3.408340 0.000000 
#    z 0.032710 0.000000 3.714630 
# 
# 
# High freq. dielectric constant tensor:
#      x y z
#    x 1.663750 0.000000 0.001800 
#    y 0.000000 1.688890 0.000000 
#    z 0.001800 0.000000 1.675390 
# 
# From -- ./inp_files/299718.got.cif
#   From: 2010.06.25/outbox.cif.g09.slc.cpg/sg12_150_cif.got.tgz:299718.got - 2010.06.28 00:19:55.
