data_PCOD8090489
_publ_section_title
;
Structure prediction by ZEFSAII (Michael W. Deem and Ramdas Pophale) SiO2 
 PCOD8090489
Probable space group: C 2/M
;
_chemical_formula_sum "Si O2"
_cell_formula_units_Z 56
_cell_length_a 20.822605
_cell_length_b 14.431262
_cell_length_c 14.686040
_cell_angle_alpha 90.000000
_cell_angle_beta 38.988541
_cell_angle_gamma 90.000000
_cell_volume 2776.569831
_symmetry_space_group_name_H-M "C 2/M"
_symmetry_group_IT_number 12
_symmetry_cell_setting 'monoclinic'
loop_
_space_group_symop_operation_xyz
x,y,z
-x,y,-z
-x,-y,-z
x,-y,z
1/2+x,1/2+y,z
1/2-x,1/2+y,-z
1/2-x,1/2-y,-z
1/2+x,1/2-y,z
loop_
_atom_site_type_symbol
_atom_site_label
_atom_site_fract_x
_atom_site_fract_y
_atom_site_fract_z
Si Si1 0.201576 0.395522 0.803783
Si Si2 0.147141 0.899300 0.204749
Si Si3 0.239629 0.831265 0.937145
Si Si4 0.722538 0.392581 0.475723
Si Si5 0.065702 0.239034 0.006035
Si Si6 0.410740 0.220804 0.333736
Si Si7 0.456838 0.214417 0.647451
O O1 0.160126 0.500000 0.856386
O O2 0.264708 0.366494 0.823444
O O3 0.274866 0.383614 0.636178
O O4 0.105730 0.327558 0.904678
O O5 0.058946 0.823056 0.310017
O O6 0.103015 0.000000 0.282080
O O7 0.194031 0.912366 0.051057
O O8 0.352939 0.846665 0.771441
O O9 0.250000 0.750000 0.000000
O O10 0.161486 0.818795 0.938910
O O11 0.702720 0.500000 0.526919
O O12 0.634557 0.325003 0.609618
O O13 0.829675 0.357399 0.397135
O O14 0.999830 0.274384 0.162409
O O15 0.000000 0.183996 0.000000
O O16 0.457578 0.181790 0.375958
O O17 0.500000 0.200153 0.500000
#
# Coordination Sequence:
#
# PCOD8090489 Si02
#       7
#     8   8   8   8   8   8   8
#     4  10  19  33  56  89 119 150 187 247 312 352
#     4  10  19  34  57  83 118 152 189 243 302 352
#     4  10  19  37  55  79 120 156 193 234 285 347
#     4  10  23  40  58  88 130 156 192 249 305 366
#     4  12  21  35  60  87 118 156 201 244 286 362
#     4  11  22  37  61  91 114 168 202 232 309 361
#     4  11  21  35  62  89 115 150 201 248 293 357
#
# _framework density 20.168769999999999
#
# number of rings (size 3 to 8) (size 9 to 14) (size 15 to 20)
#    0.000    1.429    7.143    0.857    0.000    1.714 
#    0.000    0.714    0.000    5.143    0.000    0.000 
#    0.000    0.000    0.000    0.000    0.000    0.000 
#
# Total GULP energy -347031.973195 kJ/mol
# GULP energy per Si atom -12393.999043 kJ/mol
# Density = 2.012287 g / cm^3
# Si number density = 20.168770 Si / 1000 Ang^3
#
#
#
# Elastic Constant Matrix: (Units=GPa)
#
#
# Indices 1 2 3 4 5 6 
#
# 1 132.0125 6.8416 4.0904 0.0000 4.5460 0.0000
# 2 6.8416 51.8081 -2.1435 0.0000 1.3127 0.0000
# 3 4.0904 -2.1435 68.8874 0.0000 9.5762 0.0000
# 4 0.0000 0.0000 0.0000 19.2222 0.0000 7.6068
# 5 4.5460 1.3127 9.5762 0.0000 32.4213 0.0000
# 6 0.0000 0.0000 0.0000 7.6068 0.0000 11.5904
#
#
#
# Elastic Compliance Matrix: (Units=1/GPa)
#
#
# Indices 1 2 3 4 5 6 
#
# 1 0.007670 -0.001004 -0.000358 0.000000 -0.000929 0.000000
# 2 -0.001004 0.019490 0.000789 0.000000 -0.000881 0.000000
# 3 -0.000358 0.000789 0.015183 0.000000 -0.004466 0.000000
# 4 0.000000 0.000000 0.000000 0.070275 0.000000 -0.046121
# 5 -0.000929 -0.000881 -0.004466 0.000000 0.032329 0.000000
# 6 0.000000 0.000000 0.000000 -0.046121 0.000000 0.116547
#
#
# Mechanical properties :
#
#
# Convention : Reuss Voigt Hill
#
# Bulk Modulus (GPa) = 24.27385 30.03168 27.15276
# Shear Modulus (GPa) = 18.09155 28.90808 23.49981
#
# Velocity S-wave (km/s) = 2.99826 3.79001 3.41714
# Velocity P-wave (km/s) = 4.90383 5.83736 5.39084
#
# Compressibility (1/GPa) = 0.04119660
#
# Stress axis : x y z
#
# Youngs Moduli (GPa) = 130.37542 51.30956 65.86270
#
# Poissons Ratio (x) = 0.05152 0.02355
# Poissons Ratio (y) = 0.13092 -0.05194
# Poissons Ratio (z) = 0.04661 -0.04046
#
# Static dielectric constant tensor:
#      x y z
#    x 4.007840 0.000000 0.107920 
#    y 0.000000 3.527000 0.000000 
#    z 0.107920 0.000000 3.822210 
# 
# 
# High freq. dielectric constant tensor:
#      x y z
#    x 1.805040 0.000000 0.002210 
#    y 0.000000 1.749970 0.000000 
#    z 0.002210 0.000000 1.786680 
# 
# From -- ./inp_files/233654.got.cif
#   From: 2010.06.25/outbox.cif.g09.slc.cpg/sg12_117_cif.got.tgz:233654.got - 2010.06.28 00:19:55.
