data_PCOD8090052
_publ_section_title
;
Structure prediction by ZEFSAII (Michael W. Deem and Ramdas Pophale) SiO2 
 PCOD8090052
Probable space group: C 2/M
;
_chemical_formula_sum "Si O2"
_cell_formula_units_Z 52
_cell_length_a 14.259858
_cell_length_b 20.266998
_cell_length_c 17.856574
_cell_angle_alpha 90.000000
_cell_angle_beta 147.930685
_cell_angle_gamma 90.000000
_cell_volume 2740.010041
_symmetry_space_group_name_H-M "C 2/M"
_symmetry_group_IT_number 12
_symmetry_cell_setting 'monoclinic'
loop_
_space_group_symop_operation_xyz
x,y,z
-x,y,-z
-x,-y,-z
x,-y,z
1/2+x,1/2+y,z
1/2-x,1/2+y,-z
1/2-x,1/2-y,-z
1/2+x,1/2-y,z
loop_
_atom_site_type_symbol
_atom_site_label
_atom_site_fract_x
_atom_site_fract_y
_atom_site_fract_z
Si Si1 0.707699 0.187597 0.020766
Si Si2 0.648836 0.424974 0.261432
Si Si3 0.583894 0.672767 0.336818
Si Si4 0.247178 0.924548 0.057867
Si Si5 0.000000 0.749902 0.000000
Si Si6 0.600644 0.748029 0.490530
Si Si7 0.316757 0.846571 0.249930
O O1 0.876021 0.179291 0.187080
O O2 0.750000 0.250000 0.000000
O O3 0.662821 0.122345 0.942879
O O4 0.536576 0.202273 0.954704
O O5 0.711531 0.500000 0.307657
O O6 0.636880 0.398887 0.339080
O O7 0.791770 0.382473 0.312663
O O8 0.464402 0.416998 0.091744
O O9 0.613813 0.682888 0.446285
O O10 0.697569 0.726158 0.364201
O O11 0.316234 0.902479 0.185765
O O12 0.304925 0.000000 0.082851
O O13 0.833716 0.794217 0.868892
O O14 0.500000 0.730959 0.500000
O O15 0.500279 0.806773 0.377674
#
# Coordination Sequence:
#
# PCOD8090052 Si02
#       7
#     8   8   8   8   4   8   8
#     4  11  20  35  57  84 112 143 180 229 278 327
#     4  10  19  33  55  80 110 143 175 218 277 336
#     4  10  21  37  52  78 111 146 183 220 270 325
#     4  10  20  34  54  81 114 145 175 220 280 334
#     4  12  20  32  58  86 110 134 182 236 278 318
#     4  11  22  35  55  78 111 147 183 228 268 316
#     4  12  19  33  53  85 111 139 181 225 280 325
#
# _framework density 18.978033
#
# number of rings (size 3 to 8) (size 9 to 14) (size 15 to 20)
#    0.000    1.231    6.154    1.385    0.000    1.231 
#    0.000    2.692    0.000    0.462    0.000    0.000 
#    0.000    0.000    0.000    0.000    0.000    0.000 
#
# Total GULP energy -322284.475308 kJ/mol
# GULP energy per Si atom -12395.556743 kJ/mol
# Density = 1.893484 g / cm^3
# Si number density = 18.978033 Si / 1000 Ang^3
#
#
#
# Elastic Constant Matrix: (Units=GPa)
#
#
# Indices 1 2 3 4 5 6 
#
# 1 113.0058 46.6395 -0.2502 0.0175 -20.0813 -0.0047
# 2 46.6395 112.4150 14.2430 0.0466 -14.7654 0.0023
# 3 -0.2502 14.2430 24.3670 0.0514 -13.2142 0.0048
# 4 0.0175 0.0466 0.0514 16.5922 0.0205 -4.0470
# 5 -20.0813 -14.7654 -13.2142 0.0205 20.6954 -0.0024
# 6 -0.0047 0.0023 0.0048 -4.0470 -0.0024 33.0783
#
#
#
# Elastic Compliance Matrix: (Units=1/GPa)
#
#
# Indices 1 2 3 4 5 6 
#
# 1 0.014348 -0.005181 0.013340 -0.000067 0.018744 -0.000006
# 2 -0.005181 0.011829 -0.007827 -0.000002 -0.001586 -0.000001
# 3 0.013340 -0.007827 0.076091 -0.000307 0.055945 -0.000042
# 4 -0.000067 -0.000002 -0.000307 0.062125 -0.000323 0.007601
# 5 0.018744 -0.001586 0.055945 -0.000323 0.101098 -0.000038
# 6 -0.000006 -0.000001 -0.000042 0.007601 -0.000038 0.031161
#
#
# Mechanical properties :
#
#
# Convention : Reuss Voigt Hill
#
# Bulk Modulus (GPa) = 9.71515 41.22804 25.47159
# Shear Modulus (GPa) = 15.13789 26.68355 20.91072
#
# Velocity S-wave (km/s) = 2.82734 3.75377 3.32300
# Velocity P-wave (km/s) = 3.97350 6.36859 5.30790
#
# Compressibility (1/GPa) = 0.10293203
#
# Stress axis : x y z
#
# Youngs Moduli (GPa) = 69.69764 84.54133 13.14217
#
# Poissons Ratio (x) = 0.43800 -0.17532
# Poissons Ratio (y) = 0.36110 0.10286
# Poissons Ratio (z) = -0.92980 0.66171
#
# Static dielectric constant tensor:
#      x y z
#    x 3.542390 -0.000020 -0.053250 
#    y -0.000020 3.500990 -0.000040 
#    z -0.053250 -0.000040 3.571950 
# 
# 
# High freq. dielectric constant tensor:
#      x y z
#    x 1.734110 0.000000 -0.003850 
#    y 0.000000 1.717420 0.000000 
#    z -0.003850 0.000000 1.730050 
# 
# From -- ./inp_files/99010.got.cif
#   From: 2010.06.25/outbox.cif.g09.slc.cpg/sg12_50_cif.got.tgz:99010.got - 2010.06.28 00:19:55.
