data_PCOD8090325
_publ_section_title
;
Structure prediction by ZEFSAII (Michael W. Deem and Ramdas Pophale) SiO2 
 PCOD8090325
Probable space group: C 2/M
;
_chemical_formula_sum "Si O2"
_cell_formula_units_Z 48
_cell_length_a 20.559026
_cell_length_b 8.794140
_cell_length_c 15.164230
_cell_angle_alpha 90.000000
_cell_angle_beta 111.595622
_cell_angle_gamma 90.000000
_cell_volume 2549.223831
_symmetry_space_group_name_H-M "C 2/M"
_symmetry_group_IT_number 12
_symmetry_cell_setting 'monoclinic'
loop_
_space_group_symop_operation_xyz
x,y,z
-x,y,-z
-x,-y,-z
x,-y,z
1/2+x,1/2+y,z
1/2-x,1/2+y,-z
1/2-x,1/2-y,-z
1/2+x,1/2-y,z
loop_
_atom_site_type_symbol
_atom_site_label
_atom_site_fract_x
_atom_site_fract_y
_atom_site_fract_z
Si Si1 0.419235 0.177843 0.451416
Si Si2 0.823630 0.319538 0.759065
Si Si3 0.177763 0.679746 0.932037
Si Si4 0.677253 0.821225 0.437287
Si Si5 0.078152 0.319557 0.039180
Si Si6 0.328428 0.679744 0.257675
O O1 0.500000 0.220185 0.500000
O O2 0.382706 0.227967 0.524477
O O3 0.388024 0.273787 0.355930
O O4 0.407882 0.000000 0.426439
O O5 0.823494 0.500000 0.765242
O O6 0.844192 0.263999 0.671166
O O7 0.879677 0.251676 0.855946
O O8 0.746289 0.259637 0.744713
O O9 0.186811 0.500000 0.933252
O O10 0.154322 0.741904 0.826133
O O11 0.250000 0.750000 0.000000
O O12 0.117088 0.728972 0.969357
O O13 0.750000 0.750000 0.500000
O O14 0.688245 0.000000 0.441969
O O15 0.074797 0.500000 0.045812
O O16 0.000000 0.250354 0.000000
O O17 0.328207 0.500000 0.244454
#
# Coordination Sequence:
#
# PCOD8090325 Si02
#       6
#     8   8   8   8   8   8
#     4  10  22  38  56  85 119 147 183 235 290 339
#     4   9  17  31  52  80 108 140 183 228 273 326
#     4  11  21  35  58  88 116 148 190 234 281 335
#     4  10  19  33  56  81 109 143 183 232 279 332
#     4   9  18  33  55  83 112 143 183 229 277 330
#     4  11  21  36  58  83 113 150 193 235 280 337
#
# _framework density 18.829262
#
# number of rings (size 3 to 8) (size 9 to 14) (size 15 to 20)
#    0.000    2.000    3.333    1.000    0.000    1.667 
#    0.000    5.000    0.000    2.000    0.000    0.000 
#    0.000    0.000    0.000    0.000    0.000    0.000 
#
# Total GULP energy -297625.745824 kJ/mol
# GULP energy per Si atom -12401.072743 kJ/mol
# Density = 1.878641 g / cm^3
# Si number density = 18.829262 Si / 1000 Ang^3
#
#
#
# Elastic Constant Matrix: (Units=GPa)
#
#
# Indices 1 2 3 4 5 6 
#
# 1 170.3708 35.5761 94.1720 0.0000 -3.5131 0.0000
# 2 35.5761 38.4622 36.8195 0.0000 -5.8175 0.0000
# 3 94.1720 36.8195 184.5461 0.0000 -14.2325 0.0000
# 4 0.0000 0.0000 0.0000 29.4241 0.0000 1.7055
# 5 -3.5131 -5.8175 -14.2325 0.0000 37.8755 0.0000
# 6 0.0000 0.0000 0.0000 1.7055 0.0000 21.1551
#
#
#
# Elastic Compliance Matrix: (Units=1/GPa)
#
#
# Indices 1 2 3 4 5 6 
#
# 1 0.008891 -0.004922 -0.003656 0.000000 -0.001305 0.000000
# 2 -0.004922 0.035113 -0.004236 0.000000 0.003345 0.000000
# 3 -0.003656 -0.004236 0.008293 0.000000 0.002127 0.000000
# 4 0.000000 0.000000 0.000000 0.034145 0.000000 -0.002753
# 5 -0.001305 0.003345 0.002127 0.000000 0.027594 0.000000
# 6 0.000000 0.000000 0.000000 -0.002753 0.000000 0.047492
#
#
# Mechanical properties :
#
#
# Convention : Reuss Voigt Hill
#
# Bulk Modulus (GPa) = 37.49470 80.72380 59.10925
# Shear Modulus (GPa) = 25.50426 32.81172 29.15799
#
# Velocity S-wave (km/s) = 3.68435 4.17897 3.93943
# Velocity P-wave (km/s) = 6.16891 8.13938 7.22167
#
# Compressibility (1/GPa) = 0.02667044
#
# Stress axis : x y z
#
# Youngs Moduli (GPa) = 112.47258 28.47947 120.57871
#
# Poissons Ratio (x) = 0.14017 0.44080
# Poissons Ratio (y) = 0.55356 0.51078
# Poissons Ratio (z) = 0.41117 0.12064
#
# Static dielectric constant tensor:
#      x y z
#    x 3.723850 0.000000 0.237700 
#    y 0.000000 3.177190 0.000000 
#    z 0.237700 0.000000 5.314770 
# 
# 
# High freq. dielectric constant tensor:
#      x y z
#    x 1.733900 0.000000 -0.007190 
#    y 0.000000 1.698770 0.000000 
#    z -0.007190 0.000000 1.749140 
# 
# From -- ./inp_files/230358.got.cif
#   From: 2010.06.25/outbox.cif.g09.slc.cpg/sg12_116_cif.got.tgz:230358.got - 2010.06.28 00:19:55.
