data_PCOD8090556
_publ_section_title
;
Structure prediction by ZEFSAII (Michael W. Deem and Ramdas Pophale) SiO2 
 PCOD8090556
Probable space group: C 2/M
;
_chemical_formula_sum "Si O2"
_cell_formula_units_Z 64
_cell_length_a 23.932694
_cell_length_b 9.026407
_cell_length_c 28.817868
_cell_angle_alpha 90.000000
_cell_angle_beta 31.764858
_cell_angle_gamma 90.000000
_cell_volume 3277.273037
_symmetry_space_group_name_H-M "C 2/M"
_symmetry_group_IT_number 12
_symmetry_cell_setting 'monoclinic'
loop_
_space_group_symop_operation_xyz
x,y,z
-x,y,-z
-x,-y,-z
x,-y,z
1/2+x,1/2+y,z
1/2-x,1/2+y,-z
1/2-x,1/2-y,-z
1/2+x,1/2-y,z
loop_
_atom_site_type_symbol
_atom_site_label
_atom_site_fract_x
_atom_site_fract_y
_atom_site_fract_z
Si Si1 0.802758 0.829587 0.598617
Si Si2 0.466796 0.824381 0.729292
Si Si3 0.533886 0.324756 0.085937
Si Si4 0.028794 0.829427 0.594621
Si Si5 0.938398 0.324932 0.240087
Si Si6 0.271841 0.675273 0.111517
Si Si7 0.847338 0.830764 0.155166
Si Si8 0.368277 0.169727 0.640299
O O1 0.856066 0.811663 0.510521
O O2 0.682513 0.770054 0.680772
O O3 0.873060 0.735203 0.585087
O O4 0.804944 0.000000 0.613417
O O5 0.532786 0.753665 0.640734
O O6 0.521726 0.772886 0.737860
O O7 0.345975 0.762864 0.814556
O O8 0.469857 0.000000 0.720991
O O9 0.518404 0.500000 0.102907
O O10 0.515432 0.248609 0.148179
O O11 0.450738 0.259868 0.106582
O O12 0.651992 0.283312 0.985224
O O13 0.939898 0.761060 0.624556
O O14 0.000138 0.000000 0.623136
O O15 0.947014 0.500000 0.228718
O O16 0.264019 0.500000 0.123395
O O17 0.318363 0.746065 0.126442
O O18 0.752181 0.815021 0.258341
O O19 0.874897 0.000000 0.124717
O O20 0.406699 0.000000 0.612533
#
# Coordination Sequence:
#
# PCOD8090556 Si02
#       8
#     8   8   8   8   8   8   8   8
#     4  10  22  39  56  79 114 151 182 221 281 337
#     4  10  21  39  59  80 107 146 192 232 274 324
#     4  10  19  33  57  85 110 142 184 226 272 329
#     4  11  23  38  57  82 112 146 182 226 282 335
#     4  10  22  39  57  77 110 150 186 231 280 323
#     4   9  17  32  56  83 111 141 178 227 277 326
#     4   9  16  29  53  83 110 137 174 221 268 319
#     4  11  20  34  59  87 112 143 184 226 270 328
#
# _framework density 19.52843
#
# number of rings (size 3 to 8) (size 9 to 14) (size 15 to 20)
#    0.000    2.000    2.500    1.500    0.000    5.500 
#    0.000    0.625    0.000    0.750    0.000    0.000 
#    0.000    0.000    0.000    0.000    0.000    0.000 
#
# Total GULP energy -396829.710346 kJ/mol
# GULP energy per Si atom -12400.928448 kJ/mol
# Density = 1.948398 g / cm^3
# Si number density = 19.528430 Si / 1000 Ang^3
#
#
#
# Elastic Constant Matrix: (Units=GPa)
#
#
# Indices 1 2 3 4 5 6 
#
# 1 130.6115 35.8695 34.7735 0.0119 22.9560 -0.0297
# 2 35.8695 38.2287 25.5218 0.0094 8.9136 -0.0426
# 3 34.7735 25.5218 75.2876 0.0061 20.0646 -0.0134
# 4 0.0119 0.0094 0.0061 24.8365 -0.0050 5.2517
# 5 22.9560 8.9136 20.0646 -0.0050 26.9555 0.0198
# 6 -0.0297 -0.0426 -0.0134 5.2517 0.0198 23.7242
#
#
#
# Elastic Compliance Matrix: (Units=1/GPa)
#
#
# Indices 1 2 3 4 5 6 
#
# 1 0.011329 -0.008773 -0.000575 -0.000004 -0.006320 0.000004
# 2 -0.008773 0.040841 -0.010210 -0.000021 0.001566 0.000060
# 3 -0.000575 -0.010210 0.019933 -0.000003 -0.010972 0.000002
# 4 -0.000004 -0.000021 -0.000003 0.042241 0.000028 -0.009351
# 5 -0.006320 0.001566 -0.010972 0.000028 0.050129 -0.000059
# 6 0.000004 0.000060 0.000002 -0.009351 -0.000059 0.044221
#
#
# Mechanical properties :
#
#
# Convention : Reuss Voigt Hill
#
# Bulk Modulus (GPa) = 30.31392 48.49526 39.40459
# Shear Modulus (GPa) = 19.31950 24.96745 22.14347
#
# Velocity S-wave (km/s) = 3.14873 3.57952 3.37101
# Velocity P-wave (km/s) = 5.36433 6.47850 5.94756
#
# Compressibility (1/GPa) = 0.03298814
#
# Stress axis : x y z
#
# Youngs Moduli (GPa) = 88.26676 24.48503 50.16823
#
# Poissons Ratio (x) = 0.21481 0.02882
# Poissons Ratio (y) = 0.77437 0.51222
# Poissons Ratio (z) = 0.05071 0.25000
#
# Static dielectric constant tensor:
#      x y z
#    x 3.617000 0.000000 -0.005950 
#    y 0.000000 3.276680 0.000000 
#    z -0.005950 0.000000 3.691230 
# 
# 
# High freq. dielectric constant tensor:
#      x y z
#    x 1.760910 0.000000 0.004020 
#    y 0.000000 1.725810 0.000000 
#    z 0.004020 0.000000 1.773280 
# 
# From -- ./inp_files/382379.got.cif
#   From: 2010.06.25/outbox.cif.g09.slc.cpg/sg12_192_cif.got.tgz:382379.got - 2010.06.28 00:19:55.
