data_PCOD8090857
_publ_section_title
;
Structure prediction by ZEFSAII (Michael W. Deem and Ramdas Pophale) SiO2 
 PCOD8090857
Probable space group: C 2/M
;
_chemical_formula_sum "Si O2"
_cell_formula_units_Z 56
_cell_length_a 20.157695
_cell_length_b 11.106240
_cell_length_c 12.581730
_cell_angle_alpha 90.000000
_cell_angle_beta 92.741393
_cell_angle_gamma 90.000000
_cell_volume 2813.526345
_symmetry_space_group_name_H-M "C 2/M"
_symmetry_group_IT_number 12
_symmetry_cell_setting 'monoclinic'
loop_
_space_group_symop_operation_xyz
x,y,z
-x,y,-z
-x,-y,-z
x,-y,z
1/2+x,1/2+y,z
1/2-x,1/2+y,-z
1/2-x,1/2-y,-z
1/2+x,1/2-y,z
loop_
_atom_site_type_symbol
_atom_site_label
_atom_site_fract_x
_atom_site_fract_y
_atom_site_fract_z
Si Si1 0.124542 0.366115 0.708853
Si Si2 0.246854 0.143174 0.410898
Si Si3 0.989227 0.363562 0.622904
Si Si4 0.276873 0.129689 0.862046
Si Si5 0.931081 0.139631 0.948866
Si Si6 0.833455 0.705409 0.073675
Si Si7 0.625658 0.267316 0.270043
O O1 0.115306 0.500000 0.664140
O O2 0.191331 0.317537 0.658704
O O3 0.055962 0.298672 0.673856
O O4 0.125317 0.368487 0.837095
O O5 0.250000 0.250000 0.500000
O O6 0.178538 0.150081 0.337736
O O7 0.252185 0.000000 0.450247
O O8 0.979023 0.500000 0.665347
O O9 0.000000 0.363290 0.500000
O O10 0.925097 0.286128 0.648375
O O11 0.222056 0.232481 0.856415
O O12 0.335691 0.159701 0.785208
O O13 0.247410 0.000000 0.826564
O O14 0.303736 0.115397 0.984815
O O15 0.917027 0.161877 0.822795
O O16 0.931344 0.000000 0.971377
O O17 0.872652 0.191748 0.015391
O O18 0.000000 0.195852 0.000000
#
# Coordination Sequence:
#
# PCOD8090857 Si02
#       7
#     8   8   8   8   8   8   8
#     4  10  20  37  59  85 118 157 201 248 305 364
#     4  11  24  42  64  91 122 160 208 263 317 372
#     4  10  21  37  60  86 115 155 203 256 310 366
#     4  10  20  32  52  83 117 151 191 240 297 358
#     4  10  21  36  56  83 118 158 197 239 294 367
#     4  10  19  34  52  81 115 153 193 239 291 352
#     4  11  21  38  61  87 118 157 200 253 305 369
#
# _framework density 19.903848
#
# number of rings (size 3 to 8) (size 9 to 14) (size 15 to 20)
#    0.000    1.714    1.429    3.429    0.000    2.286 
#    0.000    0.000    0.000   16.286    0.000    0.000 
#    0.000    0.000    0.000    0.000    0.000    0.000 
#
# Total GULP energy -346869.017795 kJ/mol
# GULP energy per Si atom -12388.179207 kJ/mol
# Density = 1.985855 g / cm^3
# Si number density = 19.903848 Si / 1000 Ang^3
#
#
#
# Elastic Constant Matrix: (Units=GPa)
#
#
# Indices 1 2 3 4 5 6 
#
# 1 113.4210 21.5460 27.3444 0.0000 -1.1157 0.0000
# 2 21.5460 75.5299 26.1632 0.0000 -6.4313 0.0000
# 3 27.3444 26.1632 75.6490 0.0000 0.4682 0.0000
# 4 0.0000 0.0000 0.0000 16.2330 0.0000 2.0208
# 5 -1.1157 -6.4313 0.4682 0.0000 43.7776 0.0000
# 6 0.0000 0.0000 0.0000 2.0208 0.0000 33.2858
#
#
#
# Elastic Compliance Matrix: (Units=1/GPa)
#
#
# Indices 1 2 3 4 5 6 
#
# 1 0.009868 -0.001792 -0.002947 0.000000 0.000020 0.000000
# 2 -0.001792 0.015595 -0.004760 0.000000 0.002296 0.000000
# 3 -0.002947 -0.004760 0.015936 0.000000 -0.000945 0.000000
# 4 0.000000 0.000000 0.000000 0.062072 0.000000 -0.003768
# 5 0.000020 0.002296 -0.000945 0.000000 0.023191 0.000000
# 6 0.000000 0.000000 0.000000 -0.003768 0.000000 0.030272
#
#
# Mechanical properties :
#
#
# Convention : Reuss Voigt Hill
#
# Bulk Modulus (GPa) = 44.64160 46.07855 45.36008
# Shear Modulus (GPa) = 27.26278 31.29568 29.27923
#
# Velocity S-wave (km/s) = 3.70499 3.96958 3.83957
# Velocity P-wave (km/s) = 6.38592 6.64913 6.51885
#
# Compressibility (1/GPa) = 0.02240063
#
# Stress axis : x y z
#
# Youngs Moduli (GPa) = 101.33854 64.12115 62.74977
#
# Poissons Ratio (x) = 0.11493 0.18493
# Poissons Ratio (y) = 0.18164 0.29869
# Poissons Ratio (z) = 0.29866 0.30522
#
# Static dielectric constant tensor:
#      x y z
#    x 3.988670 0.000000 0.174760 
#    y 0.000000 3.400960 0.000000 
#    z 0.174760 0.000000 3.618160 
# 
# 
# High freq. dielectric constant tensor:
#      x y z
#    x 1.788210 0.000000 0.003480 
#    y 0.000000 1.755840 0.000000 
#    z 0.003480 0.000000 1.779420 
# 
# From -- ./inp_files/164894.got.cif
#   From: 2010.06.25/outbox.cif.g09.slc.cpg/sg12_83_cif.got.tgz:164894.got - 2010.06.28 00:19:55.
