data_PCOD8090678
_publ_section_title
;
Structure prediction by ZEFSAII (Michael W. Deem and Ramdas Pophale) SiO2 
 PCOD8090678
Probable space group: C 2/M
;
_chemical_formula_sum "Si O2"
_cell_formula_units_Z 56
_cell_length_a 15.021187
_cell_length_b 9.172739
_cell_length_c 24.086776
_cell_angle_alpha 90.000000
_cell_angle_beta 118.966247
_cell_angle_gamma 90.000000
_cell_volume 2903.641129
_symmetry_space_group_name_H-M "C 2/M"
_symmetry_group_IT_number 12
_symmetry_cell_setting 'monoclinic'
loop_
_space_group_symop_operation_xyz
x,y,z
-x,y,-z
-x,-y,-z
x,-y,z
1/2+x,1/2+y,z
1/2-x,1/2+y,-z
1/2-x,1/2-y,-z
1/2+x,1/2-y,z
loop_
_atom_site_type_symbol
_atom_site_label
_atom_site_fract_x
_atom_site_fract_y
_atom_site_fract_z
Si Si1 0.168103 0.670419 0.437474
Si Si2 0.104877 0.329445 0.003591
Si Si3 0.327714 0.672855 0.787985
Si Si4 0.945934 0.167622 0.118748
Si Si5 0.749701 0.332748 0.659275
Si Si6 0.483917 0.330314 0.431651
Si Si7 0.767784 0.167706 0.142311
O O1 0.169789 0.500000 0.452448
O O2 0.250000 0.750000 0.500000
O O3 0.196041 0.698871 0.382366
O O4 0.056458 0.735259 0.414352
O O5 0.111220 0.500000 0.994156
O O6 0.194630 0.276515 0.070967
O O7 0.114212 0.251676 0.947377
O O8 0.000000 0.282092 0.000000
O O9 0.321368 0.500000 0.786371
O O10 0.440573 0.728869 0.838065
O O11 0.301887 0.728318 0.719251
O O12 0.247247 0.736532 0.807457
O O13 0.883906 0.187142 0.157403
O O14 0.949212 0.000000 0.101753
O O15 0.764790 0.500000 0.681861
O O16 0.630847 0.294964 0.619995
O O17 0.500000 0.283256 0.500000
O O18 0.511219 0.500000 0.432197
O O19 0.742838 0.000000 0.149385
#
# Coordination Sequence:
#
# PCOD8090678 Si02
#       7
#     8   8   8   8   8   8   8
#     4  11  22  38  62  93 123 155 195 239 292 350
#     4  10  19  33  58  89 115 147 193 244 293 347
#     4  11  24  40  58  84 116 152 199 245 285 342
#     4  10  22  38  58  84 116 154 194 240 293 347
#     4  10  23  42  62  84 119 160 193 235 296 356
#     4  10  20  39  63  89 120 153 192 238 294 356
#     4  10  21  39  60  83 116 155 195 238 296 356
#
# _framework density 19.28613
#
# number of rings (size 3 to 8) (size 9 to 14) (size 15 to 20)
#    0.000    1.714    2.857    1.286    0.000    5.143 
#    0.000    4.286    0.000    0.000    0.000    0.000 
#    0.000    0.000    0.000    0.000    0.000    0.000 
#
# Total GULP energy -347338.970535 kJ/mol
# GULP energy per Si atom -12404.963233 kJ/mol
# Density = 1.924223 g / cm^3
# Si number density = 19.286130 Si / 1000 Ang^3
#
#
#
# Elastic Constant Matrix: (Units=GPa)
#
#
# Indices 1 2 3 4 5 6 
#
# 1 113.1834 48.2441 33.5461 0.0000 -12.0487 0.0000
# 2 48.2441 77.8452 48.7078 0.0000 -12.4691 0.0000
# 3 33.5461 48.7078 96.1816 0.0000 -13.1086 0.0000
# 4 0.0000 0.0000 0.0000 34.3267 0.0000 -4.0007
# 5 -12.0487 -12.4691 -13.1086 0.0000 21.7710 0.0000
# 6 0.0000 0.0000 0.0000 -4.0007 0.0000 33.3829
#
#
#
# Elastic Compliance Matrix: (Units=1/GPa)
#
#
# Indices 1 2 3 4 5 6 
#
# 1 0.012156 -0.006866 -0.000416 0.000000 0.002545 0.000000
# 2 -0.006866 0.023304 -0.008830 0.000000 0.004231 0.000000
# 3 -0.000416 -0.008830 0.015571 0.000000 0.004088 0.000000
# 4 0.000000 0.000000 0.000000 0.029545 0.000000 0.003541
# 5 0.002545 0.004231 0.004088 0.000000 0.052225 0.000000
# 6 0.000000 0.000000 0.000000 0.003541 0.000000 0.030380
#
#
# Mechanical properties :
#
#
# Convention : Reuss Voigt Hill
#
# Bulk Modulus (GPa) = 53.17213 60.91179 57.04196
# Shear Modulus (GPa) = 24.79269 28.34361 26.56815
#
# Velocity S-wave (km/s) = 3.58930 3.83774 3.71560
# Velocity P-wave (km/s) = 6.69384 7.16167 6.93170
#
# Compressibility (1/GPa) = 0.01880684
#
# Stress axis : x y z
#
# Youngs Moduli (GPa) = 82.26489 42.91185 64.22214
#
# Poissons Ratio (x) = 0.29461 0.02672
# Poissons Ratio (y) = 0.56480 0.56709
# Poissons Ratio (z) = 0.03423 0.37892
#
# Static dielectric constant tensor:
#      x y z
#    x 3.619050 0.000000 0.066190 
#    y 0.000000 3.446440 0.000000 
#    z 0.066190 0.000000 3.406840 
# 
# 
# High freq. dielectric constant tensor:
#      x y z
#    x 1.764760 0.000000 -0.000290 
#    y 0.000000 1.745850 0.000000 
#    z -0.000290 0.000000 1.745380 
# 
# From -- ./inp_files/338505.got.cif
#   From: 2010.06.25/outbox.cif.g09.slc.cpg/sg12_170_cif.got.tgz:338505.got - 2010.06.28 00:19:55.
