data_PCOD8090667
_publ_section_title
;
Structure prediction by ZEFSAII (Michael W. Deem and Ramdas Pophale) SiO2 
 PCOD8090667
Probable space group: C 2/M
;
_chemical_formula_sum "Si O2"
_cell_formula_units_Z 64
_cell_length_a 15.466478
_cell_length_b 9.256115
_cell_length_c 24.617046
_cell_angle_alpha 90.000000
_cell_angle_beta 72.371139
_cell_angle_gamma 90.000000
_cell_volume 3358.663020
_symmetry_space_group_name_H-M "C 2/M"
_symmetry_group_IT_number 12
_symmetry_cell_setting 'monoclinic'
loop_
_space_group_symop_operation_xyz
x,y,z
-x,y,-z
-x,-y,-z
x,-y,z
1/2+x,1/2+y,z
1/2-x,1/2+y,-z
1/2-x,1/2-y,-z
1/2+x,1/2-y,z
loop_
_atom_site_type_symbol
_atom_site_label
_atom_site_fract_x
_atom_site_fract_y
_atom_site_fract_z
Si Si1 0.722844 0.671157 0.059664
Si Si2 0.841611 0.329826 0.635859
Si Si3 0.451585 0.663446 0.262177
Si Si4 0.718908 0.168780 0.736733
Si Si5 0.475108 0.666763 0.867086
Si Si6 0.783986 0.830995 0.440971
Si Si7 0.148961 0.668124 0.866957
Si Si8 0.011772 0.834950 0.624545
O O1 0.725487 0.500000 0.050810
O O2 0.622663 0.723888 0.095608
O O3 0.793520 0.719858 0.092404
O O4 0.750000 0.750000 0.000000
O O5 0.846255 0.500000 0.643770
O O6 0.805053 0.254862 0.697622
O O7 0.778101 0.285469 0.597877
O O8 0.942225 0.267737 0.605574
O O9 0.410855 0.500000 0.267124
O O10 0.370227 0.777040 0.277516
O O11 0.518603 0.692153 0.198974
O O12 0.506287 0.682856 0.307517
O O13 0.708715 0.203434 0.802434
O O14 0.732566 0.000000 0.722841
O O15 0.487185 0.500000 0.879560
O O16 0.553227 0.750260 0.884673
O O17 0.750000 0.750000 0.500000
O O18 0.886777 0.784807 0.408947
O O19 0.776163 0.000000 0.453300
O O20 0.125839 0.500000 0.874012
O O21 0.995625 0.000000 0.609429
#
# Coordination Sequence:
#
# PCOD8090667 Si02
#       8
#     8   8   8   8   8   8   8   8
#     4  10  22  39  57  80 111 151 193 233 280 338
#     4  11  23  39  58  87 121 153 191 238 289 339
#     4   9  17  34  59  83 117 152 185 233 290 342
#     4  10  19  33  58  87 117 151 190 233 285 347
#     4   9  19  35  58  83 110 148 189 231 283 339
#     4  10  23  43  63  83 116 156 195 238 284 337
#     4   9  20  37  57  82 114 148 187 234 285 337
#     4  10  21  38  60  87 117 154 194 234 286 344
#
# _framework density 19.055201
#
# number of rings (size 3 to 8) (size 9 to 14) (size 15 to 20)
#    0.000    2.250    1.250    0.750    1.750    4.500 
#    0.000    5.000    0.000    0.000    0.000    0.000 
#    0.000    0.000    0.000    0.000    0.000    0.000 
#
# Total GULP energy -396863.871016 kJ/mol
# GULP energy per Si atom -12401.995969 kJ/mol
# Density = 1.901183 g / cm^3
# Si number density = 19.055201 Si / 1000 Ang^3
#
#
#
# Elastic Constant Matrix: (Units=GPa)
#
#
# Indices 1 2 3 4 5 6 
#
# 1 151.0969 61.9017 73.9786 0.0000 -13.3568 0.0000
# 2 61.9017 67.9253 51.0115 0.0000 -3.0059 0.0000
# 3 73.9786 51.0115 116.4882 0.0000 -10.0012 0.0000
# 4 0.0000 0.0000 0.0000 34.1796 0.0000 -2.5356
# 5 -13.3568 -3.0059 -10.0012 0.0000 21.7290 0.0000
# 6 0.0000 0.0000 0.0000 -2.5356 0.0000 36.0963
#
#
#
# Elastic Compliance Matrix: (Units=1/GPa)
#
#
# Indices 1 2 3 4 5 6 
#
# 1 0.012191 -0.008030 -0.003829 0.000000 0.004621 0.000000
# 2 -0.008030 0.027269 -0.007227 0.000000 -0.004490 0.000000
# 3 -0.003829 -0.007227 0.014465 0.000000 0.003304 0.000000
# 4 0.000000 0.000000 0.000000 0.029410 0.000000 0.002066
# 5 0.004621 -0.004490 0.003304 0.000000 0.049762 0.000000
# 6 0.000000 0.000000 0.000000 0.002066 0.000000 0.027849
#
#
# Mechanical properties :
#
#
# Convention : Reuss Voigt Hill
#
# Bulk Modulus (GPa) = 63.48309 78.81045 71.14677
# Shear Modulus (GPa) = 24.46548 28.30887 26.38718
#
# Velocity S-wave (km/s) = 3.58708 3.85856 3.72529
# Velocity P-wave (km/s) = 7.10942 7.82944 7.47810
#
# Compressibility (1/GPa) = 0.01575223
#
# Stress axis : x y z
#
# Youngs Moduli (GPa) = 82.02563 36.67193 69.13247
#
# Poissons Ratio (x) = 0.29447 0.26473
# Poissons Ratio (y) = 0.65866 0.49964
# Poissons Ratio (z) = 0.31410 0.26504
#
# Static dielectric constant tensor:
#      x y z
#    x 3.498340 0.000000 -0.028210 
#    y 0.000000 3.436350 0.000000 
#    z -0.028210 0.000000 3.491750 
# 
# 
# High freq. dielectric constant tensor:
#      x y z
#    x 1.743080 0.000000 -0.003450 
#    y 0.000000 1.735410 0.000000 
#    z -0.003450 0.000000 1.739380 
# 
# From -- ./inp_files/359689.got.cif
#   From: 2010.06.25/outbox.cif.g09.slc.cpg/sg12_180_cif.got.tgz:359689.got - 2010.06.28 00:19:55.
