data_PCOD8090944
_publ_section_title
;
Structure prediction by ZEFSAII (Michael W. Deem and Ramdas Pophale) SiO2 
 PCOD8090944
Probable space group: C 2/M
;
_chemical_formula_sum "Si O2"
_cell_formula_units_Z 56
_cell_length_a 12.991124
_cell_length_b 13.269209
_cell_length_c 18.783919
_cell_angle_alpha 90.000000
_cell_angle_beta 113.180188
_cell_angle_gamma 90.000000
_cell_volume 2976.608839
_symmetry_space_group_name_H-M "C 2/M"
_symmetry_group_IT_number 12
_symmetry_cell_setting 'monoclinic'
loop_
_space_group_symop_operation_xyz
x,y,z
-x,y,-z
-x,-y,-z
x,-y,z
1/2+x,1/2+y,z
1/2-x,1/2+y,-z
1/2-x,1/2-y,-z
1/2+x,1/2-y,z
loop_
_atom_site_type_symbol
_atom_site_label
_atom_site_fract_x
_atom_site_fract_y
_atom_site_fract_z
Si Si1 0.328280 0.614343 0.017139
Si Si2 0.457745 0.115871 0.600690
Si Si3 0.127029 0.691107 0.047758
Si Si4 0.643786 0.753366 0.308967
Si Si5 0.822972 0.383985 0.425536
Si Si6 0.743067 0.117560 0.216876
Si Si7 0.465196 0.384974 0.194385
O O1 0.341619 0.500000 0.993371
O O2 0.202749 0.629146 0.012425
O O3 0.415580 0.640061 0.103516
O O4 0.354044 0.688838 0.958780
O O5 0.439353 0.181501 0.665564
O O6 0.584416 0.133034 0.609958
O O7 0.372180 0.148215 0.515223
O O8 0.437874 0.000000 0.615225
O O9 0.158199 0.663925 0.136413
O O10 0.000000 0.658712 0.000000
O O11 0.715940 0.683368 0.380276
O O12 0.724658 0.826539 0.286475
O O13 0.570719 0.686194 0.235631
O O14 0.785071 0.500000 0.416875
O O15 0.870887 0.134614 0.228320
O O16 0.716176 0.000000 0.218491
O O17 0.506223 0.500000 0.209046
#
# Coordination Sequence:
#
# PCOD8090944 Si02
#       7
#     8   8   8   8   8   8   8
#     4   9  19  35  53  73  99 131 168 209 252 295
#     4   9  19  35  52  73 104 134 161 202 251 290
#     4  10  19  34  54  74  97 131 170 207 249 298
#     4  12  19  31  55  79  97 129 175 204 233 294
#     4   9  19  35  53  75 102 131 164 204 248 290
#     4  10  22  36  49  72 106 135 160 201 257 302
#     4   9  19  35  51  71 103 135 161 201 255 298
#
# _framework density 18.813355999999999
#
# number of rings (size 3 to 8) (size 9 to 14) (size 15 to 20)
#    0.000    2.286    0.000    5.143    0.000    1.429 
#    0.000    1.429    0.000    5.143    0.000   12.000 
#    0.000    0.000    0.000    0.000    0.000    0.000 
#
# Total GULP energy -347282.601117 kJ/mol
# GULP energy per Si atom -12402.950040 kJ/mol
# Density = 1.877054 g / cm^3
# Si number density = 18.813356 Si / 1000 Ang^3
#
#
#
# Elastic Constant Matrix: (Units=GPa)
#
#
# Indices 1 2 3 4 5 6 
#
# 1 41.6250 19.7016 9.0433 0.0000 10.2021 0.0000
# 2 19.7016 94.4467 29.0613 0.0000 4.1486 0.0000
# 3 9.0433 29.0613 35.4489 0.0000 6.7929 0.0000
# 4 0.0000 0.0000 0.0000 25.7877 0.0000 3.4883
# 5 10.2021 4.1486 6.7929 0.0000 30.9677 0.0000
# 6 0.0000 0.0000 0.0000 3.4883 0.0000 22.1015
#
#
#
# Elastic Compliance Matrix: (Units=1/GPa)
#
#
# Indices 1 2 3 4 5 6 
#
# 1 0.028888 -0.005197 -0.001481 0.000000 -0.008496 0.000000
# 2 -0.005197 0.015109 -0.011483 0.000000 0.002207 0.000000
# 3 -0.001481 -0.011483 0.039264 0.000000 -0.006586 0.000000
# 4 0.000000 0.000000 0.000000 0.039624 0.000000 -0.006254
# 5 -0.008496 0.002207 -0.006586 0.000000 0.036240 0.000000
# 6 0.000000 0.000000 0.000000 -0.006254 0.000000 0.046233
#
#
# Mechanical properties :
#
#
# Convention : Reuss Voigt Hill
#
# Bulk Modulus (GPa) = 21.30491 31.90367 26.60429
# Shear Modulus (GPa) = 19.43067 23.35233 21.39150
#
# Velocity S-wave (km/s) = 3.21723 3.52698 3.37566
# Velocity P-wave (km/s) = 5.01494 5.79490 5.41898
#
# Compressibility (1/GPa) = 0.04693753
#
# Stress axis : x y z
#
# Youngs Moduli (GPa) = 34.61655 66.18769 25.46889
#
# Poissons Ratio (x) = 0.34399 0.03772
# Poissons Ratio (y) = 0.17991 0.29246
# Poissons Ratio (z) = 0.05126 0.76005
#
# Static dielectric constant tensor:
#      x y z
#    x 3.334400 0.000000 0.014300 
#    y 0.000000 3.448510 0.000000 
#    z 0.014300 0.000000 3.228000 
# 
# 
# High freq. dielectric constant tensor:
#      x y z
#    x 1.729220 0.000000 0.001010 
#    y 0.000000 1.737360 0.000000 
#    z 0.001010 0.000000 1.717500 
# 
# From -- ./inp_files/304786.got.cif
#   From: 2010.06.25/outbox.cif.g09.slc.cpg/sg12_153_cif.got.tgz:304786.got - 2010.06.28 00:19:55.
