data_PCOD8090201
_publ_section_title
;
Structure prediction by ZEFSAII (Michael W. Deem and Ramdas Pophale) SiO2 
 PCOD8090201
Probable space group: C 2/M
;
_chemical_formula_sum "Si O2"
_cell_formula_units_Z 64
_cell_length_a 5.464064
_cell_length_b 26.899512
_cell_length_c 20.830136
_cell_angle_alpha 90.000000
_cell_angle_beta 87.188368
_cell_angle_gamma 90.000000
_cell_volume 3057.941448
_symmetry_space_group_name_H-M "C 2/M"
_symmetry_group_IT_number 12
_symmetry_cell_setting 'monoclinic'
loop_
_space_group_symop_operation_xyz
x,y,z
-x,y,-z
-x,-y,-z
x,-y,z
1/2+x,1/2+y,z
1/2-x,1/2+y,-z
1/2-x,1/2-y,-z
1/2+x,1/2-y,z
loop_
_atom_site_type_symbol
_atom_site_label
_atom_site_fract_x
_atom_site_fract_y
_atom_site_fract_z
Si Si1 0.754505 0.057860 0.470323
Si Si2 0.445401 0.267016 0.105593
Si Si3 0.153641 0.444936 0.204200
Si Si4 0.052538 0.055330 0.667602
Si Si5 0.993546 0.123986 0.862251
Si Si6 0.244230 0.942836 0.038464
Si Si7 0.732810 0.876502 0.741123
Si Si8 0.056263 0.727999 0.749492
O O1 0.500000 0.082182 0.500000
O O2 0.767190 0.067430 0.393729
O O3 0.000000 0.081176 0.500000
O O4 0.748076 0.000000 0.488147
O O5 0.708705 0.253794 0.069747
O O6 0.416414 0.326291 0.104325
O O7 0.455475 0.238670 0.174390
O O8 0.118489 0.500000 0.177265
O O9 0.302998 0.444477 0.268166
O O10 0.282282 0.414477 0.145681
O O11 0.890467 0.422776 0.221713
O O12 0.851577 0.099774 0.675054
O O13 0.933989 0.000000 0.658327
O O14 0.772622 0.095550 0.901626
O O15 0.927298 0.143044 0.791215
O O16 0.245468 0.000000 0.062367
O O17 0.500000 0.930584 0.000000
O O18 0.000000 0.932352 0.000000
O O19 0.550431 0.830609 0.730540
O O20 0.312828 0.750026 0.718346
#
# Coordination Sequence:
#
# PCOD8090201 Si02
#       8
#     8   8   8   8   8   8   8   8
#     4   9  18  32  52  72  99 150 201 230 263 313
#     4  10  19  33  55  84 109 140 174 224 272 330
#     4  10  21  33  50  80 116 149 182 224 278 339
#     4   9  20  34  47  77 119 151 185 232 275 322
#     4  11  22  36  60  82 108 147 190 222 284 343
#     4  10  24  44  62  82 109 144 189 239 275 317
#     4  11  21  32  56  82 113 151 181 224 285 344
#     4  10  19  34  52  78 110 143 178 222 269 333
#
# _framework density 20.929110999999999
#
# number of rings (size 3 to 8) (size 9 to 14) (size 15 to 20)
#    0.000    2.000    2.500    2.250    5.250    1.500 
#    0.000    0.000    0.000    2.250    0.000    0.000 
#    0.000    3.000    0.000    0.000    0.000    0.000 
#
# Total GULP energy -396523.777677 kJ/mol
# GULP energy per Si atom -12391.368052 kJ/mol
# Density = 2.088148 g / cm^3
# Si number density = 20.929111 Si / 1000 Ang^3
#
#
#
# Elastic Constant Matrix: (Units=GPa)
#
#
# Indices 1 2 3 4 5 6 
#
# 1 126.0639 23.2060 23.3083 0.0000 -28.8927 0.0000
# 2 23.2060 108.1406 29.4098 0.0000 -17.7061 0.0000
# 3 23.3083 29.4098 73.9625 0.0000 -24.3759 0.0000
# 4 0.0000 0.0000 0.0000 12.3080 0.0000 -5.9980
# 5 -28.8927 -17.7061 -24.3759 0.0000 25.7405 0.0000
# 6 0.0000 0.0000 0.0000 -5.9980 0.0000 22.3711
#
#
#
# Elastic Compliance Matrix: (Units=1/GPa)
#
#
# Indices 1 2 3 4 5 6 
#
# 1 0.010740 -0.000502 0.000980 0.000000 0.012639 0.000000
# 2 -0.000502 0.010797 -0.002723 0.000000 0.004285 0.000000
# 3 0.000980 -0.002723 0.020409 0.000000 0.018555 0.000000
# 4 0.000000 0.000000 0.000000 0.093459 0.000000 0.025058
# 5 0.012639 0.004285 0.018555 0.000000 0.073554 0.000000
# 6 0.000000 0.000000 0.000000 0.025058 0.000000 0.051419
#
#
# Mechanical properties :
#
#
# Convention : Reuss Voigt Hill
#
# Bulk Modulus (GPa) = 26.69705 51.11279 38.90492
# Shear Modulus (GPa) = 18.02753 27.56677 22.79715
#
# Velocity S-wave (km/s) = 2.93808 3.63319 3.30397
# Velocity P-wave (km/s) = 4.92883 6.48652 5.76057
#
# Compressibility (1/GPa) = 0.03745732
#
# Stress axis : x y z
#
# Youngs Moduli (GPa) = 93.10744 92.61804 48.99747
#
# Poissons Ratio (x) = 0.04650 -0.04803
# Poissons Ratio (y) = 0.04674 0.13341
# Poissons Ratio (z) = -0.09127 0.25218
#
# Static dielectric constant tensor:
#      x y z
#    x 4.233000 0.000000 -0.335660 
#    y 0.000000 3.758500 0.000000 
#    z -0.335660 0.000000 3.445850 
# 
# 
# High freq. dielectric constant tensor:
#      x y z
#    x 1.828420 0.000000 -0.025610 
#    y 0.000000 1.805670 0.000000 
#    z -0.025610 0.000000 1.772140 
# 
# From -- ./inp_files/298298.got.cif
#   From: 2010.06.25/outbox.cif.g09.slc.cpg/sg12_150_cif.got.tgz:298298.got - 2010.06.28 00:19:55.
