data_PCOD8090625
_publ_section_title
;
Structure prediction by ZEFSAII (Michael W. Deem and Ramdas Pophale) SiO2 
 PCOD8090625
Probable space group: C 2/M
;
_chemical_formula_sum "Si O2"
_cell_formula_units_Z 52
_cell_length_a 12.248312
_cell_length_b 31.540592
_cell_length_c 10.879492
_cell_angle_alpha 90.000000
_cell_angle_beta 38.210730
_cell_angle_gamma 90.000000
_cell_volume 2599.760912
_symmetry_space_group_name_H-M "C 2/M"
_symmetry_group_IT_number 12
_symmetry_cell_setting 'monoclinic'
loop_
_space_group_symop_operation_xyz
x,y,z
-x,y,-z
-x,-y,-z
x,-y,z
1/2+x,1/2+y,z
1/2-x,1/2+y,-z
1/2-x,1/2-y,-z
1/2+x,1/2-y,z
loop_
_atom_site_type_symbol
_atom_site_label
_atom_site_fract_x
_atom_site_fract_y
_atom_site_fract_z
Si Si1 0.702530 0.769561 0.352990
Si Si2 0.024665 0.868253 0.236977
Si Si3 0.981074 0.545398 0.162270
Si Si4 0.415186 0.865906 0.940674
Si Si5 0.273276 0.812755 0.411642
Si Si6 0.500000 0.324561 0.000000
Si Si7 0.427712 0.452352 0.431180
O O1 0.500000 0.777538 0.500000
O O2 0.751969 0.787689 0.441010
O O3 0.747635 0.719244 0.318533
O O4 0.827710 0.793941 0.145033
O O5 0.878277 0.848510 0.457843
O O6 0.007728 0.919286 0.261874
O O7 0.213256 0.851006 0.118813
O O8 0.997058 0.854992 0.120439
O O9 0.054406 0.500000 0.149248
O O10 0.781347 0.550593 0.381569
O O11 0.083165 0.586813 0.122164
O O12 0.000000 0.544063 0.000000
O O13 0.532744 0.833418 0.758680
O O14 0.500000 0.867738 0.000000
O O15 0.500000 0.439264 0.500000
O O16 0.491003 0.500000 0.340118
#
# Coordination Sequence:
#
# PCOD8090625 Si02
#       7
#     8   8   8   8   8   4   8
#     4  10  22  40  62  78 112 154 192 244 293 348
#     4  11  23  39  61  85 121 157 198 243 289 347
#     4   9  17  31  50  79 119 153 183 221 276 349
#     4  11  22  33  56  88 119 148 185 238 298 349
#     4  10  23  38  55  89 112 147 198 238 297 349
#     4  10  24  44  61  84 110 158 211 242 284 350
#     4  10  19  33  57  89 125 158 190 237 296 347
#
# _framework density 20.001839
#
# number of rings (size 3 to 8) (size 9 to 14) (size 15 to 20)
#    0.000    1.846    1.538    2.769    3.231    1.846 
#    0.000    5.000    0.000    0.000    0.000    2.154 
#    0.000    0.000    0.000    0.000    0.000    0.000 
#
# Total GULP energy -322273.910634 kJ/mol
# GULP energy per Si atom -12395.150409 kJ/mol
# Density = 1.995631 g / cm^3
# Si number density = 20.001839 Si / 1000 Ang^3
#
#
#
# Elastic Constant Matrix: (Units=GPa)
#
#
# Indices 1 2 3 4 5 6 
#
# 1 54.5688 26.3584 24.6005 0.0000 -12.3722 0.0000
# 2 26.3584 130.6461 51.4918 0.0000 3.0683 0.0000
# 3 24.6005 51.4918 111.0412 0.0000 -19.3152 0.0000
# 4 0.0000 0.0000 0.0000 25.9458 0.0000 1.3958
# 5 -12.3722 3.0683 -19.3152 0.0000 34.3527 0.0000
# 6 0.0000 0.0000 0.0000 1.3958 0.0000 18.5634
#
#
#
# Elastic Compliance Matrix: (Units=1/GPa)
#
#
# Indices 1 2 3 4 5 6 
#
# 1 0.022831 -0.004045 -0.001872 0.000000 0.007531 0.000000
# 2 -0.004045 0.010511 -0.004871 0.000000 -0.005134 0.000000
# 3 -0.001872 -0.004871 0.012899 0.000000 0.007014 0.000000
# 4 0.000000 0.000000 0.000000 0.038698 0.000000 -0.002910
# 5 0.007531 -0.005134 0.007014 0.000000 0.036224 0.000000
# 6 0.000000 0.000000 0.000000 -0.002910 0.000000 0.054088
#
#
# Mechanical properties :
#
#
# Convention : Reuss Voigt Hill
#
# Bulk Modulus (GPa) = 40.54462 55.68419 48.11440
# Shear Modulus (GPa) = 24.38429 28.69273 26.53851
#
# Velocity S-wave (km/s) = 3.49535 3.79159 3.64648
# Velocity P-wave (km/s) = 6.05016 6.86063 6.46810
#
# Compressibility (1/GPa) = 0.02466418
#
# Stress axis : x y z
#
# Youngs Moduli (GPa) = 43.80010 95.14016 77.52437
#
# Poissons Ratio (x) = 0.38487 0.14514
# Poissons Ratio (y) = 0.17718 0.37762
# Poissons Ratio (z) = 0.08200 0.46343
#
# Static dielectric constant tensor:
#      x y z
#    x 3.151080 0.000000 -0.203770 
#    y 0.000000 4.318060 0.000000 
#    z -0.203770 0.000000 3.719480 
# 
# 
# High freq. dielectric constant tensor:
#      x y z
#    x 1.730720 0.000000 -0.023980 
#    y 0.000000 1.803480 0.000000 
#    z -0.023980 0.000000 1.787400 
# 
# From -- ./inp_files/137570.got.cif
#   From: 2010.06.25/outbox.cif.g09.slc.cpg/sg12_69_cif.got.tgz:137570.got - 2010.06.28 00:19:55.
