data_PCOD8090524
_publ_section_title
;
Structure prediction by ZEFSAII (Michael W. Deem and Ramdas Pophale) SiO2 
 PCOD8090524
Probable space group: C 2/M
;
_chemical_formula_sum "Si O2"
_cell_formula_units_Z 56
_cell_length_a 19.116554
_cell_length_b 8.909800
_cell_length_c 19.595843
_cell_angle_alpha 90.000000
_cell_angle_beta 64.053266
_cell_angle_gamma 90.000000
_cell_volume 3001.223864
_symmetry_space_group_name_H-M "C 2/M"
_symmetry_group_IT_number 12
_symmetry_cell_setting 'monoclinic'
loop_
_space_group_symop_operation_xyz
x,y,z
-x,y,-z
-x,-y,-z
x,-y,z
1/2+x,1/2+y,z
1/2-x,1/2+y,-z
1/2-x,1/2-y,-z
1/2+x,1/2-y,z
loop_
_atom_site_type_symbol
_atom_site_label
_atom_site_fract_x
_atom_site_fract_y
_atom_site_fract_z
Si Si1 0.548788 0.677376 0.916974
Si Si2 0.511589 0.325411 0.781206
Si Si3 0.717226 0.325187 0.809993
Si Si4 0.287606 0.335331 0.545552
Si Si5 0.579578 0.177341 0.427740
Si Si6 0.877956 0.824715 0.734149
Si Si7 0.158832 0.336624 0.709323
O O1 0.543211 0.500000 0.923560
O O2 0.510962 0.728719 0.860906
O O3 0.640107 0.724059 0.885786
O O4 0.500000 0.751089 0.000000
O O5 0.533114 0.500000 0.767438
O O6 0.431649 0.291291 0.776643
O O7 0.577777 0.228724 0.714995
O O8 0.735745 0.500000 0.810690
O O9 0.794282 0.233245 0.795819
O O10 0.696356 0.289587 0.741161
O O11 0.321646 0.500000 0.510284
O O12 0.250000 0.250000 0.500000
O O13 0.352919 0.235025 0.552348
O O14 0.216012 0.364594 0.624333
O O15 0.500000 0.223429 0.500000
O O16 0.587965 0.247611 0.348491
O O17 0.586307 0.000000 0.415973
O O18 0.871427 0.000000 0.719958
O O19 0.145538 0.500000 0.751245
#
# Coordination Sequence:
#
# PCOD8090524 Si02
#       7
#     8   8   8   8   8   8   8
#     4   8  15  32  58  85 112 144 186 230 272 327
#     4   9  20  35  55  83 111 146 187 226 275 332
#     4  10  19  33  57  83 108 145 187 225 274 330
#     4  11  24  39  57  81 110 145 187 233 284 335
#     4  11  25  42  59  81 111 147 190 238 288 337
#     4  11  22  37  56  81 114 149 188 232 280 335
#     4  10  20  35  55  79 106 140 183 231 278 326
#
# _framework density 18.659054000000001
#
# number of rings (size 3 to 8) (size 9 to 14) (size 15 to 20)
#    0.000    2.000    1.429    3.000    2.000    4.000 
#    0.000    0.714    0.000   10.714    0.000    0.000 
#    0.000    0.000    0.000    0.000    0.000    0.000 
#
# Total GULP energy -346972.856844 kJ/mol
# GULP energy per Si atom -12391.887744 kJ/mol
# Density = 1.861658 g / cm^3
# Si number density = 18.659054 Si / 1000 Ang^3
#
#
#
# Elastic Constant Matrix: (Units=GPa)
#
#
# Indices 1 2 3 4 5 6 
#
# 1 149.1119 55.3330 67.2229 0.0000 -11.3907 0.0000
# 2 55.3330 81.1905 43.7374 0.0000 -9.3690 -0.0001
# 3 67.2229 43.7374 102.8308 0.0000 -17.8330 0.0000
# 4 0.0000 0.0000 0.0000 17.1341 0.0000 3.1910
# 5 -11.3907 -9.3690 -17.8330 0.0000 24.0297 0.0000
# 6 0.0000 -0.0001 0.0000 3.1910 0.0000 -36.6309
#
#
#
# Elastic Compliance Matrix: (Units=1/GPa)
#
#
# Indices 1 2 3 4 5 6 
#
# 1 0.010673 -0.004575 -0.005123 0.000000 -0.000526 0.000000
# 2 -0.004575 0.017978 -0.004380 0.000000 0.001590 0.000000
# 3 -0.005123 -0.004380 0.016319 0.000000 0.007975 0.000000
# 4 0.000000 0.000000 0.000000 0.057431 0.000000 0.005003
# 5 -0.000526 0.001590 0.007975 0.000000 0.047904 0.000000
# 6 0.000000 0.000000 0.000000 0.005003 0.000000 -0.026863
#
#
# Mechanical properties :
#
#
# Convention : Reuss Voigt Hill
#
# Bulk Modulus (GPa) = 59.47027 73.96887 66.71957
# Shear Modulus (GPa) = 31.80593 12.02923 21.91758
#
# Velocity S-wave (km/s) = 4.13314 2.54182 3.43101
# Velocity P-wave (km/s) = 7.39719 6.95290 7.17848
#
# Compressibility (1/GPa) = 0.01681512
#
# Stress axis : x y z
#
# Youngs Moduli (GPa) = 93.69089 55.62426 61.27661
#
# Poissons Ratio (x) = 0.25450 0.31390
# Poissons Ratio (y) = 0.42866 0.26838
# Poissons Ratio (z) = 0.47995 0.24362
#
# Static dielectric constant tensor:
#      x y z
#    x 3.785220 0.000000 -0.108600 
#    y 0.000000 3.585750 0.000000 
#    z -0.108600 0.000000 3.695420 
# 
# 
# High freq. dielectric constant tensor:
#      x y z
#    x 1.728170 0.000000 -0.013020 
#    y 0.000000 1.729100 0.000000 
#    z -0.013020 0.000000 1.709810 
# 
# From -- ./inp_files/275564.got.cif
#   From: 2010.06.25/outbox.cif.g09.slc.cpg/sg12_138_cif.got.tgz:275564.got - 2010.06.28 00:19:55.
