data_PCOD8090501
_publ_section_title
;
Structure prediction by ZEFSAII (Michael W. Deem and Ramdas Pophale) SiO2 
 PCOD8090501
Probable space group: C 2/M
;
_chemical_formula_sum "Si O2"
_cell_formula_units_Z 44
_cell_length_a 10.214747
_cell_length_b 17.553880
_cell_length_c 15.608604
_cell_angle_alpha 90.000000
_cell_angle_beta 120.538121
_cell_angle_gamma 90.000000
_cell_volume 2410.542846
_symmetry_space_group_name_H-M "C 2/M"
_symmetry_group_IT_number 12
_symmetry_cell_setting 'monoclinic'
loop_
_space_group_symop_operation_xyz
x,y,z
-x,y,-z
-x,-y,-z
x,-y,z
1/2+x,1/2+y,z
1/2-x,1/2+y,-z
1/2-x,1/2-y,-z
1/2+x,1/2-y,z
loop_
_atom_site_type_symbol
_atom_site_label
_atom_site_fract_x
_atom_site_fract_y
_atom_site_fract_z
Si Si1 0.057534 0.911421 0.853048
Si Si2 0.000000 0.831023 0.000000
Si Si3 0.263163 0.300034 0.304787
Si Si4 0.153698 0.314194 0.083004
Si Si5 0.674993 0.415967 0.536181
Si Si6 0.409294 0.328841 0.652596
O O1 0.207661 0.860841 0.907542
O O2 0.970454 0.886057 0.909528
O O3 0.960732 0.894072 0.736202
O O4 0.098238 0.000000 0.867736
O O5 0.852634 0.773736 0.954788
O O6 0.157168 0.312201 0.187441
O O7 0.242498 0.373988 0.357801
O O8 0.440081 0.287532 0.336102
O O9 0.203895 0.228304 0.338088
O O10 0.000000 0.356599 0.000000
O O11 0.500000 0.424578 0.500000
O O12 0.748238 0.500000 0.549490
O O13 0.691830 0.367816 0.454658
#
# Coordination Sequence:
#
# PCOD8090501 Si02
#       6
#     8   4   8   8   8   8
#     4  11  21  34  56  82 109 141 180 225 272 320
#     4  10  19  36  53  74 110 140 178 218 265 318
#     4  10  19  33  57  79 106 140 185 218 270 323
#     4   9  20  35  55  77 107 144 180 221 265 323
#     4   9  18  32  53  80 109 137 175 227 275 316
#     4  10  19  35  54  83 106 141 178 227 265 332
#
# _framework density 18.253150000000002
#
# number of rings (size 3 to 8) (size 9 to 14) (size 15 to 20)
#    0.545    1.636    1.818    1.909    0.000    4.727 
#    0.000    0.000    0.000    3.273    0.000    0.000 
#    0.000    0.000    0.000    0.000    0.000    0.000 
#
# Total GULP energy -272640.359806 kJ/mol
# GULP energy per Si atom -12392.743628 kJ/mol
# Density = 1.821161 g / cm^3
# Si number density = 18.253150 Si / 1000 Ang^3
#
#
#
# Elastic Constant Matrix: (Units=GPa)
#
#
# Indices 1 2 3 4 5 6 
#
# 1 47.0440 35.8044 13.4858 0.0000 -18.4199 0.0000
# 2 35.8044 117.3599 45.6741 0.0000 -17.3203 0.0000
# 3 13.4858 45.6741 100.1609 0.0000 -8.2096 0.0000
# 4 0.0000 0.0000 0.0000 26.5393 0.0000 -0.6667
# 5 -18.4199 -17.3203 -8.2096 0.0000 15.4771 0.0000
# 6 0.0000 0.0000 0.0000 -0.6667 0.0000 12.7504
#
#
#
# Elastic Compliance Matrix: (Units=1/GPa)
#
#
# Indices 1 2 3 4 5 6 
#
# 1 0.044013 -0.007211 0.001039 0.000000 0.044863 0.000000
# 2 -0.007211 0.013075 -0.004700 0.000000 0.003557 0.000000
# 3 0.001039 -0.004700 0.012187 0.000000 0.002442 0.000000
# 4 0.000000 0.000000 0.000000 0.037729 0.000000 0.001973
# 5 0.044863 0.003557 0.002442 0.000000 0.123280 0.000000
# 6 0.000000 0.000000 0.000000 0.001973 0.000000 0.078532
#
#
# Mechanical properties :
#
#
# Convention : Reuss Voigt Hill
#
# Bulk Modulus (GPa) = 21.03840 50.49926 35.76883
# Shear Modulus (GPa) = 14.43403 22.26005 18.34704
#
# Velocity S-wave (km/s) = 2.81511 3.49595 3.17384
# Velocity P-wave (km/s) = 4.70291 6.63488 5.75061
#
# Compressibility (1/GPa) = 0.04753213
#
# Stress axis : x y z
#
# Youngs Moduli (GPa) = 22.72068 76.48342 82.05284
#
# Poissons Ratio (x) = 0.55153 -0.08529
# Poissons Ratio (y) = 0.16384 0.38563
# Poissons Ratio (z) = -0.02362 0.35945
#
# Static dielectric constant tensor:
#      x y z
#    x 3.100380 0.000000 -0.144140 
#    y 0.000000 3.343430 0.000000 
#    z -0.144140 0.000000 3.721660 
# 
# 
# High freq. dielectric constant tensor:
#      x y z
#    x 1.673560 0.000000 -0.019150 
#    y 0.000000 1.699000 0.000000 
#    z -0.019150 0.000000 1.727810 
# 
# From -- ./inp_files/205752.got.cif
#   From: 2010.06.25/outbox.cif.g09.slc.cpg/sg12_103_cif.got.tgz:205752.got - 2010.06.28 00:19:55.
