data_PCOD8090150
_publ_section_title
;
Structure prediction by ZEFSAII (Michael W. Deem and Ramdas Pophale) SiO2 
 PCOD8090150
Probable space group: C 2/M
;
_chemical_formula_sum "Si O2"
_cell_formula_units_Z 56
_cell_length_a 25.425738
_cell_length_b 9.001187
_cell_length_c 13.714704
_cell_angle_alpha 90.000000
_cell_angle_beta 67.280316
_cell_angle_gamma 90.000000
_cell_volume 2895.220559
_symmetry_space_group_name_H-M "C 2/M"
_symmetry_group_IT_number 12
_symmetry_cell_setting 'monoclinic'
loop_
_space_group_symop_operation_xyz
x,y,z
-x,y,-z
-x,-y,-z
x,-y,z
1/2+x,1/2+y,z
1/2-x,1/2+y,-z
1/2-x,1/2-y,-z
1/2+x,1/2-y,z
loop_
_atom_site_type_symbol
_atom_site_label
_atom_site_fract_x
_atom_site_fract_y
_atom_site_fract_z
Si Si1 0.386865 0.175781 0.217616
Si Si2 0.806454 0.174938 0.924822
Si Si3 0.494836 0.674521 0.218375
Si Si4 0.330896 0.323543 0.693199
Si Si5 0.236072 0.676430 0.612176
Si Si6 0.543128 0.323160 0.389461
Si Si7 0.593485 0.326791 0.001886
O O1 0.434803 0.241645 0.254441
O O2 0.325322 0.227184 0.302355
O O3 0.391473 0.000000 0.213169
O O4 0.397473 0.232979 0.101305
O O5 0.817462 0.238227 0.809660
O O6 0.858242 0.221142 0.956757
O O7 0.798270 0.000000 0.929405
O O8 0.750000 0.250000 0.000000
O O9 0.482517 0.500000 0.234583
O O10 0.526816 0.732151 0.292713
O O11 0.532836 0.709605 0.095640
O O12 0.328815 0.500000 0.695024
O O13 0.284477 0.261858 0.650821
O O14 0.394438 0.266635 0.622456
O O15 0.238799 0.500000 0.598886
O O16 0.250000 0.750000 0.500000
O O17 0.500000 0.256565 0.500000
O O18 0.541798 0.500000 0.390293
O O19 0.597113 0.500000 0.972078
#
# Coordination Sequence:
#
# PCOD8090150 Si02
#       7
#     8   8   8   8   8   8   8
#     4  11  24  39  55  82 118 154 190 230 283 346
#     4  10  19  33  55  82 114 147 182 228 279 332
#     4  10  20  36  59  88 115 145 190 241 282 328
#     4   9  17  34  56  80 110 141 177 228 279 323
#     4  10  23  40  59  82 111 148 190 232 277 333
#     4   9  17  30  55  89 112 134 182 236 280 326
#     4  10  20  36  57  84 115 147 191 240 280 328
#
# _framework density 19.342222
#
# number of rings (size 3 to 8) (size 9 to 14) (size 15 to 20)
#    0.000    2.143    1.429    1.714    2.000    5.143 
#    0.000    0.714    0.000    1.286    0.000    0.000 
#    0.000    0.000    0.000    0.000    0.000    0.000 
#
# Total GULP energy -347187.302216 kJ/mol
# GULP energy per Si atom -12399.546508 kJ/mol
# Density = 1.929820 g / cm^3
# Si number density = 19.342222 Si / 1000 Ang^3
#
#
#
# Elastic Constant Matrix: (Units=GPa)
#
#
# Indices 1 2 3 4 5 6 
#
# 1 182.8166 35.6039 72.3508 0.0000 -9.7475 0.0000
# 2 35.6039 27.9791 26.0996 0.0000 -2.5105 0.0000
# 3 72.3508 26.0996 126.5858 0.0000 -11.8348 0.0000
# 4 0.0000 0.0000 0.0000 25.4222 0.0000 -2.3646
# 5 -9.7475 -2.5105 -11.8348 0.0000 38.2121 0.0000
# 6 0.0000 0.0000 0.0000 -2.3646 0.0000 28.5743
#
#
#
# Elastic Compliance Matrix: (Units=1/GPa)
#
#
# Indices 1 2 3 4 5 6 
#
# 1 0.008177 -0.007483 -0.003070 0.000000 0.000643 0.000000
# 2 -0.007483 0.051101 -0.006306 0.000000 -0.000505 0.000000
# 3 -0.003070 -0.006306 0.011166 0.000000 0.002261 0.000000
# 4 0.000000 0.000000 0.000000 0.039641 0.000000 0.003280
# 5 0.000643 -0.000505 0.002261 0.000000 0.027001 0.000000
# 6 0.000000 0.000000 0.000000 0.003280 0.000000 0.035268
#
#
# Mechanical properties :
#
#
# Convention : Reuss Voigt Hill
#
# Bulk Modulus (GPa) = 27.22996 67.27665 47.25331
# Shear Modulus (GPa) = 22.90276 31.99687 27.44982
#
# Velocity S-wave (km/s) = 3.44478 4.07166 3.77127
# Velocity P-wave (km/s) = 5.47088 7.54734 6.59139
#
# Compressibility (1/GPa) = 0.03672425
#
# Stress axis : x y z
#
# Youngs Moduli (GPa) = 122.29762 19.56920 89.55529
#
# Poissons Ratio (x) = 0.14644 0.27498
# Poissons Ratio (y) = 0.91518 0.56475
# Poissons Ratio (z) = 0.37551 0.12341
#
# Static dielectric constant tensor:
#      x y z
#    x 3.877380 0.000000 -0.034310 
#    y 0.000000 3.104810 0.000000 
#    z -0.034310 0.000000 3.653070 
# 
# 
# High freq. dielectric constant tensor:
#      x y z
#    x 1.774720 0.000000 -0.000730 
#    y 0.000000 1.709080 0.000000 
#    z -0.000730 0.000000 1.764380 
# 
# From -- ./inp_files/180705.got.cif
#   From: 2010.06.25/outbox.cif.g09.slc.cpg/sg12_91_cif.got.tgz:180705.got - 2010.06.28 00:19:55.
