data_PCOD8090405
_publ_section_title
;
Structure prediction by ZEFSAII (Michael W. Deem and Ramdas Pophale) SiO2 
 PCOD8090405
Probable space group: C 2/M
;
_chemical_formula_sum "Si O2"
_cell_formula_units_Z 48
_cell_length_a 22.557966
_cell_length_b 8.969435
_cell_length_c 12.282120
_cell_angle_alpha 90.000000
_cell_angle_beta 109.794083
_cell_angle_gamma 90.000000
_cell_volume 2338.240062
_symmetry_space_group_name_H-M "C 2/M"
_symmetry_group_IT_number 12
_symmetry_cell_setting 'monoclinic'
loop_
_space_group_symop_operation_xyz
x,y,z
-x,y,-z
-x,-y,-z
x,-y,z
1/2+x,1/2+y,z
1/2-x,1/2+y,-z
1/2-x,1/2-y,-z
1/2+x,1/2-y,z
loop_
_atom_site_type_symbol
_atom_site_label
_atom_site_fract_x
_atom_site_fract_y
_atom_site_fract_z
Si Si1 0.572825 0.666180 0.572568
Si Si2 0.408829 0.829467 0.627301
Si Si3 0.224761 0.671911 0.377045
Si Si4 0.253010 0.173006 0.173149
Si Si5 0.047145 0.324733 0.770694
Si Si6 0.845803 0.827343 0.064268
O O1 0.500000 0.659838 0.500000
O O2 0.599166 0.500000 0.612170
O O3 0.608655 0.734902 0.491069
O O4 0.582560 0.771265 0.682774
O O5 0.351329 0.811390 0.675432
O O6 0.473705 0.775104 0.724971
O O7 0.418027 0.000000 0.595183
O O8 0.244893 0.500000 0.392136
O O9 0.250000 0.750000 0.500000
O O10 0.254615 0.746732 0.289930
O O11 0.306160 0.241600 0.130475
O O12 0.267918 0.000000 0.200089
O O13 0.184963 0.196139 0.073530
O O14 0.054675 0.500000 0.788971
O O15 0.083564 0.242494 0.892533
O O16 0.848421 0.000000 0.097462
#
# Coordination Sequence:
#
# PCOD8090405 Si02
#       6
#     8   8   8   8   8   8
#     4   9  17  29  48  76 110 146 185 231 279 329
#     4   9  20  37  54  78 113 153 193 233 282 342
#     4  11  24  41  61  84 116 156 197 238 285 344
#     4  10  22  41  62  86 116 151 193 239 288 343
#     4  10  19  33  56  83 113 149 190 236 286 340
#     4  10  21  38  62  89 116 148 190 240 291 343
#
# _framework density 20.52826
#
# number of rings (size 3 to 8) (size 9 to 14) (size 15 to 20)
#    0.000    2.167    0.000    2.500    2.333    6.000 
#    0.000    0.833    0.000    5.000    0.000    0.000 
#    0.000    0.000    0.000    0.000    0.000    0.000 
#
# Total GULP energy -297597.373138 kJ/mol
# GULP energy per Si atom -12399.890547 kJ/mol
# Density = 2.048154 g / cm^3
# Si number density = 20.528260 Si / 1000 Ang^3
#
#
#
# Elastic Constant Matrix: (Units=GPa)
#
#
# Indices 1 2 3 4 5 6 
#
# 1 46.3494 27.7612 18.9799 0.0000 5.2798 0.0000
# 2 27.7612 127.6707 51.6547 0.0000 4.3633 0.0000
# 3 18.9799 51.6547 94.6247 0.0000 7.4491 0.0000
# 4 0.0000 0.0000 0.0000 35.0823 0.0000 4.5364
# 5 5.2798 4.3633 7.4491 0.0000 34.0397 0.0000
# 6 0.0000 0.0000 0.0000 4.5364 0.0000 26.7374
#
#
#
# Elastic Compliance Matrix: (Units=1/GPa)
#
#
# Indices 1 2 3 4 5 6 
#
# 1 0.025587 -0.004467 -0.002469 0.000000 -0.002856 0.000000
# 2 -0.004467 0.010833 -0.005050 0.000000 0.000409 0.000000
# 3 -0.002469 -0.005050 0.013980 0.000000 -0.002029 0.000000
# 4 0.000000 0.000000 0.000000 0.029144 0.000000 -0.004945
# 5 -0.002856 0.000409 -0.002029 0.000000 0.030212 0.000000
# 6 0.000000 0.000000 0.000000 -0.004945 0.000000 0.038240
#
#
# Mechanical properties :
#
#
# Convention : Reuss Voigt Hill
#
# Bulk Modulus (GPa) = 37.83858 51.71516 44.77687
# Shear Modulus (GPa) = 27.65839 30.52183 29.09011
#
# Velocity S-wave (km/s) = 3.67458 3.86011 3.76849
# Velocity P-wave (km/s) = 6.03953 6.71671 6.38710
#
# Compressibility (1/GPa) = 0.02642805
#
# Stress axis : x y z
#
# Youngs Moduli (GPa) = 39.08196 92.30877 71.53235
#
# Poissons Ratio (x) = 0.41237 0.17660
# Poissons Ratio (y) = 0.17459 0.36123
# Poissons Ratio (z) = 0.09649 0.46615
#
# Static dielectric constant tensor:
#      x y z
#    x 3.742140 0.000000 0.336560 
#    y 0.000000 3.884410 0.000000 
#    z 0.336560 0.000000 3.816850 
# 
# 
# High freq. dielectric constant tensor:
#      x y z
#    x 1.794010 0.000000 0.026490 
#    y 0.000000 1.813960 0.000000 
#    z 0.026490 0.000000 1.790270 
# 
# From -- ./inp_files/173052.got.cif
#   From: 2010.06.25/outbox.cif.g09.slc.cpg/sg12_87_cif.got.tgz:173052.got - 2010.06.28 00:19:55.
