data_PCOD8090809
_publ_section_title
;
Structure prediction by ZEFSAII (Michael W. Deem and Ramdas Pophale) SiO2 
 PCOD8090809
Probable space group: C 2/M
;
_chemical_formula_sum "Si O2"
_cell_formula_units_Z 64
_cell_length_a 28.581304
_cell_length_b 8.659887
_cell_length_c 14.129595
_cell_angle_alpha 90.000000
_cell_angle_beta 72.682366
_cell_angle_gamma 90.000000
_cell_volume 3338.696205
_symmetry_space_group_name_H-M "C 2/M"
_symmetry_group_IT_number 12
_symmetry_cell_setting 'monoclinic'
loop_
_space_group_symop_operation_xyz
x,y,z
-x,y,-z
-x,-y,-z
x,-y,z
1/2+x,1/2+y,z
1/2-x,1/2+y,-z
1/2-x,1/2-y,-z
1/2+x,1/2-y,z
loop_
_atom_site_type_symbol
_atom_site_label
_atom_site_fract_x
_atom_site_fract_y
_atom_site_fract_z
Si Si1 0.098576 0.820902 0.797496
Si Si2 0.945250 0.681179 0.001008
Si Si3 0.053752 0.826866 0.508210
Si Si4 0.527154 0.822563 0.705153
Si Si5 0.361783 0.321946 0.686042
Si Si6 0.286001 0.820686 0.601751
Si Si7 0.570572 0.319302 0.191727
Si Si8 0.815622 0.320705 0.376438
O O1 0.095911 0.726364 0.897128
O O2 0.047743 0.783685 0.776215
O O3 0.143593 0.773516 0.704224
O O4 0.102385 0.000000 0.819586
O O5 0.944463 0.500000 0.981437
O O6 0.927552 0.767588 0.917461
O O7 0.000000 0.733661 0.000000
O O8 0.058522 0.706998 0.591682
O O9 0.091722 0.778711 0.405719
O O10 0.000000 0.814599 0.500000
O O11 0.064052 0.000000 0.539784
O O12 0.470850 0.774877 0.726123
O O13 0.532284 0.000000 0.732292
O O14 0.346559 0.500000 0.683442
O O15 0.316744 0.217728 0.677712
O O16 0.377709 0.285235 0.785067
O O17 0.236935 0.720450 0.635555
O O18 0.316390 0.777429 0.487976
O O19 0.271593 0.000000 0.609337
O O20 0.558465 0.500000 0.207590
O O21 0.826498 0.500000 0.354529
#
# Coordination Sequence:
#
# PCOD8090809 Si02
#       8
#     8   8   8   8   8   8   8   8
#     4  12  24  38  60  85 113 151 192 238 290 349
#     4  11  23  39  59  85 115 149 192 245 295 345
#     4  10  19  34  51  73 107 150 192 231 274 332
#     4  12  23  34  50  78 113 150 190 235 284 337
#     4  10  21  36  56  80 112 153 195 236 284 339
#     4  10  21  37  60  89 120 154 193 234 285 347
#     4  11  22  38  57  79 109 152 197 236 282 341
#     4  10  21  39  62  89 120 151 189 241 291 340
#
# _framework density 19.169159000000001
#
# number of rings (size 3 to 8) (size 9 to 14) (size 15 to 20)
#    0.000    1.250    2.500    4.500    0.000    5.750 
#    0.000    0.000    0.000    0.750    0.000    0.000 
#    0.000    0.000    0.000    0.000    0.000    0.000 
#
# Total GULP energy -396825.918081 kJ/mol
# GULP energy per Si atom -12400.809940 kJ/mol
# Density = 1.912553 g / cm^3
# Si number density = 19.169159 Si / 1000 Ang^3
#
#
#
# Elastic Constant Matrix: (Units=GPa)
#
#
# Indices 1 2 3 4 5 6 
#
# 1 80.0555 21.9873 26.9678 0.0000 17.4966 0.0000
# 2 21.9873 60.8339 21.9882 0.0000 2.3856 0.0000
# 3 26.9678 21.9882 82.0657 0.0000 14.8574 0.0000
# 4 0.0000 0.0000 0.0000 28.1243 0.0000 0.1391
# 5 17.4966 2.3856 14.8574 0.0000 28.4092 0.0000
# 6 0.0000 0.0000 0.0000 0.1391 0.0000 28.9095
#
#
#
# Elastic Compliance Matrix: (Units=1/GPa)
#
#
# Indices 1 2 3 4 5 6 
#
# 1 0.016501 -0.004677 -0.002652 0.000000 -0.008383 0.000000
# 2 -0.004677 0.019559 -0.004339 0.000000 0.003507 0.000000
# 3 -0.002652 -0.004339 0.015307 0.000000 -0.006008 0.000000
# 4 0.000000 0.000000 0.000000 0.035557 0.000000 -0.000171
# 5 -0.008383 0.003507 -0.006008 0.000000 0.043210 0.000000
# 6 0.000000 0.000000 0.000000 -0.000171 0.000000 0.034592
#
#
# Mechanical properties :
#
#
# Convention : Reuss Voigt Hill
#
# Bulk Modulus (GPa) = 35.67228 40.53798 38.10513
# Shear Modulus (GPa) = 25.32860 27.22273 26.27567
#
# Velocity S-wave (km/s) = 3.63894 3.77255 3.70635
# Velocity P-wave (km/s) = 6.02540 6.33795 6.18365
#
# Compressibility (1/GPa) = 0.02803297
#
# Stress axis : x y z
#
# Youngs Moduli (GPa) = 60.60122 51.12678 65.33026
#
# Poissons Ratio (x) = 0.23912 0.17324
# Poissons Ratio (y) = 0.28343 0.28344
# Poissons Ratio (z) = 0.16070 0.22182
#
# Static dielectric constant tensor:
#      x y z
#    x 3.426790 0.000000 0.154740 
#    y 0.000000 3.469090 0.000000 
#    z 0.154740 0.000000 3.539050 
# 
# 
# High freq. dielectric constant tensor:
#      x y z
#    x 1.731490 0.000000 0.013020 
#    y 0.000000 1.750960 0.000000 
#    z 0.013020 0.000000 1.734410 
# 
# From -- ./inp_files/243813.got.cif
#   From: 2010.06.25/outbox.cif.g09.slc.cpg/sg12_122_cif.got.tgz:243813.got - 2010.06.28 00:19:55.
