data_PCOD8090066
_publ_section_title
;
Structure prediction by ZEFSAII (Michael W. Deem and Ramdas Pophale) SiO2 
 PCOD8090066
Probable space group: C 2/M
;
_chemical_formula_sum "Si O2"
_cell_formula_units_Z 64
_cell_length_a 20.306434
_cell_length_b 9.211095
_cell_length_c 26.115778
_cell_angle_alpha 90.000000
_cell_angle_beta 47.197102
_cell_angle_gamma 90.000000
_cell_volume 3583.964899
_symmetry_space_group_name_H-M "C 2/M"
_symmetry_group_IT_number 12
_symmetry_cell_setting 'monoclinic'
loop_
_space_group_symop_operation_xyz
x,y,z
-x,y,-z
-x,-y,-z
x,-y,z
1/2+x,1/2+y,z
1/2-x,1/2+y,-z
1/2-x,1/2-y,-z
1/2+x,1/2-y,z
loop_
_atom_site_type_symbol
_atom_site_label
_atom_site_fract_x
_atom_site_fract_y
_atom_site_fract_z
Si Si1 0.424405 0.328164 0.672068
Si Si2 0.251189 0.667027 0.422467
Si Si3 0.222544 0.833780 0.170898
Si Si4 0.287325 0.168210 0.028699
Si Si5 0.111090 0.668212 0.585200
Si Si6 0.650747 0.666175 0.826376
Si Si7 0.792407 0.669753 0.669053
Si Si8 0.036454 0.834504 0.037372
O O1 0.435251 0.500000 0.658962
O O2 0.369867 0.287041 0.752641
O O3 0.520324 0.255757 0.626373
O O4 0.373416 0.262879 0.649815
O O5 0.283585 0.500000 0.405288
O O6 0.166635 0.689372 0.503932
O O7 0.334008 0.766494 0.396101
O O8 0.220457 0.717385 0.382618
O O9 0.307427 0.749997 0.148085
O O10 0.242093 0.000000 0.172900
O O11 0.218167 0.805187 0.112344
O O12 0.385346 0.223991 0.991222
O O13 0.295047 0.000000 0.011091
O O14 0.250000 0.250000 0.000000
O O15 0.090739 0.500000 0.607056
O O16 0.667597 0.500000 0.831256
O O17 0.699323 0.707030 0.747459
O O18 0.544450 0.697845 0.879648
O O19 0.817221 0.500000 0.660491
O O20 0.070966 0.000000 0.025145
O O21 0.000000 0.806548 0.000000
#
# Coordination Sequence:
#
# PCOD8090066 Si02
#       8
#     8   8   8   8   8   8   8   8
#     4  10  20  35  55  79 106 137 174 216 261 311
#     4   9  19  36  56  77 106 141 175 215 261 308
#     4   9  19  35  54  75 102 138 175 214 260 309
#     4  11  23  38  55  76 105 140 177 219 264 310
#     4  10  20  35  55  78 105 140 179 216 257 310
#     4   9  17  31  54  80 104 135 172 212 258 310
#     4   9  18  34  55  79 106 137 174 215 259 307
#     4  10  19  33  55  81 107 136 172 214 259 310
#
# _framework density 17.857317999999999
#
# number of rings (size 3 to 8) (size 9 to 14) (size 15 to 20)
#    0.000    2.375    1.250    1.125    0.000    3.250 
#    2.250    2.500    0.000    0.000    0.000    0.000 
#    0.000    0.000    0.000    0.000    0.000    0.000 
#
# Total GULP energy -396802.727955 kJ/mol
# GULP energy per Si atom -12400.085249 kJ/mol
# Density = 1.781667 g / cm^3
# Si number density = 17.857318 Si / 1000 Ang^3
#
#
#
# Elastic Constant Matrix: (Units=GPa)
#
#
# Indices 1 2 3 4 5 6 
#
# 1 124.4012 73.4676 73.0210 0.0000 3.5905 0.0001
# 2 73.4676 95.9253 54.4652 0.0000 4.4477 0.0007
# 3 73.0210 54.4652 88.1546 0.0000 5.1807 0.0000
# 4 0.0000 0.0000 0.0000 25.8116 0.0000 -1.3618
# 5 3.5905 4.4477 5.1807 0.0000 27.2133 0.0000
# 6 0.0001 0.0007 0.0000 -1.3618 0.0000 36.5684
#
#
#
# Elastic Compliance Matrix: (Units=1/GPa)
#
#
# Indices 1 2 3 4 5 6 
#
# 1 0.019628 -0.008955 -0.010780 0.000000 0.000926 0.000000
# 2 -0.008955 0.020158 -0.004968 0.000000 -0.001167 0.000000
# 3 -0.010780 -0.004968 0.023474 0.000000 -0.002234 0.000000
# 4 0.000000 0.000000 0.000000 0.038818 0.000000 0.001446
# 5 0.000926 -0.001167 -0.002234 0.000000 0.037241 0.000000
# 6 0.000000 0.000000 0.000000 0.001446 0.000000 0.027400
#
#
# Mechanical properties :
#
#
# Convention : Reuss Voigt Hill
#
# Bulk Modulus (GPa) = 72.18333 78.93207 75.55770
# Shear Modulus (GPa) = 22.65066 25.08717 23.86891
#
# Velocity S-wave (km/s) = 3.56536 3.75222 3.65998
# Velocity P-wave (km/s) = 7.58018 7.94164 7.76301
#
# Compressibility (1/GPa) = 0.01385361
#
# Stress axis : x y z
#
# Youngs Moduli (GPa) = 50.94771 49.60756 42.59983
#
# Poissons Ratio (x) = 0.44422 0.45924
# Poissons Ratio (y) = 0.45623 0.21165
# Poissons Ratio (z) = 0.54923 0.24647
#
# Static dielectric constant tensor:
#      x y z
#    x 3.354760 0.000000 -0.089240 
#    y 0.000000 3.378640 0.000000 
#    z -0.089240 0.000000 3.632100 
# 
# 
# High freq. dielectric constant tensor:
#      x y z
#    x 1.676480 0.000000 -0.002830 
#    y 0.000000 1.696470 0.000000 
#    z -0.002830 0.000000 1.699260 
# 
# From -- ./inp_files/346008.got.cif
#   From: 2010.06.25/outbox.cif.g09.slc.cpg/sg12_174_cif.got.tgz:346008.got - 2010.06.28 00:19:55.
