data_PCOD8090502
_publ_section_title
;
Structure prediction by ZEFSAII (Michael W. Deem and Ramdas Pophale) SiO2 
 PCOD8090502
Probable space group: C 2/M
;
_chemical_formula_sum "Si O2"
_cell_formula_units_Z 56
_cell_length_a 31.389521
_cell_length_b 13.388660
_cell_length_c 8.696559
_cell_angle_alpha 90.000000
_cell_angle_beta 129.043210
_cell_angle_gamma 90.000000
_cell_volume 2838.614479
_symmetry_space_group_name_H-M "C 2/M"
_symmetry_group_IT_number 12
_symmetry_cell_setting 'monoclinic'
loop_
_space_group_symop_operation_xyz
x,y,z
-x,y,-z
-x,-y,-z
x,-y,z
1/2+x,1/2+y,z
1/2-x,1/2+y,-z
1/2-x,1/2-y,-z
1/2+x,1/2-y,z
loop_
_atom_site_type_symbol
_atom_site_label
_atom_site_fract_x
_atom_site_fract_y
_atom_site_fract_z
Si Si1 0.120969 0.612599 0.858259
Si Si2 0.284865 0.608992 0.901502
Si Si3 0.901152 0.283728 0.506201
Si Si4 0.216425 0.693172 0.255845
Si Si5 0.507685 0.110795 0.698305
Si Si6 0.818942 0.389499 0.513726
Si Si7 0.679205 0.384296 0.670833
O O1 0.110762 0.500000 0.776541
O O2 0.121743 0.681716 0.710457
O O3 0.071488 0.642671 0.865118
O O4 0.177629 0.614882 0.079996
O O5 0.309863 0.500000 0.910393
O O6 0.308032 0.698051 0.848046
O O7 0.219333 0.607411 0.724996
O O8 0.295547 0.629258 0.103398
O O9 0.966666 0.303258 0.670526
O O10 0.876762 0.346142 0.592918
O O11 0.880885 0.168534 0.476869
O O12 0.211564 0.679261 0.428292
O O13 0.279349 0.673090 0.349447
O O14 0.500000 0.104150 0.500000
O O15 0.495559 0.000000 0.742624
O O16 0.827612 0.500000 0.602811
O O17 0.672244 0.500000 0.608750
#
# Coordination Sequence:
#
# PCOD8090502 Si02
#       7
#     8   8   8   8   8   8   8
#     4  10  19  33  57  80 103 137 178 218 264 317
#     4  10  21  36  52  73 104 140 179 216 256 312
#     4  11  19  34  54  75 107 140 176 214 265 307
#     4  12  21  37  50  79 111 144 172 215 265 310
#     4   8  16  31  53  80 102 131 175 219 262 315
#     4  11  22  33  51  78 110 144 176 210 258 319
#     4  11  22  35  53  78 107 139 180 221 260 310
#
# _framework density 19.727934000000001
#
# number of rings (size 3 to 8) (size 9 to 14) (size 15 to 20)
#    0.000    1.571    2.857    5.143    0.000    1.143 
#    0.000    0.714    0.000    7.286    0.000    0.000 
#    0.000    2.286    0.000    0.000    0.000    0.000 
#
# Total GULP energy -346995.532405 kJ/mol
# GULP energy per Si atom -12392.697586 kJ/mol
# Density = 1.968303 g / cm^3
# Si number density = 19.727934 Si / 1000 Ang^3
#
#
#
# Elastic Constant Matrix: (Units=GPa)
#
#
# Indices 1 2 3 4 5 6 
#
# 1 104.4351 55.5913 14.5520 0.0000 2.9571 0.0000
# 2 55.5913 130.5123 12.6856 0.0000 -3.9381 0.0000
# 3 14.5520 12.6856 19.9483 0.0000 -4.8039 0.0000
# 4 0.0000 0.0000 0.0000 23.1984 0.0000 1.6527
# 5 2.9571 -3.9381 -4.8039 0.0000 26.8877 0.0000
# 6 0.0000 0.0000 0.0000 1.6527 0.0000 28.1510
#
#
#
# Elastic Compliance Matrix: (Units=1/GPa)
#
#
# Indices 1 2 3 4 5 6 
#
# 1 0.013425 -0.005106 -0.007400 0.000000 -0.003546 0.000000
# 2 -0.005106 0.010111 -0.002313 0.000000 0.001629 0.000000
# 3 -0.007400 -0.002313 0.059681 0.000000 0.011138 0.000000
# 4 0.000000 0.000000 0.000000 0.043287 0.000000 -0.002541
# 5 -0.003546 0.001629 0.011138 0.000000 0.039810 0.000000
# 6 0.000000 0.000000 0.000000 -0.002541 0.000000 0.035672
#
#
# Mechanical properties :
#
#
# Convention : Reuss Voigt Hill
#
# Bulk Modulus (GPa) = 18.66407 46.72817 32.69612
# Shear Modulus (GPa) = 20.04137 27.11855 23.57996
#
# Velocity S-wave (km/s) = 3.19076 3.71162 3.46100
# Velocity P-wave (km/s) = 4.80165 6.48890 5.70796
#
# Compressibility (1/GPa) = 0.05357888
#
# Stress axis : x y z
#
# Youngs Moduli (GPa) = 74.48880 98.90269 16.75575
#
# Poissons Ratio (x) = 0.50500 0.12400
# Poissons Ratio (y) = 0.38034 0.03875
# Poissons Ratio (z) = 0.55124 0.22873
#
# Static dielectric constant tensor:
#      x y z
#    x 3.719510 0.000000 0.234590 
#    y 0.000000 3.800260 0.000000 
#    z 0.234590 0.000000 3.435160 
# 
# 
# High freq. dielectric constant tensor:
#      x y z
#    x 1.753180 0.000000 -0.004160 
#    y 0.000000 1.769380 0.000000 
#    z -0.004160 0.000000 1.742790 
# 
# From -- ./inp_files/104724.got.cif
#   From: 2010.06.25/outbox.cif.g09.slc.cpg/sg12_53_cif.got.tgz:104724.got - 2010.06.28 00:19:55.
