data_PCOD8090331
_publ_section_title
;
Structure prediction by ZEFSAII (Michael W. Deem and Ramdas Pophale) SiO2 
 PCOD8090331
Probable space group: C 2/M
;
_chemical_formula_sum "Si O2"
_cell_formula_units_Z 64
_cell_length_a 22.795126
_cell_length_b 9.085476
_cell_length_c 22.724650
_cell_angle_alpha 90.000000
_cell_angle_beta 46.366493
_cell_angle_gamma 90.000000
_cell_volume 3406.328507
_symmetry_space_group_name_H-M "C 2/M"
_symmetry_group_IT_number 12
_symmetry_cell_setting 'monoclinic'
loop_
_space_group_symop_operation_xyz
x,y,z
-x,y,-z
-x,-y,-z
x,-y,z
1/2+x,1/2+y,z
1/2-x,1/2+y,-z
1/2-x,1/2-y,-z
1/2+x,1/2-y,z
loop_
_atom_site_type_symbol
_atom_site_label
_atom_site_fract_x
_atom_site_fract_y
_atom_site_fract_z
Si Si1 0.395566 0.171327 0.644981
Si Si2 0.560231 0.829720 0.593080
Si Si3 0.629973 0.328194 0.103115
Si Si4 0.294479 0.827829 0.054931
Si Si5 0.655286 0.328440 0.432406
Si Si6 0.527324 0.829776 0.747895
Si Si7 0.328871 0.170323 0.264250
Si Si8 0.221579 0.827200 0.813169
O O1 0.471557 0.218447 0.631791
O O2 0.399434 0.257806 0.580982
O O3 0.315325 0.213883 0.736994
O O4 0.395986 0.000000 0.628895
O O5 0.629847 0.737356 0.512741
O O6 0.566658 0.795211 0.657581
O O7 0.575852 0.000000 0.568713
O O8 0.624017 0.500000 0.092844
O O9 0.703967 0.293410 0.095595
O O10 0.549626 0.273579 0.190685
O O11 0.640782 0.240894 0.034798
O O12 0.308693 0.753557 0.107730
O O13 0.311853 0.000000 0.048046
O O14 0.638008 0.500000 0.444579
O O15 0.749513 0.290969 0.357356
O O16 0.592978 0.790673 0.751645
O O17 0.499908 0.000000 0.770101
O O18 0.332597 0.269618 0.203430
O O19 0.327262 0.000000 0.246432
O O20 0.208323 0.000000 0.829894
#
# Coordination Sequence:
#
# PCOD8090331 Si02
#       8
#     8   8   8   8   8   8   8   8
#     4   9  18  32  50  74 105 137 169 211 264 318
#     4  10  20  33  51  75 102 135 175 216 262 318
#     4  10  21  36  56  84 114 140 170 213 259 305
#     4  10  20  35  57  84 114 144 170 203 256 318
#     4  10  20  33  50  74 103 135 174 219 264 310
#     4  10  21  38  57  75 102 142 181 217 263 318
#     4   9  20  38  55  73 103 142 180 219 266 316
#     4  10  19  33  56  82 106 137 179 222 261 306
#
# _framework density 18.788557999999998
#
# number of rings (size 3 to 8) (size 9 to 14) (size 15 to 20)
#    0.000    2.250    0.000    2.625    0.000    7.000 
#    0.000    0.625    0.000    3.750    0.000    0.000 
#    0.000    0.000    0.000    0.000    0.000    0.000 
#
# Total GULP energy -396964.028836 kJ/mol
# GULP energy per Si atom -12405.125901 kJ/mol
# Density = 1.874579 g / cm^3
# Si number density = 18.788558 Si / 1000 Ang^3
#
#
#
# Elastic Constant Matrix: (Units=GPa)
#
#
# Indices 1 2 3 4 5 6 
#
# 1 64.7695 33.7039 27.1293 -0.0003 14.2619 0.0008
# 2 33.7039 76.3345 43.8670 -0.0011 13.6335 0.0027
# 3 27.1293 43.8670 87.1007 -0.0004 25.6429 0.0007
# 4 -0.0003 -0.0011 -0.0004 38.4339 0.0002 2.1278
# 5 14.2619 13.6335 25.6429 0.0002 25.1644 -0.0005
# 6 0.0008 0.0027 0.0007 2.1278 -0.0005 24.6174
#
#
#
# Elastic Compliance Matrix: (Units=1/GPa)
#
#
# Indices 1 2 3 4 5 6 
#
# 1 0.021338 -0.007787 -0.000580 0.000000 -0.007283 0.000000
# 2 -0.007787 0.021288 -0.008857 0.000001 0.001905 -0.000002
# 3 -0.000580 -0.008857 0.020875 0.000000 -0.016145 0.000000
# 4 0.000000 0.000001 0.000000 0.026144 -0.000001 -0.002260
# 5 -0.007283 0.001905 -0.016145 -0.000001 0.059287 0.000002
# 6 0.000000 -0.000002 0.000000 -0.002260 0.000002 0.040817
#
#
# Mechanical properties :
#
#
# Convention : Reuss Voigt Hill
#
# Bulk Modulus (GPa) = 34.41922 48.62277 41.52100
# Shear Modulus (GPa) = 21.37832 25.87678 23.62755
#
# Velocity S-wave (km/s) = 3.37684 3.71517 3.55004
# Velocity P-wave (km/s) = 5.79337 6.65871 6.24106
#
# Compressibility (1/GPa) = 0.02905353
#
# Stress axis : x y z
#
# Youngs Moduli (GPa) = 46.86396 46.97488 47.90323
#
# Poissons Ratio (x) = 0.36581 0.02778
# Poissons Ratio (y) = 0.36495 0.42427
# Poissons Ratio (z) = 0.02718 0.41604
#
# Static dielectric constant tensor:
#      x y z
#    x 3.336560 0.000000 0.073200 
#    y 0.000000 3.439510 0.000000 
#    z 0.073200 0.000000 3.415240 
# 
# 
# High freq. dielectric constant tensor:
#      x y z
#    x 1.718020 0.000000 0.008530 
#    y 0.000000 1.732690 0.000000 
#    z 0.008530 0.000000 1.731980 
# 
# From -- ./inp_files/324164.got.cif
#   From: 2010.06.25/outbox.cif.g09.slc.cpg/sg12_163_cif.got.tgz:324164.got - 2010.06.28 00:19:55.
