data_PCOD8090665
_publ_section_title
;
Structure prediction by ZEFSAII (Michael W. Deem and Ramdas Pophale) SiO2 
 PCOD8090665
Probable space group: C 2/M
;
_chemical_formula_sum "Si O2"
_cell_formula_units_Z 64
_cell_length_a 15.530725
_cell_length_b 9.021479
_cell_length_c 23.640972
_cell_angle_alpha 90.000000
_cell_angle_beta 89.737512
_cell_angle_gamma 90.000000
_cell_volume 3312.304414
_symmetry_space_group_name_H-M "C 2/M"
_symmetry_group_IT_number 12
_symmetry_cell_setting 'monoclinic'
loop_
_space_group_symop_operation_xyz
x,y,z
-x,y,-z
-x,-y,-z
x,-y,z
1/2+x,1/2+y,z
1/2-x,1/2+y,-z
1/2-x,1/2-y,-z
1/2+x,1/2-y,z
loop_
_atom_site_type_symbol
_atom_site_label
_atom_site_fract_x
_atom_site_fract_y
_atom_site_fract_z
Si Si1 0.493392 0.674911 0.935925
Si Si2 0.654420 0.329954 0.860819
Si Si3 0.845049 0.329860 0.867511
Si Si4 0.417152 0.827596 0.238269
Si Si5 0.750317 0.676060 0.439490
Si Si6 0.587224 0.827970 0.632587
Si Si7 0.093921 0.174443 0.237612
Si Si8 0.410148 0.674171 0.634007
O O1 0.480771 0.500000 0.933346
O O2 0.580603 0.724647 0.904049
O O3 0.409475 0.746107 0.908551
O O4 0.500000 0.732027 0.000000
O O5 0.639040 0.500000 0.842524
O O6 0.747327 0.313791 0.890882
O O7 0.655805 0.226043 0.804942
O O8 0.873919 0.500000 0.863530
O O9 0.842837 0.259968 0.804621
O O10 0.387075 0.797059 0.302461
O O11 0.498367 0.726605 0.222245
O O12 0.439188 0.000000 0.229491
O O13 0.750425 0.500000 0.445400
O O14 0.750000 0.750000 0.500000
O O15 0.834639 0.731752 0.405786
O O16 0.665651 0.730566 0.406406
O O17 0.499645 0.747072 0.614762
O O18 0.571294 0.000000 0.621885
O O19 0.115526 0.219315 0.302023
O O20 0.102214 0.000000 0.227473
O O21 0.423483 0.500000 0.629582
#
# Coordination Sequence:
#
# PCOD8090665 Si02
#       8
#     8   8   8   8   8   8   8   8
#     4  10  22  42  64  83 112 158 202 239 286 344
#     4  10  22  38  56  84 121 154 187 237 290 337
#     4  11  23  37  56  87 120 152 191 239 289 338
#     4  10  19  33  58  87 116 150 190 234 286 349
#     4  10  22  40  58  81 113 152 193 237 281 337
#     4   9  20  37  57  82 115 148 186 235 286 336
#     4  10  19  34  58  84 116 153 188 233 290 346
#     4   9  20  37  58  82 112 148 189 233 284 341
#
# _framework density 19.321895999999999
#
# number of rings (size 3 to 8) (size 9 to 14) (size 15 to 20)
#    0.000    2.125    1.250    1.125    1.750    4.250 
#    0.000    2.500    0.000    0.000    0.000    0.000 
#    0.000    0.000    0.000    0.000    0.000    0.000 
#
# Total GULP energy -396834.604726 kJ/mol
# GULP energy per Si atom -12401.081398 kJ/mol
# Density = 1.927792 g / cm^3
# Si number density = 19.321896 Si / 1000 Ang^3
#
#
#
# Elastic Constant Matrix: (Units=GPa)
#
#
# Indices 1 2 3 4 5 6 
#
# 1 143.6935 37.4701 81.9464 0.0000 7.0986 0.0000
# 2 37.4701 41.6703 40.4994 0.0000 3.1180 0.0000
# 3 81.9464 40.4994 132.3446 0.0000 5.1372 0.0000
# 4 0.0000 0.0000 0.0000 29.2606 0.0000 3.0148
# 5 7.0986 3.1180 5.1372 0.0000 25.9853 0.0000
# 6 0.0000 0.0000 0.0000 3.0148 0.0000 29.7577
#
#
#
# Elastic Compliance Matrix: (Units=1/GPa)
#
#
# Indices 1 2 3 4 5 6 
#
# 1 0.011456 -0.004773 -0.005576 0.000000 -0.001454 0.000000
# 2 -0.004773 0.036253 -0.008083 0.000000 -0.001448 0.000000
# 3 -0.005576 -0.008083 0.013489 0.000000 -0.000174 0.000000
# 4 0.000000 0.000000 0.000000 0.034536 0.000000 -0.003499
# 5 -0.001454 -0.001448 -0.000174 0.000000 0.039089 0.000000
# 6 0.000000 0.000000 0.000000 -0.003499 0.000000 0.033959
#
#
# Mechanical properties :
#
#
# Convention : Reuss Voigt Hill
#
# Bulk Modulus (GPa) = 41.09327 70.83781 55.96554
# Shear Modulus (GPa) = 23.39103 27.52022 25.45563
#
# Velocity S-wave (km/s) = 3.48314 3.77809 3.63361
# Velocity P-wave (km/s) = 6.12293 7.46816 6.82875
#
# Compressibility (1/GPa) = 0.02433488
#
# Stress axis : x y z
#
# Youngs Moduli (GPa) = 87.29258 27.58358 74.13442
#
# Poissons Ratio (x) = 0.13164 0.41340
# Poissons Ratio (y) = 0.41661 0.59921
# Poissons Ratio (z) = 0.48677 0.22295
#
# Static dielectric constant tensor:
#      x y z
#    x 3.567650 0.000000 -0.053940 
#    y 0.000000 3.444030 0.000000 
#    z -0.053940 0.000000 3.584380 
# 
# 
# High freq. dielectric constant tensor:
#      x y z
#    x 1.756950 0.000000 0.000060 
#    y 0.000000 1.747740 0.000000 
#    z 0.000060 0.000000 1.747840 
# 
# From -- ./inp_files/338808.got.cif
#   From: 2010.06.25/outbox.cif.g09.slc.cpg/sg12_170_cif.got.tgz:338808.got - 2010.06.28 00:19:55.
