data_PCOD8090135
_publ_section_title
;
Structure prediction by ZEFSAII (Michael W. Deem and Ramdas Pophale) SiO2 
 PCOD8090135
Probable space group: C 2/M
;
_chemical_formula_sum "Si O2"
_cell_formula_units_Z 64
_cell_length_a 14.931638
_cell_length_b 9.432633
_cell_length_c 27.952387
_cell_angle_alpha 90.000000
_cell_angle_beta 58.145946
_cell_angle_gamma 90.000000
_cell_volume 3344.021642
_symmetry_space_group_name_H-M "C 2/M"
_symmetry_group_IT_number 12
_symmetry_cell_setting 'monoclinic'
loop_
_space_group_symop_operation_xyz
x,y,z
-x,y,-z
-x,-y,-z
x,-y,z
1/2+x,1/2+y,z
1/2-x,1/2+y,-z
1/2-x,1/2-y,-z
1/2+x,1/2-y,z
loop_
_atom_site_type_symbol
_atom_site_label
_atom_site_fract_x
_atom_site_fract_y
_atom_site_fract_z
Si Si1 0.840362 0.835915 0.500599
Si Si2 0.102091 0.336081 0.002244
Si Si3 0.171060 0.167598 0.814088
Si Si4 0.034004 0.337711 0.125703
Si Si5 0.546764 0.339311 0.624260
Si Si6 0.753120 0.837580 0.103870
Si Si7 0.773362 0.665447 0.602088
Si Si8 0.158344 0.334491 0.311101
O O1 0.750000 0.750000 0.500000
O O2 0.941126 0.825786 0.437017
O O3 0.856297 0.758947 0.547306
O O4 0.808405 0.000000 0.517397
O O5 0.134208 0.500000 0.992211
O O6 0.199280 0.249570 0.953467
O O7 0.078728 0.283777 0.062323
O O8 0.000000 0.303256 0.000000
O O9 0.205683 0.219674 0.856946
O O10 0.259526 0.217191 0.751889
O O11 0.062522 0.241946 0.829891
O O12 0.154339 0.000000 0.816617
O O13 0.995305 0.500000 0.131943
O O14 0.126469 0.322300 0.138742
O O15 0.518888 0.500000 0.646045
O O16 0.653616 0.293316 0.621703
O O17 0.452039 0.241170 0.668055
O O18 0.786765 0.000000 0.087011
O O19 0.794223 0.500000 0.585520
O O20 0.792518 0.705298 0.651556
O O21 0.135837 0.500000 0.313342
#
# Coordination Sequence:
#
# PCOD8090135 Si02
#       8
#     8   8   8   8   8   8   8   8
#     4   9  17  31  53  81 112 142 174 216 266 321
#     4  10  19  33  55  82 112 141 173 215 264 320
#     4  10  22  39  55  76 106 140 180 225 268 313
#     4  10  21  37  56  80 109 141 176 219 268 320
#     4   9  19  35  54  78 107 137 172 216 265 315
#     4  10  21  36  56  81 109 140 176 218 267 319
#     4   9  19  36  55  77 108 143 177 217 266 320
#     4  10  22  38  55  76 105 141 182 224 266 315
#
# _framework density 19.138631
#
# number of rings (size 3 to 8) (size 9 to 14) (size 15 to 20)
#    0.000    2.375    1.250    1.500    0.000    6.250 
#    0.000    2.500    0.000    0.000    0.000    0.000 
#    0.000    0.000    0.000    0.000    0.000    0.000 
#
# Total GULP energy -396801.391421 kJ/mol
# GULP energy per Si atom -12400.043482 kJ/mol
# Density = 1.909507 g / cm^3
# Si number density = 19.138631 Si / 1000 Ang^3
#
#
#
# Elastic Constant Matrix: (Units=GPa)
#
#
# Indices 1 2 3 4 5 6 
#
# 1 49.6789 13.8579 9.7115 0.0000 -8.2416 0.0000
# 2 13.8579 51.2810 29.9093 0.0000 -9.1355 0.0000
# 3 9.7115 29.9093 78.6090 0.0000 -11.5778 0.0000
# 4 0.0000 0.0000 0.0000 34.0532 0.0000 -8.6461
# 5 -8.2416 -9.1355 -11.5778 0.0000 24.7802 0.0000
# 6 0.0000 0.0000 0.0000 -8.6461 0.0000 25.4328
#
#
#
# Elastic Compliance Matrix: (Units=1/GPa)
#
#
# Indices 1 2 3 4 5 6 
#
# 1 0.022475 -0.005061 -0.000027 0.000000 0.005597 0.000000
# 2 -0.005061 0.026826 -0.008992 0.000000 0.004005 0.000000
# 3 -0.000027 -0.008992 0.016813 0.000000 0.004532 0.000000
# 4 0.000000 0.000000 0.000000 0.032140 0.000000 0.010926
# 5 0.005597 0.004005 0.004532 0.000000 0.045810 0.000000
# 6 0.000000 0.000000 0.000000 0.010926 0.000000 0.043034
#
#
# Mechanical properties :
#
#
# Convention : Reuss Voigt Hill
#
# Bulk Modulus (GPa) = 26.34681 31.83625 29.09153
# Shear Modulus (GPa) = 21.93872 25.25925 23.59898
#
# Velocity S-wave (km/s) = 3.38939 3.63685 3.51530
# Velocity P-wave (km/s) = 5.39569 5.85715 5.63115
#
# Compressibility (1/GPa) = 0.03795527
#
# Stress axis : x y z
#
# Youngs Moduli (GPa) = 44.49450 37.27744 59.47752
#
# Poissons Ratio (x) = 0.18866 0.00159
# Poissons Ratio (y) = 0.22518 0.53480
# Poissons Ratio (z) = 0.00119 0.33518
#
# Static dielectric constant tensor:
#      x y z
#    x 3.443540 0.000000 0.166620 
#    y 0.000000 3.487940 0.000000 
#    z 0.166620 0.000000 3.618720 
# 
# 
# High freq. dielectric constant tensor:
#      x y z
#    x 1.742670 0.000000 0.004430 
#    y 0.000000 1.738450 0.000000 
#    z 0.004430 0.000000 1.738570 
# 
# From -- ./inp_files/375375.got.cif
#   From: 2010.06.25/outbox.cif.g09.slc.cpg/sg12_188_cif.got.tgz:375375.got - 2010.06.28 00:19:55.
