data_PCOD8090410
_publ_section_title
;
Structure prediction by ZEFSAII (Michael W. Deem and Ramdas Pophale) SiO2 
 PCOD8090410
Probable space group: C 2/M
;
_chemical_formula_sum "Si O2"
_cell_formula_units_Z 64
_cell_length_a 17.379030
_cell_length_b 16.809993
_cell_length_c 14.298938
_cell_angle_alpha 90.000000
_cell_angle_beta 49.537352
_cell_angle_gamma 90.000000
_cell_volume 3178.220426
_symmetry_space_group_name_H-M "C 2/M"
_symmetry_group_IT_number 12
_symmetry_cell_setting 'monoclinic'
loop_
_space_group_symop_operation_xyz
x,y,z
-x,y,-z
-x,-y,-z
x,-y,z
1/2+x,1/2+y,z
1/2-x,1/2+y,-z
1/2-x,1/2-y,-z
1/2+x,1/2-y,z
loop_
_atom_site_type_symbol
_atom_site_label
_atom_site_fract_x
_atom_site_fract_y
_atom_site_fract_z
Si Si1 0.705270 0.906650 0.306422
Si Si2 0.171733 0.592646 0.713587
Si Si3 0.101813 0.909722 0.976612
Si Si4 0.043357 0.662730 0.299090
Si Si5 0.193340 0.329084 0.509587
Si Si6 0.046218 0.410761 0.112715
Si Si7 0.650232 0.297892 0.105866
Si Si8 0.261691 0.093712 0.144498
O O1 0.801085 0.896220 0.164778
O O2 0.610110 0.857638 0.337891
O O3 0.738130 0.866461 0.379222
O O4 0.676849 0.000000 0.343580
O O5 0.151905 0.500000 0.732683
O O6 0.217019 0.612727 0.577439
O O7 0.244373 0.618184 0.741364
O O8 0.061539 0.633085 0.819622
O O9 0.105031 0.000000 0.014957
O O10 0.102198 0.843002 0.055901
O O11 0.000000 0.896350 0.000000
O O12 0.063872 0.589771 0.211120
O O13 0.071337 0.740367 0.217373
O O14 0.926450 0.676924 0.417150
O O15 0.250000 0.250000 0.500000
O O16 0.043129 0.500000 0.077711
O O17 0.136195 0.369386 0.983588
O O18 0.668265 0.365670 0.168726
O O19 0.750000 0.250000 0.000000
O O20 0.254276 0.000000 0.134024
#
# Coordination Sequence:
#
# PCOD8090410 Si02
#       8
#     8   8   8   8   8   8   8   8
#     4  11  23  43  69  94 123 166 217 265 315 377
#     4   9  19  35  56  82 113 153 198 241 294 361
#     4  10  23  43  68  96 128 169 214 256 308 382
#     4  11  23  39  59  92 122 159 204 255 315 369
#     4  11  26  41  60  87 123 163 206 259 315 367
#     4   9  16  31  54  85 119 148 186 237 297 365
#     4  12  22  37  59  93 128 158 199 254 315 370
#     4  10  19  33  56  83 118 160 196 238 293 362
#
# _framework density 20.137056000000001
#
# number of rings (size 3 to 8) (size 9 to 14) (size 15 to 20)
#    0.000    1.625    2.500    1.875    3.500    5.500 
#    2.250    0.000    0.000    0.000    0.000    1.750 
#    0.000    0.000    0.000    0.000    0.000    0.000 
#
# Total GULP energy -396507.141385 kJ/mol
# GULP energy per Si atom -12390.848168 kJ/mol
# Density = 2.009122 g / cm^3
# Si number density = 20.137056 Si / 1000 Ang^3
#
#
#
# Elastic Constant Matrix: (Units=GPa)
#
#
# Indices 1 2 3 4 5 6 
#
# 1 116.6545 51.1689 37.1645 0.0000 12.6728 0.0000
# 2 51.1689 82.7786 28.6416 0.0000 7.3057 0.0000
# 3 37.1645 28.6416 57.4950 0.0000 11.9093 0.0000
# 4 0.0000 0.0000 0.0000 28.7662 0.0000 5.8323
# 5 12.6728 7.3057 11.9093 0.0000 31.4276 0.0000
# 6 0.0000 0.0000 0.0000 5.8323 0.0000 37.4347
#
#
#
# Elastic Compliance Matrix: (Units=1/GPa)
#
#
# Indices 1 2 3 4 5 6 
#
# 1 0.013085 -0.006198 -0.004966 0.000000 -0.001954 0.000000
# 2 -0.006198 0.017546 -0.004783 0.000000 0.000233 0.000000
# 3 -0.004966 -0.004783 0.024243 0.000000 -0.006073 0.000000
# 4 0.000000 0.000000 0.000000 0.035897 0.000000 -0.005593
# 5 -0.001954 0.000233 -0.006073 0.000000 0.034854 0.000000
# 6 0.000000 0.000000 0.000000 -0.005593 0.000000 0.027585
#
#
# Mechanical properties :
#
#
# Convention : Reuss Voigt Hill
#
# Bulk Modulus (GPa) = 43.51355 54.54202 49.02778
# Shear Modulus (GPa) = 25.93857 28.85590 27.39724
#
# Velocity S-wave (km/s) = 3.59291 3.78957 3.69255
# Velocity P-wave (km/s) = 6.23439 6.80382 6.52532
#
# Compressibility (1/GPa) = 0.02298135
#
# Stress axis : x y z
#
# Youngs Moduli (GPa) = 76.42162 56.99370 41.24879
#
# Poissons Ratio (x) = 0.35324 0.20484
# Poissons Ratio (y) = 0.47365 0.19727
# Poissons Ratio (z) = 0.37951 0.27257
#
# Static dielectric constant tensor:
#      x y z
#    x 3.872070 0.000000 0.172520 
#    y 0.000000 3.746440 0.000000 
#    z 0.172520 0.000000 3.766270 
# 
# 
# High freq. dielectric constant tensor:
#      x y z
#    x 1.793290 0.000000 0.014620 
#    y 0.000000 1.779550 0.000000 
#    z 0.014620 0.000000 1.773350 
# 
# From -- ./inp_files/216762.got.cif
#   From: 2010.06.25/outbox.cif.g09.slc.cpg/sg12_109_cif.got.tgz:216762.got - 2010.06.28 00:19:55.
