data_PCOD8090758
_publ_section_title
;
Structure prediction by ZEFSAII (Michael W. Deem and Ramdas Pophale) SiO2 
 PCOD8090758
Probable space group: C 2/M
;
_chemical_formula_sum "Si O2"
_cell_formula_units_Z 64
_cell_length_a 15.323959
_cell_length_b 18.742574
_cell_length_c 11.737019
_cell_angle_alpha 90.000000
_cell_angle_beta 90.000123
_cell_angle_gamma 90.000000
_cell_volume 3370.994339
_symmetry_space_group_name_H-M "C 2/M"
_symmetry_group_IT_number 12
_symmetry_cell_setting 'monoclinic'
loop_
_space_group_symop_operation_xyz
x,y,z
-x,y,-z
-x,-y,-z
x,-y,z
1/2+x,1/2+y,z
1/2-x,1/2+y,-z
1/2-x,1/2-y,-z
1/2+x,1/2-y,z
loop_
_atom_site_type_symbol
_atom_site_label
_atom_site_fract_x
_atom_site_fract_y
_atom_site_fract_z
Si Si1 0.749999 0.584066 0.346430
Si Si2 0.589151 0.657136 0.226025
Si Si3 0.250000 0.326919 0.435818
Si Si4 0.847370 0.165800 0.007306
Si Si5 0.896352 0.176298 0.253594
Si Si6 0.089151 0.342865 0.773974
Si Si7 0.396352 0.823703 0.746408
Si Si8 0.347370 0.165800 0.992694
O O1 0.749995 0.500000 0.340913
O O2 0.661239 0.611441 0.289772
O O3 0.750001 0.609492 0.475486
O O4 0.838762 0.611437 0.289771
O O5 0.588872 0.634804 0.091524
O O6 0.493476 0.647379 0.281359
O O7 0.613255 0.739668 0.236516
O O8 0.250000 0.250000 0.500000
O O9 0.334913 0.341488 0.359222
O O10 0.165088 0.341488 0.359221
O O11 0.856183 0.250000 0.999999
O O12 0.869278 0.138501 0.134487
O O13 0.750000 0.140775 0.975763
O O14 0.886742 0.260333 0.236521
O O15 0.993477 0.352622 0.718640
O O16 0.088871 0.365196 0.908475
O O17 0.369279 0.861501 0.865514
#
# Coordination Sequence:
#
# PCOD8090758 Si02
#       8
#     8   8   8   8   8   8   8   8
#     4  12  26  43  59  81 123 171 204 243 301 370
#     4  10  19  35  58  92 119 154 195 245 308 361
#     4  12  22  39  59  84 119 159 209 255 292 344
#     4   9  15  27  55  89 126 149 177 241 317 363
#     4  10  19  33  60  93 122 145 196 262 304 342
#     4  10  19  35  58  92 119 154 195 245 308 361
#     4  10  19  33  60  93 122 145 196 262 304 342
#     4   9  15  27  55  89 126 149 177 241 317 363
#
# _framework density 18.985495
#
# number of rings (size 3 to 8) (size 9 to 14) (size 15 to 20)
#    0.000    1.750    5.000    0.750    0.000    4.000 
#    0.000    2.500    0.000    6.000    0.000    0.000 
#    0.000    0.000    0.000    0.000    0.000    0.000 
#
# Total GULP energy -396514.533420 kJ/mol
# GULP energy per Si atom -12391.079169 kJ/mol
# Density = 1.894228 g / cm^3
# Si number density = 18.985495 Si / 1000 Ang^3
#
#
#
# Elastic Constant Matrix: (Units=GPa)
#
#
# Indices 1 2 3 4 5 6 
#
# 1 145.5435 55.3159 93.1274 0.0000 0.0005 0.0000
# 2 55.3159 55.6487 36.5857 0.0000 0.0008 0.0000
# 3 93.1274 36.5857 156.2390 0.0000 0.0000 0.0000
# 4 0.0000 0.0000 0.0000 9.2946 0.0000 -0.0016
# 5 0.0005 0.0008 0.0000 0.0000 21.8328 0.0000
# 6 0.0000 0.0000 0.0000 -0.0016 0.0000 10.0794
#
#
#
# Elastic Compliance Matrix: (Units=1/GPa)
#
#
# Indices 1 2 3 4 5 6 
#
# 1 0.015109 -0.010753 -0.006488 0.000000 0.000000 0.000000
# 2 -0.010753 0.028893 -0.000356 0.000000 -0.000001 0.000000
# 3 -0.006488 -0.000356 0.010351 0.000000 0.000000 0.000000
# 4 0.000000 0.000000 0.000000 0.107590 0.000000 0.000017
# 5 0.000000 -0.000001 0.000000 0.000000 0.045803 0.000000
# 6 0.000000 0.000000 0.000000 0.000017 0.000000 0.099212
#
#
# Mechanical properties :
#
#
# Convention : Reuss Voigt Hill
#
# Bulk Modulus (GPa) = 52.19618 80.83213 66.51415
# Shear Modulus (GPa) = 14.34565 19.73486 17.04025
#
# Velocity S-wave (km/s) = 2.75182 3.22758 2.99915
# Velocity P-wave (km/s) = 6.13588 7.52050 6.86319
#
# Compressibility (1/GPa) = 0.01915849
#
# Stress axis : x y z
#
# Youngs Moduli (GPa) = 66.18562 34.61040 96.60964
#
# Poissons Ratio (x) = 0.37218 0.62678
# Poissons Ratio (y) = 0.71172 0.03441
# Poissons Ratio (z) = 0.42940 0.01233
#
# Static dielectric constant tensor:
#      x y z
#    x 3.645390 0.000000 0.000000 
#    y 0.000000 2.820420 0.000000 
#    z 0.000000 0.000000 3.907460 
# 
# 
# High freq. dielectric constant tensor:
#      x y z
#    x 1.754060 0.000000 0.000000 
#    y 0.000000 1.657920 0.000000 
#    z 0.000000 0.000000 1.754660 
# 
# From -- ./inp_files/146131.got.cif
#   From: 2010.06.25/outbox.cif.g09.slc.cpg/sg12_74_cif.got.tgz:146131.got - 2010.06.28 00:19:55.
