data_PCOD8090362
_publ_section_title
;
Structure prediction by ZEFSAII (Michael W. Deem and Ramdas Pophale) SiO2 
 PCOD8090362
Probable space group: C 2/M
;
_chemical_formula_sum "Si O2"
_cell_formula_units_Z 56
_cell_length_a 30.900615
_cell_length_b 9.018052
_cell_length_c 11.665086
_cell_angle_alpha 90.000000
_cell_angle_beta 116.088808
_cell_angle_gamma 90.000000
_cell_volume 2919.436446
_symmetry_space_group_name_H-M "C 2/M"
_symmetry_group_IT_number 12
_symmetry_cell_setting 'monoclinic'
loop_
_space_group_symop_operation_xyz
x,y,z
-x,y,-z
-x,-y,-z
x,-y,z
1/2+x,1/2+y,z
1/2-x,1/2+y,-z
1/2-x,1/2-y,-z
1/2+x,1/2-y,z
loop_
_atom_site_type_symbol
_atom_site_label
_atom_site_fract_x
_atom_site_fract_y
_atom_site_fract_z
Si Si1 0.021015 0.326158 0.821889
Si Si2 0.369512 0.672905 0.449305
Si Si3 0.811156 0.173901 0.972509
Si Si4 0.717193 0.327423 0.809822
Si Si5 0.596013 0.324437 0.058850
Si Si6 0.409931 0.174657 0.712716
Si Si7 0.547920 0.668901 0.628324
O O1 0.027883 0.500000 0.847137
O O2 0.046632 0.275825 0.735284
O O3 0.965138 0.280769 0.752298
O O4 0.045622 0.244174 0.957620
O O5 0.375951 0.500000 0.487999
O O6 0.316832 0.708224 0.337674
O O7 0.376776 0.771583 0.569756
O O8 0.407841 0.720016 0.397852
O O9 0.808557 0.225496 0.102080
O O10 0.805494 0.000000 0.953171
O O11 0.767623 0.245148 0.849436
O O12 0.862013 0.225331 0.979803
O O13 0.728293 0.500000 0.831404
O O14 0.590823 0.500000 0.061824
O O15 0.608961 0.258105 0.197226
O O16 0.403820 0.000000 0.721992
O O17 0.500000 0.686156 0.500000
O O18 0.554970 0.500000 0.680152
#
# Coordination Sequence:
#
# PCOD8090362 Si02
#       7
#     8   8   8   8   8   8   8
#     4  11  23  37  55  81 115 149 184 231 282 329
#     4  10  20  36  57  83 114 149 189 227 270 327
#     4   9  19  37  59  85 113 138 176 228 277 327
#     4   9  18  34  59  87 114 141 173 221 277 331
#     4  11  23  39  60  81 106 145 192 234 274 327
#     4  11  24  39  54  78 114 150 187 231 277 328
#     4  10  19  33  56  82 111 147 185 225 268 321
#
# _framework density 19.181784
#
# number of rings (size 3 to 8) (size 9 to 14) (size 15 to 20)
#    0.000    1.857    1.429    2.571    0.000    8.286 
#    0.000    3.571    0.000    0.000    0.000    0.000 
#    0.000    0.000    0.000    0.000    0.000    0.000 
#
# Total GULP energy -347333.046616 kJ/mol
# GULP energy per Si atom -12404.751665 kJ/mol
# Density = 1.913813 g / cm^3
# Si number density = 19.181784 Si / 1000 Ang^3
#
#
#
# Elastic Constant Matrix: (Units=GPa)
#
#
# Indices 1 2 3 4 5 6 
#
# 1 52.2923 36.4068 38.7107 0.0000 3.2524 0.0000
# 2 36.4068 64.5416 44.9764 0.0000 -1.0619 0.0000
# 3 38.7107 44.9764 111.8258 0.0000 1.9727 0.0000
# 4 0.0000 0.0000 0.0000 37.4998 0.0000 2.3260
# 5 3.2524 -1.0619 1.9727 0.0000 26.2450 0.0000
# 6 0.0000 0.0000 0.0000 2.3260 0.0000 23.9139
#
#
#
# Elastic Compliance Matrix: (Units=1/GPa)
#
#
# Indices 1 2 3 4 5 6 
#
# 1 0.034362 -0.015593 -0.005545 0.000000 -0.004472 0.000000
# 2 -0.015593 0.028664 -0.006194 0.000000 0.003558 0.000000
# 3 -0.005545 -0.006194 0.013363 0.000000 -0.000568 0.000000
# 4 0.000000 0.000000 0.000000 0.026829 0.000000 -0.002610
# 5 -0.004472 0.003558 -0.000568 0.000000 0.038843 0.000000
# 6 0.000000 0.000000 0.000000 -0.002610 0.000000 0.042070
#
#
# Mechanical properties :
#
#
# Convention : Reuss Voigt Hill
#
# Bulk Modulus (GPa) = 46.02621 52.09415 49.06018
# Shear Modulus (GPa) = 20.32220 24.76946 22.54583
#
# Velocity S-wave (km/s) = 3.25845 3.59737 3.43210
# Velocity P-wave (km/s) = 6.18090 6.66872 6.42944
#
# Compressibility (1/GPa) = 0.02172675
#
# Stress axis : x y z
#
# Youngs Moduli (GPa) = 29.10199 34.88676 74.83294
#
# Poissons Ratio (x) = 0.54397 0.41493
# Poissons Ratio (y) = 0.45378 0.46350
# Poissons Ratio (z) = 0.16136 0.21608
#
# Static dielectric constant tensor:
#      x y z
#    x 3.517210 0.000000 0.031880 
#    y 0.000000 3.412570 0.000000 
#    z 0.031880 0.000000 3.567170 
# 
# 
# High freq. dielectric constant tensor:
#      x y z
#    x 1.737210 0.000000 0.003740 
#    y 0.000000 1.742140 0.000000 
#    z 0.003740 0.000000 1.752000 
# 
# From -- ./inp_files/180626.got.cif
#   From: 2010.06.25/outbox.cif.g09.slc.cpg/sg12_91_cif.got.tgz:180626.got - 2010.06.28 00:19:55.
