data_PCOD8090299
_publ_section_title
;
Structure prediction by ZEFSAII (Michael W. Deem and Ramdas Pophale) SiO2 
 PCOD8090299
Probable space group: C 2/M
;
_chemical_formula_sum "Si O2"
_cell_formula_units_Z 64
_cell_length_a 19.634745
_cell_length_b 9.282872
_cell_length_c 30.545972
_cell_angle_alpha 90.000000
_cell_angle_beta 38.015157
_cell_angle_gamma 90.000000
_cell_volume 3428.866412
_symmetry_space_group_name_H-M "C 2/M"
_symmetry_group_IT_number 12
_symmetry_cell_setting 'monoclinic'
loop_
_space_group_symop_operation_xyz
x,y,z
-x,y,-z
-x,-y,-z
x,-y,z
1/2+x,1/2+y,z
1/2-x,1/2+y,-z
1/2-x,1/2-y,-z
1/2+x,1/2-y,z
loop_
_atom_site_type_symbol
_atom_site_label
_atom_site_fract_x
_atom_site_fract_y
_atom_site_fract_z
Si Si1 0.412368 0.829556 0.506835
Si Si2 0.403402 0.830125 0.169620
Si Si3 0.033151 0.670233 0.618209
Si Si4 0.794749 0.667889 0.767499
Si Si5 0.684518 0.171213 0.619180
Si Si6 0.435780 0.168975 0.989061
Si Si7 0.772746 0.332067 0.879264
Si Si8 0.486455 0.170427 0.221248
O O1 0.500000 0.784783 0.500000
O O2 0.455058 0.776246 0.437692
O O3 0.297843 0.749809 0.573665
O O4 0.391860 0.000000 0.517835
O O5 0.286498 0.753923 0.222782
O O6 0.446792 0.777023 0.194235
O O7 0.383893 0.000000 0.177263
O O8 0.492380 0.780578 0.088621
O O9 0.029875 0.500000 0.621886
O O10 0.918187 0.728400 0.696500
O O11 0.136291 0.721471 0.596225
O O12 0.788187 0.500000 0.759047
O O13 0.757006 0.697507 0.835963
O O14 0.597117 0.225723 0.699465
O O15 0.703722 0.000000 0.611307
O O16 0.319147 0.249633 0.046201
O O17 0.412015 0.000000 0.000338
O O18 0.500000 0.216228 0.000000
O O19 0.763083 0.500000 0.895320
O O20 0.891267 0.267286 0.832872
O O21 0.493385 0.000000 0.221124
#
# Coordination Sequence:
#
# PCOD8090299 Si02
#       8
#     8   8   8   8   8   8   8   8
#     4  10  22  37  53  79 114 144 169 207 263 316
#     4  10  21  36  53  75 107 142 173 213 267 317
#     4   9  18  35  57  78 105 142 176 212 261 310
#     4  10  19  33  56  81 103 134 179 222 258 304
#     4  10  19  36  60  79 102 138 180 219 255 305
#     4  10  20  34  51  74 108 144 172 207 265 323
#     4  10  19  34  57  80 102 133 179 224 258 303
#     4   9  19  36  56  79 105 136 174 220 268 305
#
# _framework density 18.66506
#
# number of rings (size 3 to 8) (size 9 to 14) (size 15 to 20)
#    0.000    2.250    2.500    0.375    1.750    1.500 
#    0.000    2.500    0.000    0.000    0.000    0.000 
#    0.000    0.000    0.000    0.000    0.000    0.000 
#
# Total GULP energy -396816.613903 kJ/mol
# GULP energy per Si atom -12400.519184 kJ/mol
# Density = 1.862258 g / cm^3
# Si number density = 18.665060 Si / 1000 Ang^3
#
#
#
# Elastic Constant Matrix: (Units=GPa)
#
#
# Indices 1 2 3 4 5 6 
#
# 1 151.7598 35.6065 70.3499 0.0015 -6.4317 0.0074
# 2 35.6065 26.8210 27.9553 0.0020 -8.4105 0.0069
# 3 70.3499 27.9553 114.7268 -0.0004 -13.4743 0.0016
# 4 0.0015 0.0020 -0.0004 25.0288 -0.0005 -10.0793
# 5 -6.4317 -8.4105 -13.4743 -0.0005 39.2391 0.0005
# 6 0.0074 0.0069 0.0016 -10.0793 0.0005 20.1448
#
#
#
# Elastic Compliance Matrix: (Units=1/GPa)
#
#
# Indices 1 2 3 4 5 6 
#
# 1 0.011062 -0.010720 -0.004406 0.000000 -0.001997 0.000000
# 2 -0.010720 0.062172 -0.007521 -0.000014 0.008986 -0.000024
# 3 -0.004406 -0.007521 0.013522 0.000003 0.002309 0.000005
# 4 0.000000 -0.000014 0.000003 0.050036 -0.000002 0.025035
# 5 -0.001997 0.008986 0.002309 -0.000002 0.027876 -0.000004
# 6 0.000000 -0.000024 0.000005 0.025035 -0.000004 0.062167
#
#
# Mechanical properties :
#
#
# Convention : Reuss Voigt Hill
#
# Bulk Modulus (GPa) = 24.11759 62.34787 43.23273
# Shear Modulus (GPa) = 17.48563 27.50892 22.49727
#
# Velocity S-wave (km/s) = 3.06406 3.84320 3.47553
# Velocity P-wave (km/s) = 5.04651 7.29175 6.27044
#
# Compressibility (1/GPa) = 0.04146351
#
# Stress axis : x y z
#
# Youngs Moduli (GPa) = 90.39781 16.08435 73.95545
#
# Poissons Ratio (x) = 0.17242 0.32583
# Poissons Ratio (y) = 0.96907 0.55618
# Poissons Ratio (z) = 0.39827 0.12096
#
# Static dielectric constant tensor:
#      x y z
#    x 3.589500 -0.000010 0.057720 
#    y -0.000010 3.042850 0.000000 
#    z 0.057720 0.000000 3.557340 
# 
# 
# High freq. dielectric constant tensor:
#      x y z
#    x 1.734140 0.000000 -0.002380 
#    y 0.000000 1.687250 0.000000 
#    z -0.002380 0.000000 1.736420 
# 
# From -- ./inp_files/346122.got.cif
#   From: 2010.06.25/outbox.cif.g09.slc.cpg/sg12_174_cif.got.tgz:346122.got - 2010.06.28 00:19:55.
