data_PCOD8090629
_publ_section_title
;
Structure prediction by ZEFSAII (Michael W. Deem and Ramdas Pophale) SiO2 
 PCOD8090629
Probable space group: C 2/M
;
_chemical_formula_sum "Si O2"
_cell_formula_units_Z 48
_cell_length_a 13.652490
_cell_length_b 19.109833
_cell_length_c 14.067580
_cell_angle_alpha 90.000000
_cell_angle_beta 138.071771
_cell_angle_gamma 90.000000
_cell_volume 2452.415749
_symmetry_space_group_name_H-M "C 2/M"
_symmetry_group_IT_number 12
_symmetry_cell_setting 'monoclinic'
loop_
_space_group_symop_operation_xyz
x,y,z
-x,y,-z
-x,-y,-z
x,-y,z
1/2+x,1/2+y,z
1/2-x,1/2+y,-z
1/2-x,1/2-y,-z
1/2+x,1/2-y,z
loop_
_atom_site_type_symbol
_atom_site_label
_atom_site_fract_x
_atom_site_fract_y
_atom_site_fract_z
Si Si1 0.864156 0.580549 0.604505
Si Si2 0.049268 0.919283 0.815202
Si Si3 0.629049 0.655387 0.157068
Si Si4 0.691569 0.080622 0.870783
Si Si5 0.853409 0.295564 0.452125
Si Si6 0.412448 0.644371 0.534188
O O1 0.860666 0.500000 0.565942
O O2 0.829237 0.633717 0.494011
O O3 0.729625 0.593930 0.579883
O O4 0.020310 0.597899 0.765871
O O5 0.942607 0.903067 0.826583
O O6 0.015266 0.875272 0.696747
O O7 0.030970 0.000000 0.775249
O O8 0.215575 0.900220 0.967711
O O9 0.753989 0.621814 0.181793
O O10 0.712901 0.713201 0.280636
O O11 0.500000 0.690273 0.000000
O O12 0.715682 0.000000 0.863839
O O13 0.861965 0.224275 0.519003
O O14 0.000000 0.306804 0.500000
O O15 0.500000 0.638592 0.500000
#
# Coordination Sequence:
#
# PCOD8090629 Si02
#       6
#     8   8   8   8   8   8
#     4  11  22  37  61  89 116 151 195 247 298 343
#     4  10  20  36  59  87 119 158 198 237 290 350
#     4  10  19  33  57  90 123 153 183 230 301 367
#     4   9  19  35  57  91 125 147 181 242 307 361
#     4  11  22  39  59  86 125 154 189 242 298 355
#     4  11  25  41  58  80 118 164 207 244 277 335
#
# _framework density 19.572538000000002
#
# number of rings (size 3 to 8) (size 9 to 14) (size 15 to 20)
#    0.000    1.667    3.333    1.500    0.000    4.333 
#    0.000    5.000    0.000    3.000    0.000    0.000 
#    0.000    0.000    0.000    0.000    0.000    0.000 
#
# Total GULP energy -297497.491658 kJ/mol
# GULP energy per Si atom -12395.728819 kJ/mol
# Density = 1.952799 g / cm^3
# Si number density = 19.572538 Si / 1000 Ang^3
#
#
#
# Elastic Constant Matrix: (Units=GPa)
#
#
# Indices 1 2 3 4 5 6 
#
# 1 74.1880 32.3395 51.7809 0.0000 6.5991 0.0000
# 2 32.3395 104.3660 67.0721 0.0000 -7.3234 0.0000
# 3 51.7809 67.0721 180.2136 0.0000 10.0379 0.0000
# 4 0.0000 0.0000 0.0000 30.6072 0.0000 -2.0752
# 5 6.5991 -7.3234 10.0379 0.0000 31.9800 0.0000
# 6 0.0000 0.0000 0.0000 -2.0752 0.0000 13.3284
#
#
#
# Elastic Compliance Matrix: (Units=1/GPa)
#
#
# Indices 1 2 3 4 5 6 
#
# 1 0.017815 -0.003391 -0.003673 0.000000 -0.003300 0.000000
# 2 -0.003391 0.013889 -0.004489 0.000000 0.005289 0.000000
# 3 -0.003673 -0.004489 0.008438 0.000000 -0.002919 0.000000
# 4 0.000000 0.000000 0.000000 0.033021 0.000000 0.005141
# 5 -0.003300 0.005289 -0.002919 0.000000 0.034078 0.000000
# 6 0.000000 0.000000 0.000000 0.005141 0.000000 0.075828
#
#
# Mechanical properties :
#
#
# Convention : Reuss Voigt Hill
#
# Bulk Modulus (GPa) = 58.70521 73.46138 66.08329
# Shear Modulus (GPa) = 23.60132 29.02146 26.31139
#
# Velocity S-wave (km/s) = 3.47629 3.85485 3.67045
# Velocity P-wave (km/s) = 6.79496 7.57809 7.19719
#
# Compressibility (1/GPa) = 0.01703426
#
# Stress axis : x y z
#
# Youngs Moduli (GPa) = 56.13390 72.00030 118.51650
#
# Poissons Ratio (x) = 0.24418 0.43527
# Poissons Ratio (y) = 0.19037 0.53206
# Poissons Ratio (z) = 0.20616 0.32323
#
# Static dielectric constant tensor:
#      x y z
#    x 3.583170 0.000000 0.282400 
#    y 0.000000 3.479210 0.000000 
#    z 0.282400 0.000000 3.948940 
# 
# 
# High freq. dielectric constant tensor:
#      x y z
#    x 1.753910 0.000000 0.019180 
#    y 0.000000 1.746780 0.000000 
#    z 0.019180 0.000000 1.776600 
# 
# From -- ./inp_files/216475.got.cif
#   From: 2010.06.25/outbox.cif.g09.slc.cpg/sg12_109_cif.got.tgz:216475.got - 2010.06.28 00:19:55.
