data_PCOD8090553
_publ_section_title
;
Structure prediction by ZEFSAII (Michael W. Deem and Ramdas Pophale) SiO2 
 PCOD8090553
Probable space group: C 2/M
;
_chemical_formula_sum "Si O2"
_cell_formula_units_Z 56
_cell_length_a 19.543386
_cell_length_b 9.078641
_cell_length_c 20.962585
_cell_angle_alpha 90.000000
_cell_angle_beta 125.146129
_cell_angle_gamma 90.000000
_cell_volume 3041.251418
_symmetry_space_group_name_H-M "C 2/M"
_symmetry_group_IT_number 12
_symmetry_cell_setting 'monoclinic'
loop_
_space_group_symop_operation_xyz
x,y,z
-x,y,-z
-x,-y,-z
x,-y,z
1/2+x,1/2+y,z
1/2-x,1/2+y,-z
1/2-x,1/2-y,-z
1/2+x,1/2-y,z
loop_
_atom_site_type_symbol
_atom_site_label
_atom_site_fract_x
_atom_site_fract_y
_atom_site_fract_z
Si Si1 0.004126 0.671521 0.803381
Si Si2 0.139926 0.170338 0.206142
Si Si3 0.748014 0.175480 0.364074
Si Si4 0.082975 0.675182 0.505889
Si Si5 0.596733 0.172364 0.370360
Si Si6 0.335543 0.168946 0.037612
Si Si7 0.097529 0.163810 0.042266
O O1 0.981754 0.500000 0.804156
O O2 0.101581 0.703402 0.869638
O O3 0.951263 0.771949 0.822756
O O4 0.980732 0.713696 0.717833
O O5 0.211724 0.267630 0.277531
O O6 0.148341 0.189130 0.134895
O O7 0.148857 0.000000 0.231398
O O8 0.837990 0.248256 0.419572
O O9 0.684453 0.228508 0.386486
O O10 0.756132 0.000000 0.366714
O O11 0.094722 0.500000 0.514772
O O12 0.078547 0.737750 0.430780
O O13 0.000000 0.722721 0.500000
O O14 0.603994 0.000000 0.382314
O O15 0.313570 0.000000 0.023270
O O16 0.250000 0.250000 0.000000
O O17 0.376223 0.212624 0.992918
O O18 0.118101 0.000000 0.026907
O O19 0.000000 0.180518 0.000000
#
# Coordination Sequence:
#
# PCOD8090553 Si02
#       7
#     8   8   8   8   8   8   8
#     4   9  18  34  55  79 107 143 183 226 276 324
#     4  10  19  33  57  85 110 138 178 230 277 324
#     4  10  20  35  56  79 109 142 178 222 267 323
#     4  10  20  35  55  80 109 140 179 221 268 327
#     4   8  16  33  56  79 103 135 177 223 267 315
#     4  11  23  37  55  79 113 153 192 231 275 331
#     4  10  20  36  58  83 111 143 183 231 283 331
#
# _framework density 18.413471999999999
#
# number of rings (size 3 to 8) (size 9 to 14) (size 15 to 20)
#    0.000    2.286    1.429    2.571    0.000    2.286 
#    2.571    2.857    0.000    0.000    0.000    0.000 
#    0.000    0.000    0.000    0.000    0.000    0.000 
#
# Total GULP energy -347119.646841 kJ/mol
# GULP energy per Si atom -12397.130244 kJ/mol
# Density = 1.837156 g / cm^3
# Si number density = 18.413472 Si / 1000 Ang^3
#
#
#
# Elastic Constant Matrix: (Units=GPa)
#
#
# Indices 1 2 3 4 5 6 
#
# 1 92.1007 42.0938 72.9841 0.0000 14.3982 0.0000
# 2 42.0938 62.6541 48.4199 0.0000 13.1330 0.0000
# 3 72.9841 48.4199 126.5621 0.0000 15.5096 0.0000
# 4 0.0000 0.0000 0.0000 28.6019 0.0000 4.1928
# 5 14.3982 13.1330 15.5096 0.0000 26.1456 0.0000
# 6 0.0000 0.0000 0.0000 4.1928 0.0000 28.7547
#
#
#
# Elastic Compliance Matrix: (Units=1/GPa)
#
#
# Indices 1 2 3 4 5 6 
#
# 1 0.022205 -0.006638 -0.009895 0.000000 -0.003025 0.000000
# 2 -0.006638 0.025798 -0.005286 0.000000 -0.006167 0.000000
# 3 -0.009895 -0.005286 0.015784 0.000000 -0.001259 0.000000
# 4 0.000000 0.000000 0.000000 0.035726 0.000000 -0.005209
# 5 -0.003025 -0.006167 -0.001259 0.000000 0.043758 0.000000
# 6 0.000000 0.000000 0.000000 -0.005209 0.000000 0.035537
#
#
# Mechanical properties :
#
#
# Convention : Reuss Voigt Hill
#
# Bulk Modulus (GPa) = 49.62861 67.59029 58.60945
# Shear Modulus (GPa) = 21.81855 24.55502 23.18679
#
# Velocity S-wave (km/s) = 3.44601 3.65572 3.55241
# Velocity P-wave (km/s) = 6.54554 7.38957 6.98032
#
# Compressibility (1/GPa) = 0.02014967
#
# Stress axis : x y z
#
# Youngs Moduli (GPa) = 45.03415 38.76236 63.35484
#
# Poissons Ratio (x) = 0.25729 0.62690
# Poissons Ratio (y) = 0.29892 0.33492
# Poissons Ratio (z) = 0.44562 0.20491
#
# Static dielectric constant tensor:
#      x y z
#    x 3.144090 0.000000 -0.051990 
#    y 0.000000 3.372780 0.000000 
#    z -0.051990 0.000000 3.687160 
# 
# 
# High freq. dielectric constant tensor:
#      x y z
#    x 1.692310 0.000000 0.003710 
#    y 0.000000 1.706460 0.000000 
#    z 0.003710 0.000000 1.730020 
# 
# From -- ./inp_files/275113.got.cif
#   From: 2010.06.25/outbox.cif.g09.slc.cpg/sg12_138_cif.got.tgz:275113.got - 2010.06.28 00:19:55.
