data_PCOD8090131
_publ_section_title
;
Structure prediction by ZEFSAII (Michael W. Deem and Ramdas Pophale) SiO2 
 PCOD8090131
Probable space group: C 2/M
;
_chemical_formula_sum "Si O2"
_cell_formula_units_Z 48
_cell_length_a 8.838860
_cell_length_b 23.961886
_cell_length_c 10.742620
_cell_angle_alpha 90.000000
_cell_angle_beta 101.441513
_cell_angle_gamma 90.000000
_cell_volume 2230.027059
_symmetry_space_group_name_H-M "C 2/M"
_symmetry_group_IT_number 12
_symmetry_cell_setting 'monoclinic'
loop_
_space_group_symop_operation_xyz
x,y,z
-x,y,-z
-x,-y,-z
x,-y,z
1/2+x,1/2+y,z
1/2-x,1/2+y,-z
1/2-x,1/2-y,-z
1/2+x,1/2-y,z
loop_
_atom_site_type_symbol
_atom_site_label
_atom_site_fract_x
_atom_site_fract_y
_atom_site_fract_z
Si Si1 0.336115 0.597375 0.939166
Si Si2 0.656449 0.662598 0.457541
Si Si3 0.726983 0.937207 0.180885
Si Si4 0.085252 0.280457 0.380969
Si Si5 0.068321 0.938787 0.299329
Si Si6 0.029190 0.343847 0.863811
O O1 0.376404 0.555490 0.833858
O O2 0.208666 0.642010 0.876677
O O3 0.500000 0.627729 0.000000
O O4 0.263651 0.562461 0.040195
O O5 0.500000 0.651429 0.500000
O O6 0.785150 0.671534 0.584485
O O7 0.653794 0.718388 0.370577
O O8 0.681634 0.606720 0.380993
O O9 0.586194 0.895259 0.186765
O O10 0.886508 0.920878 0.278749
O O11 0.675518 0.000000 0.209664
O O12 0.990399 0.295076 0.241785
O O13 0.000000 0.280341 0.500000
O O14 0.090085 0.000000 0.364707
O O15 0.000000 0.321762 0.000000
#
# Coordination Sequence:
#
# PCOD8090131 Si02
#       6
#     8   8   8   8   8   8
#     4   9  18  32  52  79 113 151 187 224 279 345
#     4  10  21  37  59  80 108 150 192 227 275 342
#     4   9  18  32  52  80 115 152 186 225 282 345
#     4  10  21  39  60  82 112 153 192 226 277 342
#     4  10  19  33  55  82 111 143 185 236 281 327
#     4  10  20  35  58  85 114 146 189 240 280 323
#
# _framework density 21.524401999999998
#
# number of rings (size 3 to 8) (size 9 to 14) (size 15 to 20)
#    0.000    2.333    0.000    2.500    0.000    6.000 
#    0.000    3.333    0.000   18.000    0.000    0.000 
#    0.000    0.000    0.000    0.000    0.000    0.000 
#
# Total GULP energy -297319.897941 kJ/mol
# GULP energy per Si atom -12388.329081 kJ/mol
# Density = 2.147541 g / cm^3
# Si number density = 21.524402 Si / 1000 Ang^3
#
#
#
# Elastic Constant Matrix: (Units=GPa)
#
#
# Indices 1 2 3 4 5 6 
#
# 1 85.3139 24.3432 18.7971 0.0000 9.5219 0.0000
# 2 24.3432 110.4524 59.9488 0.0000 15.6268 0.0000
# 3 18.7971 59.9488 94.1181 0.0000 14.3540 0.0000
# 4 0.0000 0.0000 0.0000 28.6486 0.0000 9.6642
# 5 9.5219 15.6268 14.3540 0.0000 28.4041 0.0000
# 6 0.0000 0.0000 0.0000 9.6642 0.0000 22.1952
#
#
#
# Elastic Compliance Matrix: (Units=1/GPa)
#
#
# Indices 1 2 3 4 5 6 
#
# 1 0.012781 -0.001940 -0.000895 0.000000 -0.002765 0.000000
# 2 -0.001940 0.014446 -0.008344 0.000000 -0.003081 0.000000
# 3 -0.000895 -0.008344 0.016656 0.000000 -0.003527 0.000000
# 4 0.000000 0.000000 0.000000 0.040915 0.000000 -0.017815
# 5 -0.002765 -0.003081 -0.003527 0.000000 0.039610 0.000000
# 6 0.000000 0.000000 0.000000 -0.017815 0.000000 0.052812
#
#
# Mechanical properties :
#
#
# Convention : Reuss Voigt Hill
#
# Bulk Modulus (GPa) = 46.45835 55.11808 50.78821
# Shear Modulus (GPa) = 24.18337 28.30259 26.24298
#
# Velocity S-wave (km/s) = 3.35555 3.63010 3.49552
# Velocity P-wave (km/s) = 6.05342 6.57518 6.31969
#
# Compressibility (1/GPa) = 0.02152465
#
# Stress axis : x y z
#
# Youngs Moduli (GPa) = 78.24267 69.22414 60.03698
#
# Poissons Ratio (x) = 0.13427 0.05376
# Poissons Ratio (y) = 0.15176 0.50095
# Poissons Ratio (z) = 0.07006 0.57761
#
# Static dielectric constant tensor:
#      x y z
#    x 3.988150 0.000000 0.258760 
#    y 0.000000 3.709160 0.000000 
#    z 0.258760 0.000000 3.935890 
# 
# 
# High freq. dielectric constant tensor:
#      x y z
#    x 1.845210 0.000000 0.005990 
#    y 0.000000 1.822200 0.000000 
#    z 0.005990 0.000000 1.837760 
# 
# From -- ./inp_files/122582.got.cif
#   From: 2010.06.25/outbox.cif.g09.slc.cpg/sg12_62_cif.got.tgz:122582.got - 2010.06.28 00:19:55.
