data_PCOD8090453
_publ_section_title
;
Structure prediction by ZEFSAII (Michael W. Deem and Ramdas Pophale) SiO2 
 PCOD8090453
Probable space group: C 2/M
;
_chemical_formula_sum "Si O2"
_cell_formula_units_Z 48
_cell_length_a 24.439602
_cell_length_b 9.130892
_cell_length_c 19.510380
_cell_angle_alpha 90.000000
_cell_angle_beta 33.037822
_cell_angle_gamma 90.000000
_cell_volume 2373.684350
_symmetry_space_group_name_H-M "C 2/M"
_symmetry_group_IT_number 12
_symmetry_cell_setting 'monoclinic'
loop_
_space_group_symop_operation_xyz
x,y,z
-x,y,-z
-x,-y,-z
x,-y,z
1/2+x,1/2+y,z
1/2-x,1/2+y,-z
1/2-x,1/2-y,-z
1/2+x,1/2-y,z
loop_
_atom_site_type_symbol
_atom_site_label
_atom_site_fract_x
_atom_site_fract_y
_atom_site_fract_z
Si Si1 0.384021 0.668240 0.198432
Si Si2 0.704125 0.832576 0.484998
Si Si3 0.050867 0.331359 0.107894
Si Si4 0.482184 0.827505 0.705471
Si Si5 0.299975 0.169413 0.164720
Si Si6 0.597588 0.827925 0.352649
O O1 0.412237 0.500000 0.154252
O O2 0.273087 0.683447 0.346145
O O3 0.463962 0.733307 0.167022
O O4 0.381463 0.756470 0.129851
O O5 0.750000 0.750000 0.500000
O O6 0.595266 0.764477 0.582492
O O7 0.692796 0.000000 0.519854
O O8 0.015111 0.500000 0.141777
O O9 0.067912 0.283413 0.169203
O O10 0.155731 0.309486 0.958256
O O11 0.418869 0.766846 0.707546
O O12 0.487179 0.000000 0.690154
O O13 0.192481 0.244959 0.284268
O O14 0.289356 0.000000 0.195637
O O15 0.500000 0.790955 0.500000
O O16 0.621576 0.000000 0.329763
#
# Coordination Sequence:
#
# PCOD8090453 Si02
#       6
#     8   8   8   8   8   8
#     4  11  22  36  58  88 118 151 195 242 287 341
#     4  10  19  33  56  85 114 145 184 228 281 338
#     4  10  21  38  58  82 116 156 195 234 288 349
#     4   9  18  35  59  83 113 152 187 229 285 341
#     4  11  24  39  57  83 115 155 197 238 287 343
#     4  10  21  40  64  86 112 148 190 237 290 348
#
# _framework density 20.221727999999999
#
# number of rings (size 3 to 8) (size 9 to 14) (size 15 to 20)
#    0.000    1.833    1.667    2.500    0.000    7.667 
#    0.000    1.667    0.000    0.000    0.000    0.000 
#    0.000    0.000    0.000    0.000    0.000    0.000 
#
# Total GULP energy -297626.179080 kJ/mol
# GULP energy per Si atom -12401.090795 kJ/mol
# Density = 2.017570 g / cm^3
# Si number density = 20.221728 Si / 1000 Ang^3
#
#
#
# Elastic Constant Matrix: (Units=GPa)
#
#
# Indices 1 2 3 4 5 6 
#
# 1 117.9881 42.9460 20.9474 -0.0002 13.8692 -0.0003
# 2 42.9460 84.5829 35.8438 -0.0028 2.9946 0.0002
# 3 20.9474 35.8438 78.7026 -0.0029 10.2883 0.0011
# 4 -0.0002 -0.0028 -0.0029 23.1074 0.0001 -4.0175
# 5 13.8692 2.9946 10.2883 0.0001 34.9673 0.0005
# 6 -0.0003 0.0002 0.0011 -4.0175 0.0005 29.8873
#
#
#
# Elastic Compliance Matrix: (Units=1/GPa)
#
#
# Indices 1 2 3 4 5 6 
#
# 1 0.010893 -0.005427 0.000080 -0.000001 -0.003879 0.000000
# 2 -0.005427 0.017372 -0.006817 0.000001 0.002670 0.000000
# 3 0.000080 -0.006817 0.016346 0.000001 -0.004257 0.000000
# 4 -0.000001 0.000001 0.000001 0.044312 0.000000 0.005957
# 5 -0.003879 0.002670 -0.004257 0.000000 0.031161 -0.000001
# 6 0.000000 0.000000 0.000000 0.005957 -0.000001 0.034260
#
#
# Mechanical properties :
#
#
# Convention : Reuss Voigt Hill
#
# Bulk Modulus (GPa) = 49.30280 53.41643 51.35962
# Shear Modulus (GPa) = 26.96407 29.69483 28.32945
#
# Velocity S-wave (km/s) = 3.65556 3.83621 3.74698
# Velocity P-wave (km/s) = 6.50012 6.78931 6.64629
#
# Compressibility (1/GPa) = 0.02028282
#
# Stress axis : x y z
#
# Youngs Moduli (GPa) = 91.80529 57.56278 61.17736
#
# Poissons Ratio (x) = 0.31239 -0.00487
# Poissons Ratio (y) = 0.49823 0.41702
# Poissons Ratio (z) = -0.00730 0.39238
#
# Static dielectric constant tensor:
#      x y z
#    x 3.760820 0.000000 0.164060 
#    y 0.000000 3.491080 0.000000 
#    z 0.164060 0.000000 3.848160 
# 
# 
# High freq. dielectric constant tensor:
#      x y z
#    x 1.793360 0.000000 0.010110 
#    y 0.000000 1.766970 0.000000 
#    z 0.010110 0.000000 1.799000 
# 
# From -- ./inp_files/327185.got.cif
#   From: 2010.06.25/outbox.cif.g09.slc.cpg/sg12_164_cif.got.tgz:327185.got - 2010.06.28 00:19:55.
