data_PCOD8090397
_publ_section_title
;
Structure prediction by ZEFSAII (Michael W. Deem and Ramdas Pophale) SiO2 
 PCOD8090397
Probable space group: C 2/M
;
_chemical_formula_sum "Si O2"
_cell_formula_units_Z 56
_cell_length_a 15.357128
_cell_length_b 9.255734
_cell_length_c 22.850866
_cell_angle_alpha 90.000000
_cell_angle_beta 58.681682
_cell_angle_gamma 90.000000
_cell_volume 2774.790657
_symmetry_space_group_name_H-M "C 2/M"
_symmetry_group_IT_number 12
_symmetry_cell_setting 'monoclinic'
loop_
_space_group_symop_operation_xyz
x,y,z
-x,y,-z
-x,-y,-z
x,-y,z
1/2+x,1/2+y,z
1/2-x,1/2+y,-z
1/2-x,1/2-y,-z
1/2+x,1/2-y,z
loop_
_atom_site_type_symbol
_atom_site_label
_atom_site_fract_x
_atom_site_fract_y
_atom_site_fract_z
Si Si1 0.222714 0.834873 0.334066
Si Si2 0.029867 0.661032 0.927026
Si Si3 0.580531 0.335174 0.196277
Si Si4 0.821166 0.660796 0.932395
Si Si5 0.981282 0.165044 0.653722
Si Si6 0.188927 0.670816 0.571641
Si Si7 0.871780 0.833066 0.202596
O O1 0.100492 0.817238 0.370135
O O2 0.255794 0.787265 0.387204
O O3 0.275040 0.734975 0.267860
O O4 0.255908 0.000000 0.310519
O O5 0.075504 0.500000 0.920782
O O6 0.113901 0.759747 0.866025
O O7 0.931747 0.652700 0.921220
O O8 0.000000 0.730571 0.000000
O O9 0.612970 0.500000 0.174253
O O10 0.666990 0.238049 0.134779
O O11 0.576947 0.296058 0.265822
O O12 0.468876 0.305266 0.209546
O O13 0.775854 0.500000 0.939284
O O14 0.750000 0.750000 0.000000
O O15 0.073216 0.274327 0.611344
O O16 0.022864 0.000000 0.641856
O O17 0.189686 0.500000 0.560450
O O18 0.250000 0.750000 0.500000
O O19 0.850239 0.000000 0.199334
#
# Coordination Sequence:
#
# PCOD8090397 Si02
#       7
#     8   8   8   8   8   8   8
#     4  10  22  39  62  90 120 157 200 241 290 355
#     4   9  19  35  53  73 103 148 196 238 288 350
#     4   9  18  34  56  79 107 147 190 237 292 348
#     4  10  20  33  51  74 105 145 188 238 289 345
#     4  10  21  40  64  90 120 157 200 243 290 352
#     4  11  24  42  65  92 124 161 197 243 297 352
#     4  10  19  33  56  83 112 148 191 245 300 347
#
# _framework density 20.181702999999999
#
# number of rings (size 3 to 8) (size 9 to 14) (size 15 to 20)
#    0.000    2.143    1.429    1.286    0.000    4.857 
#    0.000    8.571    0.000    0.000    0.000    0.000 
#    0.000    0.000    0.000    0.000    0.000    0.000 
#
# Total GULP energy -347244.670212 kJ/mol
# GULP energy per Si atom -12401.595365 kJ/mol
# Density = 2.013577 g / cm^3
# Si number density = 20.181703 Si / 1000 Ang^3
#
#
#
# Elastic Constant Matrix: (Units=GPa)
#
#
# Indices 1 2 3 4 5 6 
#
# 1 70.1329 42.4578 49.2513 0.0000 2.1389 0.0000
# 2 42.4578 117.7660 73.6986 0.0000 -7.1855 0.0000
# 3 49.2513 73.6986 134.7656 0.0000 1.9760 0.0000
# 4 0.0000 0.0000 0.0000 41.5743 0.0000 -4.4996
# 5 2.1389 -7.1855 1.9760 0.0000 21.9224 0.0000
# 6 0.0000 0.0000 0.0000 -4.4996 0.0000 25.6233
#
#
#
# Elastic Compliance Matrix: (Units=1/GPa)
#
#
# Indices 1 2 3 4 5 6 
#
# 1 0.020588 -0.004447 -0.005048 0.000000 -0.003011 0.000000
# 2 -0.004447 0.014412 -0.006340 0.000000 0.005729 0.000000
# 3 -0.005048 -0.006340 0.012772 0.000000 -0.002737 0.000000
# 4 0.000000 0.000000 0.000000 0.024519 0.000000 0.004306
# 5 -0.003011 0.005729 -0.002737 0.000000 0.048034 0.000000
# 6 0.000000 0.000000 0.000000 0.004306 0.000000 0.039783
#
#
# Mechanical properties :
#
#
# Convention : Reuss Voigt Hill
#
# Bulk Modulus (GPa) = 62.10502 72.60889 67.35695
# Shear Modulus (GPa) = 25.36195 28.30779 26.83487
#
# Velocity S-wave (km/s) = 3.54881 3.74925 3.65041
# Velocity P-wave (km/s) = 6.90158 7.40258 7.15647
#
# Compressibility (1/GPa) = 0.01610176
#
# Stress axis : x y z
#
# Youngs Moduli (GPa) = 48.57293 69.38637 78.29384
#
# Poissons Ratio (x) = 0.30858 0.39521
# Poissons Ratio (y) = 0.21601 0.49640
# Poissons Ratio (z) = 0.24518 0.43992
#
# Static dielectric constant tensor:
#      x y z
#    x 3.603790 0.000000 0.081830 
#    y 0.000000 3.838200 0.000000 
#    z 0.081830 0.000000 3.696660 
# 
# 
# High freq. dielectric constant tensor:
#      x y z
#    x 1.778980 0.000000 0.005850 
#    y 0.000000 1.789160 0.000000 
#    z 0.005850 0.000000 1.788250 
# 
# From -- ./inp_files/275480.got.cif
#   From: 2010.06.25/outbox.cif.g09.slc.cpg/sg12_138_cif.got.tgz:275480.got - 2010.06.28 00:19:55.
