data_PCOD8090983
_publ_section_title
;
Structure prediction by ZEFSAII (Michael W. Deem and Ramdas Pophale) SiO2 
 PCOD8090983
Probable space group: C 2/M
;
_chemical_formula_sum "Si O2"
_cell_formula_units_Z 56
_cell_length_a 15.413409
_cell_length_b 8.482768
_cell_length_c 22.718599
_cell_angle_alpha 90.000000
_cell_angle_beta 70.666276
_cell_angle_gamma 90.000000
_cell_volume 2802.906731
_symmetry_space_group_name_H-M "C 2/M"
_symmetry_group_IT_number 12
_symmetry_cell_setting 'monoclinic'
loop_
_space_group_symop_operation_xyz
x,y,z
-x,y,-z
-x,-y,-z
x,-y,z
1/2+x,1/2+y,z
1/2-x,1/2+y,-z
1/2-x,1/2-y,-z
1/2+x,1/2-y,z
loop_
_atom_site_type_symbol
_atom_site_label
_atom_site_fract_x
_atom_site_fract_y
_atom_site_fract_z
Si Si1 0.101880 0.683311 0.995553
Si Si2 0.603276 0.312771 0.791458
Si Si3 0.095244 0.815573 0.123911
Si Si4 0.570825 0.313057 0.564833
Si Si5 0.820208 0.813775 0.348092
Si Si6 0.871483 0.813524 0.575278
Si Si7 0.272132 0.315795 0.130061
O O1 0.119789 0.500000 0.978879
O O2 0.173146 0.785595 0.942370
O O3 0.117574 0.719095 0.060181
O O4 0.000000 0.735519 0.000000
O O5 0.606173 0.500000 0.789810
O O6 0.499967 0.253952 0.826897
O O7 0.637144 0.243212 0.721475
O O8 0.669424 0.249240 0.828169
O O9 0.175978 0.778143 0.151979
O O10 0.090218 0.000000 0.110301
O O11 0.575100 0.500000 0.564668
O O12 0.623717 0.240316 0.609196
O O13 0.463866 0.261324 0.589206
O O14 0.620585 0.254205 0.494067
O O15 0.713460 0.770660 0.374712
O O16 0.831125 0.000000 0.346127
O O17 0.857508 0.000000 0.581188
O O18 0.251944 0.500000 0.141054
#
# Coordination Sequence:
#
# PCOD8090983 Si02
#       7
#     8   8   8   8   8   8   8
#     4  11  22  37  60  88 113 139 177 226 271 321
#     4   9  21  38  55  75 107 146 182 217 268 325
#     4  11  22  39  60  83 109 144 183 222 270 328
#     4   8  16  31  53  76 107 142 176 214 267 326
#     4  10  19  34  54  77 104 142 182 220 264 318
#     4   9  17  32  52  79 107 139 176 220 269 318
#     4  11  22  39  59  81 109 144 180 224 276 326
#
# _framework density 19.979258000000002
#
# number of rings (size 3 to 8) (size 9 to 14) (size 15 to 20)
#    0.000    2.143    1.429    3.000    0.000    1.714 
#    0.000    6.429    0.000    0.000    0.000    0.000 
#    0.000    0.000    0.000    0.000    0.000    0.000 
#
# Total GULP energy -347253.070774 kJ/mol
# GULP energy per Si atom -12401.895385 kJ/mol
# Density = 1.993378 g / cm^3
# Si number density = 19.979258 Si / 1000 Ang^3
#
#
#
# Elastic Constant Matrix: (Units=GPa)
#
#
# Indices 1 2 3 4 5 6 
#
# 1 151.5524 12.6944 68.6637 0.0000 -7.7855 0.0000
# 2 12.6944 24.6818 8.1870 0.0000 0.5123 0.0001
# 3 68.6637 8.1870 136.3594 0.0000 -8.8419 0.0000
# 4 0.0000 0.0000 0.0000 15.7327 0.0000 -4.3041
# 5 -7.7855 0.5123 -8.8419 0.0000 17.6665 0.0000
# 6 0.0000 0.0001 0.0000 -4.3041 0.0000 29.7772
#
#
#
# Elastic Compliance Matrix: (Units=1/GPa)
#
#
# Indices 1 2 3 4 5 6 
#
# 1 0.008839 -0.003215 -0.004133 0.000000 0.001920 0.000000
# 2 -0.003215 0.042617 -0.001149 0.000000 -0.003228 0.000000
# 3 -0.004133 -0.001149 0.009682 0.000000 0.003058 0.000000
# 4 0.000000 0.000000 0.000000 0.066179 0.000000 0.009566
# 5 0.001920 -0.003228 0.003058 0.000000 0.059074 0.000000
# 6 0.000000 0.000000 0.000000 0.009566 0.000000 0.034965
#
#
# Mechanical properties :
#
#
# Convention : Reuss Voigt Hill
#
# Bulk Modulus (GPa) = 22.65334 54.63155 38.64245
# Shear Modulus (GPa) = 19.75766 27.50518 23.63142
#
# Velocity S-wave (km/s) = 3.14810 3.71440 3.44291
# Velocity P-wave (km/s) = 4.95753 6.76751 5.93196
#
# Compressibility (1/GPa) = 0.04414360
#
# Stress axis : x y z
#
# Youngs Moduli (GPa) = 113.13508 23.46463 103.28258
#
# Poissons Ratio (x) = 0.07544 0.42690
# Poissons Ratio (y) = 0.36372 0.11869
# Poissons Ratio (z) = 0.46763 0.02697
#
# Static dielectric constant tensor:
#      x y z
#    x 3.927200 0.000000 0.121010 
#    y 0.000000 3.205590 0.000000 
#    z 0.121010 0.000000 3.773120 
# 
# 
# High freq. dielectric constant tensor:
#      x y z
#    x 1.796890 0.000000 -0.000660 
#    y 0.000000 1.747080 0.000000 
#    z -0.000660 0.000000 1.774180 
# 
# From -- ./inp_files/337851.got.cif
#   From: 2010.06.25/outbox.cif.g09.slc.cpg/sg12_169_cif.got.tgz:337851.got - 2010.06.28 00:19:55.
