data_PCOD8090443
_publ_section_title
;
Structure prediction by ZEFSAII (Michael W. Deem and Ramdas Pophale) SiO2 
 PCOD8090443
Probable space group: C 2/M
;
_chemical_formula_sum "Si O2"
_cell_formula_units_Z 64
_cell_length_a 19.675915
_cell_length_b 9.137794
_cell_length_c 21.113031
_cell_angle_alpha 90.000000
_cell_angle_beta 63.674516
_cell_angle_gamma 90.000000
_cell_volume 3402.319426
_symmetry_space_group_name_H-M "C 2/M"
_symmetry_group_IT_number 12
_symmetry_cell_setting 'monoclinic'
loop_
_space_group_symop_operation_xyz
x,y,z
-x,y,-z
-x,-y,-z
x,-y,z
1/2+x,1/2+y,z
1/2-x,1/2+y,-z
1/2-x,1/2-y,-z
1/2+x,1/2-y,z
loop_
_atom_site_type_symbol
_atom_site_label
_atom_site_fract_x
_atom_site_fract_y
_atom_site_fract_z
Si Si1 0.339114 0.337864 0.392348
Si Si2 0.573128 0.332417 0.436160
Si Si3 0.451634 0.331759 0.822821
Si Si4 0.285547 0.323637 0.924421
Si Si5 0.881725 0.825740 0.235331
Si Si6 0.886995 0.833798 0.718244
Si Si7 0.757980 0.825826 0.184606
Si Si8 0.836598 0.660256 0.510784
O O1 0.376885 0.500000 0.379379
O O2 0.350377 0.270937 0.316845
O O3 0.253081 0.351210 0.450136
O O4 0.373801 0.234303 0.432486
O O5 0.500000 0.263781 0.500000
O O6 0.583349 0.500000 0.451179
O O7 0.565525 0.310327 0.364597
O O8 0.645272 0.248322 0.432976
O O9 0.454567 0.500000 0.840031
O O10 0.373897 0.269768 0.886054
O O11 0.532257 0.262577 0.812025
O O12 0.446609 0.305693 0.749633
O O13 0.278824 0.500000 0.928387
O O14 0.239790 0.261343 0.882774
O O15 0.250000 0.250000 0.000000
O O16 0.828475 0.773605 0.199411
O O17 0.882275 0.000000 0.236676
O O18 0.818440 0.718728 0.747429
O O19 0.854098 0.000000 0.737345
O O20 0.759521 0.000000 0.171874
O O21 0.873234 0.500000 0.498253
#
# Coordination Sequence:
#
# PCOD8090443 Si02
#       8
#     8   8   8   8   8   8   8   8
#     4   9  18  32  52  71  94 133 175 217 262 320
#     4  10  21  33  49  71  94 131 182 229 272 318
#     4   8  16  31  53  80 105 132 173 221 259 300
#     4  10  20  37  61  85 111 144 177 212 252 301
#     4   9  17  30  53  80 104 133 175 221 261 304
#     4   9  18  33  52  74 101 137 181 227 269 314
#     4  10  19  33  56  85 111 139 173 210 259 317
#     4  10  20  33  46  68  99 131 171 220 279 329
#
# _framework density 18.810697000000001
#
# number of rings (size 3 to 8) (size 9 to 14) (size 15 to 20)
#    0.000    2.625    0.000    2.625    1.750    2.250 
#    0.000    1.875    0.000   12.000    0.000    0.000 
#    0.000    0.000    0.000    0.000    0.000    0.000 
#
# Total GULP energy -396507.732828 kJ/mol
# GULP energy per Si atom -12390.866651 kJ/mol
# Density = 1.876788 g / cm^3
# Si number density = 18.810697 Si / 1000 Ang^3
#
#
#
# Elastic Constant Matrix: (Units=GPa)
#
#
# Indices 1 2 3 4 5 6 
#
# 1 98.5729 26.6653 46.7180 -0.0001 4.3077 -0.0001
# 2 26.6653 63.3322 36.5761 -0.0001 3.8003 -0.0004
# 3 46.7180 36.5761 130.2823 0.0000 6.7814 0.0001
# 4 -0.0001 -0.0001 0.0000 24.1104 0.0000 2.6461
# 5 4.3077 3.8003 6.7814 0.0000 17.3637 0.0001
# 6 -0.0001 -0.0004 0.0001 2.6461 0.0001 19.4190
#
#
#
# Elastic Compliance Matrix: (Units=1/GPa)
#
#
# Indices 1 2 3 4 5 6 
#
# 1 0.012780 -0.003226 -0.003623 0.000000 -0.001050 0.000000
# 2 -0.003226 0.019735 -0.004288 0.000000 -0.001844 0.000000
# 3 -0.003623 -0.004288 0.010292 0.000000 -0.002182 0.000000
# 4 0.000000 0.000000 0.000000 0.042106 0.000000 -0.005738
# 5 -0.001050 -0.001844 -0.002182 0.000000 0.059108 0.000000
# 6 0.000000 0.000000 0.000000 -0.005738 0.000000 0.052278
#
#
# Mechanical properties :
#
#
# Convention : Reuss Voigt Hill
#
# Bulk Modulus (GPa) = 48.69765 56.90066 52.79916
# Shear Modulus (GPa) = 22.18126 24.32716 23.25421
#
# Velocity S-wave (km/s) = 3.43765 3.60010 3.51981
# Velocity P-wave (km/s) = 6.45764 6.89896 6.68194
#
# Compressibility (1/GPa) = 0.02053487
#
# Stress axis : x y z
#
# Youngs Moduli (GPa) = 78.24620 50.67163 97.16271
#
# Poissons Ratio (x) = 0.16346 0.35198
# Poissons Ratio (y) = 0.25241 0.41661
# Poissons Ratio (z) = 0.28345 0.21727
#
# Static dielectric constant tensor:
#      x y z
#    x 3.594480 0.000000 0.021620 
#    y 0.000000 3.424490 0.000000 
#    z 0.021620 0.000000 3.418520 
# 
# 
# High freq. dielectric constant tensor:
#      x y z
#    x 1.727330 0.000000 0.004550 
#    y 0.000000 1.706290 0.000000 
#    z 0.004550 0.000000 1.723580 
# 
# From -- ./inp_files/319938.got.cif
#   From: 2010.06.25/outbox.cif.g09.slc.cpg/sg12_160_cif.got.tgz:319938.got - 2010.06.28 00:19:55.
