data_PCOD8090966
_publ_section_title
;
Structure prediction by ZEFSAII (Michael W. Deem and Ramdas Pophale) SiO2 
 PCOD8090966
Probable space group: C 2/M
;
_chemical_formula_sum "Si O2"
_cell_formula_units_Z 56
_cell_length_a 19.006799
_cell_length_b 8.837040
_cell_length_c 19.777426
_cell_angle_alpha 90.000000
_cell_angle_beta 113.948500
_cell_angle_gamma 90.000000
_cell_volume 3035.913017
_symmetry_space_group_name_H-M "C 2/M"
_symmetry_group_IT_number 12
_symmetry_cell_setting 'monoclinic'
loop_
_space_group_symop_operation_xyz
x,y,z
-x,y,-z
-x,-y,-z
x,-y,z
1/2+x,1/2+y,z
1/2-x,1/2+y,-z
1/2-x,1/2-y,-z
1/2+x,1/2-y,z
loop_
_atom_site_type_symbol
_atom_site_label
_atom_site_fract_x
_atom_site_fract_y
_atom_site_fract_z
Si Si1 0.001004 0.323319 0.800899
Si Si2 0.926254 0.822144 0.510507
Si Si3 0.694853 0.669361 0.060660
Si Si4 0.894051 0.820937 0.649507
Si Si5 0.742201 0.321922 0.569756
Si Si6 0.952575 0.172617 0.917015
Si Si7 0.847473 0.173695 0.105317
O O1 0.991288 0.500000 0.783559
O O2 0.958155 0.230658 0.726583
O O3 0.966495 0.281863 0.860080
O O4 0.090359 0.277409 0.832954
O O5 0.919579 0.761237 0.584994
O O6 0.845583 0.786396 0.439091
O O7 0.000000 0.748681 0.500000
O O8 0.939404 0.000000 0.519816
O O9 0.729040 0.500000 0.067167
O O10 0.637651 0.680946 0.101308
O O11 0.763447 0.785786 0.101016
O O12 0.649237 0.708102 0.973653
O O13 0.811005 0.751630 0.640689
O O14 0.885566 0.000000 0.647349
O O15 0.755471 0.500000 0.570956
O O16 0.750000 0.250000 0.500000
O O17 0.977732 0.000000 0.908876
O O18 0.000000 0.231190 0.000000
O O19 0.865545 0.000000 0.128715
#
# Coordination Sequence:
#
# PCOD8090966 Si02
#       7
#     8   8   8   8   8   8   8
#     4  12  24  36  53  78 109 143 185 231 275 326
#     4   8  15  30  55  85 109 133 171 216 259 308
#     4   9  18  33  54  78 103 132 172 223 274 326
#     4  10  20  35  55  77 106 144 179 217 273 329
#     4   9  16  29  52  79 108 140 174 214 256 311
#     4  10  19  36  57  78 105 137 176 225 279 329
#     4  10  19  34  54  76 104 139 177 218 273 330
#
# _framework density 18.44585
#
# number of rings (size 3 to 8) (size 9 to 14) (size 15 to 20)
#    0.000    2.286    1.429    3.429    0.000    1.429 
#    0.000    1.429    0.000   20.571    0.000    0.000 
#    0.000    0.000    0.000    0.000    0.000    0.000 
#
# Total GULP energy -347084.068407 kJ/mol
# GULP energy per Si atom -12395.859586 kJ/mol
# Density = 1.840387 g / cm^3
# Si number density = 18.445850 Si / 1000 Ang^3
#
#
#
# Elastic Constant Matrix: (Units=GPa)
#
#
# Indices 1 2 3 4 5 6 
#
# 1 108.4674 35.8117 41.0004 0.0000 14.5617 0.0000
# 2 35.8117 71.8674 25.2046 0.0000 8.2966 0.0000
# 3 41.0004 25.2046 83.4528 0.0000 16.0181 0.0000
# 4 0.0000 0.0000 0.0000 26.0395 0.0000 5.2008
# 5 14.5617 8.2966 16.0181 0.0000 23.9889 0.0000
# 6 0.0000 0.0000 0.0000 5.2008 0.0000 27.0289
#
#
#
# Elastic Compliance Matrix: (Units=1/GPa)
#
#
# Indices 1 2 3 4 5 6 
#
# 1 0.012762 -0.004473 -0.004277 0.000000 -0.003344 0.000000
# 2 -0.004473 0.017271 -0.002745 0.000000 -0.001425 0.000000
# 3 -0.004277 -0.002745 0.016325 0.000000 -0.007355 0.000000
# 4 0.000000 0.000000 0.000000 0.039938 0.000000 -0.007685
# 5 -0.003344 -0.001425 -0.007355 0.000000 0.049119 0.000000
# 6 0.000000 0.000000 0.000000 -0.007685 0.000000 0.038476
#
#
# Mechanical properties :
#
#
# Convention : Reuss Voigt Hill
#
# Bulk Modulus (GPa) = 42.79547 51.98011 47.38779
# Shear Modulus (GPa) = 24.42949 26.19620 25.31284
#
# Velocity S-wave (km/s) = 3.64316 3.77260 3.70845
# Velocity P-wave (km/s) = 6.39905 6.87151 6.63948
#
# Compressibility (1/GPa) = 0.02336696
#
# Stress axis : x y z
#
# Youngs Moduli (GPa) = 78.35846 57.90149 61.25603
#
# Poissons Ratio (x) = 0.25901 0.26200
# Poissons Ratio (y) = 0.35052 0.16814
# Poissons Ratio (z) = 0.33515 0.15893
#
# Static dielectric constant tensor:
#      x y z
#    x 3.712940 0.000000 0.241870 
#    y 0.000000 3.357910 0.000000 
#    z 0.241870 0.000000 3.265910 
# 
# 
# High freq. dielectric constant tensor:
#      x y z
#    x 1.721280 0.000000 0.023300 
#    y 0.000000 1.706620 0.000000 
#    z 0.023300 0.000000 1.688640 
# 
# From -- ./inp_files/319318.got.cif
#   From: 2010.06.25/outbox.cif.g09.slc.cpg/sg12_160_cif.got.tgz:319318.got - 2010.06.28 00:19:55.
