data_PCOD8090189
_publ_section_title
;
Structure prediction by ZEFSAII (Michael W. Deem and Ramdas Pophale) SiO2 
 PCOD8090189
Probable space group: C 2/M
;
_chemical_formula_sum "Si O2"
_cell_formula_units_Z 56
_cell_length_a 27.996857
_cell_length_b 8.965928
_cell_length_c 17.400253
_cell_angle_alpha 90.000000
_cell_angle_beta 43.908791
_cell_angle_gamma 90.000000
_cell_volume 3029.104837
_symmetry_space_group_name_H-M "C 2/M"
_symmetry_group_IT_number 12
_symmetry_cell_setting 'monoclinic'
loop_
_space_group_symop_operation_xyz
x,y,z
-x,y,-z
-x,-y,-z
x,-y,z
1/2+x,1/2+y,z
1/2-x,1/2+y,-z
1/2-x,1/2-y,-z
1/2+x,1/2-y,z
loop_
_atom_site_type_symbol
_atom_site_label
_atom_site_fract_x
_atom_site_fract_y
_atom_site_fract_z
Si Si1 0.928973 0.823188 0.430361
Si Si2 0.892788 0.328704 0.908512
Si Si3 0.073331 0.175685 0.880043
Si Si4 0.549248 0.175295 0.753049
Si Si5 0.314631 0.675476 0.127491
Si Si6 0.568974 0.826479 0.303570
Si Si7 0.838791 0.324467 0.658013
O O1 0.918393 0.755367 0.358254
O O2 0.865100 0.767813 0.554953
O O3 0.999324 0.768166 0.388534
O O4 0.929463 0.000000 0.424425
O O5 0.876365 0.500000 0.942787
O O6 0.888478 0.289694 0.823128
O O7 0.968417 0.286487 0.851814
O O8 0.835540 0.235574 0.019689
O O9 0.086207 0.261398 0.785603
O O10 0.132360 0.232450 0.869314
O O11 0.077617 0.000000 0.859496
O O12 0.000000 0.221519 0.000000
O O13 0.562292 0.000000 0.730054
O O14 0.317196 0.500000 0.118330
O O15 0.238588 0.730625 0.236718
O O16 0.615983 0.782974 0.320418
O O17 0.547170 0.000000 0.329119
O O18 0.842307 0.500000 0.636064
#
# Coordination Sequence:
#
# PCOD8090189 Si02
#       7
#     8   8   8   8   8   8   8
#     4  11  22  36  57  83 109 137 179 230 276 318
#     4   9  18  32  51  78 109 139 176 223 269 317
#     4  10  19  33  55  83 114 142 176 224 274 317
#     4  10  20  35  57  83 109 141 182 223 269 323
#     4  10  21  35  53  79 111 148 182 217 269 326
#     4   9  19  36  57  80 107 144 184 223 267 317
#     4  10  21  38  56  75 108 150 187 220 263 323
#
# _framework density 18.487310999999998
#
# number of rings (size 3 to 8) (size 9 to 14) (size 15 to 20)
#    0.000    2.143    1.429    3.000    0.000    6.571 
#    0.000    0.714    0.000    0.000    0.000    0.000 
#    0.000    0.000    0.000    0.000    0.000    0.000 
#
# Total GULP energy -347299.770137 kJ/mol
# GULP energy per Si atom -12403.563219 kJ/mol
# Density = 1.844523 g / cm^3
# Si number density = 18.487311 Si / 1000 Ang^3
#
#
#
# Elastic Constant Matrix: (Units=GPa)
#
#
# Indices 1 2 3 4 5 6 
#
# 1 54.7741 20.7282 46.5396 -0.0038 16.9319 0.0127
# 2 20.7282 60.7427 50.8648 0.0075 10.7470 -0.0140
# 3 46.5396 50.8648 145.5949 0.0002 11.6158 0.0022
# 4 -0.0038 0.0075 0.0002 33.5676 -0.0040 7.0971
# 5 16.9319 10.7470 11.6158 -0.0040 22.8101 0.0026
# 6 0.0127 -0.0140 0.0022 7.0971 0.0026 21.5329
#
#
#
# Elastic Compliance Matrix: (Units=1/GPa)
#
#
# Indices 1 2 3 4 5 6 
#
# 1 0.031340 -0.000328 -0.008401 0.000005 -0.018831 -0.000017
# 2 -0.000328 0.024437 -0.007852 -0.000011 -0.007271 0.000021
# 3 -0.008401 -0.007852 0.011991 0.000002 0.003829 -0.000002
# 4 0.000005 -0.000011 0.000002 0.032022 0.000007 -0.010554
# 5 -0.018831 -0.007271 0.003829 0.000007 0.059294 -0.000004
# 6 -0.000017 0.000021 -0.000002 -0.010554 -0.000004 0.049919
#
#
# Mechanical properties :
#
#
# Convention : Reuss Voigt Hill
#
# Bulk Modulus (GPa) = 28.89703 55.26409 42.08056
# Shear Modulus (GPa) = 19.70822 25.11406 22.41114
#
# Velocity S-wave (km/s) = 3.26857 3.68971 3.48551
# Velocity P-wave (km/s) = 5.46895 6.93613 6.24577
#
# Compressibility (1/GPa) = 0.03460563
#
# Stress axis : x y z
#
# Youngs Moduli (GPa) = 31.90813 40.92233 83.39299
#
# Poissons Ratio (x) = 0.01343 0.70057
# Poissons Ratio (y) = 0.01047 0.65481
# Poissons Ratio (z) = 0.26805 0.32133
#
# Static dielectric constant tensor:
#      x y z
#    x 3.465690 0.000000 0.086410 
#    y 0.000000 3.255730 0.000010 
#    z 0.086410 0.000010 3.406050 
# 
# 
# High freq. dielectric constant tensor:
#      x y z
#    x 1.712590 0.000000 0.016280 
#    y 0.000000 1.710270 0.000000 
#    z 0.016280 0.000000 1.716480 
# 
# From -- ./inp_files/288182.got.cif
#   From: 2010.06.25/outbox.cif.g09.slc.cpg/sg12_145_cif.got.tgz:288182.got - 2010.06.28 00:19:55.
