data_PCOD8090468
_publ_section_title
;
Structure prediction by ZEFSAII (Michael W. Deem and Ramdas Pophale) SiO2 
 PCOD8090468
Probable space group: C 2/M
;
_chemical_formula_sum "Si O2"
_cell_formula_units_Z 64
_cell_length_a 18.633654
_cell_length_b 9.091605
_cell_length_c 20.619129
_cell_angle_alpha 90.000000
_cell_angle_beta 100.375065
_cell_angle_gamma 90.000000
_cell_volume 3435.970852
_symmetry_space_group_name_H-M "C 2/M"
_symmetry_group_IT_number 12
_symmetry_cell_setting 'monoclinic'
loop_
_space_group_symop_operation_xyz
x,y,z
-x,y,-z
-x,-y,-z
x,-y,z
1/2+x,1/2+y,z
1/2-x,1/2+y,-z
1/2-x,1/2-y,-z
1/2+x,1/2-y,z
loop_
_atom_site_type_symbol
_atom_site_label
_atom_site_fract_x
_atom_site_fract_y
_atom_site_fract_z
Si Si1 0.011917 0.169705 0.075788
Si Si2 0.082785 0.826898 0.514398
Si Si3 0.344100 0.331057 0.827456
Si Si4 0.156167 0.669294 0.408598
Si Si5 0.431288 0.831299 0.174371
Si Si6 0.923144 0.664910 0.732271
Si Si7 0.698261 0.673113 0.636928
Si Si8 0.298525 0.325711 0.215851
O O1 0.096832 0.195496 0.106436
O O2 0.961599 0.273584 0.111058
O O3 0.990189 0.000000 0.084629
O O4 0.000000 0.216436 0.000000
O O5 0.133246 0.760639 0.467045
O O6 0.122262 0.786564 0.588800
O O7 0.000000 0.762862 0.500000
O O8 0.080367 0.000000 0.502560
O O9 0.320250 0.500000 0.819140
O O10 0.377299 0.284232 0.763980
O O11 0.274037 0.232240 0.831256
O O12 0.165804 0.500000 0.430833
O O13 0.091432 0.688546 0.345872
O O14 0.231921 0.734058 0.391708
O O15 0.491438 0.814373 0.240615
O O16 0.364457 0.732072 0.184016
O O17 0.407091 0.000000 0.161810
O O18 0.897696 0.500000 0.749158
O O19 0.708970 0.500000 0.644037
O O20 0.696736 0.737607 0.709671
O O21 0.299775 0.500000 0.215106
#
# Coordination Sequence:
#
# PCOD8090468 Si02
#       8
#     8   8   8   8   8   8   8   8
#     4   9  19  38  62  86 114 150 186 218 263 326
#     4  10  22  37  52  75 106 137 177 230 279 325
#     4  10  19  33  56  86 114 139 179 227 264 315
#     4  10  19  35  56  75 101 138 181 220 269 335
#     4  10  21  35  54  84 117 144 182 231 273 317
#     4   9  18  34  54  77 108 144 178 221 274 329
#     4   9  19  36  55  74 102 142 182 222 273 332
#     4  11  21  36  57  79 112 151 184 225 281 333
#
# _framework density 18.626467000000002
#
# number of rings (size 3 to 8) (size 9 to 14) (size 15 to 20)
#    0.000    2.250    1.250    1.500    1.750    2.000 
#    0.000    1.875    0.000    0.000    0.000    0.000 
#    0.000    0.000    0.000    0.000    0.000    0.000 
#
# Total GULP energy -396816.031516 kJ/mol
# GULP energy per Si atom -12400.500985 kJ/mol
# Density = 1.858407 g / cm^3
# Si number density = 18.626467 Si / 1000 Ang^3
#
#
#
# Elastic Constant Matrix: (Units=GPa)
#
#
# Indices 1 2 3 4 5 6 
#
# 1 119.8715 47.2928 49.7429 0.0000 0.5194 0.0000
# 2 47.2928 71.8207 38.2613 0.0000 1.6372 0.0000
# 3 49.7429 38.2613 94.5448 0.0000 7.2791 0.0000
# 4 0.0000 0.0000 0.0000 25.6013 0.0000 -4.4519
# 5 0.5194 1.6372 7.2791 0.0000 21.1126 0.0000
# 6 0.0000 0.0000 0.0000 -4.4519 0.0000 30.4230
#
#
#
# Elastic Compliance Matrix: (Units=1/GPa)
#
#
# Indices 1 2 3 4 5 6 
#
# 1 0.012460 -0.005970 -0.004265 0.000000 0.001627 0.000000
# 2 -0.005970 0.020637 -0.005238 0.000000 0.000352 0.000000
# 3 -0.004265 -0.005238 0.015308 0.000000 -0.004767 0.000000
# 4 0.000000 0.000000 0.000000 0.040080 0.000000 0.005865
# 5 0.001627 0.000352 -0.004767 0.000000 0.048941 0.000000
# 6 0.000000 0.000000 0.000000 0.005865 0.000000 0.033728
#
#
# Mechanical properties :
#
#
# Convention : Reuss Voigt Hill
#
# Bulk Modulus (GPa) = 57.27541 61.87010 59.57276
# Shear Modulus (GPa) = 24.04771 25.49004 24.76887
#
# Velocity S-wave (km/s) = 3.59702 3.70332 3.65055
# Velocity P-wave (km/s) = 6.93308 7.18153 7.05840
#
# Compressibility (1/GPa) = 0.01745950
#
# Stress axis : x y z
#
# Youngs Moduli (GPa) = 80.25426 48.45674 65.32680
#
# Poissons Ratio (x) = 0.28928 0.27862
# Poissons Ratio (y) = 0.47911 0.34217
# Poissons Ratio (z) = 0.34229 0.25380
#
# Static dielectric constant tensor:
#      x y z
#    x 3.558260 0.000000 0.236650 
#    y 0.000000 3.326320 0.000000 
#    z 0.236650 0.000000 3.372340 
# 
# 
# High freq. dielectric constant tensor:
#      x y z
#    x 1.727640 0.000000 0.011690 
#    y 0.000000 1.713050 0.000000 
#    z 0.011690 0.000000 1.711690 
# 
# From -- ./inp_files/314124.got.cif
#   From: 2010.06.25/outbox.cif.g09.slc.cpg/sg12_158_cif.got.tgz:314124.got - 2010.06.28 00:19:55.
