data_PCOD8090339
_publ_section_title
;
Structure prediction by ZEFSAII (Michael W. Deem and Ramdas Pophale) SiO2 
 PCOD8090339
Probable space group: C 2/M
;
_chemical_formula_sum "Si O2"
_cell_formula_units_Z 56
_cell_length_a 30.055158
_cell_length_b 9.528364
_cell_length_c 11.671898
_cell_angle_alpha 90.000000
_cell_angle_beta 63.268491
_cell_angle_gamma 90.000000
_cell_volume 2985.318516
_symmetry_space_group_name_H-M "C 2/M"
_symmetry_group_IT_number 12
_symmetry_cell_setting 'monoclinic'
loop_
_space_group_symop_operation_xyz
x,y,z
-x,y,-z
-x,-y,-z
x,-y,z
1/2+x,1/2+y,z
1/2-x,1/2+y,-z
1/2-x,1/2-y,-z
1/2+x,1/2-y,z
loop_
_atom_site_type_symbol
_atom_site_label
_atom_site_fract_x
_atom_site_fract_y
_atom_site_fract_z
Si Si1 0.211242 0.163695 0.971007
Si Si2 0.482931 0.165586 0.646494
Si Si3 0.319291 0.841222 0.446819
Si Si4 0.058860 0.158118 0.934586
Si Si5 0.402825 0.663658 0.864120
Si Si6 0.225675 0.836528 0.695372
Si Si7 0.428255 0.839861 0.295307
O O1 0.215951 0.216434 0.834932
O O2 0.224779 0.000000 0.963984
O O3 0.250000 0.250000 0.000000
O O4 0.155775 0.192939 0.081800
O O5 0.500000 0.206502 0.500000
O O6 0.432133 0.246921 0.734885
O O7 0.526773 0.218894 0.680062
O O8 0.473292 0.000000 0.668669
O O9 0.282800 0.801608 0.594038
O O10 0.311373 0.742708 0.346691
O O11 0.376177 0.826311 0.425202
O O12 0.308350 0.000000 0.419024
O O13 0.079944 0.255069 0.811103
O O14 0.078292 0.000000 0.891835
O O15 0.079304 0.214783 0.031551
O O16 0.000000 0.165235 0.000000
O O17 0.415547 0.500000 0.832338
O O18 0.213129 0.000000 0.699956
O O19 0.439563 0.000000 0.249003
#
# Coordination Sequence:
#
# PCOD8090339 Si02
#       7
#     8   8   8   8   8   8   8
#     4  10  22  38  57  80 108 144 185 227 268 318
#     4  10  22  38  55  77 107 144 184 221 262 320
#     4   9  18  32  53  80 108 138 173 220 272 320
#     4  10  19  33  56  82 108 140 177 216 264 322
#     4  10  21  38  57  81 111 141 179 226 273 320
#     4   9  18  35  56  78 106 140 177 220 270 319
#     4  10  20  33  51  79 111 140 176 220 266 317
#
# _framework density 18.758465999999999
#
# number of rings (size 3 to 8) (size 9 to 14) (size 15 to 20)
#    0.000    2.286    1.429    0.857    0.000    5.143 
#    0.000    2.857    0.000    0.000    0.000    0.000 
#    0.000    0.000    0.000    0.000    0.000    0.000 
#
# Total GULP energy -347219.490722 kJ/mol
# GULP energy per Si atom -12400.696097 kJ/mol
# Density = 1.871577 g / cm^3
# Si number density = 18.758466 Si / 1000 Ang^3
#
#
#
# Elastic Constant Matrix: (Units=GPa)
#
#
# Indices 1 2 3 4 5 6 
#
# 1 97.5837 37.8365 52.5686 0.0000 -10.9991 0.0000
# 2 37.8365 54.1575 51.2059 0.0000 -1.7318 0.0000
# 3 52.5686 51.2059 128.5341 0.0000 -5.4388 0.0000
# 4 0.0000 0.0000 0.0000 31.7958 0.0000 -0.2399
# 5 -10.9991 -1.7318 -5.4388 0.0000 25.6128 0.0000
# 6 0.0000 0.0000 0.0000 -0.2399 0.0000 29.8457
#
#
#
# Elastic Compliance Matrix: (Units=1/GPa)
#
#
# Indices 1 2 3 4 5 6 
#
# 1 0.015518 -0.007837 -0.002992 0.000000 0.005499 0.000000
# 2 -0.007837 0.033587 -0.010314 0.000000 -0.003285 0.000000
# 3 -0.002992 -0.010314 0.013147 0.000000 0.000809 0.000000
# 4 0.000000 0.000000 0.000000 0.031453 0.000000 0.000253
# 5 0.005499 -0.003285 0.000809 0.000000 0.041354 0.000000
# 6 0.000000 0.000000 0.000000 0.000253 0.000000 0.033508
#
#
# Mechanical properties :
#
#
# Convention : Reuss Voigt Hill
#
# Bulk Modulus (GPa) = 50.08563 62.61081 56.34822
# Shear Modulus (GPa) = 22.98780 26.69514 24.84147
#
# Velocity S-wave (km/s) = 3.50446 3.77649 3.64301
# Velocity P-wave (km/s) = 6.56759 7.24332 6.91371
#
# Compressibility (1/GPa) = 0.01996581
#
# Stress axis : x y z
#
# Youngs Moduli (GPa) = 64.44290 29.77364 76.06314
#
# Poissons Ratio (x) = 0.23332 0.22757
# Poissons Ratio (y) = 0.50501 0.78454
# Poissons Ratio (z) = 0.19280 0.30710
#
# Static dielectric constant tensor:
#      x y z
#    x 3.437390 0.000000 -0.141310 
#    y 0.000000 3.379230 0.000000 
#    z -0.141310 0.000000 3.480350 
# 
# 
# High freq. dielectric constant tensor:
#      x y z
#    x 1.729350 0.000000 -0.016510 
#    y 0.000000 1.720310 0.000000 
#    z -0.016510 0.000000 1.728630 
# 
# From -- ./inp_files/181122.got.cif
#   From: 2010.06.25/outbox.cif.g09.slc.cpg/sg12_91_cif.got.tgz:181122.got - 2010.06.28 00:19:55.
