data_PCOD8090903
_publ_section_title
;
Structure prediction by ZEFSAII (Michael W. Deem and Ramdas Pophale) SiO2 
 PCOD8090903
Probable space group: C 2/M
;
_chemical_formula_sum "Si O2"
_cell_formula_units_Z 48
_cell_length_a 14.779128
_cell_length_b 12.994623
_cell_length_c 26.313356
_cell_angle_alpha 90.000000
_cell_angle_beta 29.944642
_cell_angle_gamma 90.000000
_cell_volume 2522.499851
_symmetry_space_group_name_H-M "C 2/M"
_symmetry_group_IT_number 12
_symmetry_cell_setting 'monoclinic'
loop_
_space_group_symop_operation_xyz
x,y,z
-x,y,-z
-x,-y,-z
x,-y,z
1/2+x,1/2+y,z
1/2-x,1/2+y,-z
1/2-x,1/2-y,-z
1/2+x,1/2-y,z
loop_
_atom_site_type_symbol
_atom_site_label
_atom_site_fract_x
_atom_site_fract_y
_atom_site_fract_z
Si Si1 0.588335 0.684180 0.525645
Si Si2 0.742837 0.118398 0.183236
Si Si3 0.084857 0.118123 0.083806
Si Si4 0.137452 0.301644 0.129337
Si Si5 0.428150 0.114949 0.414242
Si Si6 0.761085 0.385341 0.343615
O O1 0.517372 0.800100 0.570927
O O2 0.716552 0.635567 0.506075
O O3 0.410122 0.612728 0.611201
O O4 0.702738 0.688768 0.417929
O O5 0.736637 0.190438 0.135990
O O6 0.549266 0.129110 0.304834
O O7 0.903060 0.155540 0.142802
O O8 0.777512 0.000000 0.149656
O O9 0.120413 0.184446 0.117543
O O10 0.065058 0.000000 0.110719
O O11 0.253819 0.130027 0.963924
O O12 0.937007 0.347037 0.229191
O O13 0.455088 0.000000 0.423354
O O14 0.796144 0.500000 0.347954
#
# Coordination Sequence:
#
# PCOD8090903 Si02
#       6
#     8   8   8   8   8   8
#     4  10  20  32  52  78 107 137 176 221 269 316
#     4  10  19  35  60  84 107 141 186 229 269 320
#     4  10  22  38  57  84 114 142 178 230 282 325
#     4  11  21  35  60  84 108 143 187 225 270 329
#     4  10  19  34  53  76 107 141 177 221 267 319
#     4  11  20  34  54  78 104 137 180 224 267 316
#
# _framework density 19.028742000000001
#
# number of rings (size 3 to 8) (size 9 to 14) (size 15 to 20)
#    0.000    1.667    1.667    5.000    0.000    1.333 
#    0.000    2.500    0.000   10.000    0.000    0.000 
#    0.000    0.000    0.000    0.000    0.000    0.000 
#
# Total GULP energy -297541.770198 kJ/mol
# GULP energy per Si atom -12397.573758 kJ/mol
# Density = 1.898543 g / cm^3
# Si number density = 19.028742 Si / 1000 Ang^3
#
#
#
# Elastic Constant Matrix: (Units=GPa)
#
#
# Indices 1 2 3 4 5 6 
#
# 1 76.8435 49.2787 23.2262 -0.0005 2.5656 -0.0001
# 2 49.2787 123.0054 37.9552 0.0008 20.3543 0.0001
# 3 23.2262 37.9552 87.0184 0.0055 -3.9181 0.0006
# 4 -0.0005 0.0008 0.0055 25.2466 0.0007 3.1966
# 5 2.5656 20.3543 -3.9181 0.0007 29.4473 -0.0002
# 6 -0.0001 0.0001 0.0006 3.1966 -0.0002 32.4427
#
#
#
# Elastic Compliance Matrix: (Units=1/GPa)
#
#
# Indices 1 2 3 4 5 6 
#
# 1 0.018042 -0.007317 -0.001476 0.000001 0.003289 0.000000
# 2 -0.007317 0.014101 -0.004635 0.000001 -0.009726 0.000000
# 3 -0.001476 -0.004635 0.014142 -0.000003 0.005214 0.000000
# 4 0.000001 0.000001 -0.000003 0.040110 -0.000002 -0.003952
# 5 0.003289 -0.009726 0.005214 -0.000002 0.041089 0.000000
# 6 0.000000 0.000000 0.000000 -0.003952 0.000000 0.031213
#
#
# Mechanical properties :
#
#
# Convention : Reuss Voigt Hill
#
# Bulk Modulus (GPa) = 51.47061 56.42082 53.94571
# Shear Modulus (GPa) = 26.03771 29.18781 27.61276
#
# Velocity S-wave (km/s) = 3.70312 3.92073 3.81347
# Velocity P-wave (km/s) = 6.73734 7.08596 6.91385
#
# Compressibility (1/GPa) = 0.01942856
#
# Stress axis : x y z
#
# Youngs Moduli (GPa) = 55.42630 70.91847 70.70932
#
# Poissons Ratio (x) = 0.51890 0.10437
# Poissons Ratio (y) = 0.40554 0.32776
# Poissons Ratio (z) = 0.08181 0.32873
#
# Static dielectric constant tensor:
#      x y z
#    x 3.480680 0.000000 -0.227360 
#    y 0.000000 3.553130 0.000000 
#    z -0.227360 0.000000 3.579330 
# 
# 
# High freq. dielectric constant tensor:
#      x y z
#    x 1.726390 0.000000 -0.019970 
#    y 0.000000 1.727210 0.000000 
#    z -0.019970 0.000000 1.750040 
# 
# From -- ./inp_files/143159.got.cif
#   From: 2010.06.25/outbox.cif.g09.slc.cpg/sg12_72_cif.got.tgz:143159.got - 2010.06.28 00:19:55.
