data_PCOD8090709
_publ_section_title
;
Structure prediction by ZEFSAII (Michael W. Deem and Ramdas Pophale) SiO2 
 PCOD8090709
Probable space group: C 2/M
;
_chemical_formula_sum "Si O2"
_cell_formula_units_Z 56
_cell_length_a 27.644851
_cell_length_b 8.841625
_cell_length_c 12.582814
_cell_angle_alpha 90.000000
_cell_angle_beta 114.169181
_cell_angle_gamma 90.000000
_cell_volume 2805.957352
_symmetry_space_group_name_H-M "C 2/M"
_symmetry_group_IT_number 12
_symmetry_cell_setting 'monoclinic'
loop_
_space_group_symop_operation_xyz
x,y,z
-x,y,-z
-x,-y,-z
x,-y,z
1/2+x,1/2+y,z
1/2-x,1/2+y,-z
1/2-x,1/2-y,-z
1/2+x,1/2-y,z
loop_
_atom_site_type_symbol
_atom_site_label
_atom_site_fract_x
_atom_site_fract_y
_atom_site_fract_z
Si Si1 0.605043 0.820294 0.750107
Si Si2 0.510751 0.176993 0.304346
Si Si3 0.193772 0.822280 0.429114
Si Si4 0.949308 0.670570 0.881640
Si Si5 0.154523 0.177081 0.161969
Si Si6 0.696037 0.820545 0.991853
Si Si7 0.113513 0.676521 0.519570
O O1 0.546852 0.750288 0.723155
O O2 0.647690 0.761697 0.874172
O O3 0.623061 0.768427 0.648742
O O4 0.601180 0.000000 0.748463
O O5 0.535473 0.244088 0.218182
O O6 0.551806 0.209255 0.436607
O O7 0.502340 0.000000 0.278063
O O8 0.250000 0.750000 0.500000
O O9 0.175329 0.772460 0.295758
O O10 0.151687 0.768795 0.477738
O O11 0.199292 0.000000 0.442763
O O12 0.926346 0.500000 0.847705
O O13 0.906722 0.776104 0.901190
O O14 0.000000 0.667004 0.000000
O O15 0.161189 0.000000 0.147170
O O16 0.187840 0.266762 0.104488
O O17 0.700036 0.000000 0.991149
O O18 0.750000 0.750000 0.000000
O O19 0.126617 0.500000 0.516910
#
# Coordination Sequence:
#
# PCOD8090709 Si02
#       7
#     8   8   8   8   8   8   8
#     4   9  19  35  58  89 121 155 195 245 294 349
#     4   9  16  30  55  89 121 151 192 237 292 355
#     4  11  25  42  62  88 120 156 202 253 305 362
#     4  10  19  33  58  90 123 159 202 248 295 355
#     4  11  24  42  62  87 121 158 202 252 304 362
#     4  11  24  42  63  87 121 159 204 253 301 358
#     4  10  19  35  62  92 121 153 194 242 300 362
#
# _framework density 19.957539000000001
#
# number of rings (size 3 to 8) (size 9 to 14) (size 15 to 20)
#    0.000    1.857    1.429    2.571    2.000    6.000 
#    0.000    0.714    0.000    3.429    0.000    0.000 
#    0.000    0.000    0.000    0.000    0.000    0.000 
#
# Total GULP energy -347250.735465 kJ/mol
# GULP energy per Si atom -12401.811981 kJ/mol
# Density = 1.991212 g / cm^3
# Si number density = 19.957539 Si / 1000 Ang^3
#
#
#
# Elastic Constant Matrix: (Units=GPa)
#
#
# Indices 1 2 3 4 5 6 
#
# 1 157.1757 38.3881 56.5686 0.0000 -7.0742 0.0000
# 2 38.3881 47.1192 31.0604 0.0000 -0.5976 0.0000
# 3 56.5686 31.0604 93.3867 0.0000 -14.5701 0.0000
# 4 0.0000 0.0000 0.0000 21.3869 0.0000 -4.9250
# 5 -7.0742 -0.5976 -14.5701 0.0000 37.7463 0.0000
# 6 0.0000 0.0000 0.0000 -4.9250 0.0000 26.8493
#
#
#
# Elastic Compliance Matrix: (Units=1/GPa)
#
#
# Indices 1 2 3 4 5 6 
#
# 1 0.008890 -0.004745 -0.003787 0.000000 0.000129 0.000000
# 2 -0.004745 0.030096 -0.007662 0.000000 -0.003370 0.000000
# 3 -0.003787 -0.007662 0.016409 0.000000 0.005503 0.000000
# 4 0.000000 0.000000 0.000000 0.048820 0.000000 0.008955
# 5 0.000129 -0.003370 0.005503 0.000000 0.028588 0.000000
# 6 0.000000 0.000000 0.000000 0.008955 0.000000 0.038888
#
#
# Mechanical properties :
#
#
# Convention : Reuss Voigt Hill
#
# Bulk Modulus (GPa) = 43.46234 61.07954 52.27094
# Shear Modulus (GPa) = 23.61327 28.64079 26.12703
#
# Velocity S-wave (km/s) = 3.44346 3.79236 3.62212
# Velocity P-wave (km/s) = 6.13470 7.06026 6.61369
#
# Compressibility (1/GPa) = 0.02300843
#
# Stress axis : x y z
#
# Youngs Moduli (GPa) = 112.48809 33.22694 60.94319
#
# Poissons Ratio (x) = 0.15765 0.23077
# Poissons Ratio (y) = 0.53373 0.46692
# Poissons Ratio (z) = 0.42596 0.25457
#
# Static dielectric constant tensor:
#      x y z
#    x 3.692960 0.000000 -0.008210 
#    y 0.000000 3.372970 0.000000 
#    z -0.008210 0.000000 3.818470 
# 
# 
# High freq. dielectric constant tensor:
#      x y z
#    x 1.791510 0.000000 -0.003340 
#    y 0.000000 1.742380 0.000000 
#    z -0.003340 0.000000 1.793950 
# 
# From -- ./inp_files/181091.got.cif
#   From: 2010.06.25/outbox.cif.g09.slc.cpg/sg12_91_cif.got.tgz:181091.got - 2010.06.28 00:19:55.
