data_PCOD8090564
_publ_section_title
;
Structure prediction by ZEFSAII (Michael W. Deem and Ramdas Pophale) SiO2 
 PCOD8090564
Probable space group: C 2/M
;
_chemical_formula_sum "Si O2"
_cell_formula_units_Z 64
_cell_length_a 29.642667
_cell_length_b 8.751861
_cell_length_c 12.412712
_cell_angle_alpha 90.000000
_cell_angle_beta 91.307255
_cell_angle_gamma 90.000000
_cell_volume 3219.373142
_symmetry_space_group_name_H-M "C 2/M"
_symmetry_group_IT_number 12
_symmetry_cell_setting 'monoclinic'
loop_
_space_group_symop_operation_xyz
x,y,z
-x,y,-z
-x,-y,-z
x,-y,z
1/2+x,1/2+y,z
1/2-x,1/2+y,-z
1/2-x,1/2-y,-z
1/2+x,1/2-y,z
loop_
_atom_site_type_symbol
_atom_site_label
_atom_site_fract_x
_atom_site_fract_y
_atom_site_fract_z
Si Si1 0.385590 0.827429 0.518749
Si Si2 0.478726 0.174353 0.612659
Si Si3 0.004101 0.822695 0.176845
Si Si4 0.592490 0.321020 0.885058
Si Si5 0.824881 0.674546 0.711886
Si Si6 0.648483 0.320801 0.684463
Si Si7 0.397386 0.679578 0.874421
Si Si8 0.258638 0.180027 0.383083
O O1 0.426047 0.785215 0.601452
O O2 0.341345 0.813714 0.589265
O O3 0.384444 0.711970 0.418374
O O4 0.391960 0.000000 0.474378
O O5 0.500000 0.207766 0.500000
O O6 0.501826 0.289182 0.697124
O O7 0.486496 0.000000 0.650713
O O8 0.052078 0.750829 0.141623
O O9 0.958985 0.753139 0.118352
O O10 0.006630 0.000000 0.150638
O O11 0.587410 0.500000 0.862721
O O12 0.624549 0.256259 0.791774
O O13 0.615187 0.286806 0.001579
O O14 0.815524 0.500000 0.743858
O O15 0.860277 0.740509 0.798999
O O16 0.778351 0.768170 0.707724
O O17 0.659122 0.500000 0.692925
O O18 0.693967 0.228422 0.665446
O O19 0.396664 0.500000 0.848343
O O20 0.250000 0.250000 0.500000
O O21 0.257350 0.000000 0.396684
#
# Coordination Sequence:
#
# PCOD8090564 Si02
#       8
#     8   8   8   8   8   8   8   8
#     4  10  20  34  53  78 115 154 187 233 289 344
#     4  10  20  33  49  74 113 156 191 230 286 344
#     4  10  19  33  57  85 113 151 199 244 283 332
#     4   9  20  38  58  85 119 156 197 244 290 337
#     4  11  22  38  60  87 118 149 189 239 290 341
#     4  11  22  37  60  87 118 153 193 239 291 348
#     4  10  20  37  61  86 117 157 201 243 287 336
#     4  12  24  40  63  90 118 149 189 234 290 353
#
# _framework density 19.879646999999999
#
# number of rings (size 3 to 8) (size 9 to 14) (size 15 to 20)
#    0.000    1.625    2.500    3.000    0.000    2.750 
#    0.000    3.125    0.000    1.500    0.000    0.000 
#    0.000    0.000    0.000    0.000    0.000    0.000 
#
# Total GULP energy -396699.560751 kJ/mol
# GULP energy per Si atom -12396.861273 kJ/mol
# Density = 1.983440 g / cm^3
# Si number density = 19.879647 Si / 1000 Ang^3
#
#
#
# Elastic Constant Matrix: (Units=GPa)
#
#
# Indices 1 2 3 4 5 6 
#
# 1 92.8329 31.0921 47.7534 0.0000 9.3339 0.0000
# 2 31.0921 73.2524 34.7282 0.0000 5.9094 0.0000
# 3 47.7534 34.7282 106.1098 0.0000 6.5655 0.0000
# 4 0.0000 0.0000 0.0000 19.0309 0.0000 3.0884
# 5 9.3339 5.9094 6.5655 0.0000 24.5568 0.0000
# 6 0.0000 0.0000 0.0000 3.0884 0.0000 26.6488
#
#
#
# Elastic Compliance Matrix: (Units=1/GPa)
#
#
# Indices 1 2 3 4 5 6 
#
# 1 0.015096 -0.003563 -0.005415 0.000000 -0.003433 0.000000
# 2 -0.003563 0.017154 -0.003904 0.000000 -0.001730 0.000000
# 3 -0.005415 -0.003904 0.013171 0.000000 -0.000524 0.000000
# 4 0.000000 0.000000 0.000000 0.053553 0.000000 -0.006206
# 5 -0.003433 -0.001730 -0.000524 0.000000 0.042583 0.000000
# 6 0.000000 0.000000 0.000000 -0.006206 0.000000 0.038244
#
#
# Mechanical properties :
#
#
# Convention : Reuss Voigt Hill
#
# Bulk Modulus (GPa) = 50.87196 55.48248 53.17722
# Shear Modulus (GPa) = 23.57163 24.62205 24.09684
#
# Velocity S-wave (km/s) = 3.44716 3.52313 3.48535
# Velocity P-wave (km/s) = 6.44123 6.67231 6.55779
#
# Compressibility (1/GPa) = 0.01965719
#
# Stress axis : x y z
#
# Youngs Moduli (GPa) = 66.24154 58.29495 75.92287
#
# Poissons Ratio (x) = 0.20773 0.41114
# Poissons Ratio (y) = 0.23604 0.29637
# Poissons Ratio (z) = 0.35871 0.22756
#
# Static dielectric constant tensor:
#      x y z
#    x 4.011270 0.000000 0.026550 
#    y 0.000000 3.441610 0.000000 
#    z 0.026550 0.000000 3.564420 
# 
# 
# High freq. dielectric constant tensor:
#      x y z
#    x 1.784150 0.000000 0.005800 
#    y 0.000000 1.753030 0.000000 
#    z 0.005800 0.000000 1.769760 
# 
# From -- ./inp_files/187576.got.cif
#   From: 2010.06.25/outbox.cif.g09.slc.cpg/sg12_94_cif.got.tgz:187576.got - 2010.06.28 00:19:55.
