data_PCOD8090964
_publ_section_title
;
Structure prediction by ZEFSAII (Michael W. Deem and Ramdas Pophale) SiO2 
 PCOD8090964
Probable space group: C 2/M
;
_chemical_formula_sum "Si O2"
_cell_formula_units_Z 64
_cell_length_a 21.208303
_cell_length_b 19.139794
_cell_length_c 10.429723
_cell_angle_alpha 90.000000
_cell_angle_beta 53.950539
_cell_angle_gamma 90.000000
_cell_volume 3422.953218
_symmetry_space_group_name_H-M "C 2/M"
_symmetry_group_IT_number 12
_symmetry_cell_setting 'monoclinic'
loop_
_space_group_symop_operation_xyz
x,y,z
-x,y,-z
-x,-y,-z
x,-y,z
1/2+x,1/2+y,z
1/2-x,1/2+y,-z
1/2-x,1/2-y,-z
1/2+x,1/2-y,z
loop_
_atom_site_type_symbol
_atom_site_label
_atom_site_fract_x
_atom_site_fract_y
_atom_site_fract_z
Si Si1 0.733561 0.078773 0.157308
Si Si2 0.242609 0.297008 0.319185
Si Si3 0.363551 0.203867 0.304088
Si Si4 0.383092 0.719199 0.673435
Si Si5 0.811816 0.078337 0.794855
Si Si6 0.929242 0.579168 0.772374
Si Si7 0.006402 0.281697 0.673430
Si Si8 0.850957 0.421772 0.136570
O O1 0.762682 0.127565 0.237639
O O2 0.641991 0.090422 0.240486
O O3 0.749228 0.000000 0.183234
O O4 0.782397 0.095589 0.972052
O O5 0.323964 0.260512 0.258857
O O6 0.188359 0.307245 0.507409
O O7 0.201852 0.251687 0.254539
O O8 0.450288 0.229854 0.242051
O O9 0.374882 0.130521 0.219910
O O10 0.377497 0.635016 0.679647
O O11 0.420043 0.745975 0.765690
O O12 0.440512 0.745242 0.495467
O O13 0.740831 0.085026 0.780714
O O14 0.847397 0.000000 0.744815
O O15 0.961816 0.500000 0.720688
O O16 0.997116 0.634772 0.658264
O O17 0.900054 0.594469 0.950821
O O18 0.870072 0.500000 0.161604
#
# Coordination Sequence:
#
# PCOD8090964 Si02
#       8
#     8   8   8   8   8   8   8   8
#     4   9  18  33  56  84 106 134 180 224 264 310
#     4  10  19  34  54  75 107 145 180 220 258 309
#     4  10  21  33  49  76 113 144 177 213 262 314
#     4  10  19  35  55  76 103 141 179 219 261 310
#     4   9  18  34  58  83 103 129 179 236 270 303
#     4   9  18  34  54  78 111 144 176 214 259 318
#     4  10  21  34  50  77 111 143 176 214 258 322
#     4   9  18  33  54  80 107 140 179 217 264 320
#
# _framework density 18.697305
#
# number of rings (size 3 to 8) (size 9 to 14) (size 15 to 20)
#    0.000    2.500    2.500    1.500    0.000    3.000 
#    0.000    5.625    0.000    0.750    0.000    1.750 
#    0.000    0.000    0.000    0.000    0.000    0.000 
#
# Total GULP energy -396613.769886 kJ/mol
# GULP energy per Si atom -12394.180309 kJ/mol
# Density = 1.865475 g / cm^3
# Si number density = 18.697305 Si / 1000 Ang^3
#
#
#
# Elastic Constant Matrix: (Units=GPa)
#
#
# Indices 1 2 3 4 5 6 
#
# 1 129.3296 70.4432 28.1108 0.0000 20.7427 0.0000
# 2 70.4432 145.3390 47.3193 0.0000 5.0801 0.0000
# 3 28.1108 47.3193 38.9787 0.0000 6.4977 0.0000
# 4 0.0000 0.0000 0.0000 37.4905 0.0000 1.2200
# 5 20.7427 5.0801 6.4977 0.0000 22.1074 0.0000
# 6 0.0000 0.0000 0.0000 1.2200 0.0000 25.5396
#
#
#
# Elastic Compliance Matrix: (Units=1/GPa)
#
#
# Indices 1 2 3 4 5 6 
#
# 1 0.012517 -0.005501 -0.000633 0.000000 -0.010294 0.000000
# 2 -0.005501 0.013843 -0.013847 0.000000 0.006050 0.000000
# 3 -0.000633 -0.013847 0.044471 0.000000 -0.009295 0.000000
# 4 0.000000 0.000000 0.000000 0.026715 0.000000 -0.001276
# 5 -0.010294 0.006050 -0.009295 0.000000 0.056234 0.000000
# 6 0.000000 0.000000 0.000000 -0.001276 0.000000 0.039216
#
#
# Mechanical properties :
#
#
# Convention : Reuss Voigt Hill
#
# Bulk Modulus (GPa) = 32.39446 67.26596 49.83021
# Shear Modulus (GPa) = 20.55511 28.21242 24.38376
#
# Velocity S-wave (km/s) = 3.31926 3.88867 3.61520
# Velocity P-wave (km/s) = 5.66157 7.49778 6.64342
#
# Compressibility (1/GPa) = 0.03086948
#
# Stress axis : x y z
#
# Youngs Moduli (GPa) = 79.89115 72.23633 22.48653
#
# Poissons Ratio (x) = 0.39736 0.01424
# Poissons Ratio (y) = 0.43947 0.31137
# Poissons Ratio (z) = 0.05058 1.00026
#
# Static dielectric constant tensor:
#      x y z
#    x 3.888450 0.000000 0.191020 
#    y 0.000000 3.504650 0.000000 
#    z 0.191020 0.000000 3.074890 
# 
# 
# High freq. dielectric constant tensor:
#      x y z
#    x 1.718590 0.000000 0.013390 
#    y 0.000000 1.730000 0.000000 
#    z 0.013390 0.000000 1.695590 
# 
# From -- ./inp_files/167215.got.cif
#   From: 2010.06.25/outbox.cif.g09.slc.cpg/sg12_84_cif.got.tgz:167215.got - 2010.06.28 00:19:55.
