data_PCOD8090504
_publ_section_title
;
Structure prediction by ZEFSAII (Michael W. Deem and Ramdas Pophale) SiO2 
 PCOD8090504
Probable space group: C 2/M
;
_chemical_formula_sum "Si O2"
_cell_formula_units_Z 64
_cell_length_a 13.913234
_cell_length_b 13.015108
_cell_length_c 25.793354
_cell_angle_alpha 90.000000
_cell_angle_beta 132.182477
_cell_angle_gamma 90.000000
_cell_volume 3461.049026
_symmetry_space_group_name_H-M "C 2/M"
_symmetry_group_IT_number 12
_symmetry_cell_setting 'monoclinic'
loop_
_space_group_symop_operation_xyz
x,y,z
-x,y,-z
-x,-y,-z
x,-y,z
1/2+x,1/2+y,z
1/2-x,1/2+y,-z
1/2-x,1/2-y,-z
1/2+x,1/2-y,z
loop_
_atom_site_type_symbol
_atom_site_label
_atom_site_fract_x
_atom_site_fract_y
_atom_site_fract_z
Si Si1 0.061649 0.721935 0.968607
Si Si2 0.081103 0.189311 0.787092
Si Si3 0.302219 0.691194 0.404353
Si Si4 0.836137 0.881175 0.073569
Si Si5 0.853996 0.883347 0.634365
Si Si6 0.443190 0.380223 0.552888
Si Si7 0.421513 0.115776 0.744682
Si Si8 0.665694 0.881197 0.172748
O O1 0.089375 0.823016 0.945249
O O2 0.967096 0.645331 0.904129
O O3 0.190802 0.658952 0.027527
O O4 0.000000 0.759692 0.000000
O O5 0.089076 0.135842 0.845693
O O6 0.217352 0.187771 0.806429
O O7 0.973912 0.126707 0.716663
O O8 0.042574 0.308755 0.779534
O O9 0.265101 0.811480 0.392051
O O10 0.427576 0.683010 0.413400
O O11 0.329692 0.647934 0.471610
O O12 0.182608 0.625999 0.338857
O O13 0.834611 0.000000 0.058056
O O14 0.899508 0.848437 0.594024
O O15 0.803332 0.000000 0.615933
O O16 0.477618 0.500000 0.561253
O O17 0.349227 0.142706 0.772016
O O18 0.477033 0.000000 0.765922
O O19 0.699641 0.000000 0.174747
#
# Coordination Sequence:
#
# PCOD8090504 Si02
#       8
#     8   8   8   8   8   8   8   8
#     4  11  23  39  58  83 112 139 182 230 271 325
#     4  11  21  36  59  83 111 142 188 227 269 325
#     4  10  19  33  57  81 111 142 186 228 271 321
#     4  11  23  39  59  83 111 146 183 224 275 327
#     4  10  21  35  54  80 112 147 182 224 272 323
#     4  10  19  34  56  83 108 142 187 229 271 319
#     4  10  21  37  57  82 112 146 181 227 278 324
#     4  11  21  36  59  83 109 143 184 227 272 318
#
# _framework density 18.491503999999999
#
# number of rings (size 3 to 8) (size 9 to 14) (size 15 to 20)
#    0.000    1.500    2.500    4.125    0.000    2.750 
#    0.000    1.875    0.000    9.000    0.000    0.000 
#    0.000    0.000    0.000    0.000    0.000    0.000 
#
# Total GULP energy -396964.789399 kJ/mol
# GULP energy per Si atom -12405.149669 kJ/mol
# Density = 1.844942 g / cm^3
# Si number density = 18.491504 Si / 1000 Ang^3
#
#
#
# Elastic Constant Matrix: (Units=GPa)
#
#
# Indices 1 2 3 4 5 6 
#
# 1 108.8046 73.0259 57.3805 0.0000 -1.0452 0.0000
# 2 73.0259 101.8910 37.4169 0.0000 -9.1052 0.0000
# 3 57.3805 37.4169 105.8371 0.0000 -11.4651 0.0000
# 4 0.0000 0.0000 0.0000 20.6931 0.0000 -2.9172
# 5 -1.0452 -9.1052 -11.4651 0.0000 24.0051 0.0000
# 6 0.0000 0.0000 0.0000 -2.9172 0.0000 27.5277
#
#
#
# Elastic Compliance Matrix: (Units=1/GPa)
#
#
# Indices 1 2 3 4 5 6 
#
# 1 0.023068 -0.014200 -0.008396 0.000000 -0.008391 0.000000
# 2 -0.014200 0.020164 0.001404 0.000000 0.007701 0.000000
# 3 -0.008396 0.001404 0.014260 0.000000 0.006978 0.000000
# 4 0.000000 0.000000 0.000000 0.049058 0.000000 0.005199
# 5 -0.008391 0.007701 0.006978 0.000000 0.047546 0.000000
# 6 0.000000 0.000000 0.000000 0.005199 0.000000 0.036878
#
#
# Mechanical properties :
#
#
# Convention : Reuss Voigt Hill
#
# Bulk Modulus (GPa) = 66.18429 72.46436 69.32433
# Shear Modulus (GPa) = 20.97373 24.35914 22.66644
#
# Velocity S-wave (km/s) = 3.37150 3.63342 3.50491
# Velocity P-wave (km/s) = 7.14321 7.54157 7.34509
#
# Compressibility (1/GPa) = 0.01510933
#
# Stress axis : x y z
#
# Youngs Moduli (GPa) = 43.34947 49.59298 70.12784
#
# Poissons Ratio (x) = 0.70422 0.58876
# Poissons Ratio (y) = 0.61556 -0.09847
# Poissons Ratio (z) = 0.36394 -0.06964
#
# Static dielectric constant tensor:
#      x y z
#    x 3.368380 0.000000 -0.139700 
#    y 0.000000 3.348600 0.000000 
#    z -0.139700 0.000000 3.606320 
# 
# 
# High freq. dielectric constant tensor:
#      x y z
#    x 1.711480 0.000000 -0.011120 
#    y 0.000000 1.713310 0.000000 
#    z -0.011120 0.000000 1.736830 
# 
# From -- ./inp_files/361051.got.cif
#   From: 2010.06.25/outbox.cif.g09.slc.cpg/sg12_181_cif.got.tgz:361051.got - 2010.06.28 00:19:55.
