data_PCOD8090343
_publ_section_title
;
Structure prediction by ZEFSAII (Michael W. Deem and Ramdas Pophale) SiO2 
 PCOD8090343
Probable space group: C 2/M
;
_chemical_formula_sum "Si O2"
_cell_formula_units_Z 48
_cell_length_a 22.011578
_cell_length_b 18.269937
_cell_length_c 16.529026
_cell_angle_alpha 90.000000
_cell_angle_beta 156.382311
_cell_angle_gamma 90.000000
_cell_volume 2663.060559
_symmetry_space_group_name_H-M "C 2/M"
_symmetry_group_IT_number 12
_symmetry_cell_setting 'monoclinic'
loop_
_space_group_symop_operation_xyz
x,y,z
-x,y,-z
-x,-y,-z
x,-y,z
1/2+x,1/2+y,z
1/2-x,1/2+y,-z
1/2-x,1/2-y,-z
1/2+x,1/2-y,z
loop_
_atom_site_type_symbol
_atom_site_label
_atom_site_fract_x
_atom_site_fract_y
_atom_site_fract_z
Si Si1 0.675253 0.584196 0.212158
Si Si2 0.162551 0.583349 0.925804
Si Si3 0.167564 0.916468 0.021776
Si Si4 0.361149 0.835277 0.574637
Si Si5 0.608212 0.664571 0.391727
Si Si6 0.516850 0.413735 0.612233
O O1 0.693610 0.500000 0.262369
O O2 0.776020 0.634369 0.392138
O O3 0.500000 0.607996 0.000000
O O4 0.731961 0.596600 0.189835
O O5 0.124249 0.500000 0.898529
O O6 0.023108 0.629263 0.787487
O O7 0.190116 0.596375 0.863844
O O8 0.313760 0.608347 0.156346
O O9 0.029486 0.862400 0.832872
O O10 0.106018 0.000000 0.936508
O O11 0.396419 0.750980 0.602492
O O12 0.264874 0.853880 0.537329
O O13 0.601443 0.626395 0.471789
O O14 0.500000 0.386110 0.500000
O O15 0.486957 0.500000 0.583765
#
# Coordination Sequence:
#
# PCOD8090343 Si02
#       6
#     8   8   8   8   8   8
#     4  10  19  33  56  82 108 144 188 221 261 328
#     4   9  19  35  57  82 108 138 177 229 275 311
#     4   9  18  35  58  80 105 145 185 221 267 327
#     4  11  22  35  51  83 117 142 176 225 279 326
#     4  10  21  37  53  78 111 150 182 214 277 336
#     4   9  19  39  61  79 102 141 193 231 264 325
#
# _framework density 18.024374000000002
#
# number of rings (size 3 to 8) (size 9 to 14) (size 15 to 20)
#    0.000    2.333    1.667    2.000    0.000    5.333 
#    6.000    3.333    0.000    3.000    0.000    0.000 
#    0.000    0.000    0.000    0.000    0.000    0.000 
#
# Total GULP energy -297569.000575 kJ/mol
# GULP energy per Si atom -12398.708357 kJ/mol
# Density = 1.798335 g / cm^3
# Si number density = 18.024374 Si / 1000 Ang^3
#
#
#
# Elastic Constant Matrix: (Units=GPa)
#
#
# Indices 1 2 3 4 5 6 
#
# 1 148.3089 61.3354 64.7081 0.0000 -2.2125 0.0000
# 2 61.3354 90.0966 56.0327 0.0000 4.7928 0.0000
# 3 64.7081 56.0327 81.2856 0.0000 6.1856 0.0000
# 4 0.0000 0.0000 0.0000 26.0660 0.0000 5.8561
# 5 -2.2125 4.7928 6.1856 0.0000 27.9439 0.0000
# 6 0.0000 0.0000 0.0000 5.8561 0.0000 30.0648
#
#
#
# Elastic Compliance Matrix: (Units=1/GPa)
#
#
# Indices 1 2 3 4 5 6 
#
# 1 0.011184 -0.003666 -0.006603 0.000000 0.002976 0.000000
# 2 -0.003666 0.020634 -0.011203 0.000000 -0.001349 0.000000
# 3 -0.006603 -0.011203 0.025605 0.000000 -0.004269 0.000000
# 4 0.000000 0.000000 0.000000 0.040120 0.000000 -0.007815
# 5 0.002976 -0.001349 -0.004269 0.000000 0.037198 0.000000
# 6 0.000000 0.000000 0.000000 -0.007815 0.000000 0.034784
#
#
# Mechanical properties :
#
#
# Convention : Reuss Voigt Hill
#
# Bulk Modulus (GPa) = 69.05478 75.98261 72.51869
# Shear Modulus (GPa) = 23.01039 25.98927 24.49983
#
# Velocity S-wave (km/s) = 3.57687 3.80135 3.69082
# Velocity P-wave (km/s) = 7.44672 7.84309 7.64747
#
# Compressibility (1/GPa) = 0.01448126
#
# Stress axis : x y z
#
# Youngs Moduli (GPa) = 89.41497 48.46462 39.05418
#
# Poissons Ratio (x) = 0.17766 0.25786
# Poissons Ratio (y) = 0.32777 0.43751
# Poissons Ratio (z) = 0.59036 0.54293
#
# Static dielectric constant tensor:
#      x y z
#    x 3.648190 0.000000 0.003040 
#    y 0.000000 3.277780 0.000000 
#    z 0.003040 0.000000 3.145620 
# 
# 
# High freq. dielectric constant tensor:
#      x y z
#    x 1.711830 0.000000 0.003600 
#    y 0.000000 1.690980 0.000000 
#    z 0.003600 0.000000 1.681350 
# 
# From -- ./inp_files/88124.got.cif
#   From: 2010.06.25/outbox.cif.g09.slc.cpg/sg12_45_cif.got.tgz:88124.got - 2010.06.28 00:19:55.
