data_PCOD8090017
_publ_section_title
;
Structure prediction by ZEFSAII (Michael W. Deem and Ramdas Pophale) SiO2 
 PCOD8090017
Probable space group: C 2/M
;
_chemical_formula_sum "Si O2"
_cell_formula_units_Z 64
_cell_length_a 20.285283
_cell_length_b 9.051313
_cell_length_c 19.753972
_cell_angle_alpha 90.000000
_cell_angle_beta 64.734584
_cell_angle_gamma 90.000000
_cell_volume 3280.038883
_symmetry_space_group_name_H-M "C 2/M"
_symmetry_group_IT_number 12
_symmetry_cell_setting 'monoclinic'
loop_
_space_group_symop_operation_xyz
x,y,z
-x,y,-z
-x,-y,-z
x,-y,z
1/2+x,1/2+y,z
1/2-x,1/2+y,-z
1/2-x,1/2-y,-z
1/2+x,1/2-y,z
loop_
_atom_site_type_symbol
_atom_site_label
_atom_site_fract_x
_atom_site_fract_y
_atom_site_fract_z
Si Si1 0.344840 0.666301 0.836759
Si Si2 0.040863 0.673767 0.645037
Si Si3 0.060747 0.328426 0.918364
Si Si4 0.481037 0.171657 0.818056
Si Si5 0.290639 0.673388 0.149228
Si Si6 0.267894 0.829177 0.679544
Si Si7 0.807527 0.173596 0.426541
Si Si8 0.904126 0.833056 0.659482
O O1 0.331417 0.500000 0.867703
O O2 0.405105 0.741026 0.858256
O O3 0.269233 0.754953 0.874186
O O4 0.373958 0.671300 0.748134
O O5 0.048668 0.500000 0.628950
O O6 0.114750 0.754758 0.592454
O O7 0.023060 0.710991 0.730737
O O8 0.977895 0.737209 0.623627
O O9 0.082256 0.500000 0.909730
O O10 0.131136 0.234079 0.906378
O O11 0.032358 0.279780 0.857122
O O12 0.000000 0.291328 0.000000
O O13 0.460980 0.000000 0.830265
O O14 0.288439 0.500000 0.138928
O O15 0.274832 0.717689 0.233952
O O16 0.214606 0.793791 0.641032
O O17 0.342737 0.737384 0.637775
O O18 0.290581 0.000000 0.672521
O O19 0.750000 0.250000 0.500000
O O20 0.810798 0.000000 0.440312
O O21 0.920423 0.000000 0.628583
#
# Coordination Sequence:
#
# PCOD8090017 Si02
#       8
#     8   8   8   8   8   8   8   8
#     4   9  17  30  51  79 107 133 166 211 260 307
#     4  10  19  33  55  80 106 136 171 212 258 307
#     4  10  21  36  52  73 105 141 175 214 259 305
#     4   9  18  33  54  79 105 135 172 213 257 306
#     4  10  19  33  55  80 105 134 171 213 257 307
#     4   9  19  35  55  79 106 136 169 211 260 306
#     4  11  23  38  54  75 106 140 175 213 255 304
#     4   9  17  30  52  81 108 133 166 211 258 306
#
# _framework density 19.511963999999999
#
# number of rings (size 3 to 8) (size 9 to 14) (size 15 to 20)
#    0.000    2.375    0.000    2.625    0.000    5.750 
#    0.000    1.250    0.000    3.750    0.000    0.000 
#    0.000    0.000    0.000    0.000    0.000    0.000 
#
# Total GULP energy -396897.423104 kJ/mol
# GULP energy per Si atom -12403.044472 kJ/mol
# Density = 1.946755 g / cm^3
# Si number density = 19.511964 Si / 1000 Ang^3
#
#
#
# Elastic Constant Matrix: (Units=GPa)
#
#
# Indices 1 2 3 4 5 6 
#
# 1 118.3069 64.2609 25.7912 0.0000 -41.4746 0.0000
# 2 64.2609 110.1621 31.8493 -0.0001 -25.1099 -0.0002
# 3 25.7912 31.8493 42.8724 0.0000 -19.5688 0.0000
# 4 0.0000 -0.0001 0.0000 22.2611 0.0000 -8.7086
# 5 -41.4746 -25.1099 -19.5688 0.0000 22.6671 0.0000
# 6 0.0000 -0.0002 0.0000 -8.7086 0.0000 43.0681
#
#
#
# Elastic Compliance Matrix: (Units=1/GPa)
#
#
# Indices 1 2 3 4 5 6 
#
# 1 0.031009 -0.008800 0.015399 0.000000 0.060284 0.000000
# 2 -0.008800 0.015258 -0.009366 0.000000 -0.007284 0.000000
# 3 0.015399 -0.009366 0.048097 0.000000 0.059322 0.000000
# 4 0.000000 0.000000 0.000000 0.048780 0.000000 0.009864
# 5 0.060284 -0.007284 0.059322 0.000000 0.197564 0.000000
# 6 0.000000 0.000000 0.000000 0.009864 0.000000 0.025214
#
#
# Mechanical properties :
#
#
# Convention : Reuss Voigt Hill
#
# Bulk Modulus (GPa) = 11.25753 57.23825 34.24789
# Shear Modulus (GPa) = 12.46681 27.56192 20.01436
#
# Velocity S-wave (km/s) = 2.53045 3.76249 3.20621
# Velocity P-wave (km/s) = 3.78413 6.94793 5.59434
#
# Compressibility (1/GPa) = 0.08882944
#
# Stress axis : x y z
#
# Youngs Moduli (GPa) = 32.24890 65.53879 20.79146
#
# Poissons Ratio (x) = 0.57671 -0.32016
# Poissons Ratio (y) = 0.28378 0.19474
# Poissons Ratio (z) = -0.49659 0.61386
#
# Static dielectric constant tensor:
#      x y z
#    x 3.682450 0.000000 -0.003240 
#    y 0.000000 3.613430 0.000000 
#    z -0.003240 0.000000 3.382940 
# 
# 
# High freq. dielectric constant tensor:
#      x y z
#    x 1.772450 0.000000 -0.009240 
#    y 0.000000 1.766590 0.000000 
#    z -0.009240 0.000000 1.725060 
# 
# From -- ./inp_files/319956.got.cif
#   From: 2010.06.25/outbox.cif.g09.slc.cpg/sg12_160_cif.got.tgz:319956.got - 2010.06.28 00:19:55.
