data_PCOD8090161
_publ_section_title
;
Structure prediction by ZEFSAII (Michael W. Deem and Ramdas Pophale) SiO2 
 PCOD8090161
Probable space group: C 2/M
;
_chemical_formula_sum "Si O2"
_cell_formula_units_Z 56
_cell_length_a 26.755657
_cell_length_b 9.365530
_cell_length_c 11.689498
_cell_angle_alpha 90.000000
_cell_angle_beta 103.887123
_cell_angle_gamma 90.000000
_cell_volume 2843.546843
_symmetry_space_group_name_H-M "C 2/M"
_symmetry_group_IT_number 12
_symmetry_cell_setting 'monoclinic'
loop_
_space_group_symop_operation_xyz
x,y,z
-x,y,-z
-x,-y,-z
x,-y,z
1/2+x,1/2+y,z
1/2-x,1/2+y,-z
1/2-x,1/2-y,-z
1/2+x,1/2-y,z
loop_
_atom_site_type_symbol
_atom_site_label
_atom_site_fract_x
_atom_site_fract_y
_atom_site_fract_z
Si Si1 0.802046 0.834349 0.002535
Si Si2 0.901550 0.162975 0.194547
Si Si3 0.488430 0.168039 0.121157
Si Si4 0.614047 0.332849 0.558694
Si Si5 0.324678 0.836041 0.798151
Si Si6 0.914216 0.332788 0.675387
Si Si7 0.229599 0.837488 0.593603
O O1 0.831190 0.767664 0.909201
O O2 0.788583 0.000000 0.972290
O O3 0.750000 0.750000 0.000000
O O4 0.841314 0.818705 0.129951
O O5 0.935969 0.262320 0.134531
O O6 0.910086 0.205674 0.331628
O O7 0.918452 0.000000 0.183274
O O8 0.535416 0.213864 0.227680
O O9 0.479789 0.000000 0.116789
O O10 0.500000 0.223090 0.000000
O O11 0.609198 0.500000 0.530101
O O12 0.583953 0.248506 0.443982
O O13 0.673266 0.283037 0.596091
O O14 0.364053 0.787637 0.720586
O O15 0.266343 0.819059 0.722941
O O16 0.336393 0.000000 0.840675
O O17 0.913365 0.500000 0.648713
O O18 0.250000 0.750000 0.500000
O O19 0.228359 0.000000 0.551972
#
# Coordination Sequence:
#
# PCOD8090161 Si02
#       7
#     8   8   8   8   8   8   8
#     4  11  23  39  60  86 117 152 194 240 289 348
#     4  10  23  42  61  84 117 156 194 237 290 345
#     4  10  22  41  64  88 114 148 192 241 293 348
#     4  10  21  37  57  83 118 155 193 238 289 346
#     4  10  20  36  58  84 118 155 193 242 293 342
#     4  10  21  37  59  87 116 149 192 241 290 342
#     4  10  19  33  55  82 116 156 193 235 283 338
#
# _framework density 19.693715000000001
#
# number of rings (size 3 to 8) (size 9 to 14) (size 15 to 20)
#    0.000    1.857    1.429    2.143    0.000    7.714 
#    0.000    4.286    0.000    0.000    0.000    0.000 
#    0.000    0.000    0.000    0.000    0.000    0.000 
#
# Total GULP energy -347302.321985 kJ/mol
# GULP energy per Si atom -12403.654357 kJ/mol
# Density = 1.964889 g / cm^3
# Si number density = 19.693715 Si / 1000 Ang^3
#
#
#
# Elastic Constant Matrix: (Units=GPa)
#
#
# Indices 1 2 3 4 5 6 
#
# 1 98.7554 38.7869 44.9547 0.0000 -1.9047 0.0000
# 2 38.7869 68.3036 54.6983 0.0000 -6.1576 0.0000
# 3 44.9547 54.6983 131.1899 0.0000 -7.4419 0.0000
# 4 0.0000 0.0000 0.0000 36.7268 0.0000 -2.9501
# 5 -1.9047 -6.1576 -7.4419 0.0000 31.7469 0.0000
# 6 0.0000 0.0000 0.0000 -2.9501 0.0000 32.5225
#
#
#
# Elastic Compliance Matrix: (Units=1/GPa)
#
#
# Indices 1 2 3 4 5 6 
#
# 1 0.013442 -0.005979 -0.002162 0.000000 -0.000860 0.000000
# 2 -0.005979 0.024784 -0.008140 0.000000 0.002540 0.000000
# 3 -0.002162 -0.008140 0.011818 0.000000 0.001062 0.000000
# 4 0.000000 0.000000 0.000000 0.027428 0.000000 0.002488
# 5 -0.000860 0.002540 0.001062 0.000000 0.032189 0.000000
# 6 0.000000 0.000000 0.000000 0.002488 0.000000 0.030974
#
#
# Mechanical properties :
#
#
# Convention : Reuss Voigt Hill
#
# Bulk Modulus (GPa) = 57.20768 63.90318 60.55543
# Shear Modulus (GPa) = 27.92921 30.85319 29.39120
#
# Velocity S-wave (km/s) = 3.76996 3.96239 3.86737
# Velocity P-wave (km/s) = 6.93267 7.31116 7.12442
#
# Compressibility (1/GPa) = 0.01748017
#
# Stress axis : x y z
#
# Youngs Moduli (GPa) = 74.39351 40.34883 84.61974
#
# Poissons Ratio (x) = 0.24127 0.18294
# Poissons Ratio (y) = 0.44483 0.68883
# Poissons Ratio (z) = 0.16083 0.32845
#
# Static dielectric constant tensor:
#      x y z
#    x 12.477980 0.000000 -3.776970 
#    y 0.000000 3.493580 0.000000 
#    z -3.776970 0.000000 5.375100 
# 
# 
# High freq. dielectric constant tensor:
#      x y z
#    x 1.769300 0.000000 0.001550 
#    y 0.000000 1.758860 0.000000 
#    z 0.001550 0.000000 1.776890 
# 
# From -- ./inp_files/181002.got.cif
#   From: 2010.06.25/outbox.cif.g09.slc.cpg/sg12_91_cif.got.tgz:181002.got - 2010.06.28 00:19:55.
