data_PCOD8090748
_publ_section_title
;
Structure prediction by ZEFSAII (Michael W. Deem and Ramdas Pophale) SiO2 
 PCOD8090748
Probable space group: C 2/M
;
_chemical_formula_sum "Si O2"
_cell_formula_units_Z 56
_cell_length_a 14.935559
_cell_length_b 11.598347
_cell_length_c 18.933786
_cell_angle_alpha 90.000000
_cell_angle_beta 122.606726
_cell_angle_gamma 90.000000
_cell_volume 2762.916789
_symmetry_space_group_name_H-M "C 2/M"
_symmetry_group_IT_number 12
_symmetry_cell_setting 'monoclinic'
loop_
_space_group_symop_operation_xyz
x,y,z
-x,y,-z
-x,-y,-z
x,-y,z
1/2+x,1/2+y,z
1/2-x,1/2+y,-z
1/2-x,1/2-y,-z
1/2+x,1/2-y,z
loop_
_atom_site_type_symbol
_atom_site_label
_atom_site_fract_x
_atom_site_fract_y
_atom_site_fract_z
Si Si1 0.001074 0.698007 0.222996
Si Si2 0.984930 0.500000 0.106253
Si Si3 0.946643 0.130699 0.379568
Si Si4 0.823779 0.291787 0.425602
Si Si5 0.704892 0.704425 0.805085
Si Si6 0.328038 0.000000 0.923055
Si Si7 0.116001 0.298711 0.403869
Si Si8 0.822711 0.131449 0.753887
O O1 0.043906 0.636875 0.314059
O O2 0.073966 0.809535 0.236992
O O3 0.006385 0.612176 0.160980
O O4 0.879376 0.731532 0.181354
O O5 0.070399 0.500000 0.082323
O O6 0.867416 0.500000 0.021466
O O7 0.913147 0.207128 0.432574
O O8 0.851204 0.136139 0.282273
O O9 0.056616 0.175811 0.392218
O O10 0.962962 0.000000 0.411078
O O11 0.875508 0.361318 0.515079
O O12 0.732435 0.212437 0.420729
O O13 0.774484 0.373005 0.344233
O O14 0.762295 0.615397 0.881058
O O15 0.786998 0.798437 0.808232
O O16 0.850414 0.000000 0.786669
#
# Coordination Sequence:
#
# PCOD8090748 Si02
#       8
#     8   4   8   8   8   4   8   8
#     4  10  22  39  63  88 119 159 202 241 299 361
#     4  11  24  42  66  93 121 155 192 246 309 367
#     4  10  19  33  60  87 114 155 205 255 294 340
#     4   9  19  34  50  79 121 156 198 246 295 336
#     4  10  21  37  64  91 120 157 197 242 302 362
#     4  11  22  42  70  93 119 150 197 249 303 365
#     4   9  19  34  50  80 121 154 197 245 289 351
#     4  10  21  38  59  86 121 161 203 246 291 350
#
# _framework density 20.268435
#
# number of rings (size 3 to 8) (size 9 to 14) (size 15 to 20)
#    0.000    2.143    2.143    0.429    2.000    5.143 
#    1.286    2.857    0.000    3.429    0.000    0.000 
#    0.000    0.000    0.000    0.000    0.000    0.000 
#
# Total GULP energy -346994.222442 kJ/mol
# GULP energy per Si atom -12392.650802 kJ/mol
# Density = 2.022230 g / cm^3
# Si number density = 20.268435 Si / 1000 Ang^3
#
#
#
# Elastic Constant Matrix: (Units=GPa)
#
#
# Indices 1 2 3 4 5 6 
#
# 1 96.1903 20.5839 10.1837 0.0000 -2.5887 0.0000
# 2 20.5839 74.4479 32.9613 0.0000 -7.4085 0.0000
# 3 10.1837 32.9613 114.9886 0.0000 3.1803 0.0000
# 4 0.0000 0.0000 0.0000 25.9322 0.0000 -8.3844
# 5 -2.5887 -7.4085 3.1803 0.0000 21.6606 0.0000
# 6 0.0000 0.0000 0.0000 -8.3844 0.0000 30.8631
#
#
#
# Elastic Compliance Matrix: (Units=1/GPa)
#
#
# Indices 1 2 3 4 5 6 
#
# 1 0.011053 -0.002962 -0.000139 0.000000 0.000328 0.000000
# 2 -0.002962 0.016977 -0.004774 0.000000 0.006154 0.000000
# 3 -0.000139 -0.004774 0.010164 0.000000 -0.003142 0.000000
# 4 0.000000 0.000000 0.000000 0.042275 0.000000 0.011485
# 5 0.000328 0.006154 -0.003142 0.000000 0.048772 0.000000
# 6 0.000000 0.000000 0.000000 0.011485 0.000000 0.035521
#
#
# Mechanical properties :
#
#
# Convention : Reuss Voigt Hill
#
# Bulk Modulus (GPa) = 44.55439 45.89827 45.22633
# Shear Modulus (GPa) = 26.59632 30.48435 28.54034
#
# Velocity S-wave (km/s) = 3.62637 3.88239 3.75656
# Velocity P-wave (km/s) = 6.28999 6.54153 6.41699
#
# Compressibility (1/GPa) = 0.02244448
#
# Stress axis : x y z
#
# Youngs Moduli (GPa) = 90.46959 58.90197 98.38353
#
# Poissons Ratio (x) = 0.17446 0.01367
# Poissons Ratio (y) = 0.26796 0.46972
# Poissons Ratio (z) = 0.01257 0.28122
#
# Static dielectric constant tensor:
#      x y z
#    x 3.721400 0.000000 0.015150 
#    y 0.000000 3.261640 0.000000 
#    z 0.015150 0.000000 4.000640 
# 
# 
# High freq. dielectric constant tensor:
#      x y z
#    x 1.804050 0.000000 -0.001740 
#    y 0.000000 1.751760 0.000000 
#    z -0.001740 0.000000 1.789300 
# 
# From -- ./inp_files/269219.got.cif
#   From: 2010.06.25/outbox.cif.g09.slc.cpg/sg12_135_cif.got.tgz:269219.got - 2010.06.28 00:19:55.
