data_PCOD8090114
_publ_section_title
;
Structure prediction by ZEFSAII (Michael W. Deem and Ramdas Pophale) SiO2 
 PCOD8090114
Probable space group: C 2/M
;
_chemical_formula_sum "Si O2"
_cell_formula_units_Z 64
_cell_length_a 15.052263
_cell_length_b 9.067612
_cell_length_c 28.610244
_cell_angle_alpha 90.000000
_cell_angle_beta 122.926398
_cell_angle_gamma 90.000000
_cell_volume 3277.702116
_symmetry_space_group_name_H-M "C 2/M"
_symmetry_group_IT_number 12
_symmetry_cell_setting 'monoclinic'
loop_
_space_group_symop_operation_xyz
x,y,z
-x,y,-z
-x,-y,-z
x,-y,z
1/2+x,1/2+y,z
1/2-x,1/2+y,-z
1/2-x,1/2-y,-z
1/2+x,1/2-y,z
loop_
_atom_site_type_symbol
_atom_site_label
_atom_site_fract_x
_atom_site_fract_y
_atom_site_fract_z
Si Si1 0.215024 0.823966 0.380746
Si Si2 0.462277 0.829834 0.105201
Si Si3 0.893923 0.827516 0.996297
Si Si4 0.521295 0.329518 0.388796
Si Si5 0.301068 0.825982 0.814290
Si Si6 0.285202 0.675396 0.310858
Si Si7 0.668761 0.327430 0.510807
Si Si8 0.714075 0.830195 0.875455
O O1 0.109513 0.766642 0.377817
O O2 0.212789 0.758975 0.328043
O O3 0.319599 0.754554 0.436089
O O4 0.224094 0.000000 0.383185
O O5 0.580296 0.763789 0.143622
O O6 0.403931 0.809107 0.138235
O O7 0.466896 0.000000 0.092349
O O8 0.393245 0.749354 0.046264
O O9 0.796920 0.768758 0.937437
O O10 0.884239 0.000000 0.002650
O O11 0.000000 0.783088 0.000000
O O12 0.512640 0.500000 0.374259
O O13 0.405289 0.260689 0.347813
O O14 0.554677 0.306310 0.452949
O O15 0.261532 0.777843 0.752234
O O16 0.221923 0.759139 0.829774
O O17 0.298940 0.000000 0.818721
O O18 0.279943 0.500000 0.318071
O O19 0.694793 0.500000 0.524243
O O20 0.750000 0.250000 0.500000
O O21 0.740121 0.000000 0.872053
#
# Coordination Sequence:
#
# PCOD8090114 Si02
#       8
#     8   8   8   8   8   8   8   8
#     4  10  20  35  54  80 109 138 174 218 266 317
#     4  10  21  36  55  81 110 140 172 214 268 316
#     4  10  19  33  55  82 109 139 175 213 256 312
#     4   8  17  34  55  76 104 140 175 210 258 317
#     4  10  22  38  55  77 105 137 179 223 263 309
#     4  10  21  38  56  75 102 140 182 221 259 309
#     4   9  16  30  53  80 108 140 174 213 263 318
#     4  10  21  37  56  78 108 141 173 214 264 315
#
# _framework density 19.525874999999999
#
# number of rings (size 3 to 8) (size 9 to 14) (size 15 to 20)
#    0.000    2.375    1.250    1.875    0.000    3.250 
#    0.000    6.250    0.000    0.000    0.000    0.000 
#    0.000    0.000    0.000    0.000    0.000    0.000 
#
# Total GULP energy -396723.654290 kJ/mol
# GULP energy per Si atom -12397.614197 kJ/mol
# Density = 1.948143 g / cm^3
# Si number density = 19.525875 Si / 1000 Ang^3
#
#
#
# Elastic Constant Matrix: (Units=GPa)
#
#
# Indices 1 2 3 4 5 6 
#
# 1 69.7512 21.4827 27.4614 0.0000 -13.9053 0.0000
# 2 21.4827 47.2983 31.7614 0.0000 -11.4674 0.0000
# 3 27.4614 31.7614 99.3926 0.0000 -21.1536 0.0000
# 4 0.0000 0.0000 0.0000 27.2931 0.0000 -10.5108
# 5 -13.9053 -11.4674 -21.1536 0.0000 31.9083 0.0000
# 6 0.0000 0.0000 0.0000 -10.5108 0.0000 27.8471
#
#
#
# Elastic Compliance Matrix: (Units=1/GPa)
#
#
# Indices 1 2 3 4 5 6 
#
# 1 0.017773 -0.005538 -0.002231 0.000000 0.004276 0.000000
# 2 -0.005538 0.029243 -0.007092 0.000000 0.003395 0.000000
# 3 -0.002231 -0.007092 0.014198 0.000000 0.005891 0.000000
# 4 0.000000 0.000000 0.000000 0.042871 0.000000 0.016182
# 5 0.004276 0.003395 0.005891 0.000000 0.038329 0.000000
# 6 0.000000 0.000000 0.000000 0.016182 0.000000 0.042018
#
#
# Mechanical properties :
#
#
# Convention : Reuss Voigt Hill
#
# Bulk Modulus (GPa) = 31.75389 41.98369 36.86879
# Shear Modulus (GPa) = 22.25677 26.45881 24.35779
#
# Velocity S-wave (km/s) = 3.37984 3.68511 3.53577
# Velocity P-wave (km/s) = 5.61506 6.29722 5.96590
#
# Compressibility (1/GPa) = 0.03149221
#
# Stress axis : x y z
#
# Youngs Moduli (GPa) = 56.26520 34.19606 70.43396
#
# Poissons Ratio (x) = 0.18936 0.15713
# Poissons Ratio (y) = 0.31157 0.49954
# Poissons Ratio (z) = 0.12552 0.24253
#
# Static dielectric constant tensor:
#      x y z
#    x 3.555810 0.000000 0.122790 
#    y 0.000000 3.359050 0.000000 
#    z 0.122790 0.000000 3.759870 
# 
# 
# High freq. dielectric constant tensor:
#      x y z
#    x 1.760060 0.000000 -0.002350 
#    y 0.000000 1.739830 0.000000 
#    z -0.002350 0.000000 1.760550 
# 
# From -- ./inp_files/375577.got.cif
#   From: 2010.06.25/outbox.cif.g09.slc.cpg/sg12_188_cif.got.tgz:375577.got - 2010.06.28 00:19:55.
