data_PCOD8090575
_publ_section_title
;
Structure prediction by ZEFSAII (Michael W. Deem and Ramdas Pophale) SiO2 
 PCOD8090575
Probable space group: C 2/M
;
_chemical_formula_sum "Si O2"
_cell_formula_units_Z 64
_cell_length_a 22.818882
_cell_length_b 9.103241
_cell_length_c 22.777026
_cell_angle_alpha 90.000000
_cell_angle_beta 46.003289
_cell_angle_gamma 90.000000
_cell_volume 3403.655401
_symmetry_space_group_name_H-M "C 2/M"
_symmetry_group_IT_number 12
_symmetry_cell_setting 'monoclinic'
loop_
_space_group_symop_operation_xyz
x,y,z
-x,y,-z
-x,-y,-z
x,-y,z
1/2+x,1/2+y,z
1/2-x,1/2+y,-z
1/2-x,1/2-y,-z
1/2+x,1/2-y,z
loop_
_atom_site_type_symbol
_atom_site_label
_atom_site_fract_x
_atom_site_fract_y
_atom_site_fract_z
Si Si1 0.396476 0.171019 0.653528
Si Si2 0.543069 0.330637 0.608033
Si Si3 0.633644 0.331515 0.099702
Si Si4 0.294653 0.828478 0.055764
Si Si5 0.650951 0.330024 0.425165
Si Si6 0.548011 0.668211 0.737102
Si Si7 0.329866 0.827424 0.265422
Si Si8 0.215150 0.172273 0.817554
O O1 0.464771 0.233866 0.648548
O O2 0.402534 0.242338 0.584939
O O3 0.310025 0.208461 0.742743
O O4 0.410475 0.000000 0.635901
O O5 0.516692 0.500000 0.620380
O O6 0.617762 0.291569 0.512871
O O7 0.573049 0.296104 0.652834
O O8 0.642874 0.500000 0.072645
O O9 0.702588 0.293044 0.099588
O O10 0.547667 0.300682 0.189732
O O11 0.642356 0.227594 0.037179
O O12 0.314455 0.742380 0.101330
O O13 0.308841 0.000000 0.056599
O O14 0.639775 0.500000 0.417579
O O15 0.745535 0.284127 0.356465
O O16 0.569151 0.500000 0.738609
O O17 0.596458 0.776792 0.745265
O O18 0.336656 0.744910 0.198664
O O19 0.336391 0.000000 0.249595
O O20 0.197179 0.000000 0.830706
#
# Coordination Sequence:
#
# PCOD8090575 Si02
#       8
#     8   8   8   8   8   8   8   8
#     4  10  20  32  50  79 110 137 170 216 264 308
#     4  10  20  34  53  76 104 140 177 213 260 318
#     4   9  19  35  54  79 112 144 169 203 257 313
#     4  10  19  33  57  86 111 136 170 210 252 305
#     4   9  19  35  53  74 103 140 177 214 262 315
#     4  10  21  37  55  75 103 140 179 215 257 310
#     4  10  21  37  55  75 102 137 179 224 263 302
#     4  10  20  35  55  78 106 140 175 212 260 314
#
# _framework density 18.803314
#
# number of rings (size 3 to 8) (size 9 to 14) (size 15 to 20)
#    0.000    2.250    0.000    2.625    0.000    7.000 
#    0.000    0.625    0.000    3.750    0.000    0.000 
#    0.000    0.000    0.000    0.000    0.000    0.000 
#
# Total GULP energy -396946.851078 kJ/mol
# GULP energy per Si atom -12404.589096 kJ/mol
# Density = 1.876052 g / cm^3
# Si number density = 18.803314 Si / 1000 Ang^3
#
#
#
# Elastic Constant Matrix: (Units=GPa)
#
#
# Indices 1 2 3 4 5 6 
#
# 1 71.6574 30.8427 27.9555 -0.0003 18.0011 0.0006
# 2 30.8427 73.6556 36.8814 -0.0009 15.3777 0.0017
# 3 27.9555 36.8814 86.8534 -0.0002 27.2359 0.0004
# 4 -0.0003 -0.0009 -0.0002 26.7496 0.0001 2.0169
# 5 18.0011 15.3777 27.2359 0.0001 27.0661 -0.0003
# 6 0.0006 0.0017 0.0004 2.0169 -0.0003 34.3688
#
#
#
# Elastic Compliance Matrix: (Units=1/GPa)
#
#
# Indices 1 2 3 4 5 6 
#
# 1 0.018882 -0.005634 -0.001097 0.000000 -0.008253 0.000000
# 2 -0.005634 0.019161 -0.005967 0.000001 -0.001134 -0.000001
# 3 -0.001097 -0.005967 0.019152 0.000000 -0.015153 0.000000
# 4 0.000000 0.000001 0.000000 0.037550 -0.000001 -0.002204
# 5 -0.008253 -0.001134 -0.015153 -0.000001 0.058328 0.000001
# 6 0.000000 -0.000001 0.000000 -0.002204 0.000001 0.029225
#
#
# Mechanical properties :
#
#
# Convention : Reuss Voigt Hill
#
# Bulk Modulus (GPa) = 31.44865 47.05838 39.25352
# Shear Modulus (GPa) = 22.90495 26.73600 24.82048
#
# Velocity S-wave (km/s) = 3.49396 3.77487 3.63713
# Velocity P-wave (km/s) = 5.74790 6.63931 6.20963
#
# Compressibility (1/GPa) = 0.03179786
#
# Stress axis : x y z
#
# Youngs Moduli (GPa) = 52.96188 52.19000 52.21324
#
# Poissons Ratio (x) = 0.29405 0.05727
# Poissons Ratio (y) = 0.29840 0.31157
# Poissons Ratio (z) = 0.05810 0.31143
#
# Static dielectric constant tensor:
#      x y z
#    x 3.265730 0.000000 0.064390 
#    y 0.000000 3.462040 0.000000 
#    z 0.064390 0.000000 3.494790 
# 
# 
# High freq. dielectric constant tensor:
#      x y z
#    x 1.716530 0.000000 0.009470 
#    y 0.000000 1.734500 0.000000 
#    z 0.009470 0.000000 1.732220 
# 
# From -- ./inp_files/295699.got.cif
#   From: 2010.06.25/outbox.cif.g09.slc.cpg/sg12_148_cif.got.tgz:295699.got - 2010.06.28 00:19:55.
