data_PCOD8090094
_publ_section_title
;
Structure prediction by ZEFSAII (Michael W. Deem and Ramdas Pophale) SiO2 
 PCOD8090094
Probable space group: C 2/M
;
_chemical_formula_sum "Si O2"
_cell_formula_units_Z 56
_cell_length_a 17.955363
_cell_length_b 8.694942
_cell_length_c 28.973915
_cell_angle_alpha 90.000000
_cell_angle_beta 141.070914
_cell_angle_gamma 90.000000
_cell_volume 2842.334872
_symmetry_space_group_name_H-M "C 2/M"
_symmetry_group_IT_number 12
_symmetry_cell_setting 'monoclinic'
loop_
_space_group_symop_operation_xyz
x,y,z
-x,y,-z
-x,-y,-z
x,-y,z
1/2+x,1/2+y,z
1/2-x,1/2+y,-z
1/2-x,1/2-y,-z
1/2+x,1/2-y,z
loop_
_atom_site_type_symbol
_atom_site_label
_atom_site_fract_x
_atom_site_fract_y
_atom_site_fract_z
Si Si1 0.637616 0.321903 0.570211
Si Si2 0.049818 0.679943 0.708067
Si Si3 0.214992 0.680885 0.702127
Si Si4 0.295501 0.319866 0.569220
Si Si5 0.674848 0.681144 0.004912
Si Si6 0.477817 0.319583 0.845240
Si Si7 0.350224 0.317942 0.152338
O O1 0.500000 0.284118 0.500000
O O2 0.664923 0.500000 0.573332
O O3 0.680936 0.279109 0.641628
O O4 0.703372 0.217487 0.564859
O O5 0.031632 0.500000 0.705652
O O6 0.120578 0.719458 0.695884
O O7 0.124730 0.744146 0.786487
O O8 0.922764 0.757820 0.644918
O O9 0.216478 0.500000 0.690932
O O10 0.343823 0.742034 0.780599
O O11 0.304736 0.500000 0.566995
O O12 0.250000 0.250000 0.500000
O O13 0.695816 0.500000 0.019696
O O14 0.718024 0.763603 0.072722
O O15 0.750000 0.750000 0.000000
O O16 0.538527 0.718796 0.924344
O O17 0.476944 0.500000 0.837523
O O18 0.553318 0.253660 0.838228
O O19 0.352986 0.500000 0.158105
#
# Coordination Sequence:
#
# PCOD8090094 Si02
#       7
#     8   8   8   8   8   8   8
#     4  11  24  41  62  89 119 150 188 234 283 336
#     4  11  23  38  58  85 116 151 193 238 286 341
#     4  10  21  38  59  83 113 150 192 237 287 342
#     4  12  25  42  64  88 118 153 190 233 281 337
#     4   9  16  29  51  78 109 143 184 235 288 345
#     4   8  16  32  54  79 105 140 186 233 283 339
#     4  10  19  33  55  81 111 148 191 238 289 345
#
# _framework density 19.702110999999999
#
# number of rings (size 3 to 8) (size 9 to 14) (size 15 to 20)
#    0.000    1.857    0.000    5.571    0.000    5.714 
#    0.000    4.286    0.000    4.286    0.000    0.000 
#    0.000    0.000    0.000    0.000    0.000    0.000 
#
# Total GULP energy -347160.793756 kJ/mol
# GULP energy per Si atom -12398.599777 kJ/mol
# Density = 1.965727 g / cm^3
# Si number density = 19.702111 Si / 1000 Ang^3
#
#
#
# Elastic Constant Matrix: (Units=GPa)
#
#
# Indices 1 2 3 4 5 6 
#
# 1 72.8941 40.0575 52.0476 0.0000 -5.8283 0.0001
# 2 40.0575 90.0179 48.6480 0.0001 -5.7644 -0.0002
# 3 52.0476 48.6480 166.7965 0.0000 -7.7551 0.0000
# 4 0.0000 0.0001 0.0000 28.7257 0.0000 -9.3077
# 5 -5.8283 -5.7644 -7.7551 0.0000 33.3731 0.0000
# 6 0.0001 -0.0002 0.0000 -9.3077 0.0000 23.2510
#
#
#
# Elastic Compliance Matrix: (Units=1/GPa)
#
#
# Indices 1 2 3 4 5 6 
#
# 1 0.020688 -0.006722 -0.004429 0.000000 0.001423 0.000000
# 2 -0.006722 0.015436 -0.002361 0.000000 0.000944 0.000000
# 3 -0.004429 -0.002361 0.008099 0.000000 0.000701 0.000000
# 4 0.000000 0.000000 0.000000 0.040000 0.000000 0.016013
# 5 0.001423 0.000944 0.000701 0.000000 0.030539 0.000000
# 6 0.000000 0.000000 0.000000 0.016013 0.000000 0.049419
#
#
# Mechanical properties :
#
#
# Convention : Reuss Voigt Hill
#
# Bulk Modulus (GPa) = 58.13877 67.91275 63.02576
# Shear Modulus (GPa) = 25.38873 29.66697 27.52785
#
# Velocity S-wave (km/s) = 3.59364 3.88464 3.74197
# Velocity P-wave (km/s) = 6.84047 7.39359 7.12240
#
# Compressibility (1/GPa) = 0.01720023
#
# Stress axis : x y z
#
# Youngs Moduli (GPa) = 48.33616 64.78251 123.47889
#
# Poissons Ratio (x) = 0.43544 0.54690
# Poissons Ratio (y) = 0.32489 0.29152
# Poissons Ratio (z) = 0.21409 0.15294
#
# Static dielectric constant tensor:
#      x y z
#    x 7.138120 0.000000 2.302040 
#    y 0.000000 3.607250 0.000000 
#    z 2.302040 0.000000 5.529510 
# 
# 
# High freq. dielectric constant tensor:
#      x y z
#    x 1.749900 0.000000 -0.001760 
#    y 0.000000 1.765470 0.000000 
#    z -0.001760 0.000000 1.794700 
# 
# From -- ./inp_files/377779.got.cif
#   From: 2010.06.25/outbox.cif.g09.slc.cpg/sg12_189_cif.got.tgz:377779.got - 2010.06.28 00:19:55.
