data_PCOD8090050
_publ_section_title
;
Structure prediction by ZEFSAII (Michael W. Deem and Ramdas Pophale) SiO2 
 PCOD8090050
Probable space group: C 2/M
;
_chemical_formula_sum "Si O2"
_cell_formula_units_Z 56
_cell_length_a 17.955378
_cell_length_b 8.229697
_cell_length_c 18.726296
_cell_angle_alpha 90.000000
_cell_angle_beta 104.041187
_cell_angle_gamma 90.000000
_cell_volume 2684.456946
_symmetry_space_group_name_H-M "C 2/M"
_symmetry_group_IT_number 12
_symmetry_cell_setting 'monoclinic'
loop_
_space_group_symop_operation_xyz
x,y,z
-x,y,-z
-x,-y,-z
x,-y,z
1/2+x,1/2+y,z
1/2-x,1/2+y,-z
1/2-x,1/2-y,-z
1/2+x,1/2-y,z
loop_
_atom_site_type_symbol
_atom_site_label
_atom_site_fract_x
_atom_site_fract_y
_atom_site_fract_z
Si Si1 0.972816 0.188405 0.568384
Si Si2 0.879502 0.306749 0.855082
Si Si3 0.952634 0.306520 0.144056
Si Si4 0.833862 0.307376 0.999721
Si Si5 0.089215 0.687723 0.708850
Si Si6 0.693210 0.693279 0.425631
Si Si7 0.246264 0.689382 0.286642
O O1 0.891386 0.260784 0.574469
O O2 0.000000 0.270683 0.500000
O O3 0.037147 0.211799 0.642779
O O4 0.959399 0.000000 0.551177
O O5 0.882336 0.500000 0.856571
O O6 0.856555 0.238065 0.927363
O O7 0.817831 0.245310 0.783119
O O8 0.962816 0.237140 0.853077
O O9 0.952482 0.500000 0.141629
O O10 0.925985 0.244123 0.215320
O O11 0.893695 0.236955 0.071532
O O12 0.836855 0.500000 0.999737
O O13 0.750000 0.250000 0.000000
O O14 0.065913 0.500000 0.697600
O O15 0.177595 0.708358 0.709593
O O16 0.695809 0.500000 0.415961
O O17 0.750000 0.750000 0.500000
O O18 0.717167 0.782190 0.359240
O O19 0.263887 0.500000 0.278792
#
# Coordination Sequence:
#
# PCOD8090050 Si02
#       7
#     8   8   8   8   8   8   8
#     4  10  22  40  60  83 112 145 181 225 278 332
#     4   9  18  33  55  81 107 144 191 231 274 331
#     4   9  18  33  54  81 110 141 183 234 280 328
#     4  10  19  33  55  80 109 144 183 229 278 331
#     4  11  22  36  57  84 113 146 187 233 282 337
#     4  11  23  39  61  88 117 149 186 228 277 334
#     4  11  22  37  57  81 114 151 189 234 279 330
#
# _framework density 20.86083
#
# number of rings (size 3 to 8) (size 9 to 14) (size 15 to 20)
#    0.000    1.857    0.000    4.286    0.000    5.429 
#    0.000    1.429    0.000    5.143    0.000    0.000 
#    0.000    0.000    0.000    0.000    0.000    0.000 
#
# Total GULP energy -347298.921184 kJ/mol
# GULP energy per Si atom -12403.532899 kJ/mol
# Density = 2.081335 g / cm^3
# Si number density = 20.860830 Si / 1000 Ang^3
#
#
#
# Elastic Constant Matrix: (Units=GPa)
#
#
# Indices 1 2 3 4 5 6 
#
# 1 191.5400 -2.3412 90.0096 0.0000 -2.3757 0.0000
# 2 -2.3412 18.7696 -1.7634 0.0000 -1.5390 0.0000
# 3 90.0096 -1.7634 195.7120 0.0000 -2.5932 0.0000
# 4 0.0000 0.0000 0.0000 17.2451 0.0000 1.1121
# 5 -2.3757 -1.5390 -2.5932 0.0000 50.8083 0.0000
# 6 0.0000 0.0000 0.0000 1.1121 0.0000 22.9113
#
#
#
# Elastic Compliance Matrix: (Units=1/GPa)
#
#
# Indices 1 2 3 4 5 6 
#
# 1 0.006667 0.000558 -0.003059 0.000000 0.000173 0.000000
# 2 0.000558 0.053507 0.000247 0.000000 0.001659 0.000000
# 3 -0.003059 0.000247 0.006521 0.000000 0.000197 0.000000
# 4 0.000000 0.000000 0.000000 0.058170 0.000000 -0.002823
# 5 0.000173 0.001659 0.000197 0.000000 0.019750 0.000000
# 6 0.000000 0.000000 0.000000 -0.002823 0.000000 0.043784
#
#
# Mechanical properties :
#
#
# Convention : Reuss Voigt Hill
#
# Bulk Modulus (GPa) = 16.08015 64.20352 40.14184
# Shear Modulus (GPa) = 23.40440 39.53402 31.46921
#
# Velocity S-wave (km/s) = 3.35316 4.35803 3.88820
# Velocity P-wave (km/s) = 4.76619 7.49448 6.28028
#
# Compressibility (1/GPa) = 0.06218847
#
# Stress axis : x y z
#
# Youngs Moduli (GPa) = 149.98504 18.68927 153.34437
#
# Poissons Ratio (x) = -0.01044 0.46909
# Poissons Ratio (y) = -0.08375 -0.03792
# Poissons Ratio (z) = 0.45881 -0.00462
#
# Static dielectric constant tensor:
#      x y z
#    x 3.973370 0.000000 -0.057320 
#    y 0.000000 3.391740 0.000000 
#    z -0.057320 0.000000 3.985190 
# 
# 
# High freq. dielectric constant tensor:
#      x y z
#    x 1.836050 0.000000 -0.001790 
#    y 0.000000 1.781720 0.000000 
#    z -0.001790 0.000000 1.836360 
# 
# From -- ./inp_files/275573.got.cif
#   From: 2010.06.25/outbox.cif.g09.slc.cpg/sg12_138_cif.got.tgz:275573.got - 2010.06.28 00:19:55.
