data_PCOD8090079
_publ_section_title
;
Structure prediction by ZEFSAII (Michael W. Deem and Ramdas Pophale) SiO2 
 PCOD8090079
Probable space group: C 2/M
;
_chemical_formula_sum "Si O2"
_cell_formula_units_Z 64
_cell_length_a 28.796432
_cell_length_b 8.973361
_cell_length_c 15.480851
_cell_angle_alpha 90.000000
_cell_angle_beta 125.896043
_cell_angle_gamma 90.000000
_cell_volume 3240.542378
_symmetry_space_group_name_H-M "C 2/M"
_symmetry_group_IT_number 12
_symmetry_cell_setting 'monoclinic'
loop_
_space_group_symop_operation_xyz
x,y,z
-x,y,-z
-x,-y,-z
x,-y,z
1/2+x,1/2+y,z
1/2-x,1/2+y,-z
1/2-x,1/2-y,-z
1/2+x,1/2-y,z
loop_
_atom_site_type_symbol
_atom_site_label
_atom_site_fract_x
_atom_site_fract_y
_atom_site_fract_z
Si Si1 0.633171 0.670546 0.995697
Si Si2 0.003542 0.170039 0.909163
Si Si3 0.807309 0.824741 0.595667
Si Si4 0.049092 0.677173 0.485949
Si Si5 0.667603 0.176644 0.692522
Si Si6 0.309181 0.175801 0.090019
Si Si7 0.430792 0.322696 0.669987
Si Si8 0.211270 0.176486 0.234683
O O1 0.651029 0.500000 0.995663
O O2 0.671804 0.739312 0.114799
O O3 0.567681 0.682860 0.947674
O O4 0.641578 0.771455 0.920989
O O5 0.962317 0.240348 0.790698
O O6 0.983143 0.000000 0.898756
O O7 0.000000 0.249076 0.000000
O O8 0.750000 0.750000 0.500000
O O9 0.863611 0.776368 0.603242
O O10 0.815917 0.773448 0.704273
O O11 0.797979 0.000000 0.579887
O O12 0.048493 0.500000 0.474826
O O13 0.109745 0.740217 0.587016
O O14 0.039618 0.748901 0.381358
O O15 0.000000 0.727998 0.500000
O O16 0.671675 0.231832 0.795166
O O17 0.723493 0.237206 0.702368
O O18 0.665041 0.000000 0.686233
O O19 0.301522 0.000000 0.079016
O O20 0.250000 0.250000 0.000000
O O21 0.438380 0.500000 0.671439
O O22 0.211733 0.000000 0.227164
#
# Coordination Sequence:
#
# PCOD8090079 Si02
#       8
#     8   8   8   8   8   8   8   8
#     4  10  19  33  55  81 108 142 186 225 270 330
#     4   9  18  34  58  86 115 149 189 227 270 336
#     4  10  20  34  56  81 108 141 179 223 274 327
#     4  10  22  39  59  80 105 149 201 234 269 332
#     4   9  18  33  53  76 105 140 184 229 268 322
#     4  11  21  35  55  81 113 144 181 229 281 333
#     4  10  21  37  56  85 118 145 181 235 289 327
#     4   9  16  30  53  77 102 137 177 217 264 324
#
# _framework density 19.749780000000001
#
# number of rings (size 3 to 8) (size 9 to 14) (size 15 to 20)
#    0.000    2.250    1.250    1.875    1.750    4.750 
#    0.000    1.875    0.000    3.000    0.000    0.000 
#    0.000    0.000    0.000    0.000    0.000    0.000 
#
# Total GULP energy -396720.460881 kJ/mol
# GULP energy per Si atom -12397.514403 kJ/mol
# Density = 1.970483 g / cm^3
# Si number density = 19.749780 Si / 1000 Ang^3
#
#
#
# Elastic Constant Matrix: (Units=GPa)
#
#
# Indices 1 2 3 4 5 6 
#
# 1 115.6473 26.1521 57.4717 0.0000 -15.0484 0.0000
# 2 26.1521 28.3845 23.9546 0.0000 -6.5324 0.0000
# 3 57.4717 23.9546 132.9101 0.0000 -6.7432 0.0000
# 4 0.0000 0.0000 0.0000 22.0232 0.0000 -3.5780
# 5 -15.0484 -6.5324 -6.7432 0.0000 42.5801 0.0000
# 6 0.0000 0.0000 0.0000 -3.5780 0.0000 23.4436
#
#
#
# Elastic Compliance Matrix: (Units=1/GPa)
#
#
# Indices 1 2 3 4 5 6 
#
# 1 0.012721 -0.007756 -0.003967 0.000000 0.002678 0.000000
# 2 -0.007756 0.047469 -0.005011 0.000000 0.003748 0.000000
# 3 -0.003967 -0.005011 0.010113 0.000000 -0.000569 0.000000
# 4 0.000000 0.000000 0.000000 0.046561 0.000000 0.007106
# 5 0.002678 0.003748 -0.000569 0.000000 0.024916 0.000000
# 6 0.000000 0.000000 0.000000 0.007106 0.000000 0.043740
#
#
# Mechanical properties :
#
#
# Convention : Reuss Voigt Hill
#
# Bulk Modulus (GPa) = 27.14891 54.67766 40.91329
# Shear Modulus (GPa) = 21.62002 28.90028 25.26015
#
# Velocity S-wave (km/s) = 3.31221 3.82949 3.58020
# Velocity P-wave (km/s) = 5.32953 6.87740 6.15234
#
# Compressibility (1/GPa) = 0.03683388
#
# Stress axis : x y z
#
# Youngs Moduli (GPa) = 78.61201 21.06660 98.87799
#
# Poissons Ratio (x) = 0.16340 0.39223
# Poissons Ratio (y) = 0.60974 0.49550
# Poissons Ratio (z) = 0.31184 0.10557
#
# Static dielectric constant tensor:
#      x y z
#    x 3.808410 0.000000 -0.194000 
#    y 0.000000 3.192700 0.000000 
#    z -0.194000 0.000000 10.438060 
# 
# 
# High freq. dielectric constant tensor:
#      x y z
#    x 1.785240 0.000000 -0.003730 
#    y 0.000000 1.714900 0.000000 
#    z -0.003730 0.000000 1.785300 
# 
# From -- ./inp_files/249138.got.cif
#   From: 2010.06.25/outbox.cif.g09.slc.cpg/sg12_125_cif.got.tgz:249138.got - 2010.06.28 00:19:55.
