data_PCOD8090583
_publ_section_title
;
Structure prediction by ZEFSAII (Michael W. Deem and Ramdas Pophale) SiO2 
 PCOD8090583
Probable space group: C 2/M
;
_chemical_formula_sum "Si O2"
_cell_formula_units_Z 40
_cell_length_a 18.189823
_cell_length_b 15.851327
_cell_length_c 17.464652
_cell_angle_alpha 90.000000
_cell_angle_beta 24.864624
_cell_angle_gamma 90.000000
_cell_volume 2117.361129
_symmetry_space_group_name_H-M "C 2/M"
_symmetry_group_IT_number 12
_symmetry_cell_setting 'monoclinic'
loop_
_space_group_symop_operation_xyz
x,y,z
-x,y,-z
-x,-y,-z
x,-y,z
1/2+x,1/2+y,z
1/2-x,1/2+y,-z
1/2-x,1/2-y,-z
1/2+x,1/2-y,z
loop_
_atom_site_type_symbol
_atom_site_label
_atom_site_fract_x
_atom_site_fract_y
_atom_site_fract_z
Si Si1 0.000000 0.855770 0.500000
Si Si2 0.153398 0.000000 0.274310
Si Si3 0.228057 0.662007 0.065430
Si Si4 0.308071 0.500000 0.498184
Si Si5 0.588373 0.000000 0.106380
Si Si6 0.067217 0.266772 0.574357
Si Si7 0.606407 0.655566 0.683767
O O1 0.064526 0.800033 0.509282
O O2 0.159375 0.915595 0.320780
O O3 0.316437 0.000000 0.064943
O O4 0.964101 0.000000 0.411590
O O5 0.142047 0.586025 0.098395
O O6 0.109869 0.675824 0.254105
O O7 0.250000 0.750000 0.000000
O O8 0.426546 0.633831 0.898924
O O9 0.318568 0.578635 0.433520
O O10 0.117664 0.500000 0.717775
O O11 0.245748 0.319378 0.393773
O O12 0.071871 0.228914 0.655072
#
# Coordination Sequence:
#
# PCOD8090583 Si02
#       7
#     4   4   8   4   4   8   8
#     4  11  22  40  58  79 134 168 186 231 314 383
#     4  11  22  38  56  86 126 165 185 239 311 378
#     4  10  19  33  57  86 115 150 201 255 298 340
#     4  12  19  35  61  90 119 148 200 258 300 345
#     4  12  21  35  61  96 119 150 209 258 302 350
#     4  10  20  35  54  84 112 156 198 238 290 358
#     4  10  19  34  58  82 111 148 202 252 290 335
#
# _framework density 18.891439999999999
#
# number of rings (size 3 to 8) (size 9 to 14) (size 15 to 20)
#    0.000    1.400    6.000    1.200    0.000    0.000 
#    0.000    5.000    0.000    2.400    0.000    2.800 
#    0.000    0.000    0.000    0.000    0.000    0.000 
#
# Total GULP energy -247775.281307 kJ/mol
# GULP energy per Si atom -12388.764065 kJ/mol
# Density = 1.884844 g / cm^3
# Si number density = 18.891440 Si / 1000 Ang^3
#
#
#
# Elastic Constant Matrix: (Units=GPa)
#
#
# Indices 1 2 3 4 5 6 
#
# 1 51.2368 17.3489 47.2126 -0.0008 8.2089 0.0012
# 2 17.3489 63.7656 38.2411 0.0017 16.1150 -0.0015
# 3 47.2126 38.2411 192.1190 0.0075 -7.7532 -0.0020
# 4 -0.0008 0.0017 0.0075 24.7995 -0.0037 10.1087
# 5 8.2089 16.1150 -7.7532 -0.0037 20.5277 0.0013
# 6 0.0012 -0.0015 -0.0020 10.1087 0.0013 40.3331
#
#
#
# Elastic Compliance Matrix: (Units=1/GPa)
#
#
# Indices 1 2 3 4 5 6 
#
# 1 0.028940 0.000628 -0.007843 0.000001 -0.015028 -0.000001
# 2 0.000628 0.024566 -0.005923 -0.000004 -0.021774 0.000002
# 3 -0.007843 -0.005923 0.008759 -0.000001 0.011094 0.000000
# 4 0.000001 -0.000004 -0.000001 0.044912 0.000011 -0.011256
# 5 -0.015028 -0.021774 0.011094 0.000011 0.076008 -0.000005
# 6 -0.000001 0.000002 0.000000 -0.011256 -0.000005 0.027615
#
#
# Mechanical properties :
#
#
# Convention : Reuss Voigt Hill
#
# Bulk Modulus (GPa) = 27.78653 56.96961 42.37807
# Shear Modulus (GPa) = 20.07454 30.75332 25.41393
#
# Velocity S-wave (km/s) = 3.26333 4.03910 3.67176
# Velocity P-wave (km/s) = 5.37955 7.20931 6.36057
#
# Compressibility (1/GPa) = 0.03598867
#
# Stress axis : x y z
#
# Youngs Moduli (GPa) = 34.55475 40.70617 114.16508
#
# Poissons Ratio (x) = -0.02556 0.89543
# Poissons Ratio (y) = -0.02170 0.67619
# Poissons Ratio (z) = 0.27102 0.24110
#
# Static dielectric constant tensor:
#      x y z
#    x 3.064140 -0.000010 -0.179610 
#    y -0.000010 3.636980 0.000020 
#    z -0.179610 0.000020 4.199080 
# 
# 
# High freq. dielectric constant tensor:
#      x y z
#    x 1.675530 0.000000 -0.008140 
#    y 0.000000 1.743200 0.000000 
#    z -0.008140 0.000000 1.757070 
# 
# From -- ./inp_files/322090.got.cif
#   From: 2010.06.25/outbox.cif.g09.slc.cpg/sg12_162_cif.got.tgz:322090.got - 2010.06.28 00:19:55.
