data_PCOD8090873
_publ_section_title
;
Structure prediction by ZEFSAII (Michael W. Deem and Ramdas Pophale) SiO2 
 PCOD8090873
Probable space group: C 2/M
;
_chemical_formula_sum "Si O2"
_cell_formula_units_Z 44
_cell_length_a 24.896166
_cell_length_b 17.275354
_cell_length_c 6.362724
_cell_angle_alpha 90.000000
_cell_angle_beta 60.927829
_cell_angle_gamma 90.000000
_cell_volume 2391.762689
_symmetry_space_group_name_H-M "C 2/M"
_symmetry_group_IT_number 12
_symmetry_cell_setting 'monoclinic'
loop_
_space_group_symop_operation_xyz
x,y,z
-x,y,-z
-x,-y,-z
x,-y,z
1/2+x,1/2+y,z
1/2-x,1/2+y,-z
1/2-x,1/2-y,-z
1/2+x,1/2-y,z
loop_
_atom_site_type_symbol
_atom_site_label
_atom_site_fract_x
_atom_site_fract_y
_atom_site_fract_z
Si Si1 0.901634 0.588823 0.871741
Si Si2 0.177959 0.799481 0.208919
Si Si3 0.500000 0.148503 0.000000
Si Si4 0.267094 0.910868 0.290169
Si Si5 0.559240 0.222415 0.507232
Si Si6 0.752712 0.188233 0.308875
O O1 0.900510 0.500000 0.795283
O O2 0.916046 0.643974 0.649025
O O3 0.954994 0.596058 0.945037
O O4 0.835432 0.613339 0.090456
O O5 0.214029 0.866229 0.264311
O O6 0.106622 0.794496 0.406738
O O7 0.203497 0.713603 0.224775
O O8 0.183481 0.813111 0.945224
O O9 0.456552 0.203481 0.222609
O O10 0.261203 0.893561 0.552971
O O11 0.254409 0.000000 0.274810
O O12 0.500000 0.254038 0.500000
O O13 0.750000 0.250000 0.500000
#
# Coordination Sequence:
#
# PCOD8090873 Si02
#       6
#     8   8   4   8   8   8
#     4  10  20  33  48  72 106 138 169 203 242 295
#     4  10  19  34  53  73 102 133 165 212 260 297
#     4  10  21  34  50  70  99 138 174 206 247 292
#     4  10  21  34  52  79 106 134 169 206 251 306
#     4  10  21  34  50  74  99 132 176 212 246 295
#     4   9  17  30  52  75  98 130 165 204 253 302
#
# _framework density 18.396474000000001
#
# number of rings (size 3 to 8) (size 9 to 14) (size 15 to 20)
#    0.000    2.182    0.000    4.636    0.000    9.091 
#    0.000    4.545    0.000    0.545    0.000    1.909 
#    0.000    0.000    0.000    0.000    0.000    0.000 
#
# Total GULP energy -272629.055458 kJ/mol
# GULP energy per Si atom -12392.229794 kJ/mol
# Density = 1.835460 g / cm^3
# Si number density = 18.396474 Si / 1000 Ang^3
#
#
#
# Elastic Constant Matrix: (Units=GPa)
#
#
# Indices 1 2 3 4 5 6 
#
# 1 84.1442 46.1568 49.1693 0.0000 -18.8039 0.0000
# 2 46.1568 66.7282 46.7328 0.0000 -11.5631 0.0000
# 3 49.1693 46.7328 158.7110 0.0000 -6.0253 0.0000
# 4 0.0000 0.0000 0.0000 29.3301 0.0000 -4.4627
# 5 -18.8039 -11.5631 -6.0253 0.0000 33.2870 0.0000
# 6 0.0000 0.0000 0.0000 -4.4627 0.0000 25.6073
#
#
#
# Elastic Compliance Matrix: (Units=1/GPa)
#
#
# Indices 1 2 3 4 5 6 
#
# 1 0.021723 -0.011568 -0.003031 0.000000 0.007704 0.000000
# 2 -0.011568 0.026133 -0.004042 0.000000 0.001811 0.000000
# 3 -0.003031 -0.004042 0.008369 0.000000 -0.001602 0.000000
# 4 0.000000 0.000000 0.000000 0.035023 0.000000 0.006104
# 5 0.007704 0.001811 -0.001602 0.000000 0.034733 0.000000
# 6 0.000000 0.000000 0.000000 0.006104 0.000000 0.040115
#
#
# Mechanical properties :
#
#
# Convention : Reuss Voigt Hill
#
# Bulk Modulus (GPa) = 52.79272 65.96679 59.37976
# Shear Modulus (GPa) = 23.84429 28.81318 26.32874
#
# Velocity S-wave (km/s) = 3.60409 3.96186 3.78720
# Velocity P-wave (km/s) = 6.78814 7.54087 7.17438
#
# Compressibility (1/GPa) = 0.01894201
#
# Stress axis : x y z
#
# Youngs Moduli (GPa) = 46.03434 38.26590 119.48503
#
# Poissons Ratio (x) = 0.44267 0.36217
# Poissons Ratio (y) = 0.53253 0.48299
# Poissons Ratio (z) = 0.13953 0.15468
#
# Static dielectric constant tensor:
#      x y z
#    x 3.370740 0.000000 -0.024980 
#    y 0.000000 3.235130 0.000000 
#    z -0.024980 0.000000 3.966210 
# 
# 
# High freq. dielectric constant tensor:
#      x y z
#    x 1.705780 0.000000 0.003280 
#    y 0.000000 1.676150 0.000000 
#    z 0.003280 0.000000 1.731990 
# 
# From -- ./inp_files/28679.got.cif
#   From: 2010.06.25/outbox.cif.g09.slc.cpg/sg12_15_cif.got.tgz:28679.got - 2010.06.28 00:19:55.
