data_PCOD8090963
_publ_section_title
;
Structure prediction by ZEFSAII (Michael W. Deem and Ramdas Pophale) SiO2 
 PCOD8090963
Probable space group: C 2/M
;
_chemical_formula_sum "Si O2"
_cell_formula_units_Z 64
_cell_length_a 24.162992
_cell_length_b 10.209184
_cell_length_c 18.475959
_cell_angle_alpha 90.000000
_cell_angle_beta 49.235166
_cell_angle_gamma 90.000000
_cell_volume 3452.007370
_symmetry_space_group_name_H-M "C 2/M"
_symmetry_group_IT_number 12
_symmetry_cell_setting 'monoclinic'
loop_
_space_group_symop_operation_xyz
x,y,z
-x,y,-z
-x,-y,-z
x,-y,z
1/2+x,1/2+y,z
1/2-x,1/2+y,-z
1/2-x,1/2-y,-z
1/2+x,1/2-y,z
loop_
_atom_site_type_symbol
_atom_site_label
_atom_site_fract_x
_atom_site_fract_y
_atom_site_fract_z
Si Si1 0.823947 0.347479 0.250418
Si Si2 0.239469 0.139983 0.589399
Si Si3 0.373173 0.730079 0.423067
Si Si4 0.875041 0.654313 0.916854
Si Si5 0.040135 0.647181 0.775282
Si Si6 0.005205 0.848740 0.575970
Si Si7 0.626532 0.651707 0.213590
Si Si8 0.285327 0.148649 0.128363
O O1 0.799214 0.500000 0.276961
O O2 0.774900 0.263579 0.347078
O O3 0.908633 0.328905 0.198927
O O4 0.813330 0.287850 0.179351
O O5 0.323648 0.147442 0.490711
O O6 0.184564 0.134196 0.567286
O O7 0.230594 0.000000 0.637397
O O8 0.436637 0.764430 0.312028
O O9 0.414658 0.669780 0.457143
O O10 0.859967 0.500000 0.910889
O O11 0.858616 0.748571 0.864045
O O12 0.958336 0.677701 0.870352
O O13 0.823666 0.710165 0.024909
O O14 0.047572 0.500000 0.740516
O O15 0.000000 0.783407 0.500000
O O16 0.941376 0.791950 0.682090
O O17 0.987240 0.000000 0.582386
O O18 0.614281 0.500000 0.197719
O O19 0.698172 0.659507 0.202064
O O20 0.312684 0.000000 0.105663
#
# Coordination Sequence:
#
# PCOD8090963 Si02
#       8
#     8   8   8   8   8   8   8   8
#     4   9  19  35  54  78 107 141 177 216 264 311
#     4  10  21  34  54  82 109 139 174 216 262 315
#     4  10  19  34  54  75 107 140 174 212 261 314
#     4  10  19  34  56  80 106 138 176 218 266 317
#     4   9  17  31  53  78 104 136 172 214 259 312
#     4  10  21  34  53  79 105 139 181 218 255 306
#     4  10  20  36  55  78 106 137 179 223 258 304
#     4   9  19  34  55  80 105 137 179 224 262 305
#
# _framework density 18.539937999999999
#
# number of rings (size 3 to 8) (size 9 to 14) (size 15 to 20)
#    0.000    2.375    1.250    1.125    1.750    4.000 
#    0.000    3.750    0.000    1.875    0.000    2.625 
#    0.000    0.000    0.000    0.000    0.000    0.000 
#
# Total GULP energy -396555.260038 kJ/mol
# GULP energy per Si atom -12392.351876 kJ/mol
# Density = 1.849774 g / cm^3
# Si number density = 18.539938 Si / 1000 Ang^3
#
#
#
# Elastic Constant Matrix: (Units=GPa)
#
#
# Indices 1 2 3 4 5 6 
#
# 1 103.5791 22.5334 50.3194 -0.0001 11.9985 -0.0001
# 2 22.5334 63.5851 27.1276 -0.0012 9.4309 0.0008
# 3 50.3194 27.1276 95.4497 -0.0002 5.8314 0.0000
# 4 -0.0001 -0.0012 -0.0002 18.6921 0.0000 2.4247
# 5 11.9985 9.4309 5.8314 0.0000 36.4137 0.0000
# 6 -0.0001 0.0008 0.0000 2.4247 0.0000 10.7178
#
#
#
# Elastic Compliance Matrix: (Units=1/GPa)
#
#
# Indices 1 2 3 4 5 6 
#
# 1 0.013494 -0.001571 -0.006484 0.000000 -0.003001 0.000000
# 2 -0.001571 0.018633 -0.004246 0.000001 -0.003628 -0.000002
# 3 -0.006484 -0.004246 0.015051 0.000000 0.000826 0.000000
# 4 0.000000 0.000001 0.000000 0.055116 0.000000 -0.012469
# 5 -0.003001 -0.003628 0.000826 0.000000 0.029259 0.000000
# 6 0.000000 -0.000002 0.000000 -0.012469 0.000000 0.096124
#
#
# Mechanical properties :
#
#
# Convention : Reuss Voigt Hill
#
# Bulk Modulus (GPa) = 44.29272 51.39719 47.84496
# Shear Modulus (GPa) = 19.24531 24.00694 21.62612
#
# Velocity S-wave (km/s) = 3.22537 3.60234 3.41906
# Velocity P-wave (km/s) = 6.14922 6.71454 6.43809
#
# Compressibility (1/GPa) = 0.02257707
#
# Stress axis : x y z
#
# Youngs Moduli (GPa) = 74.10862 53.66768 66.43961
#
# Poissons Ratio (x) = 0.08429 0.43079
# Poissons Ratio (y) = 0.11639 0.28211
# Poissons Ratio (z) = 0.48052 0.22788
#
# Static dielectric constant tensor:
#      x y z
#    x 3.477720 0.000000 -0.025570 
#    y 0.000000 3.147120 0.000000 
#    z -0.025570 0.000000 3.517970 
# 
# 
# High freq. dielectric constant tensor:
#      x y z
#    x 1.725480 0.000000 -0.009340 
#    y 0.000000 1.687570 0.000000 
#    z -0.009340 0.000000 1.717980 
# 
# From -- ./inp_files/289080.got.cif
#   From: 2010.06.25/outbox.cif.g09.slc.cpg/sg12_145_cif.got.tgz:289080.got - 2010.06.28 00:19:55.
