data_PCOD8090639
_publ_section_title
;
Structure prediction by ZEFSAII (Michael W. Deem and Ramdas Pophale) SiO2 
 PCOD8090639
Probable space group: C 2/M
;
_chemical_formula_sum "Si O2"
_cell_formula_units_Z 44
_cell_length_a 14.053822
_cell_length_b 13.764887
_cell_length_c 13.815013
_cell_angle_alpha 90.000000
_cell_angle_beta 77.571826
_cell_angle_gamma 90.000000
_cell_volume 2609.878260
_symmetry_space_group_name_H-M "C 2/M"
_symmetry_group_IT_number 12
_symmetry_cell_setting 'monoclinic'
loop_
_space_group_symop_operation_xyz
x,y,z
-x,y,-z
-x,-y,-z
x,-y,z
1/2+x,1/2+y,z
1/2-x,1/2+y,-z
1/2-x,1/2-y,-z
1/2+x,1/2-y,z
loop_
_atom_site_type_symbol
_atom_site_label
_atom_site_fract_x
_atom_site_fract_y
_atom_site_fract_z
Si Si1 0.133358 0.887090 0.330834
Si Si2 0.697198 0.227983 0.782963
Si Si3 0.005879 0.262064 0.704808
Si Si4 0.000000 0.794479 0.500000
Si Si5 0.342512 0.111085 0.815910
Si Si6 0.388682 0.888433 0.025439
O O1 0.242610 0.846470 0.297496
O O2 0.064930 0.832109 0.266452
O O3 0.090948 0.863079 0.447413
O O4 0.132103 0.000000 0.308643
O O5 0.600312 0.256312 0.747550
O O6 0.756494 0.326646 0.787382
O O7 0.673979 0.177395 0.889464
O O8 0.032703 0.272245 0.584211
O O9 0.948525 0.357582 0.752423
O O10 0.340482 0.123588 0.931458
O O11 0.325553 0.000000 0.789317
O O12 0.385263 0.000000 0.061746
O O13 0.500000 0.851536 0.000000
#
# Coordination Sequence:
#
# PCOD8090639 Si02
#       6
#     8   8   8   4   8   8
#     4   9  19  35  56  78 105 138 180 221 263 317
#     4  11  20  34  58  84 106 139 181 222 262 317
#     4   9  20  35  56  75 108 140 178 222 263 313
#     4   8  19  38  57  72 112 140 179 218 275 306
#     4  10  21  37  53  80 113 142 174 220 269 317
#     4  10  19  33  58  82 107 141 178 216 265 318
#
# _framework density 16.859024000000002
#
# number of rings (size 3 to 8) (size 9 to 14) (size 15 to 20)
#    1.091    1.273    1.818    1.364    0.000    2.182 
#    0.000    0.455    0.000    0.545    0.000    0.000 
#    0.000    0.000    0.000    0.000    0.000    0.000 
#
# Total GULP energy -272689.076273 kJ/mol
# GULP energy per Si atom -12394.958012 kJ/mol
# Density = 1.682065 g / cm^3
# Si number density = 16.859024 Si / 1000 Ang^3
#
#
#
# Elastic Constant Matrix: (Units=GPa)
#
#
# Indices 1 2 3 4 5 6 
#
# 1 97.9455 42.4688 26.8044 0.0000 0.6529 0.0000
# 2 42.4688 104.3508 48.4605 0.0000 -6.1336 0.0000
# 3 26.8044 48.4605 69.0516 0.0000 -1.3045 0.0000
# 4 0.0000 0.0000 0.0000 20.5491 0.0000 -4.0013
# 5 0.6529 -6.1336 -1.3045 0.0000 29.4500 0.0000
# 6 0.0000 0.0000 0.0000 -4.0013 0.0000 16.8836
#
#
#
# Elastic Compliance Matrix: (Units=1/GPa)
#
#
# Indices 1 2 3 4 5 6 
#
# 1 0.012612 -0.004335 -0.001877 0.000000 -0.001266 0.000000
# 2 -0.004335 0.015896 -0.009417 0.000000 0.002990 0.000000
# 3 -0.001877 -0.009417 0.021801 0.000000 -0.000954 0.000000
# 4 0.000000 0.000000 0.000000 0.051018 0.000000 0.012091
# 5 -0.001266 0.002990 -0.000954 0.000000 0.034564 0.000000
# 6 0.000000 0.000000 0.000000 0.012091 0.000000 0.062094
#
#
# Mechanical properties :
#
#
# Convention : Reuss Voigt Hill
#
# Bulk Modulus (GPa) = 52.49038 56.31283 54.40160
# Shear Modulus (GPa) = 21.22291 23.61750 22.42020
#
# Velocity S-wave (km/s) = 3.55187 3.74690 3.65069
# Velocity P-wave (km/s) = 6.92990 7.22452 7.07874
#
# Compressibility (1/GPa) = 0.01905111
#
# Stress axis : x y z
#
# Youngs Moduli (GPa) = 79.29161 62.90753 45.86930
#
# Poissons Ratio (x) = 0.27274 0.08609
# Poissons Ratio (y) = 0.34377 0.43194
# Poissons Ratio (z) = 0.14882 0.59238
#
# Static dielectric constant tensor:
#      x y z
#    x 3.038220 0.000000 -0.157840 
#    y 0.000000 3.011400 0.000000 
#    z -0.157840 0.000000 3.124880 
# 
# 
# High freq. dielectric constant tensor:
#      x y z
#    x 1.646340 0.000000 -0.012290 
#    y 0.000000 1.640690 0.000000 
#    z -0.012290 0.000000 1.648560 
# 
# From -- ./inp_files/203383.got.cif
#   From: 2010.06.25/outbox.cif.g09.slc.cpg/sg12_102_cif.got.tgz:203383.got - 2010.06.28 00:19:55.
