data_PCOD8090852
_publ_section_title
;
Structure prediction by ZEFSAII (Michael W. Deem and Ramdas Pophale) SiO2 
 PCOD8090852
Probable space group: C 2/M
;
_chemical_formula_sum "Si O2"
_cell_formula_units_Z 56
_cell_length_a 30.175327
_cell_length_b 8.795576
_cell_length_c 12.023602
_cell_angle_alpha 90.000000
_cell_angle_beta 120.140114
_cell_angle_gamma 90.000000
_cell_volume 2759.729963
_symmetry_space_group_name_H-M "C 2/M"
_symmetry_group_IT_number 12
_symmetry_cell_setting 'monoclinic'
loop_
_space_group_symop_operation_xyz
x,y,z
-x,y,-z
-x,-y,-z
x,-y,z
1/2+x,1/2+y,z
1/2-x,1/2+y,-z
1/2-x,1/2-y,-z
1/2+x,1/2-y,z
loop_
_atom_site_type_symbol
_atom_site_label
_atom_site_fract_x
_atom_site_fract_y
_atom_site_fract_z
Si Si1 0.839145 0.674137 0.366925
Si Si2 0.247235 0.320775 0.119653
Si Si3 0.941846 0.819307 0.912489
Si Si4 0.355317 0.323780 0.972667
Si Si5 0.510166 0.171128 0.388875
Si Si6 0.403044 0.676700 0.627223
Si Si7 0.603752 0.167530 0.776629
O O1 0.822024 0.500000 0.359010
O O2 0.793197 0.768603 0.256366
O O3 0.855551 0.737145 0.508736
O O4 0.888079 0.692755 0.345563
O O5 0.248689 0.500000 0.108033
O O6 0.196005 0.268794 0.120758
O O7 0.250000 0.250000 0.000000
O O8 0.904249 0.764535 0.963867
O O9 0.914470 0.760260 0.765268
O O10 0.945979 0.000000 0.914585
O O11 0.000000 0.752602 0.000000
O O12 0.344936 0.500000 0.937333
O O13 0.366296 0.295670 0.117026
O O14 0.500000 0.225027 0.500000
O O15 0.545109 0.295516 0.375169
O O16 0.455085 0.173237 0.260661
O O17 0.534364 0.000000 0.414326
O O18 0.389528 0.500000 0.611805
O O19 0.626339 0.000000 0.835499
#
# Coordination Sequence:
#
# PCOD8090852 Si02
#       7
#     8   8   8   8   8   8   8
#     4  11  22  39  60  86 122 160 197 246 307 364
#     4  12  24  40  62  92 126 160 202 252 307 366
#     4   9  20  40  63  89 124 164 206 255 302 354
#     4  11  22  38  63  90 120 160 206 253 307 362
#     4  10  19  34  52  77 116 158 194 238 302 364
#     4  11  22  37  59  88 121 159 206 256 305 364
#     4  10  20  34  55  82 118 157 196 247 303 361
#
# _framework density 20.291841999999999
#
# number of rings (size 3 to 8) (size 9 to 14) (size 15 to 20)
#    0.000    1.429    2.857    3.429    0.000    2.571 
#    0.000    3.571    0.000    5.143    0.000    0.000 
#    0.000    0.000    0.000    0.000    0.000    0.000 
#
# Total GULP energy -347134.224413 kJ/mol
# GULP energy per Si atom -12397.650872 kJ/mol
# Density = 2.024566 g / cm^3
# Si number density = 20.291842 Si / 1000 Ang^3
#
#
#
# Elastic Constant Matrix: (Units=GPa)
#
#
# Indices 1 2 3 4 5 6 
#
# 1 90.4985 34.6096 37.6328 0.0000 11.5696 0.0000
# 2 34.6096 94.7998 42.5112 0.0000 5.8522 0.0000
# 3 37.6328 42.5112 136.0696 0.0000 5.5871 0.0000
# 4 0.0000 0.0000 0.0000 29.2854 0.0000 7.6754
# 5 11.5696 5.8522 5.5871 0.0000 30.0356 0.0000
# 6 0.0000 0.0000 0.0000 7.6754 0.0000 27.2629
#
#
#
# Elastic Compliance Matrix: (Units=1/GPa)
#
#
# Indices 1 2 3 4 5 6 
#
# 1 0.014080 -0.003734 -0.002554 0.000000 -0.004221 0.000000
# 2 -0.003734 0.013343 -0.003112 0.000000 -0.000583 0.000000
# 3 -0.002554 -0.003112 0.009032 0.000000 -0.000090 0.000000
# 4 0.000000 0.000000 0.000000 0.036867 0.000000 -0.010379
# 5 -0.004221 -0.000583 -0.000090 0.000000 0.035050 0.000000
# 6 0.000000 0.000000 0.000000 -0.010379 0.000000 0.039602
#
#
# Mechanical properties :
#
#
# Convention : Reuss Voigt Hill
#
# Bulk Modulus (GPa) = 56.64522 61.20835 58.92678
# Shear Modulus (GPa) = 28.95883 31.09106 30.02495
#
# Velocity S-wave (km/s) = 3.78182 3.91857 3.85080
# Velocity P-wave (km/s) = 6.85897 7.12061 6.99101
#
# Compressibility (1/GPa) = 0.01765374
#
# Stress axis : x y z
#
# Youngs Moduli (GPa) = 71.02420 74.94350 110.72354
#
# Poissons Ratio (x) = 0.27987 0.28279
# Poissons Ratio (y) = 0.26523 0.34458
# Poissons Ratio (z) = 0.18140 0.23323
#
# Static dielectric constant tensor:
#      x y z
#    x 3.784540 0.000000 0.121530 
#    y 0.000000 3.492390 0.000000 
#    z 0.121530 0.000000 3.756700 
# 
# 
# High freq. dielectric constant tensor:
#      x y z
#    x 1.781820 0.000000 0.016450 
#    y 0.000000 1.777980 0.000000 
#    z 0.016450 0.000000 1.796310 
# 
# From -- ./inp_files/186406.got.cif
#   From: 2010.06.25/outbox.cif.g09.slc.cpg/sg12_94_cif.got.tgz:186406.got - 2010.06.28 00:19:55.
