data_PCOD8090069
_publ_section_title
;
Structure prediction by ZEFSAII (Michael W. Deem and Ramdas Pophale) SiO2 
 PCOD8090069
Probable space group: C 2/M
;
_chemical_formula_sum "Si O2"
_cell_formula_units_Z 40
_cell_length_a 16.491059
_cell_length_b 14.379740
_cell_length_c 26.129713
_cell_angle_alpha 90.000000
_cell_angle_beta 20.507922
_cell_angle_gamma 90.000000
_cell_volume 2170.801361
_symmetry_space_group_name_H-M "C 2/M"
_symmetry_group_IT_number 12
_symmetry_cell_setting 'monoclinic'
loop_
_space_group_symop_operation_xyz
x,y,z
-x,y,-z
-x,-y,-z
x,-y,z
1/2+x,1/2+y,z
1/2-x,1/2+y,-z
1/2-x,1/2-y,-z
1/2+x,1/2-y,z
loop_
_atom_site_type_symbol
_atom_site_label
_atom_site_fract_x
_atom_site_fract_y
_atom_site_fract_z
Si Si1 0.814486 0.187815 0.414733
Si Si2 0.474436 0.725551 0.210220
Si Si3 0.303290 0.895238 0.150491
Si Si4 0.610184 0.899492 0.379908
Si Si5 0.896992 0.607537 0.932462
O O1 0.750000 0.250000 0.500000
O O2 0.594864 0.119886 0.539097
O O3 0.855027 0.239337 0.336171
O O4 0.048133 0.140176 0.293563
O O5 0.300909 0.682675 0.269676
O O6 0.559735 0.827918 0.142822
O O7 0.683653 0.651127 0.090776
O O8 0.373377 0.888347 0.168565
O O9 0.295716 0.000000 0.135023
O O10 0.500000 0.842556 0.000000
O O11 0.500000 0.909522 0.500000
O O12 0.722337 0.000000 0.298586
O O13 0.844517 0.500000 0.947667
#
# Coordination Sequence:
#
# PCOD8090069 Si02
#       5
#     8   8   8   8   8
#     4  11  21  34  53  81 115 145 178 225 276 330
#     4  10  20  35  55  80 108 145 182 225 276 326
#     4  10  19  33  55  81 107 139 184 231 271 316
#     4   9  18  32  53  77 105 139 180 224 267 317
#     4  10  20  35  57  80 107 141 185 231 273 325
#
# _framework density 18.426376000000001
#
# number of rings (size 3 to 8) (size 9 to 14) (size 15 to 20)
#    0.000    2.000    2.000    2.400    0.000    1.600 
#    0.000    2.000    0.000    7.800    0.000    7.000 
#    0.000    0.000    0.000    0.000    0.000    0.000 
#
# Total GULP energy -247797.129222 kJ/mol
# GULP energy per Si atom -12389.856461 kJ/mol
# Density = 1.838444 g / cm^3
# Si number density = 18.426376 Si / 1000 Ang^3
#
#
#
# Elastic Constant Matrix: (Units=GPa)
#
#
# Indices 1 2 3 4 5 6 
#
# 1 82.4231 48.6881 47.1588 -0.0330 -8.8365 -0.0542
# 2 48.6881 122.4911 42.4409 -0.1038 2.8396 -0.0484
# 3 47.1588 42.4409 93.6586 -0.1175 -17.6280 -0.2385
# 4 -0.0330 -0.1038 -0.1175 27.7970 -0.0624 -6.1830
# 5 -8.8365 2.8396 -17.6280 -0.0624 41.5183 0.0028
# 6 -0.0542 -0.0484 -0.2385 -6.1830 0.0028 6.4107
#
#
#
# Elastic Compliance Matrix: (Units=1/GPa)
#
#
# Indices 1 2 3 4 5 6 
#
# 1 0.019518 -0.005320 -0.007138 -0.000070 0.001487 -0.000209
# 2 -0.005320 0.011431 -0.003110 0.000000 -0.003235 -0.000073
# 3 -0.007138 -0.003110 0.016778 0.000234 0.005817 0.000763
# 4 -0.000070 0.000000 0.000234 0.045805 0.000150 0.044185
# 5 0.001487 -0.003235 0.005817 0.000150 0.027094 0.000338
# 6 -0.000209 -0.000073 0.000763 0.044185 0.000338 0.198630
#
#
# Mechanical properties :
#
#
# Convention : Reuss Voigt Hill
#
# Bulk Modulus (GPa) = 60.27311 63.90537 62.08924
# Shear Modulus (GPa) = 14.04808 25.83089 19.93948
#
# Velocity S-wave (km/s) = 2.76414 3.74818 3.29312
# Velocity P-wave (km/s) = 6.55504 7.31359 6.94468
#
# Compressibility (1/GPa) = 0.01659115
#
# Stress axis : x y z
#
# Youngs Moduli (GPa) = 51.23447 87.48183 59.60280
#
# Poissons Ratio (x) = 0.46537 0.42544
# Poissons Ratio (y) = 0.27255 0.18539
# Poissons Ratio (z) = 0.36570 0.27210
#
# Static dielectric constant tensor:
#      x y z
#    x 4.373440 -0.000440 -0.240630 
#    y -0.000440 3.403580 -0.002100 
#    z -0.240630 -0.002100 3.170910 
# 
# 
# High freq. dielectric constant tensor:
#      x y z
#    x 1.705100 0.000000 -0.024160 
#    y 0.000000 1.699950 0.000020 
#    z -0.024160 0.000020 1.717670 
# 
# From -- ./inp_files/141809.got.cif
#   From: 2010.06.25/outbox.cif.g09.slc.cpg/sg12_71_cif.got.tgz:141809.got - 2010.06.28 00:19:55.
