data_PCOD8090934
_publ_section_title
;
Structure prediction by ZEFSAII (Michael W. Deem and Ramdas Pophale) SiO2 
 PCOD8090934
Probable space group: C 2/M
;
_chemical_formula_sum "Si O2"
_cell_formula_units_Z 40
_cell_length_a 12.651741
_cell_length_b 8.332857
_cell_length_c 22.154501
_cell_angle_alpha 90.000000
_cell_angle_beta 74.053766
_cell_angle_gamma 90.000000
_cell_volume 2245.765906
_symmetry_space_group_name_H-M "C 2/M"
_symmetry_group_IT_number 12
_symmetry_cell_setting 'monoclinic'
loop_
_space_group_symop_operation_xyz
x,y,z
-x,y,-z
-x,-y,-z
x,-y,z
1/2+x,1/2+y,z
1/2-x,1/2+y,-z
1/2-x,1/2-y,-z
1/2+x,1/2-y,z
loop_
_atom_site_type_symbol
_atom_site_label
_atom_site_fract_x
_atom_site_fract_y
_atom_site_fract_z
Si Si1 0.068724 0.000000 0.581718
Si Si2 0.574489 0.000000 0.125231
Si Si3 0.667628 0.500000 0.435210
Si Si4 0.289123 0.000000 0.711661
Si Si5 0.972305 0.500000 0.269923
Si Si6 0.689980 0.500000 0.855987
Si Si7 0.997075 0.821248 0.930089
Si Si8 0.179716 0.749849 0.646544
O O1 0.098657 0.846580 0.616259
O O2 0.137398 0.000000 0.509682
O O3 0.939353 0.000000 0.590103
O O4 0.495415 0.000000 0.195302
O O5 0.700047 0.000000 0.123503
O O6 0.558502 0.166660 0.091654
O O7 0.741911 0.652687 0.410068
O O8 0.262445 0.846541 0.675764
O O9 0.416517 0.000000 0.708782
O O10 0.211034 0.000000 0.781798
O O11 0.899781 0.653397 0.296814
O O12 0.621178 0.339745 0.884701
O O13 0.938865 0.000000 0.928241
O O14 0.000000 0.783128 0.000000
#
# Coordination Sequence:
#
# PCOD8090934 Si02
#       8
#     4   4   4   4   4   4   8   8
#     4  10  20  34  53  75  99 137 168 208 261 299
#     4  11  20  36  59  77 109 147 175 220 276 309
#     4  10  20  34  51  75 105 127 174 214 243 317
#     4  10  19  34  54  73 105 134 169 215 255 304
#     4  10  21  34  52  79 101 132 175 211 251 318
#     4   9  20  36  53  81 107 139 183 222 262 325
#     4   9  20  39  53  81 113 137 182 226 259 321
#     4  10  20  34  53  74 102 137 166 210 262 301
#
# _framework density 17.811295999999999
#
# number of rings (size 3 to 8) (size 9 to 14) (size 15 to 20)
#    0.600    1.600    0.000    3.300    0.000    0.800 
#    1.800    0.000    8.800    9.600    0.000    0.000 
#    0.000    0.000    0.000    0.000    0.000    0.000 
#
# Total GULP energy -247838.798937 kJ/mol
# GULP energy per Si atom -12391.939947 kJ/mol
# Density = 1.777076 g / cm^3
# Si number density = 17.811296 Si / 1000 Ang^3
#
#
#
# Elastic Constant Matrix: (Units=GPa)
#
#
# Indices 1 2 3 4 5 6 
#
# 1 30.0521 17.3093 0.7479 0.0000 7.1380 0.0000
# 2 17.3093 113.3319 28.6174 0.0000 18.0696 0.0000
# 3 0.7479 28.6174 60.7179 0.0000 11.8434 0.0000
# 4 0.0000 0.0000 0.0000 9.7088 0.0000 -4.0362
# 5 7.1380 18.0696 11.8434 0.0000 27.9801 0.0000
# 6 0.0000 0.0000 0.0000 -4.0362 0.0000 26.8778
#
#
#
# Elastic Compliance Matrix: (Units=1/GPa)
#
#
# Indices 1 2 3 4 5 6 
#
# 1 0.038199 -0.005522 0.003638 0.000000 -0.007718 0.000000
# 2 -0.005522 0.011463 -0.004540 0.000000 -0.004072 0.000000
# 3 0.003638 -0.004540 0.019809 0.000000 -0.006381 0.000000
# 4 0.000000 0.000000 0.000000 0.109858 0.000000 0.016497
# 5 -0.007718 -0.004072 -0.006381 0.000000 0.043039 0.000000
# 6 0.000000 0.000000 0.000000 0.016497 0.000000 0.039683
#
#
# Mechanical properties :
#
#
# Convention : Reuss Voigt Hill
#
# Bulk Modulus (GPa) = 17.66115 33.05013 25.35564
# Shear Modulus (GPa) = 17.01990 23.40850 20.21420
#
# Velocity S-wave (km/s) = 3.09458 3.62919 3.37250
# Velocity P-wave (km/s) = 4.76506 6.01310 5.42509
#
# Compressibility (1/GPa) = 0.05662146
#
# Stress axis : x y z
#
# Youngs Moduli (GPa) = 26.17880 87.23904 50.48134
#
# Poissons Ratio (x) = 0.48174 -0.18363
# Poissons Ratio (y) = 0.14456 0.22920
# Poissons Ratio (z) = -0.09523 0.39609
#
# Static dielectric constant tensor:
#      x y z
#    x 3.191120 0.000000 -0.061160 
#    y 0.000000 3.340450 0.000000 
#    z -0.061160 0.000000 3.357270 
# 
# 
# High freq. dielectric constant tensor:
#      x y z
#    x 1.685950 0.000000 -0.004580 
#    y 0.000000 1.693110 0.000000 
#    z -0.004580 0.000000 1.705360 
# 
# From -- ./inp_files/303439.got.cif
#   From: 2010.06.25/outbox.cif.g09.slc.cpg/sg12_152_cif.got.tgz:303439.got - 2010.06.28 00:19:55.
