data_PCOD8090653
_publ_section_title
;
Structure prediction by ZEFSAII (Michael W. Deem and Ramdas Pophale) SiO2 
 PCOD8090653
Probable space group: C 2/M
;
_chemical_formula_sum "Si O2"
_cell_formula_units_Z 64
_cell_length_a 29.164202
_cell_length_b 9.044984
_cell_length_c 12.820276
_cell_angle_alpha 90.000000
_cell_angle_beta 79.954207
_cell_angle_gamma 90.000000
_cell_volume 3330.008848
_symmetry_space_group_name_H-M "C 2/M"
_symmetry_group_IT_number 12
_symmetry_cell_setting 'monoclinic'
loop_
_space_group_symop_operation_xyz
x,y,z
-x,y,-z
-x,-y,-z
x,-y,z
1/2+x,1/2+y,z
1/2-x,1/2+y,-z
1/2-x,1/2-y,-z
1/2+x,1/2-y,z
loop_
_atom_site_type_symbol
_atom_site_label
_atom_site_fract_x
_atom_site_fract_y
_atom_site_fract_z
Si Si1 0.707102 0.172490 0.963824
Si Si2 0.201153 0.825627 0.538531
Si Si3 0.926026 0.167532 0.113285
Si Si4 0.888246 0.675992 0.502921
Si Si5 0.563327 0.825607 0.306494
Si Si6 0.539621 0.174095 0.703135
Si Si7 0.679718 0.665162 0.781170
Si Si8 0.895200 0.674927 0.926724
O O1 0.658756 0.221155 0.037529
O O2 0.714981 0.000000 0.968201
O O3 0.750000 0.250000 0.000000
O O4 0.706941 0.220727 0.843459
O O5 0.250000 0.750000 0.500000
O O6 0.161906 0.753715 0.480800
O O7 0.188174 0.785455 0.660954
O O8 0.203823 0.000000 0.516060
O O9 0.958173 0.247788 0.185476
O O10 0.874633 0.173744 0.178535
O O11 0.943524 0.000000 0.091029
O O12 0.927869 0.249615 0.001180
O O13 0.881735 0.500000 0.507312
O O14 0.912427 0.736300 0.598902
O O15 0.919727 0.725067 0.391843
O O16 0.509303 0.779221 0.329171
O O17 0.588890 0.765213 0.192466
O O18 0.568029 0.000000 0.305318
O O19 0.542221 0.000000 0.722167
O O20 0.698758 0.500000 0.795256
O O21 0.901627 0.500000 0.936191
#
# Coordination Sequence:
#
# PCOD8090653 Si02
#       8
#     8   8   8   8   8   8   8   8
#     4  10  20  33  54  81 107 141 186 231 279 338
#     4  11  23  39  58  84 114 147 188 232 286 339
#     4  10  19  34  56  80 109 144 183 230 282 330
#     4  10  20  36  59  85 114 149 191 236 282 335
#     4   9  19  36  57  82 114 151 189 233 283 338
#     4  10  19  33  58  86 111 146 193 235 277 337
#     4   9  19  36  55  74 104 143 181 226 276 329
#     4   9  19  36  55  77 108 146 188 230 279 336
#
# _framework density 19.219168
#
# number of rings (size 3 to 8) (size 9 to 14) (size 15 to 20)
#    0.000    2.250    1.250    1.500    0.000    5.000 
#    0.000    6.875    0.000    1.500    0.000    0.000 
#    0.000    0.000    0.000    0.000    0.000    0.000 
#
# Total GULP energy -396820.865006 kJ/mol
# GULP energy per Si atom -12400.652031 kJ/mol
# Density = 1.917542 g / cm^3
# Si number density = 19.219168 Si / 1000 Ang^3
#
#
#
# Elastic Constant Matrix: (Units=GPa)
#
#
# Indices 1 2 3 4 5 6 
#
# 1 112.8339 41.7239 54.2299 0.0000 22.6380 0.0000
# 2 41.7239 59.7696 38.8729 0.0000 10.6490 0.0000
# 3 54.2299 38.8729 114.4260 0.0000 14.9819 0.0000
# 4 0.0000 0.0000 0.0000 24.9818 0.0000 5.6068
# 5 22.6380 10.6490 14.9819 0.0000 30.6086 0.0000
# 6 0.0000 0.0000 0.0000 5.6068 0.0000 26.8423
#
#
#
# Elastic Compliance Matrix: (Units=1/GPa)
#
#
# Indices 1 2 3 4 5 6 
#
# 1 0.014356 -0.006402 -0.003772 0.000000 -0.006544 0.000000
# 2 -0.006402 0.024841 -0.005228 0.000000 -0.001348 0.000000
# 3 -0.003772 -0.005228 0.012501 0.000000 -0.001510 0.000000
# 4 0.000000 0.000000 0.000000 0.041998 0.000000 -0.008772
# 5 -0.006544 -0.001348 -0.001510 0.000000 0.038719 0.000000
# 6 0.000000 0.000000 0.000000 -0.008772 0.000000 0.039087
#
#
# Mechanical properties :
#
#
# Convention : Reuss Voigt Hill
#
# Bulk Modulus (GPa) = 47.86409 61.85365 54.85887
# Shear Modulus (GPa) = 23.89263 26.63340 25.26302
#
# Velocity S-wave (km/s) = 3.52968 3.72664 3.62950
# Velocity P-wave (km/s) = 6.44748 7.12533 6.79486
#
# Compressibility (1/GPa) = 0.02089249
#
# Stress axis : x y z
#
# Youngs Moduli (GPa) = 69.65835 40.25643 79.99577
#
# Poissons Ratio (x) = 0.25774 0.30173
# Poissons Ratio (y) = 0.44599 0.41823
# Poissons Ratio (z) = 0.26274 0.21046
#
# Static dielectric constant tensor:
#      x y z
#    x 3.581000 0.000000 0.013210 
#    y 0.000000 3.430780 0.000000 
#    z 0.013210 0.000000 3.831700 
# 
# 
# High freq. dielectric constant tensor:
#      x y z
#    x 1.748880 0.000000 0.005450 
#    y 0.000000 1.731570 0.000000 
#    z 0.005450 0.000000 1.754950 
# 
# From -- ./inp_files/187585.got.cif
#   From: 2010.06.25/outbox.cif.g09.slc.cpg/sg12_94_cif.got.tgz:187585.got - 2010.06.28 00:19:55.
