data_PCOD8090917
_publ_section_title
;
Structure prediction by ZEFSAII (Michael W. Deem and Ramdas Pophale) SiO2 
 PCOD8090917
Probable space group: C 2/M
;
_chemical_formula_sum "Si O2"
_cell_formula_units_Z 48
_cell_length_a 17.147621
_cell_length_b 12.360711
_cell_length_c 28.996875
_cell_angle_alpha 90.000000
_cell_angle_beta 155.497548
_cell_angle_gamma 90.000000
_cell_volume 2548.979040
_symmetry_space_group_name_H-M "C 2/M"
_symmetry_group_IT_number 12
_symmetry_cell_setting 'monoclinic'
loop_
_space_group_symop_operation_xyz
x,y,z
-x,y,-z
-x,-y,-z
x,-y,z
1/2+x,1/2+y,z
1/2-x,1/2+y,-z
1/2-x,1/2-y,-z
1/2+x,1/2-y,z
loop_
_atom_site_type_symbol
_atom_site_label
_atom_site_fract_x
_atom_site_fract_y
_atom_site_fract_z
Si Si1 0.966790 0.727907 0.871770
Si Si2 0.849620 0.874076 0.105962
Si Si3 0.918581 0.123633 0.327289
Si Si4 0.653160 0.375776 0.543652
Si Si5 0.327679 0.616340 0.874569
Si Si6 0.986423 0.234895 0.267713
O O1 0.789280 0.651767 0.765272
O O2 0.891907 0.816855 0.865797
O O3 0.034031 0.790816 0.862738
O O4 0.129406 0.654927 0.982414
O O5 0.925350 0.858066 0.198727
O O6 0.879053 0.000000 0.107996
O O7 0.986817 0.189973 0.319703
O O8 0.066473 0.146584 0.447017
O O9 0.917419 0.000000 0.311637
O O10 0.500000 0.352610 0.500000
O O11 0.726166 0.500000 0.586525
O O12 0.816098 0.288430 0.639249
O O13 0.253094 0.500000 0.816745
O O14 0.166846 0.671158 0.818325
O O15 0.500000 0.597656 0.000000
#
# Coordination Sequence:
#
# PCOD8090917 Si02
#       6
#     8   8   8   8   8   8
#     4  10  21  37  55  81 111 151 185 227 279 329
#     4  11  22  36  55  82 115 148 186 228 279 337
#     4  10  21  37  59  83 112 147 187 231 279 332
#     4  10  21  38  59  84 111 146 191 235 276 325
#     4  10  19  34  53  79 111 145 186 227 269 323
#     4  11  21  36  57  84 114 149 184 230 283 332
#
# _framework density 18.831068999999999
#
# number of rings (size 3 to 8) (size 9 to 14) (size 15 to 20)
#    0.000    1.667    1.667    3.500    0.000    0.000 
#    0.000    4.167    0.000   12.000    0.000    0.000 
#    0.000    0.000    0.000    0.000    0.000    0.000 
#
# Total GULP energy -297570.385218 kJ/mol
# GULP energy per Si atom -12398.766051 kJ/mol
# Density = 1.878821 g / cm^3
# Si number density = 18.831069 Si / 1000 Ang^3
#
#
#
# Elastic Constant Matrix: (Units=GPa)
#
#
# Indices 1 2 3 4 5 6 
#
# 1 81.1095 25.9238 29.0400 0.0006 2.5274 0.0000
# 2 25.9238 96.8184 49.6156 0.0020 2.0887 0.0002
# 3 29.0400 49.6156 74.1780 0.0088 10.1612 -0.0009
# 4 0.0006 0.0020 0.0088 11.2122 0.0000 0.7742
# 5 2.5274 2.0887 10.1612 0.0000 28.2126 0.0001
# 6 0.0000 0.0002 -0.0009 0.7742 0.0001 18.6803
#
#
#
# Elastic Compliance Matrix: (Units=1/GPa)
#
#
# Indices 1 2 3 4 5 6 
#
# 1 0.014484 -0.001440 -0.004780 0.000003 0.000531 0.000000
# 2 -0.001440 0.016065 -0.010557 0.000005 0.002742 -0.000001
# 3 -0.004780 -0.010557 0.023403 -0.000016 -0.007219 0.000002
# 4 0.000003 0.000005 -0.000016 0.089444 0.000005 -0.003707
# 5 0.000531 0.002742 -0.007219 0.000005 0.037795 -0.000001
# 6 0.000000 -0.000001 0.000002 -0.003707 -0.000001 0.053686
#
#
# Mechanical properties :
#
#
# Convention : Reuss Voigt Hill
#
# Bulk Modulus (GPa) = 49.02584 51.25164 50.13874
# Shear Modulus (GPa) = 18.16653 21.45612 19.81132
#
# Velocity S-wave (km/s) = 3.10935 3.37916 3.24706
# Velocity P-wave (km/s) = 6.24354 6.51925 6.38288
#
# Compressibility (1/GPa) = 0.02039741
#
# Stress axis : x y z
#
# Youngs Moduli (GPa) = 69.04116 62.24561 42.72991
#
# Poissons Ratio (x) = 0.08965 0.20424
# Poissons Ratio (y) = 0.09944 0.45112
# Poissons Ratio (z) = 0.33000 0.65716
#
# Static dielectric constant tensor:
#      x y z
#    x 3.377910 0.000000 0.132070 
#    y 0.000000 3.731780 -0.000010 
#    z 0.132070 -0.000010 3.557820 
# 
# 
# High freq. dielectric constant tensor:
#      x y z
#    x 1.737390 0.000000 0.000810 
#    y 0.000000 1.738020 0.000000 
#    z 0.000810 0.000000 1.732340 
# 
# From -- ./inp_files/143551.got.cif
#   From: 2010.06.25/outbox.cif.g09.slc.cpg/sg12_72_cif.got.tgz:143551.got - 2010.06.28 00:19:55.
