data_PCOD8090139
_publ_section_title
;
Structure prediction by ZEFSAII (Michael W. Deem and Ramdas Pophale) SiO2 
 PCOD8090139
Probable space group: C 2/M
;
_chemical_formula_sum "Si O2"
_cell_formula_units_Z 64
_cell_length_a 24.290026
_cell_length_b 8.922082
_cell_length_c 28.679178
_cell_angle_alpha 90.000000
_cell_angle_beta 145.797864
_cell_angle_gamma 90.000000
_cell_volume 3493.698751
_symmetry_space_group_name_H-M "C 2/M"
_symmetry_group_IT_number 12
_symmetry_cell_setting 'monoclinic'
loop_
_space_group_symop_operation_xyz
x,y,z
-x,y,-z
-x,-y,-z
x,-y,z
1/2+x,1/2+y,z
1/2-x,1/2+y,-z
1/2-x,1/2-y,-z
1/2+x,1/2-y,z
loop_
_atom_site_type_symbol
_atom_site_label
_atom_site_fract_x
_atom_site_fract_y
_atom_site_fract_z
Si Si1 0.257074 0.677401 0.119678
Si Si2 0.514408 0.172510 0.626789
Si Si3 0.035587 0.824741 0.216525
Si Si4 0.212271 0.674030 0.289467
Si Si5 0.832579 0.823707 0.026225
Si Si6 0.786596 0.827145 0.243320
Si Si7 0.901809 0.672747 0.459698
Si Si8 0.036644 0.676631 0.746284
O O1 0.252708 0.500000 0.109057
O O2 0.239453 0.726253 0.161169
O O3 0.361887 0.736082 0.175431
O O4 0.173505 0.755843 0.030174
O O5 0.610493 0.250811 0.674099
O O6 0.422535 0.208026 0.528968
O O7 0.490730 0.218105 0.663585
O O8 0.541829 0.000000 0.643222
O O9 0.128404 0.776762 0.251631
O O10 0.038291 0.735175 0.267202
O O11 0.938781 0.781819 0.120105
O O12 0.041571 0.000000 0.231502
O O13 0.191680 0.500000 0.285654
O O14 0.212973 0.705518 0.234286
O O15 0.316385 0.717106 0.384224
O O16 0.814817 0.000000 0.012393
O O17 0.750000 0.750000 0.000000
O O18 0.811972 0.000000 0.256806
O O19 0.869768 0.500000 0.429988
O O20 0.000000 0.708123 0.500000
O O21 0.054823 0.500000 0.764533
#
# Coordination Sequence:
#
# PCOD8090139 Si02
#       8
#     8   8   8   8   8   8   8   8
#     4  10  19  33  55  83 113 144 181 226 276 327
#     4   9  18  32  54  84 112 143 182 227 274 326
#     4  11  24  40  57  79 111 149 186 226 282 338
#     4  11  23  38  57  82 113 149 189 230 277 330
#     4  11  22  36  57  84 112 143 185 233 280 329
#     4   9  19  34  53  80 113 146 181 226 276 325
#     4  10  19  34  57  84 115 147 184 228 277 328
#     4  10  19  33  55  82 112 144 184 228 274 326
#
# _framework density 18.318693
#
# number of rings (size 3 to 8) (size 9 to 14) (size 15 to 20)
#    0.000    1.875    2.500    1.875    0.000    3.750 
#    0.000    1.250    0.000    3.750    0.000    0.000 
#    0.000    0.000    0.000    0.000    0.000    0.000 
#
# Total GULP energy -396820.577946 kJ/mol
# GULP energy per Si atom -12400.643061 kJ/mol
# Density = 1.827700 g / cm^3
# Si number density = 18.318693 Si / 1000 Ang^3
#
#
#
# Elastic Constant Matrix: (Units=GPa)
#
#
# Indices 1 2 3 4 5 6 
#
# 1 100.3990 31.9008 46.9370 0.0001 -10.4163 0.0000
# 2 31.9008 57.7741 31.1730 0.0003 -4.9703 -0.0017
# 3 46.9370 31.1730 82.3955 0.0000 -10.1126 0.0000
# 4 0.0001 0.0003 0.0000 27.3310 0.0001 -0.3012
# 5 -10.4163 -4.9703 -10.1126 0.0001 27.2402 -0.0001
# 6 0.0000 -0.0017 0.0000 -0.3012 -0.0001 28.2190
#
#
#
# Elastic Compliance Matrix: (Units=1/GPa)
#
#
# Indices 1 2 3 4 5 6 
#
# 1 0.014578 -0.004424 -0.006334 0.000000 0.002416 0.000000
# 2 -0.004424 0.023115 -0.006197 0.000000 0.000225 0.000001
# 3 -0.006334 -0.006197 0.018496 0.000000 0.003314 0.000000
# 4 0.000000 0.000000 0.000000 0.036593 0.000000 0.000391
# 5 0.002416 0.000225 0.003314 0.000000 0.038905 0.000000
# 6 0.000000 0.000001 0.000000 0.000391 0.000000 0.035441
#
#
# Mechanical properties :
#
#
# Convention : Reuss Voigt Hill
#
# Bulk Modulus (GPa) = 44.88722 51.17669 48.03196
# Shear Modulus (GPa) = 23.98487 25.26190 24.62338
#
# Velocity S-wave (km/s) = 3.62237 3.71755 3.67027
# Velocity P-wave (km/s) = 6.48476 6.81355 6.65118
#
# Compressibility (1/GPa) = 0.02227806
#
# Stress axis : x y z
#
# Youngs Moduli (GPa) = 68.59773 43.26247 54.06511
#
# Poissons Ratio (x) = 0.19138 0.34246
# Poissons Ratio (y) = 0.30346 0.33506
# Poissons Ratio (z) = 0.43451 0.26811
#
# Static dielectric constant tensor:
#      x y z
#    x 3.589290 0.000000 -0.464690 
#    y 0.000000 3.412490 0.000000 
#    z -0.464690 0.000000 3.529580 
# 
# 
# High freq. dielectric constant tensor:
#      x y z
#    x 1.708780 0.000000 -0.028390 
#    y 0.000000 1.718940 0.000000 
#    z -0.028390 0.000000 1.696480 
# 
# From -- ./inp_files/382418.got.cif
#   From: 2010.06.25/outbox.cif.g09.slc.cpg/sg12_192_cif.got.tgz:382418.got - 2010.06.28 00:19:55.
