data_PCOD8090308
_publ_section_title
;
Structure prediction by ZEFSAII (Michael W. Deem and Ramdas Pophale) SiO2 
 PCOD8090308
Probable space group: C 2/M
;
_chemical_formula_sum "Si O2"
_cell_formula_units_Z 64
_cell_length_a 13.921282
_cell_length_b 13.357121
_cell_length_c 21.206875
_cell_angle_alpha 90.000000
_cell_angle_beta 64.868150
_cell_angle_gamma 90.000000
_cell_volume 3570.072598
_symmetry_space_group_name_H-M "C 2/M"
_symmetry_group_IT_number 12
_symmetry_cell_setting 'monoclinic'
loop_
_space_group_symop_operation_xyz
x,y,z
-x,y,-z
-x,-y,-z
x,-y,z
1/2+x,1/2+y,z
1/2-x,1/2+y,-z
1/2-x,1/2-y,-z
1/2+x,1/2-y,z
loop_
_atom_site_type_symbol
_atom_site_label
_atom_site_fract_x
_atom_site_fract_y
_atom_site_fract_z
Si Si1 0.657443 0.616538 0.557039
Si Si2 0.439838 0.885276 0.169941
Si Si3 0.581446 0.222416 0.031488
Si Si4 0.052084 0.217394 0.347424
Si Si5 0.214434 0.215647 0.412785
Si Si6 0.204095 0.884356 0.208020
Si Si7 0.285881 0.386194 0.939643
Si Si8 0.926116 0.614288 0.318014
O O1 0.685064 0.500000 0.556064
O O2 0.537962 0.635182 0.613859
O O3 0.741569 0.677830 0.575619
O O4 0.665737 0.650780 0.482667
O O5 0.524372 0.820543 0.108755
O O6 0.321940 0.843911 0.189595
O O7 0.468689 0.874633 0.235219
O O8 0.446957 0.000000 0.145087
O O9 0.642886 0.322528 0.032976
O O10 0.500000 0.252323 0.000000
O O11 0.662140 0.140798 0.981059
O O12 0.121943 0.237390 0.389281
O O13 0.120590 0.180309 0.269745
O O14 0.998719 0.323043 0.345246
O O15 0.305122 0.151320 0.353521
O O16 0.177301 0.869410 0.142240
O O17 0.195398 0.000000 0.231253
O O18 0.301204 0.500000 0.956037
O O19 0.930824 0.500000 0.339547
#
# Coordination Sequence:
#
# PCOD8090308 Si02
#       8
#     8   8   8   8   8   8   8   8
#     4  10  22  37  55  80 109 140 176 218 264 313
#     4  10  19  33  56  81 106 138 177 219 263 310
#     4  11  21  35  57  80 106 141 179 219 262 312
#     4  11  21  35  57  81 107 138 178 220 262 313
#     4  10  21  37  55  79 109 140 175 218 264 313
#     4  10  19  33  56  81 105 137 176 220 266 310
#     4  10  22  37  54  80 110 139 175 219 266 315
#     4  10  21  36  55  79 107 142 177 215 264 316
#
# _framework density 17.926807
#
# number of rings (size 3 to 8) (size 9 to 14) (size 15 to 20)
#    0.000    1.750    2.500    2.250    0.000    3.250 
#    0.000    0.000    0.000    5.250    0.000    0.000 
#    0.000    0.000    0.000    0.000    0.000    0.000 
#
# Total GULP energy -396958.043200 kJ/mol
# GULP energy per Si atom -12404.938850 kJ/mol
# Density = 1.788600 g / cm^3
# Si number density = 17.926807 Si / 1000 Ang^3
#
#
#
# Elastic Constant Matrix: (Units=GPa)
#
#
# Indices 1 2 3 4 5 6 
#
# 1 88.8187 45.8621 26.1608 0.0000 2.1870 0.0000
# 2 45.8621 113.6924 43.0899 0.0000 0.3330 0.0000
# 3 26.1608 43.0899 77.9113 0.0000 -2.7404 0.0000
# 4 0.0000 0.0000 0.0000 20.9920 0.0000 -0.1280
# 5 2.1870 0.3330 -2.7404 0.0000 28.8046 0.0000
# 6 0.0000 0.0000 0.0000 -0.1280 0.0000 15.7896
#
#
#
# Elastic Compliance Matrix: (Units=1/GPa)
#
#
# Indices 1 2 3 4 5 6 
#
# 1 0.014523 -0.005048 -0.002128 0.000000 -0.001247 0.000000
# 2 -0.005048 0.012898 -0.005448 0.000000 -0.000284 0.000000
# 3 -0.002128 -0.005448 0.016627 0.000000 0.001806 0.000000
# 4 0.000000 0.000000 0.000000 0.047640 0.000000 0.000386
# 5 -0.001247 -0.000284 0.001806 0.000000 0.034986 0.000000
# 6 0.000000 0.000000 0.000000 0.000386 0.000000 0.063336
#
#
# Mechanical properties :
#
#
# Convention : Reuss Voigt Hill
#
# Bulk Modulus (GPa) = 53.19761 56.73865 54.96813
# Shear Modulus (GPa) = 22.57082 24.13788 23.35435
#
# Velocity S-wave (km/s) = 3.55216 3.67341 3.61329
# Velocity P-wave (km/s) = 6.82372 7.05059 6.93808
#
# Compressibility (1/GPa) = 0.01879784
#
# Stress axis : x y z
#
# Youngs Moduli (GPa) = 68.85564 77.53295 60.14476
#
# Poissons Ratio (x) = 0.39139 0.12802
# Poissons Ratio (y) = 0.34759 0.32768
# Poissons Ratio (z) = 0.14656 0.42242
#
# Static dielectric constant tensor:
#      x y z
#    x 3.246090 0.000000 -0.093280 
#    y 0.000000 3.194680 0.000000 
#    z -0.093280 0.000000 3.414250 
# 
# 
# High freq. dielectric constant tensor:
#      x y z
#    x 1.693390 0.000000 -0.003700 
#    y 0.000000 1.686960 0.000000 
#    z -0.003700 0.000000 1.710390 
# 
# From -- ./inp_files/269909.got.cif
#   From: 2010.06.25/outbox.cif.g09.slc.cpg/sg12_135_cif.got.tgz:269909.got - 2010.06.28 00:19:55.
