data_PCOD8090193
_publ_section_title
;
Structure prediction by ZEFSAII (Michael W. Deem and Ramdas Pophale) SiO2 
 PCOD8090193
Probable space group: C 2/M
;
_chemical_formula_sum "Si O2"
_cell_formula_units_Z 56
_cell_length_a 33.204168
_cell_length_b 8.551963
_cell_length_c 12.397866
_cell_angle_alpha 90.000000
_cell_angle_beta 59.706224
_cell_angle_gamma 90.000000
_cell_volume 3039.784000
_symmetry_space_group_name_H-M "C 2/M"
_symmetry_group_IT_number 12
_symmetry_cell_setting 'monoclinic'
loop_
_space_group_symop_operation_xyz
x,y,z
-x,y,-z
-x,-y,-z
x,-y,z
1/2+x,1/2+y,z
1/2-x,1/2+y,-z
1/2-x,1/2-y,-z
1/2+x,1/2-y,z
loop_
_atom_site_type_symbol
_atom_site_label
_atom_site_fract_x
_atom_site_fract_y
_atom_site_fract_z
Si Si1 0.107272 0.818505 0.976234
Si Si2 0.698608 0.681924 0.194090
Si Si3 0.607015 0.818010 0.396990
Si Si4 0.041423 0.819262 0.655266
Si Si5 0.952336 0.681388 0.123091
Si Si6 0.943877 0.318140 0.753117
Si Si7 0.205068 0.182519 0.938968
O O1 0.076658 0.783266 0.122440
O O2 0.101302 0.000000 0.956502
O O3 0.090759 0.716258 0.897553
O O4 0.161106 0.774892 0.924186
O O5 0.688411 0.500000 0.223128
O O6 0.661597 0.778744 0.313856
O O7 0.750470 0.722992 0.165884
O O8 0.693539 0.734904 0.076551
O O9 0.586638 0.720542 0.523710
O O10 0.580726 0.765915 0.323678
O O11 0.600061 0.000000 0.429742
O O12 0.053426 0.783285 0.762567
O O13 0.998736 0.715072 0.669431
O O14 0.028390 0.000000 0.660586
O O15 0.952943 0.500000 0.154161
O O16 0.000000 0.730837 0.000000
O O17 0.935452 0.500000 0.789542
O O18 0.217057 0.000000 0.920300
#
# Coordination Sequence:
#
# PCOD8090193 Si02
#       7
#     8   8   8   8   8   8   8
#     4  11  21  35  58  85 115 148 187 234 281 328
#     4  10  19  33  55  83 114 148 188 229 276 333
#     4  11  23  38  57  81 116 154 188 229 281 338
#     4  12  25  39  58  81 111 150 193 235 278 332
#     4  11  23  39  59  82 111 148 190 234 280 332
#     4  11  22  36  55  82 115 152 188 226 279 336
#     4   9  19  34  53  82 116 148 183 229 282 331
#
# _framework density 18.422360999999999
#
# number of rings (size 3 to 8) (size 9 to 14) (size 15 to 20)
#    0.000    1.286    2.857    3.857    0.000    5.714 
#    0.000    0.000    0.000    0.857    0.000    0.000 
#    0.000    0.000    0.000    0.000    0.000    0.000 
#
# Total GULP energy -347402.972510 kJ/mol
# GULP energy per Si atom -12407.249018 kJ/mol
# Density = 1.838043 g / cm^3
# Si number density = 18.422361 Si / 1000 Ang^3
#
#
#
# Elastic Constant Matrix: (Units=GPa)
#
#
# Indices 1 2 3 4 5 6 
#
# 1 103.0446 26.0474 43.8966 0.0000 -9.7983 0.0000
# 2 26.0474 50.7769 24.3154 0.0000 2.5655 0.0000
# 3 43.8966 24.3154 92.6214 0.0000 -6.1306 0.0000
# 4 0.0000 0.0000 0.0000 29.4888 0.0000 -2.8103
# 5 -9.7983 2.5655 -6.1306 0.0000 22.6481 0.0000
# 6 0.0000 0.0000 0.0000 -2.8103 0.0000 29.1385
#
#
#
# Elastic Compliance Matrix: (Units=1/GPa)
#
#
# Indices 1 2 3 4 5 6 
#
# 1 0.013447 -0.004877 -0.004756 0.000000 0.005083 0.000000
# 2 -0.004877 0.024700 -0.004580 0.000000 -0.006148 0.000000
# 3 -0.004756 -0.004580 0.014409 0.000000 0.002362 0.000000
# 4 0.000000 0.000000 0.000000 0.034226 0.000000 0.003301
# 5 0.005083 -0.006148 0.002362 0.000000 0.047688 0.000000
# 6 0.000000 0.000000 0.000000 0.003301 0.000000 0.034637
#
#
# Mechanical properties :
#
#
# Convention : Reuss Voigt Hill
#
# Bulk Modulus (GPa) = 41.44266 48.32909 44.88588
# Shear Modulus (GPa) = 24.32188 26.40062 25.36125
#
# Velocity S-wave (km/s) = 3.63745 3.78970 3.71436
# Velocity P-wave (km/s) = 6.33925 6.74092 6.54317
#
# Compressibility (1/GPa) = 0.02412973
#
# Stress axis : x y z
#
# Youngs Moduli (GPa) = 74.36743 40.48655 69.39948
#
# Poissons Ratio (x) = 0.19746 0.33007
# Poissons Ratio (y) = 0.36270 0.31783
# Poissons Ratio (z) = 0.35370 0.18542
#
# Static dielectric constant tensor:
#      x y z
#    x 3.445040 0.000000 -0.060400 
#    y 0.000000 3.375000 0.000000 
#    z -0.060400 0.000000 3.218500 
# 
# 
# High freq. dielectric constant tensor:
#      x y z
#    x 1.712000 0.000000 -0.009900 
#    y 0.000000 1.724730 0.000000 
#    z -0.009900 0.000000 1.696040 
# 
# From -- ./inp_files/181100.got.cif
#   From: 2010.06.25/outbox.cif.g09.slc.cpg/sg12_91_cif.got.tgz:181100.got - 2010.06.28 00:19:55.
