data_PCOD8090421
_publ_section_title
;
Structure prediction by ZEFSAII (Michael W. Deem and Ramdas Pophale) SiO2 
 PCOD8090421
Probable space group: C 2/M
;
_chemical_formula_sum "Si O2"
_cell_formula_units_Z 64
_cell_length_a 30.151430
_cell_length_b 9.065952
_cell_length_c 22.721918
_cell_angle_alpha 90.000000
_cell_angle_beta 148.547762
_cell_angle_gamma 90.000000
_cell_volume 3240.858635
_symmetry_space_group_name_H-M "C 2/M"
_symmetry_group_IT_number 12
_symmetry_cell_setting 'monoclinic'
loop_
_space_group_symop_operation_xyz
x,y,z
-x,y,-z
-x,-y,-z
x,-y,z
1/2+x,1/2+y,z
1/2-x,1/2+y,-z
1/2-x,1/2-y,-z
1/2+x,1/2-y,z
loop_
_atom_site_type_symbol
_atom_site_label
_atom_site_fract_x
_atom_site_fract_y
_atom_site_fract_z
Si Si1 0.319356 0.174790 0.729890
Si Si2 0.672136 0.176520 0.879153
Si Si3 0.916343 0.332277 0.442957
Si Si4 0.128123 0.170589 0.496238
Si Si5 0.534020 0.672383 0.166901
Si Si6 0.873753 0.829809 0.910221
Si Si7 0.511319 0.671601 0.753615
Si Si8 0.788570 0.671263 0.205444
O O1 0.224743 0.231751 0.605983
O O2 0.380558 0.238039 0.748842
O O3 0.348403 0.230563 0.826583
O O4 0.325193 0.000000 0.736008
O O5 0.583173 0.229633 0.804810
O O6 0.681852 0.236481 0.823353
O O7 0.678373 0.000000 0.890459
O O8 0.750000 0.250000 0.000000
O O9 0.895156 0.500000 0.435809
O O10 0.927540 0.245798 0.516072
O O11 0.841014 0.258492 0.319034
O O12 0.000000 0.318754 0.500000
O O13 0.080072 0.201534 0.380444
O O14 0.130777 0.000000 0.514137
O O15 0.555739 0.500000 0.191872
O O16 0.496996 0.720277 0.188078
O O17 0.467013 0.710700 0.039421
O O18 0.810804 0.801432 0.894237
O O19 0.869321 0.000000 0.884865
O O20 0.537512 0.500000 0.777854
O O21 0.812140 0.500000 0.230677
#
# Coordination Sequence:
#
# PCOD8090421 Si02
#       8
#     8   8   8   8   8   8   8   8
#     4  11  23  38  57  86 120 150 187 240 300 356
#     4  11  22  38  60  88 121 157 198 242 290 343
#     4  10  19  33  56  84 111 145 192 238 279 332
#     4  10  22  39  58  83 119 156 189 236 297 355
#     4  10  22  39  61  84 109 150 201 246 291 348
#     4  10  19  36  60  84 111 148 194 239 288 349
#     4  10  22  42  62  83 116 157 200 244 291 346
#     4   9  18  33  55  82 113 149 189 233 279 338
#
# _framework density 19.747852999999999
#
# number of rings (size 3 to 8) (size 9 to 14) (size 15 to 20)
#    0.000    1.875    1.250    2.625    0.000    7.250 
#    0.000    3.750    0.000    0.000    0.000    0.000 
#    0.000    0.000    0.000    0.000    0.000    0.000 
#
# Total GULP energy -396811.257996 kJ/mol
# GULP energy per Si atom -12400.351812 kJ/mol
# Density = 1.970291 g / cm^3
# Si number density = 19.747853 Si / 1000 Ang^3
#
#
#
# Elastic Constant Matrix: (Units=GPa)
#
#
# Indices 1 2 3 4 5 6 
#
# 1 98.5700 34.4101 28.3573 0.0000 3.5094 0.0000
# 2 34.4101 53.0383 35.5901 0.0000 4.0876 0.0000
# 3 28.3573 35.5901 102.4827 0.0000 4.9489 0.0000
# 4 0.0000 0.0000 0.0000 28.2951 0.0000 2.1800
# 5 3.5094 4.0876 4.9489 0.0000 29.5164 0.0000
# 6 0.0000 0.0000 0.0000 2.1800 0.0000 32.5108
#
#
#
# Elastic Compliance Matrix: (Units=1/GPa)
#
#
# Indices 1 2 3 4 5 6 
#
# 1 0.013180 -0.007939 -0.000874 0.000000 -0.000321 0.000000
# 2 -0.007939 0.029482 -0.007954 0.000000 -0.001805 0.000000
# 3 -0.000874 -0.007954 0.012808 0.000000 -0.000942 0.000000
# 4 0.000000 0.000000 0.000000 0.035525 0.000000 -0.002382
# 5 -0.000321 -0.001805 -0.000942 0.000000 0.034326 0.000000
# 6 0.000000 0.000000 0.000000 -0.002382 0.000000 0.030919
#
#
# Mechanical properties :
#
#
# Convention : Reuss Voigt Hill
#
# Bulk Modulus (GPa) = 45.59307 50.08957 47.84132
# Shear Modulus (GPa) = 25.36971 28.44670 26.90820
#
# Velocity S-wave (km/s) = 3.58813 3.79950 3.69533
# Velocity P-wave (km/s) = 6.34854 6.68341 6.51813
#
# Compressibility (1/GPa) = 0.02193316
#
# Stress axis : x y z
#
# Youngs Moduli (GPa) = 75.87527 33.91912 78.07907
#
# Poissons Ratio (x) = 0.26929 0.06826
# Poissons Ratio (y) = 0.60239 0.62108
# Poissons Ratio (z) = 0.06633 0.26981
#
# Static dielectric constant tensor:
#      x y z
#    x 3.698490 0.000000 0.027770 
#    y 0.000000 3.412830 0.000000 
#    z 0.027770 0.000000 3.862100 
# 
# 
# High freq. dielectric constant tensor:
#      x y z
#    x 1.777510 0.000000 0.002450 
#    y 0.000000 1.746590 0.000000 
#    z 0.002450 0.000000 1.783320 
# 
# From -- ./inp_files/353547.got.cif
#   From: 2010.06.25/outbox.cif.g09.slc.cpg/sg12_177_cif.got.tgz:353547.got - 2010.06.28 00:19:55.
