data_PCOD8090440
_publ_section_title
;
Structure prediction by ZEFSAII (Michael W. Deem and Ramdas Pophale) SiO2 
 PCOD8090440
Probable space group: C 2/M
;
_chemical_formula_sum "Si O2"
_cell_formula_units_Z 56
_cell_length_a 24.289436
_cell_length_b 8.600472
_cell_length_c 13.881117
_cell_angle_alpha 90.000000
_cell_angle_beta 108.724081
_cell_angle_gamma 90.000000
_cell_volume 2746.304619
_symmetry_space_group_name_H-M "C 2/M"
_symmetry_group_IT_number 12
_symmetry_cell_setting 'monoclinic'
loop_
_space_group_symop_operation_xyz
x,y,z
-x,y,-z
-x,-y,-z
x,-y,z
1/2+x,1/2+y,z
1/2-x,1/2+y,-z
1/2-x,1/2-y,-z
1/2+x,1/2-y,z
loop_
_atom_site_type_symbol
_atom_site_label
_atom_site_fract_x
_atom_site_fract_y
_atom_site_fract_z
Si Si1 0.514268 0.684120 0.615861
Si Si2 0.843994 0.818708 0.808341
Si Si3 0.630408 0.683595 0.778536
Si Si4 0.688254 0.325241 0.478509
Si Si5 0.811432 0.816694 0.000576
Si Si6 0.085701 0.680065 0.312958
Si Si7 0.228960 0.826078 0.702459
O O1 0.500000 0.751417 0.500000
O O2 0.517728 0.500000 0.610264
O O3 0.574180 0.756129 0.693251
O O4 0.466478 0.726100 0.668353
O O5 0.899373 0.739040 0.787136
O O6 0.785315 0.782265 0.713569
O O7 0.856853 0.000000 0.818844
O O8 0.832608 0.749825 0.909047
O O9 0.627645 0.500000 0.761599
O O10 0.636426 0.726321 0.895105
O O11 0.691244 0.745390 0.768304
O O12 0.681872 0.500000 0.430291
O O13 0.750000 0.250000 0.500000
O O14 0.641264 0.208262 0.410771
O O15 0.682065 0.333756 0.590037
O O16 0.803104 0.000000 0.988226
O O17 0.750000 0.750000 0.000000
O O18 0.069536 0.500000 0.300567
O O19 0.252689 0.000000 0.737955
#
# Coordination Sequence:
#
# PCOD8090440 Si02
#       7
#     8   8   8   8   8   8   8
#     4  10  21  41  67  90 115 154 201 249 298 361
#     4  11  22  35  55  85 119 155 197 244 295 356
#     4   9  18  35  60  87 116 152 195 242 297 359
#     4  11  21  33  53  84 117 151 192 238 294 359
#     4  10  20  35  58  89 122 157 196 244 300 358
#     4  12  25  40  58  82 118 163 201 249 304 354
#     4  10  19  33  56  84 117 152 187 235 296 357
#
# _framework density 20.391038000000002
#
# number of rings (size 3 to 8) (size 9 to 14) (size 15 to 20)
#    0.000    1.571    2.857    3.000    0.000    3.714 
#    0.000    2.143    0.000    4.286    0.000    0.000 
#    0.000    0.000    0.000    0.000    0.000    0.000 
#
# Total GULP energy -347014.303302 kJ/mol
# GULP energy per Si atom -12393.367975 kJ/mol
# Density = 2.034463 g / cm^3
# Si number density = 20.391038 Si / 1000 Ang^3
#
#
#
# Elastic Constant Matrix: (Units=GPa)
#
#
# Indices 1 2 3 4 5 6 
#
# 1 100.9221 1.6958 39.3794 0.0000 -11.7423 0.0000
# 2 1.6958 32.5834 17.3757 0.0000 -3.0272 0.0000
# 3 39.3794 17.3757 111.0424 0.0000 -10.0078 0.0000
# 4 0.0000 0.0000 0.0000 19.7044 0.0000 -2.5725
# 5 -11.7423 -3.0272 -10.0078 0.0000 37.3590 0.0000
# 6 0.0000 0.0000 0.0000 -2.5725 0.0000 28.5177
#
#
#
# Elastic Compliance Matrix: (Units=1/GPa)
#
#
# Indices 1 2 3 4 5 6 
#
# 1 0.011856 0.001907 -0.004256 0.000000 0.002741 0.000000
# 2 0.001907 0.033857 -0.005813 0.000000 0.001786 0.000000
# 3 -0.004256 -0.005813 0.011540 0.000000 0.001283 0.000000
# 4 0.000000 0.000000 0.000000 0.051355 0.000000 0.004633
# 5 0.002741 0.001786 0.001283 0.000000 0.028117 0.000000
# 6 0.000000 0.000000 0.000000 0.004633 0.000000 0.035484
#
#
# Mechanical properties :
#
#
# Convention : Reuss Voigt Hill
#
# Bulk Modulus (GPa) = 24.43243 40.16108 32.29675
# Shear Modulus (GPa) = 24.73085 29.52269 27.12677
#
# Velocity S-wave (km/s) = 3.48635 3.80916 3.65132
# Velocity P-wave (km/s) = 5.31170 6.25176 5.80080
#
# Compressibility (1/GPa) = 0.04092921
#
# Stress axis : x y z
#
# Youngs Moduli (GPa) = 84.34426 29.53583 86.65399
#
# Poissons Ratio (x) = -0.05633 0.36880
# Poissons Ratio (y) = -0.16086 0.50375
# Poissons Ratio (z) = 0.35897 0.17170
#
# Static dielectric constant tensor:
#      x y z
#    x 3.490700 0.000000 -0.517900 
#    y 0.000000 3.563500 0.000000 
#    z -0.517900 0.000000 3.903450 
# 
# 
# High freq. dielectric constant tensor:
#      x y z
#    x 1.787170 0.000000 -0.019590 
#    y 0.000000 1.771580 0.000000 
#    z -0.019590 0.000000 1.806290 
# 
# From -- ./inp_files/237860.got.cif
#   From: 2010.06.25/outbox.cif.g09.slc.cpg/sg12_119_cif.got.tgz:237860.got - 2010.06.28 00:19:55.
