data_PCOD8090319
_publ_section_title
;
Structure prediction by ZEFSAII (Michael W. Deem and Ramdas Pophale) SiO2 
 PCOD8090319
Probable space group: C 2/M
;
_chemical_formula_sum "Si O2"
_cell_formula_units_Z 56
_cell_length_a 5.286969
_cell_length_b 18.942594
_cell_length_c 26.835511
_cell_angle_alpha 90.000000
_cell_angle_beta 67.826810
_cell_angle_gamma 90.000000
_cell_volume 2488.795694
_symmetry_space_group_name_H-M "C 2/M"
_symmetry_group_IT_number 12
_symmetry_cell_setting 'monoclinic'
loop_
_space_group_symop_operation_xyz
x,y,z
-x,y,-z
-x,-y,-z
x,-y,z
1/2+x,1/2+y,z
1/2-x,1/2+y,-z
1/2-x,1/2-y,-z
1/2+x,1/2-y,z
loop_
_atom_site_type_symbol
_atom_site_label
_atom_site_fract_x
_atom_site_fract_y
_atom_site_fract_z
Si Si1 0.186815 0.923061 0.830802
Si Si2 0.133790 0.785075 0.689156
Si Si3 0.943832 0.423371 0.100289
Si Si4 0.355804 0.774349 0.806416
Si Si5 0.764997 0.417396 0.624323
Si Si6 0.882663 0.917308 0.559524
Si Si7 0.894206 0.278635 0.940012
O O1 0.331207 0.923608 0.873279
O O2 0.317346 0.856051 0.792191
O O3 0.863078 0.909946 0.857633
O O4 0.242045 0.000000 0.800653
O O5 0.435444 0.750633 0.662898
O O6 0.149393 0.869405 0.678136
O O7 0.026025 0.770306 0.752853
O O8 0.953682 0.500000 0.072354
O O9 0.030808 0.360736 0.056874
O O10 0.565800 0.766500 0.838084
O O11 0.742833 0.500000 0.640980
O O12 0.586447 0.399135 0.589195
O O13 0.074366 0.391514 0.592106
O O14 0.000000 0.882266 0.500000
O O15 0.864838 0.000000 0.552696
O O16 0.676239 0.266486 0.911029
O O17 0.750000 0.250000 0.000000
#
# Coordination Sequence:
#
# PCOD8090319 Si02
#       7
#     8   8   8   8   8   8   8
#     4  10  21  37  58  85 114 145 184 229 278 333
#     4  10  21  38  55  76 109 148 185 222 271 327
#     4  10  21  37  58  84 114 146 182 230 282 328
#     4  10  21  37  56  82 111 145 183 222 279 332
#     4  10  19  33  56  81 106 141 184 227 268 320
#     4   9  17  30  52  83 112 138 176 227 277 322
#     4  10  21  37  55  82 115 149 192 232 270 323
#
# _framework density 22.50084
#
# number of rings (size 3 to 8) (size 9 to 14) (size 15 to 20)
#    0.000    2.143    0.000    3.000    0.000    5.143 
#    0.000    8.571    0.000    8.571    0.000    0.000 
#    0.000    0.000    0.000    0.000    0.000    0.000 
#
# Total GULP energy -346919.609080 kJ/mol
# GULP energy per Si atom -12389.986039 kJ/mol
# Density = 2.244963 g / cm^3
# Si number density = 22.500840 Si / 1000 Ang^3
#
#
#
# Elastic Constant Matrix: (Units=GPa)
#
#
# Indices 1 2 3 4 5 6 
#
# 1 187.3165 61.2955 32.8081 0.0000 -21.8074 0.0000
# 2 61.2955 165.1906 34.4824 0.0000 -5.8453 0.0000
# 3 32.8081 34.4824 41.5380 0.0000 -7.5169 0.0000
# 4 0.0000 0.0000 0.0000 29.5157 0.0000 -0.1030
# 5 -21.8074 -5.8453 -7.5169 0.0000 10.7166 0.0000
# 6 0.0000 0.0000 0.0000 -0.1030 0.0000 23.2942
#
#
#
# Elastic Compliance Matrix: (Units=1/GPa)
#
#
# Indices 1 2 3 4 5 6 
#
# 1 0.007959 -0.002024 -0.002147 0.000000 0.013585 0.000000
# 2 -0.002024 0.007838 -0.005589 0.000000 -0.003764 0.000000
# 3 -0.002147 -0.005589 0.033294 0.000000 0.015935 0.000000
# 4 0.000000 0.000000 0.000000 0.033881 0.000000 0.000150
# 5 0.013585 -0.003764 0.015935 0.000000 0.130081 0.000000
# 6 0.000000 0.000000 0.000000 0.000150 0.000000 0.042930
#
#
# Mechanical properties :
#
#
# Convention : Reuss Voigt Hill
#
# Bulk Modulus (GPa) = 33.81889 72.35746 53.08817
# Shear Modulus (GPa) = 17.52176 30.40259 23.96217
#
# Velocity S-wave (km/s) = 2.79358 3.67982 3.26689
# Velocity P-wave (km/s) = 5.04659 7.09100 6.15428
#
# Compressibility (1/GPa) = 0.02956928
#
# Stress axis : x y z
#
# Youngs Moduli (GPa) = 125.65111 127.58003 30.03561
#
# Poissons Ratio (x) = 0.25824 0.06449
# Poissons Ratio (y) = 0.25434 0.16788
# Poissons Ratio (z) = 0.26980 0.71307
#
# Static dielectric constant tensor:
#      x y z
#    x 4.059960 0.000000 -0.323810 
#    y 0.000000 4.656660 0.000000 
#    z -0.323810 0.000000 3.571770 
# 
# 
# High freq. dielectric constant tensor:
#      x y z
#    x 1.937130 0.000000 -0.006440 
#    y 0.000000 1.883010 0.000000 
#    z -0.006440 0.000000 1.846410 
# 
# From -- ./inp_files/371589.got.cif
#   From: 2010.06.25/outbox.cif.g09.slc.cpg/sg12_186_cif.got.tgz:371589.got - 2010.06.28 00:19:55.
