data_PCOD8090760
_publ_section_title
;
Structure prediction by ZEFSAII (Michael W. Deem and Ramdas Pophale) SiO2 
 PCOD8090760
Probable space group: C 2/M
;
_chemical_formula_sum "Si O2"
_cell_formula_units_Z 56
_cell_length_a 11.057182
_cell_length_b 17.809902
_cell_length_c 15.007489
_cell_angle_alpha 90.000000
_cell_angle_beta 113.292279
_cell_angle_gamma 90.000000
_cell_volume 2714.519893
_symmetry_space_group_name_H-M "C 2/M"
_symmetry_group_IT_number 12
_symmetry_cell_setting 'monoclinic'
loop_
_space_group_symop_operation_xyz
x,y,z
-x,y,-z
-x,-y,-z
x,-y,z
1/2+x,1/2+y,z
1/2-x,1/2+y,-z
1/2-x,1/2-y,-z
1/2+x,1/2-y,z
loop_
_atom_site_type_symbol
_atom_site_label
_atom_site_fract_x
_atom_site_fract_y
_atom_site_fract_z
Si Si1 0.841776 0.732044 0.943415
Si Si2 0.847469 0.910337 0.640045
Si Si3 0.609041 0.866869 0.455117
Si Si4 0.782812 0.314183 0.248971
Si Si5 0.996713 0.417781 0.246866
Si Si6 0.505284 0.286618 0.602296
Si Si7 0.874994 0.420481 0.900260
O O1 0.822302 0.781602 0.849931
O O2 0.787558 0.648098 0.908602
O O3 0.750000 0.750000 0.000000
O O4 0.000000 0.734121 0.000000
O O5 0.750087 0.893490 0.529967
O O6 0.783301 0.879783 0.711996
O O7 0.975808 0.858370 0.657441
O O8 0.879314 0.000000 0.656679
O O9 0.500000 0.879509 0.500000
O O10 0.579673 0.918753 0.362179
O O11 0.605097 0.779551 0.422080
O O12 0.889225 0.352918 0.216515
O O13 0.852692 0.250052 0.330342
O O14 0.931129 0.500000 0.216517
O O15 0.088531 0.400706 0.190275
O O16 0.500000 0.316836 0.500000
O O17 0.796719 0.500000 0.880850
O O18 0.000000 0.427824 0.000000
#
# Coordination Sequence:
#
# PCOD8090760 Si02
#       7
#     8   8   8   8   8   8   8
#     4  11  25  44  70 100 125 168 223 274 329 402
#     4  12  24  37  62  93 131 173 215 271 332 390
#     4  10  19  36  59  90 127 171 220 270 312 389
#     4  11  23  38  66  89 128 171 212 268 325 402
#     4  10  19  33  60  94 127 167 218 272 326 380
#     4  10  22  40  59  91 125 172 216 263 321 393
#     4   9  19  37  62  90 121 156 207 273 325 374
#
# _framework density 20.629799999999999
#
# number of rings (size 3 to 8) (size 9 to 14) (size 15 to 20)
#    0.000    1.571    4.286    3.000    6.000    0.857 
#    0.000    1.429    0.000    2.143    0.000    0.000 
#    0.000    0.000    0.000    0.000    0.000    0.000 
#
# Total GULP energy -346886.591621 kJ/mol
# GULP energy per Si atom -12388.806844 kJ/mol
# Density = 2.058285 g / cm^3
# Si number density = 20.629800 Si / 1000 Ang^3
#
#
#
# Elastic Constant Matrix: (Units=GPa)
#
#
# Indices 1 2 3 4 5 6 
#
# 1 66.5634 47.7304 29.4648 0.0000 -12.9776 0.0000
# 2 47.7304 157.8743 46.9811 0.0000 -18.6782 0.0000
# 3 29.4648 46.9811 108.1172 0.0000 -11.0548 0.0000
# 4 0.0000 0.0000 0.0000 30.8397 0.0000 -13.3785
# 5 -12.9776 -18.6782 -11.0548 0.0000 26.9943 0.0000
# 6 0.0000 0.0000 0.0000 -13.3785 0.0000 32.1058
#
#
#
# Elastic Compliance Matrix: (Units=1/GPa)
#
#
# Indices 1 2 3 4 5 6 
#
# 1 0.020849 -0.004744 -0.003060 0.000000 0.005488 0.000000
# 2 -0.004744 0.008771 -0.002224 0.000000 0.002877 0.000000
# 3 -0.003060 -0.002224 0.011211 0.000000 0.001581 0.000000
# 4 0.000000 0.000000 0.000000 0.039581 0.000000 0.016493
# 5 0.005488 0.002877 0.001581 0.000000 0.042322 0.000000
# 6 0.000000 0.000000 0.000000 0.016493 0.000000 0.038020
#
#
# Mechanical properties :
#
#
# Convention : Reuss Voigt Hill
#
# Bulk Modulus (GPa) = 48.13184 64.54529 56.33856
# Shear Modulus (GPa) = 26.63356 31.87986 29.25671
#
# Velocity S-wave (km/s) = 3.59698 3.93533 3.76995
# Velocity P-wave (km/s) = 6.37439 7.21141 6.80578
#
# Compressibility (1/GPa) = 0.02077627
#
# Stress axis : x y z
#
# Youngs Moduli (GPa) = 47.96389 114.01747 89.19638
#
# Poissons Ratio (x) = 0.54085 0.27290
# Poissons Ratio (y) = 0.22752 0.19839
# Poissons Ratio (z) = 0.14675 0.25360
#
# Static dielectric constant tensor:
#      x y z
#    x 3.256590 0.000000 -0.396160 
#    y 0.000000 4.167480 0.000000 
#    z -0.396160 0.000000 3.250440 
# 
# 
# High freq. dielectric constant tensor:
#      x y z
#    x 1.767470 0.000000 -0.018930 
#    y 0.000000 1.818480 0.000000 
#    z -0.018930 0.000000 1.814920 
# 
# From -- ./inp_files/206263.got.cif
#   From: 2010.06.25/outbox.cif.g09.slc.cpg/sg12_104_cif.got.tgz:206263.got - 2010.06.28 00:19:55.
