data_PCOD8090608
_publ_section_title
;
Structure prediction by ZEFSAII (Michael W. Deem and Ramdas Pophale) SiO2 
 PCOD8090608
Probable space group: C 2/M
;
_chemical_formula_sum "Si O2"
_cell_formula_units_Z 64
_cell_length_a 24.393081
_cell_length_b 8.519543
_cell_length_c 20.145555
_cell_angle_alpha 90.000000
_cell_angle_beta 54.284418
_cell_angle_gamma 90.000000
_cell_volume 3399.210033
_symmetry_space_group_name_H-M "C 2/M"
_symmetry_group_IT_number 12
_symmetry_cell_setting 'monoclinic'
loop_
_space_group_symop_operation_xyz
x,y,z
-x,y,-z
-x,-y,-z
x,-y,z
1/2+x,1/2+y,z
1/2-x,1/2+y,-z
1/2-x,1/2-y,-z
1/2+x,1/2-y,z
loop_
_atom_site_type_symbol
_atom_site_label
_atom_site_fract_x
_atom_site_fract_y
_atom_site_fract_z
Si Si1 0.088842 0.315389 0.737892
Si Si2 0.172512 0.681582 0.291131
Si Si3 0.440175 0.814332 0.872590
Si Si4 0.424430 0.681967 0.533876
Si Si5 0.443085 0.183064 0.382987
Si Si6 0.427774 0.814319 0.028774
Si Si7 0.181656 0.686779 0.788287
Si Si8 0.915424 0.181970 0.755830
O O1 0.085136 0.500000 0.748533
O O2 0.099023 0.268827 0.653431
O O3 0.149718 0.254365 0.740828
O O4 0.017113 0.250848 0.814663
O O5 0.167053 0.500000 0.277030
O O6 0.127221 0.716673 0.387208
O O7 0.248618 0.725156 0.253741
O O8 0.149062 0.781509 0.244067
O O9 0.397955 0.729564 0.844020
O O10 0.436233 0.000000 0.863688
O O11 0.410612 0.765520 0.965123
O O12 0.500000 0.731829 0.500000
O O13 0.411224 0.500000 0.558172
O O14 0.412489 0.717063 0.464792
O O15 0.521882 0.218296 0.316120
O O16 0.435495 0.000000 0.404604
O O17 0.367858 0.754298 0.118149
O O18 0.433258 0.000000 0.031155
O O19 0.500000 0.741988 0.000000
O O20 0.192751 0.500000 0.782232
O O21 0.933925 0.000000 0.737659
#
# Coordination Sequence:
#
# PCOD8090608 Si02
#       8
#     8   8   8   8   8   8   8   8
#     4   8  15  29  53  83 114 146 181 222 270 325
#     4  12  25  40  57  79 111 150 189 231 280 336
#     4   9  16  30  54  86 115 143 184 232 277 326
#     4  11  22  37  59  86 113 142 184 233 278 330
#     4  10  19  33  57  88 115 143 181 228 276 326
#     4   9  15  28  57  90 115 144 189 233 274 328
#     4  10  19  35  58  84 116 151 186 228 277 333
#     4  11  21  35  54  80 111 147 187 229 281 333
#
# _framework density 18.827904
#
# number of rings (size 3 to 8) (size 9 to 14) (size 15 to 20)
#    0.000    2.000    2.500    3.750    0.000    0.500 
#    0.000    5.000    0.000    0.750    0.000    0.000 
#    0.000    0.000    0.000    0.000    0.000    0.000 
#
# Total GULP energy -396778.320613 kJ/mol
# GULP energy per Si atom -12399.322519 kJ/mol
# Density = 1.878505 g / cm^3
# Si number density = 18.827904 Si / 1000 Ang^3
#
#
#
# Elastic Constant Matrix: (Units=GPa)
#
#
# Indices 1 2 3 4 5 6 
#
# 1 128.4920 20.7944 65.5492 0.0144 18.3017 -0.0059
# 2 20.7944 45.1338 24.5547 0.0278 3.4855 -0.0223
# 3 65.5492 24.5547 106.5341 0.0057 14.6728 -0.0056
# 4 0.0144 0.0278 0.0057 14.3613 -0.0127 2.5702
# 5 18.3017 3.4855 14.6728 -0.0127 34.2441 0.0079
# 6 -0.0059 -0.0223 -0.0056 2.5702 0.0079 20.2892
#
#
#
# Elastic Compliance Matrix: (Units=1/GPa)
#
#
# Indices 1 2 3 4 5 6 
#
# 1 0.011809 -0.001692 -0.006409 -0.000009 -0.003393 0.000002
# 2 -0.001692 0.025576 -0.004909 -0.000051 0.000405 0.000033
# 3 -0.006409 -0.004909 0.014794 0.000009 -0.002414 -0.000003
# 4 -0.000009 -0.000051 0.000009 0.071247 0.000035 -0.009025
# 5 -0.003393 0.000405 -0.002414 0.000035 0.032009 -0.000018
# 6 0.000002 0.000033 -0.000003 -0.009025 -0.000018 0.050431
#
#
# Mechanical properties :
#
#
# Convention : Reuss Voigt Hill
#
# Bulk Modulus (GPa) = 38.22896 55.77294 47.00095
# Shear Modulus (GPa) = 20.78098 25.06303 22.92201
#
# Velocity S-wave (km/s) = 3.32585 3.65247 3.49298
# Velocity P-wave (km/s) = 5.92426 6.89015 6.42538
#
# Compressibility (1/GPa) = 0.02615818
#
# Stress axis : x y z
#
# Youngs Moduli (GPa) = 84.68093 39.09966 67.59576
#
# Poissons Ratio (x) = 0.06616 0.43319
# Poissons Ratio (y) = 0.14329 0.33186
# Poissons Ratio (z) = 0.54269 0.19196
#
# Static dielectric constant tensor:
#      x y z
#    x 3.617480 0.000000 0.318510 
#    y 0.000000 3.163460 0.000000 
#    z 0.318510 0.000000 3.501740 
# 
# 
# High freq. dielectric constant tensor:
#      x y z
#    x 1.728530 0.000000 0.027350 
#    y 0.000000 1.709050 0.000000 
#    z 0.027350 0.000000 1.721750 
# 
# From -- ./inp_files/324137.got.cif
#   From: 2010.06.25/outbox.cif.g09.slc.cpg/sg12_163_cif.got.tgz:324137.got - 2010.06.28 00:19:55.
