data_PCOD8090779
_publ_section_title
;
Structure prediction by ZEFSAII (Michael W. Deem and Ramdas Pophale) SiO2 
 PCOD8090779
Probable space group: C 2/M
;
_chemical_formula_sum "Si O2"
_cell_formula_units_Z 64
_cell_length_a 8.701036
_cell_length_b 29.137208
_cell_length_c 21.516339
_cell_angle_alpha 90.000000
_cell_angle_beta 134.801502
_cell_angle_gamma 90.000000
_cell_volume 3870.540965
_symmetry_space_group_name_H-M "C 2/M"
_symmetry_group_IT_number 12
_symmetry_cell_setting 'monoclinic'
loop_
_space_group_symop_operation_xyz
x,y,z
-x,y,-z
-x,-y,-z
x,-y,z
1/2+x,1/2+y,z
1/2-x,1/2+y,-z
1/2-x,1/2-y,-z
1/2+x,1/2-y,z
loop_
_atom_site_type_symbol
_atom_site_label
_atom_site_fract_x
_atom_site_fract_y
_atom_site_fract_z
Si Si1 0.554406 0.218548 0.667985
Si Si2 0.127406 0.552065 0.440825
Si Si3 0.273152 0.363237 0.404465
Si Si4 0.770820 0.766165 0.936536
Si Si5 0.194394 0.284730 0.176028
Si Si6 0.828364 0.051475 0.632146
Si Si7 0.922318 0.864633 0.310504
Si Si8 0.262586 0.795327 0.407744
O O1 0.426086 0.171283 0.641244
O O2 0.691570 0.238271 0.765045
O O3 0.731928 0.213307 0.664564
O O4 0.376692 0.256288 0.597914
O O5 0.151568 0.500000 0.422403
O O6 0.216021 0.586810 0.414721
O O7 0.267331 0.557650 0.542773
O O8 0.876627 0.562970 0.383110
O O9 0.500000 0.345738 0.500000
O O10 0.283313 0.367835 0.333194
O O11 0.801952 0.723279 0.897240
O O12 0.544394 0.792559 0.860947
O O13 0.750000 0.750000 0.000000
O O14 0.000000 0.795213 0.000000
O O15 0.319081 0.331153 0.229555
O O16 0.029751 0.085267 0.704973
O O17 0.908947 0.000000 0.668244
O O18 0.158648 0.844188 0.395060
O O19 0.500000 0.795627 0.500000
#
# Coordination Sequence:
#
# PCOD8090779 Si02
#       8
#     8   8   8   8   8   8   8   8
#     4  11  21  32  45  63  91 131 158 202 248 278
#     4   9  19  33  48  62  84 121 173 231 263 284
#     4  12  21  30  43  65  92 126 177 214 248 292
#     4   9  18  33  55  73  92 122 151 181 219 277
#     4  10  19  34  47  71 101 123 155 189 236 291
#     4   9  18  34  50  65  86 122 170 215 262 296
#     4  11  21  30  47  69  95 129 158 208 255 284
#     4  11  21  32  43  58  88 128 176 207 236 278
#
# _framework density 16.535157000000002
#
# number of rings (size 3 to 8) (size 9 to 14) (size 15 to 20)
#    0.000    1.750    1.250    6.750    1.750    0.750 
#    0.000    0.000    0.000    0.000    0.000    0.000 
#    0.000    5.000    0.000    6.625    0.000   16.500 
#
# Total GULP energy -396493.866292 kJ/mol
# GULP energy per Si atom -12390.433322 kJ/mol
# Density = 1.649752 g / cm^3
# Si number density = 16.535157 Si / 1000 Ang^3
#
#
#
# Elastic Constant Matrix: (Units=GPa)
#
#
# Indices 1 2 3 4 5 6 
#
# 1 86.3974 38.7207 24.6084 0.0000 -2.2040 0.0000
# 2 38.7207 92.5374 23.8991 0.0000 2.5967 0.0000
# 3 24.6084 23.8991 59.4575 0.0000 3.2626 0.0000
# 4 0.0000 0.0000 0.0000 11.2941 0.0000 -0.7238
# 5 -2.2040 2.5967 3.2626 0.0000 32.0127 0.0000
# 6 0.0000 0.0000 0.0000 -0.7238 0.0000 29.9948
#
#
#
# Elastic Compliance Matrix: (Units=1/GPa)
#
#
# Indices 1 2 3 4 5 6 
#
# 1 0.015224 -0.005322 -0.004267 0.000000 0.001915 0.000000
# 2 -0.005322 0.013926 -0.003332 0.000000 -0.001156 0.000000
# 3 -0.004267 -0.003332 0.020037 0.000000 -0.002066 0.000000
# 4 0.000000 0.000000 0.000000 0.088679 0.000000 0.002140
# 5 0.001915 -0.001156 -0.002066 0.000000 0.031674 0.000000
# 6 0.000000 0.000000 0.000000 0.002140 0.000000 0.033391
#
#
# Mechanical properties :
#
#
# Convention : Reuss Voigt Hill
#
# Bulk Modulus (GPa) = 42.83274 45.87209 44.35241
# Shear Modulus (GPa) = 21.13691 24.73794 22.93742
#
# Velocity S-wave (km/s) = 3.57921 3.87212 3.72854
# Velocity P-wave (km/s) = 6.56059 6.91328 6.73924
#
# Compressibility (1/GPa) = 0.02334663
#
# Stress axis : x y z
#
# Youngs Moduli (GPa) = 65.68732 71.80731 49.90734
#
# Poissons Ratio (x) = 0.38215 0.21294
# Poissons Ratio (y) = 0.34958 0.16627
# Poissons Ratio (z) = 0.28027 0.23923
#
# Static dielectric constant tensor:
#      x y z
#    x 3.904260 0.000000 0.411090 
#    y 0.000000 3.118520 0.000000 
#    z 0.411090 0.000000 3.339210 
# 
# 
# High freq. dielectric constant tensor:
#      x y z
#    x 1.664980 0.000000 0.003370 
#    y 0.000000 1.615240 0.000000 
#    z 0.003370 0.000000 1.599780 
# 
# From -- ./inp_files/302626.got.cif
#   From: 2010.06.25/outbox.cif.g09.slc.cpg/sg12_152_cif.got.tgz:302626.got - 2010.06.28 00:19:55.
