data_PCOD8090595
_publ_section_title
;
Structure prediction by ZEFSAII (Michael W. Deem and Ramdas Pophale) SiO2 
 PCOD8090595
Probable space group: C 2/M
;
_chemical_formula_sum "Si O2"
_cell_formula_units_Z 56
_cell_length_a 22.575331
_cell_length_b 8.555325
_cell_length_c 14.733377
_cell_angle_alpha 90.000000
_cell_angle_beta 76.327970
_cell_angle_gamma 90.000000
_cell_volume 2764.963043
_symmetry_space_group_name_H-M "C 2/M"
_symmetry_group_IT_number 12
_symmetry_cell_setting 'monoclinic'
loop_
_space_group_symop_operation_xyz
x,y,z
-x,y,-z
-x,-y,-z
x,-y,z
1/2+x,1/2+y,z
1/2-x,1/2+y,-z
1/2-x,1/2-y,-z
1/2+x,1/2-y,z
loop_
_atom_site_type_symbol
_atom_site_label
_atom_site_fract_x
_atom_site_fract_y
_atom_site_fract_z
Si Si1 0.468440 0.682103 0.165289
Si Si2 0.615972 0.315525 0.643758
Si Si3 0.068955 0.813695 0.472850
Si Si4 0.099228 0.679648 0.120324
Si Si5 0.720615 0.317172 0.735560
Si Si6 0.866692 0.320399 0.090552
Si Si7 0.151304 0.182837 0.278138
O O1 0.456456 0.500000 0.152269
O O2 0.439805 0.736534 0.271529
O O3 0.539766 0.713338 0.141949
O O4 0.435274 0.776267 0.096753
O O5 0.616734 0.500000 0.636735
O O6 0.605060 0.244807 0.547435
O O7 0.679932 0.260141 0.664372
O O8 0.102515 0.756040 0.369801
O O9 0.000000 0.748946 0.500000
O O10 0.068692 0.000000 0.476328
O O11 0.078838 0.500000 0.133930
O O12 0.142179 0.723602 0.188587
O O13 0.138073 0.710165 0.015253
O O14 0.736342 0.500000 0.725112
O O15 0.683280 0.286229 0.841600
O O16 0.781512 0.216133 0.708893
O O17 0.853387 0.500000 0.119375
O O18 0.142987 0.000000 0.262672
#
# Coordination Sequence:
#
# PCOD8090595 Si02
#       7
#     8   8   8   8   8   8   8
#     4  10  19  33  57  87 116 146 182 226 275 328
#     4   8  16  32  55  82 111 145 182 221 269 323
#     4   9  17  32  56  85 113 141 178 223 271 326
#     4  11  23  37  54  78 112 151 186 228 280 328
#     4  10  21  38  58  80 110 146 184 229 278 329
#     4  10  21  37  57  81 110 146 187 229 274 327
#     4  11  23  37  57  82 108 143 187 233 277 326
#
# _framework density 20.253436000000001
#
# number of rings (size 3 to 8) (size 9 to 14) (size 15 to 20)
#    0.000    2.143    0.000    4.286    0.000    7.429 
#    0.000    0.000    0.000   15.429    0.000    0.000 
#    0.000    0.000    0.000    0.000    0.000    0.000 
#
# Total GULP energy -347242.992956 kJ/mol
# GULP energy per Si atom -12401.535463 kJ/mol
# Density = 2.020734 g / cm^3
# Si number density = 20.253436 Si / 1000 Ang^3
#
#
#
# Elastic Constant Matrix: (Units=GPa)
#
#
# Indices 1 2 3 4 5 6 
#
# 1 114.0175 6.4274 57.6686 0.0000 2.9883 0.0000
# 2 6.4274 37.3027 26.9022 0.0000 4.3161 0.0000
# 3 57.6686 26.9022 123.4823 0.0000 25.7280 0.0000
# 4 0.0000 0.0000 0.0000 16.4449 0.0000 -0.1226
# 5 2.9883 4.3161 25.7280 0.0000 30.5236 0.0000
# 6 0.0000 0.0000 0.0000 -0.1226 0.0000 32.1437
#
#
#
# Elastic Compliance Matrix: (Units=1/GPa)
#
#
# Indices 1 2 3 4 5 6 
#
# 1 0.012127 0.002551 -0.007153 0.000000 0.004481 0.000000
# 2 0.002551 0.032408 -0.008788 0.000000 0.002575 0.000000
# 3 -0.007153 -0.008788 0.015707 0.000000 -0.011296 0.000000
# 4 0.000000 0.000000 0.000000 0.060811 0.000000 0.000232
# 5 0.004481 0.002575 -0.011296 0.000000 0.041480 0.000000
# 6 0.000000 0.000000 0.000000 0.000232 0.000000 0.031111
#
#
# Mechanical properties :
#
#
# Convention : Reuss Voigt Hill
#
# Bulk Modulus (GPa) = 29.88530 50.75544 40.32037
# Shear Modulus (GPa) = 21.59077 28.07606 24.83342
#
# Velocity S-wave (km/s) = 3.26855 3.72726 3.50542
# Velocity P-wave (km/s) = 5.38816 6.60590 6.02786
#
# Compressibility (1/GPa) = 0.03346127
#
# Stress axis : x y z
#
# Youngs Moduli (GPa) = 82.45885 30.85636 63.66496
#
# Poissons Ratio (x) = -0.07870 0.45540
# Poissons Ratio (y) = -0.21032 0.55951
# Poissons Ratio (z) = 0.58983 0.27117
#
# Static dielectric constant tensor:
#      x y z
#    x 3.662020 0.000000 0.174270 
#    y 0.000000 3.403380 0.000000 
#    z 0.174270 0.000000 3.882710 
# 
# 
# High freq. dielectric constant tensor:
#      x y z
#    x 1.790310 0.000000 0.006490 
#    y 0.000000 1.769220 0.000000 
#    z 0.006490 0.000000 1.796050 
# 
# From -- ./inp_files/237319.got.cif
#   From: 2010.06.25/outbox.cif.g09.slc.cpg/sg12_119_cif.got.tgz:237319.got - 2010.06.28 00:19:55.
