data_PCOD8090981
_publ_section_title
;
Structure prediction by ZEFSAII (Michael W. Deem and Ramdas Pophale) SiO2 
 PCOD8090981
Probable space group: C 2/M
;
_chemical_formula_sum "Si O2"
_cell_formula_units_Z 56
_cell_length_a 18.934966
_cell_length_b 9.096590
_cell_length_c 27.176993
_cell_angle_alpha 90.000000
_cell_angle_beta 140.302655
_cell_angle_gamma 90.000000
_cell_volume 2989.945959
_symmetry_space_group_name_H-M "C 2/M"
_symmetry_group_IT_number 12
_symmetry_cell_setting 'monoclinic'
loop_
_space_group_symop_operation_xyz
x,y,z
-x,y,-z
-x,-y,-z
x,-y,z
1/2+x,1/2+y,z
1/2-x,1/2+y,-z
1/2-x,1/2-y,-z
1/2+x,1/2-y,z
loop_
_atom_site_type_symbol
_atom_site_label
_atom_site_fract_x
_atom_site_fract_y
_atom_site_fract_z
Si Si1 0.310688 0.161597 0.809831
Si Si2 0.823154 0.829225 0.722645
Si Si3 0.567609 0.827968 0.582628
Si Si4 0.267128 0.325040 0.061349
Si Si5 0.870462 0.833622 0.935961
Si Si6 0.523456 0.672609 0.763020
Si Si7 0.054165 0.838438 0.670817
O O1 0.367108 0.235299 0.792466
O O2 0.318346 0.272420 0.858660
O O3 0.182934 0.141066 0.731134
O O4 0.364170 0.000000 0.848654
O O5 0.696545 0.790179 0.642107
O O6 0.902770 0.788449 0.719770
O O7 0.836105 0.000000 0.743508
O O8 0.500000 0.764738 0.500000
O O9 0.513974 0.760020 0.603484
O O10 0.549839 0.000000 0.578522
O O11 0.266475 0.500000 0.054679
O O12 0.163192 0.272588 0.037667
O O13 0.379483 0.268505 0.148765
O O14 0.250000 0.250000 0.000000
O O15 0.828161 0.000000 0.922303
O O16 0.000000 0.829102 0.000000
O O17 0.543645 0.500000 0.768417
O O18 0.530044 0.738632 0.711041
O O19 0.997061 0.000000 0.637716
#
# Coordination Sequence:
#
# PCOD8090981 Si02
#       7
#     8   8   8   8   8   8   8
#     4  10  19  34  54  77 104 134 174 228 274 314
#     4   9  18  33  55  78 104 143 181 213 261 324
#     4   9  18  33  53  80 111 140 174 217 262 312
#     4  11  23  40  57  79 111 145 183 231 284 328
#     4  11  24  39  55  76 104 141 185 227 272 330
#     4   9  18  35  56  76 105 141 179 221 266 322
#     4   9  17  33  55  77 101 136 176 215 264 320
#
# _framework density 18.729434999999999
#
# number of rings (size 3 to 8) (size 9 to 14) (size 15 to 20)
#    0.000    2.286    1.429    1.286    2.000    2.000 
#    0.000    2.143    0.000    0.000    0.000    0.000 
#    0.000    0.000    0.000    0.000    0.000    0.000 
#
# Total GULP energy -347066.275153 kJ/mol
# GULP energy per Si atom -12395.224113 kJ/mol
# Density = 1.868681 g / cm^3
# Si number density = 18.729435 Si / 1000 Ang^3
#
#
#
# Elastic Constant Matrix: (Units=GPa)
#
#
# Indices 1 2 3 4 5 6 
#
# 1 143.4336 43.9837 59.0216 0.0000 -27.4840 0.0000
# 2 43.9837 69.5413 41.0148 0.0000 -8.9890 0.0001
# 3 59.0216 41.0148 91.9013 0.0000 -30.7771 0.0000
# 4 0.0000 0.0000 0.0000 24.2182 0.0000 -6.7984
# 5 -27.4840 -8.9890 -30.7771 0.0000 33.5497 0.0000
# 6 0.0000 0.0001 0.0000 -6.7984 0.0000 31.1786
#
#
#
# Elastic Compliance Matrix: (Units=1/GPa)
#
#
# Indices 1 2 3 4 5 6 
#
# 1 0.010458 -0.003999 -0.003496 0.000000 0.004289 0.000000
# 2 -0.003999 0.021422 -0.008902 0.000000 -0.005703 0.000000
# 3 -0.003496 -0.008902 0.022145 0.000000 0.015066 0.000000
# 4 0.000000 0.000000 0.000000 0.043984 0.000000 0.009590
# 5 0.004289 -0.005703 0.015066 0.000000 0.045613 0.000000
# 6 0.000000 0.000000 0.000000 0.009590 0.000000 0.034164
#
#
# Mechanical properties :
#
#
# Convention : Reuss Voigt Hill
#
# Bulk Modulus (GPa) = 47.09815 65.87961 56.48888
# Shear Modulus (GPa) = 22.97188 28.51304 25.74246
#
# Velocity S-wave (km/s) = 3.50596 3.90598 3.71136
# Velocity P-wave (km/s) = 6.44904 7.45607 6.97077
#
# Compressibility (1/GPa) = 0.02123226
#
# Stress axis : x y z
#
# Youngs Moduli (GPa) = 95.61735 46.68007 45.15748
#
# Poissons Ratio (x) = 0.18665 0.15785
# Poissons Ratio (y) = 0.38234 0.40201
# Poissons Ratio (z) = 0.33424 0.41557
#
# Static dielectric constant tensor:
#      x y z
#    x 3.528680 0.000000 -0.227170 
#    y 0.000000 3.644850 0.000000 
#    z -0.227170 0.000000 3.356290 
# 
# 
# High freq. dielectric constant tensor:
#      x y z
#    x 1.731880 0.000000 -0.014370 
#    y 0.000000 1.717620 0.000000 
#    z -0.014370 0.000000 1.709000 
# 
# From -- ./inp_files/342294.got.cif
#   From: 2010.06.25/outbox.cif.g09.slc.cpg/sg12_172_cif.got.tgz:342294.got - 2010.06.28 00:19:55.
