data_PCOD8090509
_publ_section_title
;
Structure prediction by ZEFSAII (Michael W. Deem and Ramdas Pophale) SiO2 
 PCOD8090509
Probable space group: C 2/M
;
_chemical_formula_sum "Si O2"
_cell_formula_units_Z 64
_cell_length_a 20.376646
_cell_length_b 9.164663
_cell_length_c 26.176256
_cell_angle_alpha 90.000000
_cell_angle_beta 47.936563
_cell_angle_gamma 90.000000
_cell_volume 3629.081752
_symmetry_space_group_name_H-M "C 2/M"
_symmetry_group_IT_number 12
_symmetry_cell_setting 'monoclinic'
loop_
_space_group_symop_operation_xyz
x,y,z
-x,y,-z
-x,-y,-z
x,-y,z
1/2+x,1/2+y,z
1/2-x,1/2+y,-z
1/2-x,1/2-y,-z
1/2+x,1/2-y,z
loop_
_atom_site_type_symbol
_atom_site_label
_atom_site_fract_x
_atom_site_fract_y
_atom_site_fract_z
Si Si1 0.118005 0.829438 0.582048
Si Si2 0.709560 0.668822 0.973363
Si Si3 0.283628 0.669487 0.672802
Si Si4 0.084017 0.826708 0.311161
Si Si5 0.465595 0.166707 0.961712
Si Si6 0.848594 0.667301 0.173433
Si Si7 0.256034 0.328256 0.575087
Si Si8 0.784336 0.669291 0.825970
O O1 0.166027 0.745588 0.602781
O O2 0.163017 0.789899 0.504578
O O3 0.017054 0.776649 0.631932
O O4 0.124908 0.000000 0.590043
O O5 0.700997 0.500000 0.991372
O O6 0.774500 0.693751 0.891563
O O7 0.750000 0.750000 0.000000
O O8 0.612077 0.726337 0.012796
O O9 0.300626 0.500000 0.656062
O O10 0.364517 0.730753 0.664984
O O11 0.191004 0.701261 0.749907
O O12 0.280092 0.739480 0.618121
O O13 0.128104 0.753407 0.238513
O O14 0.093606 0.000000 0.300635
O O15 0.546463 0.193996 0.880162
O O16 0.431788 0.000000 0.976358
O O17 0.500000 0.203977 0.000000
O O18 0.827264 0.500000 0.169041
O O19 0.803585 0.769132 0.154787
O O20 0.238048 0.500000 0.587147
O O21 0.793471 0.500000 0.807240
#
# Coordination Sequence:
#
# PCOD8090509 Si02
#       8
#     8   8   8   8   8   8   8   8
#     4   9  18  32  50  73 100 133 170 205 247 302
#     4  11  24  39  55  76 106 139 175 219 263 309
#     4   8  15  29  50  75  99 128 166 207 248 287
#     4   9  18  33  53  74  99 131 169 209 251 305
#     4  10  19  33  57  82 104 137 175 211 256 310
#     4   9  17  32  54  78 104 135 170 208 253 309
#     4   9  17  31  51  73 101 134 166 205 251 297
#     4  10  20  34  53  77 103 133 170 214 258 303
#
# _framework density 17.635314999999999
#
# number of rings (size 3 to 8) (size 9 to 14) (size 15 to 20)
#    0.000    2.625    1.250    1.500    0.000    3.250 
#    2.250    5.000    0.000    0.000    0.000    7.000 
#    0.000    0.000    0.000    0.000    0.000    0.000 
#
# Total GULP energy -396760.252563 kJ/mol
# GULP energy per Si atom -12398.757893 kJ/mol
# Density = 1.759518 g / cm^3
# Si number density = 17.635315 Si / 1000 Ang^3
#
#
#
# Elastic Constant Matrix: (Units=GPa)
#
#
# Indices 1 2 3 4 5 6 
#
# 1 123.6719 55.0186 85.8987 0.0000 -2.9410 -0.0001
# 2 55.0186 65.8800 49.7957 -0.0001 2.6295 -0.0005
# 3 85.8987 49.7957 119.5584 0.0000 -6.3563 0.0000
# 4 0.0000 -0.0001 0.0000 23.5576 0.0000 -1.2739
# 5 -2.9410 2.6295 -6.3563 0.0000 32.2894 0.0001
# 6 -0.0001 -0.0005 0.0000 -1.2739 0.0001 29.0161
#
#
#
# Elastic Compliance Matrix: (Units=1/GPa)
#
#
# Indices 1 2 3 4 5 6 
#
# 1 0.018608 -0.007975 -0.010028 0.000000 0.000370 0.000000
# 2 -0.007975 0.026007 -0.005309 0.000000 -0.003889 0.000000
# 3 -0.010028 -0.005309 0.017942 0.000000 0.003051 0.000000
# 4 0.000000 0.000000 0.000000 0.042550 0.000000 0.001868
# 5 0.000370 -0.003889 0.003051 0.000000 0.031921 0.000000
# 6 0.000000 0.000000 0.000000 0.001868 0.000000 0.034546
#
#
# Mechanical properties :
#
#
# Convention : Reuss Voigt Hill
#
# Bulk Modulus (GPa) = 62.76040 76.72625 69.74332
# Shear Modulus (GPa) = 22.37056 24.86577 23.61816
#
# Velocity S-wave (km/s) = 3.56548 3.75907 3.66355
# Velocity P-wave (km/s) = 7.25364 7.90205 7.58478
#
# Compressibility (1/GPa) = 0.01593361
#
# Stress axis : x y z
#
# Youngs Moduli (GPa) = 53.74176 38.45060 55.73541
#
# Poissons Ratio (x) = 0.30665 0.55889
# Poissons Ratio (y) = 0.42860 0.29589
# Poissons Ratio (z) = 0.53890 0.20413
#
# Static dielectric constant tensor:
#      x y z
#    x 3.682530 0.000000 -0.170550 
#    y 0.000000 3.147530 0.000000 
#    z -0.170550 0.000000 3.577860 
# 
# 
# High freq. dielectric constant tensor:
#      x y z
#    x 1.669860 0.000000 -0.002660 
#    y 0.000000 1.667120 0.000000 
#    z -0.002660 0.000000 1.690830 
# 
# From -- ./inp_files/365177.got.cif
#   From: 2010.06.25/outbox.cif.g09.slc.cpg/sg12_183_cif.got.tgz:365177.got - 2010.06.28 00:19:55.
