data_PCOD8090742
_publ_section_title
;
Structure prediction by ZEFSAII (Michael W. Deem and Ramdas Pophale) SiO2 
 PCOD8090742
Probable space group: C 2/M
;
_chemical_formula_sum "Si O2"
_cell_formula_units_Z 64
_cell_length_a 14.836564
_cell_length_b 14.787655
_cell_length_c 18.123552
_cell_angle_alpha 90.000000
_cell_angle_beta 127.406800
_cell_angle_gamma 90.000000
_cell_volume 3158.521069
_symmetry_space_group_name_H-M "C 2/M"
_symmetry_group_IT_number 12
_symmetry_cell_setting 'monoclinic'
loop_
_space_group_symop_operation_xyz
x,y,z
-x,y,-z
-x,-y,-z
x,-y,z
1/2+x,1/2+y,z
1/2-x,1/2+y,-z
1/2-x,1/2-y,-z
1/2+x,1/2-y,z
loop_
_atom_site_type_symbol
_atom_site_label
_atom_site_fract_x
_atom_site_fract_y
_atom_site_fract_z
Si Si1 0.894633 0.099892 0.907982
Si Si2 0.484411 0.101941 0.578939
Si Si3 0.636331 0.257927 0.716837
Si Si4 0.979816 0.103393 0.571380
Si Si5 0.767218 0.103984 0.559107
Si Si6 0.847390 0.209912 0.742194
Si Si7 0.261966 0.397196 0.984426
Si Si8 0.103666 0.752855 0.866282
O O1 0.854769 0.138459 0.811254
O O2 0.789468 0.097583 0.911535
O O3 0.939516 0.000000 0.911065
O O4 0.000000 0.152944 0.000000
O O5 0.500000 0.106165 0.500000
O O6 0.574601 0.165123 0.663471
O O7 0.355943 0.136029 0.531074
O O8 0.503248 0.000000 0.618044
O O9 0.555054 0.343404 0.667109
O O10 0.747768 0.276484 0.721615
O O11 0.665352 0.253045 0.817551
O O12 0.848864 0.114160 0.529185
O O13 0.000000 0.144796 0.500000
O O14 0.019920 0.000000 0.593432
O O15 0.811461 0.163613 0.648478
O O16 0.760585 0.000000 0.583171
O O17 0.967895 0.259754 0.791423
O O18 0.241352 0.500000 0.004608
O O19 0.150886 0.332747 0.937143
O O20 0.365597 0.348692 0.079790
#
# Coordination Sequence:
#
# PCOD8090742 Si02
#       8
#     8   8   8   8   8   8   8   8
#     4  10  19  33  59  92 120 149 190 250 317 365
#     4  10  21  37  58  91 129 160 195 250 322 382
#     4  12  24  38  60  91 125 166 200 255 306 359
#     4  10  23  42  61  82 115 164 217 254 286 345
#     4  10  21  38  62  91 122 160 207 257 308 360
#     4  12  22  36  59  94 126 157 197 258 305 364
#     4  10  22  42  65  89 125 162 196 248 311 372
#     4  11  24  40  60  95 126 158 203 246 307 373
#
# _framework density 20.262649
#
# number of rings (size 3 to 8) (size 9 to 14) (size 15 to 20)
#    0.000    1.375    5.000    0.750    0.000    3.500 
#    0.000    0.625    0.000    0.750    0.000    0.000 
#    0.000    0.000    0.000    0.000    0.000    0.000 
#
# Total GULP energy -396728.311252 kJ/mol
# GULP energy per Si atom -12397.759727 kJ/mol
# Density = 2.021653 g / cm^3
# Si number density = 20.262649 Si / 1000 Ang^3
#
#
#
# Elastic Constant Matrix: (Units=GPa)
#
#
# Indices 1 2 3 4 5 6 
#
# 1 108.6825 18.4792 18.6691 0.0000 10.1515 0.0000
# 2 18.4792 83.2636 21.5204 0.0000 6.4675 0.0000
# 3 18.6691 21.5204 58.5703 0.0000 -0.4818 0.0000
# 4 0.0000 0.0000 0.0000 12.1711 0.0000 8.3296
# 5 10.1515 6.4675 -0.4818 0.0000 39.6824 0.0000
# 6 0.0000 0.0000 0.0000 8.3296 0.0000 20.2717
#
#
#
# Elastic Compliance Matrix: (Units=1/GPa)
#
#
# Indices 1 2 3 4 5 6 
#
# 1 0.010128 -0.001350 -0.002752 0.000000 -0.002404 0.000000
# 2 -0.001350 0.013649 -0.004601 0.000000 -0.001935 0.000000
# 3 -0.002752 -0.004601 0.019655 0.000000 0.001693 0.000000
# 4 0.000000 0.000000 0.000000 0.114306 0.000000 -0.046968
# 5 -0.002404 -0.001935 0.001693 0.000000 0.026151 0.000000
# 6 0.000000 0.000000 0.000000 -0.046968 0.000000 0.068629
#
#
# Mechanical properties :
#
#
# Convention : Reuss Voigt Hill
#
# Bulk Modulus (GPa) = 38.42171 40.87264 39.64718
# Shear Modulus (GPa) = 17.94697 27.21490 22.58093
#
# Velocity S-wave (km/s) = 2.97933 3.66882 3.34190
# Velocity P-wave (km/s) = 5.55322 6.17755 5.87369
#
# Compressibility (1/GPa) = 0.02602695
#
# Stress axis : x y z
#
# Youngs Moduli (GPa) = 98.73689 73.26533 50.87741
#
# Poissons Ratio (x) = 0.09888 0.14002
# Poissons Ratio (y) = 0.13326 0.23407
# Poissons Ratio (z) = 0.27173 0.33708
#
# Static dielectric constant tensor:
#      x y z
#    x 3.997950 0.000000 0.190720 
#    y 0.000000 3.649310 0.000000 
#    z 0.190720 0.000000 3.690840 
# 
# 
# High freq. dielectric constant tensor:
#      x y z
#    x 1.795580 0.000000 0.005290 
#    y 0.000000 1.776510 0.000000 
#    z 0.005290 0.000000 1.790600 
# 
# From -- ./inp_files/270702.got.cif
#   From: 2010.06.25/outbox.cif.g09.slc.cpg/sg12_136_cif.got.tgz:270702.got - 2010.06.28 00:19:55.
