data_PCOD8090175
_publ_section_title
;
Structure prediction by ZEFSAII (Michael W. Deem and Ramdas Pophale) SiO2 
 PCOD8090175
Probable space group: C 2/M
;
_chemical_formula_sum "Si O2"
_cell_formula_units_Z 56
_cell_length_a 16.661978
_cell_length_b 17.472659
_cell_length_c 21.369314
_cell_angle_alpha 90.000000
_cell_angle_beta 27.708445
_cell_angle_gamma 90.000000
_cell_volume 2892.700332
_symmetry_space_group_name_H-M "C 2/M"
_symmetry_group_IT_number 12
_symmetry_cell_setting 'monoclinic'
loop_
_space_group_symop_operation_xyz
x,y,z
-x,y,-z
-x,-y,-z
x,-y,z
1/2+x,1/2+y,z
1/2-x,1/2+y,-z
1/2-x,1/2-y,-z
1/2+x,1/2-y,z
loop_
_atom_site_type_symbol
_atom_site_label
_atom_site_fract_x
_atom_site_fract_y
_atom_site_fract_z
Si Si1 0.645434 0.149844 0.785408
Si Si2 0.302600 0.090370 0.383948
Si Si3 0.876624 0.414085 0.758881
Si Si4 0.613062 0.586242 0.052569
Si Si5 0.633066 0.310907 0.852017
Si Si6 0.425439 0.412110 0.674985
Si Si7 0.277857 0.091177 0.066404
O O1 0.630133 0.139195 0.721597
O O2 0.691097 0.235544 0.775289
O O3 0.803678 0.097033 0.698778
O O4 0.467656 0.126201 0.941027
O O5 0.427117 0.105793 0.357313
O O6 0.114337 0.122998 0.532341
O O7 0.302745 0.000000 0.366331
O O8 0.864301 0.500000 0.738769
O O9 0.805050 0.352889 0.758683
O O10 0.768245 0.410735 0.897002
O O11 0.546283 0.500000 0.108029
O O12 0.452079 0.634924 0.140815
O O13 0.683002 0.620101 0.069445
O O14 0.500000 0.293665 0.000000
O O15 0.454713 0.500000 0.670275
O O16 0.332092 0.374718 0.799772
O O17 0.296540 0.000000 0.054828
#
# Coordination Sequence:
#
# PCOD8090175 Si02
#       7
#     8   8   8   8   8   8   8
#     4  12  21  34  53  82 117 143 181 223 275 335
#     4  10  20  37  61  83 106 145 190 230 268 318
#     4   9  17  35  60  83 107 140 189 234 270 318
#     4   9  17  33  57  83 108 139 186 235 275 317
#     4  10  21  34  52  84 114 146 181 225 282 326
#     4  10  21  35  55  81 111 147 184 224 270 324
#     4  10  19  33  55  83 111 142 181 228 277 322
#
# _framework density 19.359074
#
# number of rings (size 3 to 8) (size 9 to 14) (size 15 to 20)
#    0.000    2.000    1.429    3.429    0.000    4.571 
#    2.571    0.714    3.143    0.000    0.000    5.000 
#    0.000    0.000    0.000    0.000    0.000    0.000 
#
# Total GULP energy -347223.425582 kJ/mol
# GULP energy per Si atom -12400.836628 kJ/mol
# Density = 1.931501 g / cm^3
# Si number density = 19.359074 Si / 1000 Ang^3
#
#
#
# Elastic Constant Matrix: (Units=GPa)
#
#
# Indices 1 2 3 4 5 6 
#
# 1 100.2761 45.5869 41.6867 -0.0030 -28.3109 0.0008
# 2 45.5869 68.2282 34.3981 0.0191 -2.1553 -0.0007
# 3 41.6867 34.3981 105.4700 0.0509 -15.6900 -0.0150
# 4 -0.0030 0.0191 0.0509 9.3466 -0.0025 4.1149
# 5 -28.3109 -2.1553 -15.6900 -0.0025 22.1811 0.0009
# 6 0.0008 -0.0007 -0.0150 4.1149 0.0009 24.0744
#
#
#
# Elastic Compliance Matrix: (Units=1/GPa)
#
#
# Indices 1 2 3 4 5 6 
#
# 1 0.026916 -0.016792 -0.000329 0.000059 0.032490 -0.000013
# 2 -0.016792 0.028154 -0.005953 -0.000039 -0.022908 0.000005
# 3 -0.000329 -0.005953 0.012746 -0.000063 0.008018 0.000018
# 4 0.000059 -0.000039 -0.000063 0.115698 0.000040 -0.019776
# 5 0.032490 -0.022908 0.008018 0.000040 0.089998 -0.000007
# 6 -0.000013 0.000005 0.000018 -0.019776 -0.000007 0.044918
#
#
# Mechanical properties :
#
#
# Convention : Reuss Voigt Hill
#
# Bulk Modulus (GPa) = 46.15039 57.47976 51.81508
# Shear Modulus (GPa) = 13.44815 21.27391 17.36103
#
# Velocity S-wave (km/s) = 2.63852 3.31858 2.99789
# Velocity P-wave (km/s) = 5.75962 6.66632 6.22949
#
# Compressibility (1/GPa) = 0.02166829
#
# Stress axis : x y z
#
# Youngs Moduli (GPa) = 37.15297 35.51910 78.45884
#
# Poissons Ratio (x) = 0.59643 0.02578
# Poissons Ratio (y) = 0.62387 0.46706
# Poissons Ratio (z) = 0.01221 0.21144
#
# Static dielectric constant tensor:
#      x y z
#    x 3.595210 0.000000 -0.114600 
#    y 0.000000 3.351980 0.000060 
#    z -0.114600 0.000060 3.501140 
# 
# 
# High freq. dielectric constant tensor:
#      x y z
#    x 1.760990 0.000000 -0.015750 
#    y 0.000000 1.732010 0.000010 
#    z -0.015750 0.000010 1.735740 
# 
# From -- ./inp_files/311683.got.cif
#   From: 2010.06.25/outbox.cif.g09.slc.cpg/sg12_156_cif.got.tgz:311683.got - 2010.06.28 00:19:55.
