data_PCOD8090637
_publ_section_title
;
Structure prediction by ZEFSAII (Michael W. Deem and Ramdas Pophale) SiO2 
 PCOD8090637
Probable space group: C 2/M
;
_chemical_formula_sum "Si O2"
_cell_formula_units_Z 56
_cell_length_a 29.565705
_cell_length_b 17.091934
_cell_length_c 9.516124
_cell_angle_alpha 90.000000
_cell_angle_beta 142.157485
_cell_angle_gamma 90.000000
_cell_volume 2950.185288
_symmetry_space_group_name_H-M "C 2/M"
_symmetry_group_IT_number 12
_symmetry_cell_setting 'monoclinic'
loop_
_space_group_symop_operation_xyz
x,y,z
-x,y,-z
-x,-y,-z
x,-y,z
1/2+x,1/2+y,z
1/2-x,1/2+y,-z
1/2-x,1/2-y,-z
1/2+x,1/2-y,z
loop_
_atom_site_type_symbol
_atom_site_label
_atom_site_fract_x
_atom_site_fract_y
_atom_site_fract_z
Si Si1 0.085876 0.915024 0.786558
Si Si2 0.793672 0.828527 0.578245
Si Si3 0.250158 0.412588 0.740735
Si Si4 0.286323 0.593341 0.265849
Si Si5 0.959209 0.151150 0.040472
Si Si6 0.918994 0.806587 0.467278
Si Si7 0.307397 0.181534 0.165851
O O1 0.058966 0.912560 0.883549
O O2 0.049707 0.850016 0.595198
O O3 0.063702 0.000000 0.674096
O O4 0.173501 0.905099 0.987406
O O5 0.750000 0.750000 0.500000
O O6 0.764910 0.892257 0.616860
O O7 0.771339 0.866783 0.377689
O O8 0.881431 0.809791 0.805417
O O9 0.217735 0.500000 0.669544
O O10 0.194983 0.351993 0.680954
O O11 0.297435 0.500000 0.304685
O O12 0.359519 0.633605 0.386046
O O13 0.212997 0.611922 0.992619
O O14 0.015938 0.210103 0.259085
O O15 0.000000 0.116995 0.000000
O O16 0.887617 0.721245 0.345682
O O17 0.250000 0.250000 0.000000
#
# Coordination Sequence:
#
# PCOD8090637 Si02
#       7
#     8   8   8   8   8   8   8
#     4  10  21  36  54  77 115 159 193 225 273 343
#     4  11  23  39  60  82 115 154 193 238 283 347
#     4  10  19  34  54  82 113 148 192 233 280 338
#     4  11  21  35  57  86 120 154 191 236 290 342
#     4  11  24  39  53  82 118 151 195 231 290 345
#     4  11  21  37  55  82 116 155 197 238 284 342
#     4  10  19  33  58  81 110 151 198 241 279 325
#
# _framework density 18.981859
#
# number of rings (size 3 to 8) (size 9 to 14) (size 15 to 20)
#    0.000    1.429    4.286    3.429    2.000    2.571 
#    0.000    0.000    0.000    0.000    0.000    6.000 
#    0.000    0.000    0.000    0.000    0.000    0.000 
#
# Total GULP energy -346874.056725 kJ/mol
# GULP energy per Si atom -12388.359169 kJ/mol
# Density = 1.893866 g / cm^3
# Si number density = 18.981859 Si / 1000 Ang^3
#
#
#
# Elastic Constant Matrix: (Units=GPa)
#
#
# Indices 1 2 3 4 5 6 
#
# 1 102.2184 49.5706 33.4542 0.0000 -12.9812 0.0000
# 2 49.5706 94.9225 23.9744 0.0000 7.7625 0.0000
# 3 33.4542 23.9744 77.2382 0.0000 1.2404 0.0000
# 4 0.0000 0.0000 0.0000 -50.9921 0.0000 -65.7088
# 5 -12.9812 7.7625 1.2404 0.0000 28.6307 0.0000
# 6 0.0000 0.0000 0.0000 -65.7088 0.0000 -23.7718
#
#
#
# Elastic Compliance Matrix: (Units=1/GPa)
#
#
# Indices 1 2 3 4 5 6 
#
# 1 0.016649 -0.008302 -0.004795 0.000000 0.010007 0.000000
# 2 -0.008302 0.015825 -0.001188 0.000000 -0.008003 0.000000
# 3 -0.004795 -0.001188 0.015433 0.000000 -0.002521 0.000000
# 4 0.000000 0.000000 0.000000 0.007655 0.000000 -0.021159
# 5 0.010007 -0.008003 -0.002521 0.000000 0.041744 0.000000
# 6 0.000000 0.000000 0.000000 -0.021159 0.000000 0.016420
#
#
# Mechanical properties :
#
#
# Convention : Reuss Voigt Hill
#
# Bulk Modulus (GPa) = 51.71239 54.26418 52.98828
# Shear Modulus (GPa) = 33.61555 1.93203 17.77379
#
# Velocity S-wave (km/s) = 4.21281 1.00997 3.06331
# Velocity P-wave (km/s) = 7.13904 5.47809 6.36299
#
# Compressibility (1/GPa) = 0.01933773
#
# Stress axis : x y z
#
# Youngs Moduli (GPa) = 60.06307 63.19217 64.79626
#
# Poissons Ratio (x) = 0.52461 0.31071
# Poissons Ratio (y) = 0.49863 0.07695
# Poissons Ratio (z) = 0.28801 0.07505
#
# Static dielectric constant tensor:
#      x y z
#    x 3.626140 0.000000 -0.158880 
#    y 0.000000 3.421280 0.000000 
#    z -0.158880 0.000000 3.949360 
# 
# 
# High freq. dielectric constant tensor:
#      x y z
#    x 1.743810 0.000000 -0.020680 
#    y 0.000000 1.709300 0.000000 
#    z -0.020680 0.000000 1.737630 
# 
# From -- ./inp_files/112655.got.cif
#   From: 2010.06.25/outbox.cif.g09.slc.cpg/sg12_57_cif.got.tgz:112655.got - 2010.06.28 00:19:55.
