data_PCOD8090552
_publ_section_title
;
Structure prediction by ZEFSAII (Michael W. Deem and Ramdas Pophale) SiO2 
 PCOD8090552
Probable space group: C 2/M
;
_chemical_formula_sum "Si O2"
_cell_formula_units_Z 48
_cell_length_a 20.500235
_cell_length_b 8.922210
_cell_length_c 31.681672
_cell_angle_alpha 90.000000
_cell_angle_beta 152.969323
_cell_angle_gamma 90.000000
_cell_volume 2633.553820
_symmetry_space_group_name_H-M "C 2/M"
_symmetry_group_IT_number 12
_symmetry_cell_setting 'monoclinic'
loop_
_space_group_symop_operation_xyz
x,y,z
-x,y,-z
-x,-y,-z
x,-y,z
1/2+x,1/2+y,z
1/2-x,1/2+y,-z
1/2-x,1/2-y,-z
1/2+x,1/2-y,z
loop_
_atom_site_type_symbol
_atom_site_label
_atom_site_fract_x
_atom_site_fract_y
_atom_site_fract_z
Si Si1 0.940263 0.670585 0.228003
Si Si2 0.432439 0.673692 0.775816
Si Si3 0.352921 0.174947 0.436125
Si Si4 0.717788 0.825078 0.437191
Si Si5 0.379330 0.672196 0.962813
Si Si6 0.384170 0.823547 0.054166
O O1 0.968665 0.500000 0.229153
O O2 0.776656 0.690180 0.149478
O O3 0.960997 0.779741 0.200402
O O4 0.052086 0.711447 0.329603
O O5 0.456706 0.500000 0.799549
O O6 0.269815 0.709524 0.668889
O O7 0.469773 0.767660 0.839123
O O8 0.500000 0.231544 0.500000
O O9 0.324742 0.262802 0.463145
O O10 0.359070 0.000000 0.451101
O O11 0.750000 0.750000 0.500000
O O12 0.745883 0.000000 0.457860
O O13 0.404859 0.500000 0.991185
O O14 0.500000 0.726809 0.000000
O O15 0.390653 0.777686 0.009506
O O16 0.370285 0.000000 0.050204
O O17 0.250000 0.750000 0.000000
#
# Coordination Sequence:
#
# PCOD8090552 Si02
#       6
#     8   8   8   8   8   8
#     4   9  18  34  56  79 106 143 183 226 272 323
#     4  10  19  33  57  85 109 142 184 226 273 325
#     4   9  19  37  59  83 112 144 180 227 277 326
#     4  10  20  35  56  81 109 144 186 228 272 326
#     4  10  21  38  58  81 111 145 181 225 277 328
#     4  12  23  36  57  83 112 145 185 229 270 323
#
# _framework density 18.226322
#
# number of rings (size 3 to 8) (size 9 to 14) (size 15 to 20)
#    0.000    2.000    1.667    2.500    0.000    2.000 
#    3.000    0.000    0.000    0.000    0.000    0.000 
#    0.000    0.000    0.000    0.000    0.000    0.000 
#
# Total GULP energy -297639.643218 kJ/mol
# GULP energy per Si atom -12401.651801 kJ/mol
# Density = 1.818484 g / cm^3
# Si number density = 18.226322 Si / 1000 Ang^3
#
#
#
# Elastic Constant Matrix: (Units=GPa)
#
#
# Indices 1 2 3 4 5 6 
#
# 1 125.0546 63.7022 84.7572 0.0002 2.1447 -0.0004
# 2 63.7022 105.5240 55.1327 0.0005 -7.6299 -0.0011
# 3 84.7572 55.1327 127.3436 0.0005 1.3138 -0.0001
# 4 0.0002 0.0005 0.0005 27.6238 0.0000 -5.8494
# 5 2.1447 -7.6299 1.3138 0.0000 36.4975 0.0001
# 6 -0.0004 -0.0011 -0.0001 -5.8494 0.0001 32.1762
#
#
#
# Elastic Compliance Matrix: (Units=1/GPa)
#
#
# Indices 1 2 3 4 5 6 
#
# 1 0.016873 -0.005770 -0.008713 0.000000 -0.001884 0.000000
# 2 -0.005770 0.014503 -0.002474 0.000000 0.003460 0.000000
# 3 -0.008713 -0.002474 0.014729 0.000000 -0.000535 0.000000
# 4 0.000000 0.000000 0.000000 0.037650 0.000000 0.006845
# 5 -0.001884 0.003460 -0.000535 0.000000 0.028252 0.000000
# 6 0.000000 0.000000 0.000000 0.006845 0.000000 0.032323
#
#
# Mechanical properties :
#
#
# Convention : Reuss Voigt Hill
#
# Bulk Modulus (GPa) = 82.03249 85.01183 83.52216
# Shear Modulus (GPa) = 27.42613 29.54818 28.48715
#
# Velocity S-wave (km/s) = 3.88332 4.03076 3.95773
# Velocity P-wave (km/s) = 8.07542 8.27081 8.17370
#
# Compressibility (1/GPa) = 0.01219029
#
# Stress axis : x y z
#
# Youngs Moduli (GPa) = 59.26484 68.95359 67.89480
#
# Poissons Ratio (x) = 0.39786 0.59157
# Poissons Ratio (y) = 0.34196 0.16798
# Poissons Ratio (z) = 0.51638 0.17060
#
# Static dielectric constant tensor:
#      x y z
#    x 3.242640 0.000000 0.008380 
#    y 0.000000 3.413450 0.000000 
#    z 0.008380 0.000000 3.686740 
# 
# 
# High freq. dielectric constant tensor:
#      x y z
#    x 1.683710 0.000000 -0.003490 
#    y 0.000000 1.711680 0.000000 
#    z -0.003490 0.000000 1.718910 
# 
# From -- ./inp_files/295335.got.cif
#   From: 2010.06.25/outbox.cif.g09.slc.cpg/sg12_148_cif.got.tgz:295335.got - 2010.06.28 00:19:55.
