data_PCOD8090186
_publ_section_title
;
Structure prediction by ZEFSAII (Michael W. Deem and Ramdas Pophale) SiO2 
 PCOD8090186
Probable space group: C 2/M
;
_chemical_formula_sum "Si O2"
_cell_formula_units_Z 64
_cell_length_a 24.333666
_cell_length_b 8.842380
_cell_length_c 20.532380
_cell_angle_alpha 90.000000
_cell_angle_beta 51.621470
_cell_angle_gamma 90.000000
_cell_volume 3463.308415
_symmetry_space_group_name_H-M "C 2/M"
_symmetry_group_IT_number 12
_symmetry_cell_setting 'monoclinic'
loop_
_space_group_symop_operation_xyz
x,y,z
-x,y,-z
-x,-y,-z
x,-y,z
1/2+x,1/2+y,z
1/2-x,1/2+y,-z
1/2-x,1/2-y,-z
1/2+x,1/2-y,z
loop_
_atom_site_type_symbol
_atom_site_label
_atom_site_fract_x
_atom_site_fract_y
_atom_site_fract_z
Si Si1 0.174008 0.822935 0.982205
Si Si2 0.821326 0.175579 0.369068
Si Si3 0.814653 0.174325 0.878512
Si Si4 0.463304 0.822323 0.962133
Si Si5 0.823921 0.175603 0.518815
Si Si6 0.956974 0.677860 0.226989
Si Si7 0.962856 0.824382 0.713428
Si Si8 0.462802 0.176505 0.459840
O O1 0.165499 0.769808 0.063441
O O2 0.113372 0.748845 0.984472
O O3 0.167621 0.000000 0.979182
O O4 0.249196 0.769189 0.899328
O O5 0.838757 0.205427 0.431916
O O6 0.743930 0.232358 0.408088
O O7 0.875952 0.271764 0.286274
O O8 0.827317 0.000000 0.346775
O O9 0.880003 0.201253 0.782994
O O10 0.792248 0.000000 0.897626
O O11 0.510585 0.775728 0.865938
O O12 0.453309 0.000000 0.973388
O O13 0.500000 0.759030 0.000000
O O14 0.889985 0.233333 0.511103
O O15 0.810911 0.000000 0.542546
O O16 0.963284 0.500000 0.236363
O O17 0.997345 0.770994 0.251875
O O18 0.985278 0.727720 0.635179
O O19 0.981430 0.000000 0.688452
O O20 0.500000 0.215258 0.500000
O O21 0.446592 0.000000 0.463994
#
# Coordination Sequence:
#
# PCOD8090186 Si02
#       8
#     8   8   8   8   8   8   8   8
#     4  10  19  33  55  83 113 145 185 231 280 331
#     4  10  20  34  56  85 116 146 182 235 284 331
#     4   9  19  34  54  82 114 144 181 231 281 330
#     4  10  22  39  57  80 114 154 191 228 278 337
#     4  10  20  35  57  84 114 149 187 230 280 334
#     4  11  21  34  57  85 113 147 189 236 281 331
#     4  11  21  36  58  85 114 146 188 235 281 331
#     4  11  24  40  58  83 117 153 188 230 280 335
#
# _framework density 18.479441000000001
#
# number of rings (size 3 to 8) (size 9 to 14) (size 15 to 20)
#    0.000    1.750    2.500    2.250    0.000    4.250 
#    0.000    1.250    0.000    1.500    0.000    0.000 
#    0.000    0.000    0.000    0.000    0.000    0.000 
#
# Total GULP energy -396960.250782 kJ/mol
# GULP energy per Si atom -12405.007837 kJ/mol
# Density = 1.843738 g / cm^3
# Si number density = 18.479441 Si / 1000 Ang^3
#
#
#
# Elastic Constant Matrix: (Units=GPa)
#
#
# Indices 1 2 3 4 5 6 
#
# 1 126.2192 34.3282 52.1487 0.0011 -7.1387 0.0022
# 2 34.3282 36.3618 18.6524 -0.0043 -0.0521 0.0001
# 3 52.1487 18.6524 74.7218 -0.0050 -6.5296 0.0007
# 4 0.0011 -0.0043 -0.0050 21.1512 0.0007 -11.3995
# 5 -7.1387 -0.0521 -6.5296 0.0007 26.8742 -0.0009
# 6 0.0022 0.0001 0.0007 -11.3995 -0.0009 30.8579
#
#
#
# Elastic Compliance Matrix: (Units=1/GPa)
#
#
# Indices 1 2 3 4 5 6 
#
# 1 0.013334 -0.009055 -0.006884 -0.000006 0.001852 -0.000003
# 2 -0.009055 0.037783 -0.003388 0.000010 -0.003155 0.000004
# 3 -0.006884 -0.003388 0.019282 0.000005 0.002850 0.000002
# 4 -0.000006 0.000010 0.000005 0.059032 -0.000001 0.021808
# 5 0.001852 -0.003155 0.002850 -0.000001 0.038389 0.000001
# 6 -0.000003 0.000004 0.000002 0.021808 0.000001 0.040463
#
#
# Mechanical properties :
#
#
# Convention : Reuss Voigt Hill
#
# Bulk Modulus (GPa) = 31.49987 49.72902 40.61444
# Shear Modulus (GPa) = 19.41613 24.58823 22.00218
#
# Velocity S-wave (km/s) = 3.24495 3.65166 3.45429
# Velocity P-wave (km/s) = 5.57875 6.68942 6.15917
#
# Compressibility (1/GPa) = 0.03174616
#
# Stress axis : x y z
#
# Youngs Moduli (GPa) = 74.99491 26.46694 51.86163
#
# Poissons Ratio (x) = 0.23965 0.35701
# Poissons Ratio (y) = 0.67905 0.17571
# Poissons Ratio (z) = 0.51626 0.08967
#
# Static dielectric constant tensor:
#      x y z
#    x 3.344290 0.000000 -0.140980 
#    y 0.000000 3.434200 0.000000 
#    z -0.140980 0.000000 3.511810 
# 
# 
# High freq. dielectric constant tensor:
#      x y z
#    x 1.708760 0.000000 -0.023880 
#    y 0.000000 1.727590 0.000000 
#    z -0.023880 0.000000 1.709830 
# 
# From -- ./inp_files/324095.got.cif
#   From: 2010.06.25/outbox.cif.g09.slc.cpg/sg12_163_cif.got.tgz:324095.got - 2010.06.28 00:19:55.
