data_PCOD8090487
_publ_section_title
;
Structure prediction by ZEFSAII (Michael W. Deem and Ramdas Pophale) SiO2 
 PCOD8090487
Probable space group: C 2/M
;
_chemical_formula_sum "Si O2"
_cell_formula_units_Z 64
_cell_length_a 11.348599
_cell_length_b 20.420061
_cell_length_c 24.038045
_cell_angle_alpha 90.000000
_cell_angle_beta 146.825320
_cell_angle_gamma 90.000000
_cell_volume 3048.170612
_symmetry_space_group_name_H-M "C 2/M"
_symmetry_group_IT_number 12
_symmetry_cell_setting 'monoclinic'
loop_
_space_group_symop_operation_xyz
x,y,z
-x,y,-z
-x,-y,-z
x,-y,z
1/2+x,1/2+y,z
1/2-x,1/2+y,-z
1/2-x,1/2-y,-z
1/2+x,1/2-y,z
loop_
_atom_site_type_symbol
_atom_site_label
_atom_site_fract_x
_atom_site_fract_y
_atom_site_fract_z
Si Si1 0.981511 0.148408 0.774509
Si Si2 0.468610 0.788356 0.249616
Si Si3 0.780184 0.926814 0.216011
Si Si4 0.000694 0.192739 0.904561
Si Si5 0.170326 0.206680 0.523137
Si Si6 0.933887 0.573651 0.413438
Si Si7 0.939287 0.670886 0.118255
Si Si8 0.903504 0.926516 0.558147
O O1 0.021723 0.209647 0.749024
O O2 0.135078 0.092133 0.811428
O O3 0.052593 0.163070 0.864863
O O4 0.734105 0.125231 0.677879
O O5 0.237640 0.821928 0.168453
O O6 0.616804 0.811871 0.358586
O O7 0.545232 0.814184 0.219981
O O8 0.558281 0.892369 0.143611
O O9 0.978414 0.915123 0.336604
O O10 0.703198 0.000000 0.184170
O O11 0.016967 0.271217 0.908315
O O12 0.178419 0.162645 0.017239
O O13 0.250000 0.250000 0.500000
O O14 0.046889 0.138468 0.458541
O O15 0.000000 0.241681 0.500000
O O16 0.834236 0.500000 0.376828
O O17 0.000000 0.598592 0.500000
O O18 0.146563 0.573831 0.460612
O O19 0.971223 0.000000 0.561260
#
# Coordination Sequence:
#
# PCOD8090487 Si02
#       8
#     8   8   8   8   8   8   8   8
#     4  11  21  34  60  92 131 163 214 262 328 388
#     4  11  23  40  65  89 127 167 216 268 325 380
#     4  11  21  39  64  93 130 169 212 267 323 394
#     4  10  22  39  63  90 119 163 207 274 317 388
#     4  12  28  41  64 100 142 179 220 277 339 395
#     4  10  19  33  56  88 127 177 219 258 316 399
#     4  10  22  41  63  89 120 158 217 262 330 379
#     4  10  22  40  63  90 130 180 228 265 318 394
#
# _framework density 20.996200000000002
#
# number of rings (size 3 to 8) (size 9 to 14) (size 15 to 20)
#    0.000    1.375    2.500    3.000    5.250    0.750 
#    0.000    2.500    0.000    3.750    0.000    0.000 
#    0.000    0.000    0.000    0.000    0.000    0.000 
#
# Total GULP energy -396559.923011 kJ/mol
# GULP energy per Si atom -12392.497594 kJ/mol
# Density = 2.094841 g / cm^3
# Si number density = 20.996200 Si / 1000 Ang^3
#
#
#
# Elastic Constant Matrix: (Units=GPa)
#
#
# Indices 1 2 3 4 5 6 
#
# 1 81.7744 38.4897 25.3836 -0.0004 7.4614 0.0002
# 2 38.4897 102.3416 48.0462 -0.0001 -3.8954 0.0001
# 3 25.3836 48.0462 93.3860 -0.0019 7.1602 -0.0003
# 4 -0.0004 -0.0001 -0.0019 28.1442 -0.0003 5.1044
# 5 7.4614 -3.8954 7.1602 -0.0003 37.4988 0.0002
# 6 0.0002 0.0001 -0.0003 5.1044 0.0002 27.9674
#
#
#
# Elastic Compliance Matrix: (Units=1/GPa)
#
#
# Indices 1 2 3 4 5 6 
#
# 1 0.015438 -0.005391 -0.001161 0.000000 -0.003410 0.000000
# 2 -0.005391 0.015028 -0.006565 0.000000 0.003887 0.000000
# 3 -0.001161 -0.006565 0.014651 0.000001 -0.003248 0.000000
# 4 0.000000 0.000000 0.000001 0.036748 0.000000 -0.006707
# 5 -0.003410 0.003887 -0.003248 0.000000 0.028370 0.000000
# 6 0.000000 0.000000 0.000000 -0.006707 0.000000 0.036980
#
#
# Mechanical properties :
#
#
# Convention : Reuss Voigt Hill
#
# Bulk Modulus (GPa) = 52.95709 55.70457 54.33083
# Shear Modulus (GPa) = 27.81761 29.76092 28.78926
#
# Velocity S-wave (km/s) = 3.64385 3.76898 3.70694
# Velocity P-wave (km/s) = 6.55595 6.74749 6.65241
#
# Compressibility (1/GPa) = 0.01888321
#
# Stress axis : x y z
#
# Youngs Moduli (GPa) = 64.77688 66.54029 68.25695
#
# Poissons Ratio (x) = 0.35869 0.07927
# Poissons Ratio (y) = 0.34918 0.44810
# Poissons Ratio (z) = 0.07523 0.43683
#
# Static dielectric constant tensor:
#      x y z
#    x 3.719870 0.000000 0.027650 
#    y 0.000000 3.851480 0.000000 
#    z 0.027650 0.000000 3.815090 
# 
# 
# High freq. dielectric constant tensor:
#      x y z
#    x 1.816200 0.000000 0.005300 
#    y 0.000000 1.807360 0.000000 
#    z 0.005300 0.000000 1.823740 
# 
# From -- ./inp_files/359027.got.cif
#   From: 2010.06.25/outbox.cif.g09.slc.cpg/sg12_180_cif.got.tgz:359027.got - 2010.06.28 00:19:55.
