data_PCOD8090737
_publ_section_title
;
Structure prediction by ZEFSAII (Michael W. Deem and Ramdas Pophale) SiO2 
 PCOD8090737
Probable space group: C 2/M
;
_chemical_formula_sum "Si O2"
_cell_formula_units_Z 56
_cell_length_a 25.556503
_cell_length_b 18.617606
_cell_length_c 9.000970
_cell_angle_alpha 90.000000
_cell_angle_beta 42.199842
_cell_angle_gamma 90.000000
_cell_volume 2876.748638
_symmetry_space_group_name_H-M "C 2/M"
_symmetry_group_IT_number 12
_symmetry_cell_setting 'monoclinic'
loop_
_space_group_symop_operation_xyz
x,y,z
-x,y,-z
-x,-y,-z
x,-y,z
1/2+x,1/2+y,z
1/2-x,1/2+y,-z
1/2-x,1/2-y,-z
1/2+x,1/2-y,z
loop_
_atom_site_type_symbol
_atom_site_label
_atom_site_fract_x
_atom_site_fract_y
_atom_site_fract_z
Si Si1 0.416648 0.795243 0.470120
Si Si2 0.136577 0.855752 0.529608
Si Si3 0.992405 0.082777 0.678445
Si Si4 0.302650 0.080839 0.680572
Si Si5 0.647657 0.415694 0.828254
Si Si6 0.064276 0.344855 0.265671
Si Si7 0.282093 0.081349 0.069621
O O1 0.389299 0.725743 0.440531
O O2 0.371609 0.864065 0.497312
O O3 0.511648 0.804906 0.249902
O O4 0.399306 0.789617 0.686005
O O5 0.144787 0.869480 0.685796
O O6 0.218775 0.867826 0.277394
O O7 0.072724 0.909416 0.597466
O O8 0.000000 0.120489 0.500000
O O9 0.972826 0.000000 0.694517
O O10 0.920608 0.115428 0.922296
O O11 0.229696 0.099707 0.731764
O O12 0.332676 0.000000 0.586174
O O13 0.274546 0.087473 0.909233
O O14 0.635598 0.500000 0.818262
O O15 0.000000 0.391258 0.500000
O O16 0.132247 0.393376 0.053920
O O17 0.269417 0.000000 0.151479
#
# Coordination Sequence:
#
# PCOD8090737 Si02
#       7
#     8   8   8   8   8   8   8
#     4   8  19  35  54  82 114 150 194 233 298 339
#     4  12  22  33  54  85 122 152 182 237 293 355
#     4  10  21  37  58  83 112 152 197 234 273 339
#     4   9  18  36  58  81 109 147 197 240 279 335
#     4  10  21  37  56  81 116 157 188 226 286 343
#     4   7  17  36  53  81 112 148 195 239 290 333
#     4  10  19  33  59  90 113 147 196 245 287 339
#
# _framework density 19.466421
#
# number of rings (size 3 to 8) (size 9 to 14) (size 15 to 20)
#    0.857    1.571    0.000    2.571    2.000    7.143 
#    2.571    0.000    3.143    0.000    0.000    3.000 
#    0.000    0.000    0.000    0.000    0.000    0.143 
#
# Total GULP energy -346921.450863 kJ/mol
# GULP energy per Si atom -12390.051817 kJ/mol
# Density = 1.942211 g / cm^3
# Si number density = 19.466421 Si / 1000 Ang^3
#
#
#
# Elastic Constant Matrix: (Units=GPa)
#
#
# Indices 1 2 3 4 5 6 
#
# 1 136.4976 66.4340 72.5356 0.0000 -13.8471 0.0000
# 2 66.4340 90.4218 42.2898 0.0000 -4.9153 0.0000
# 3 72.5356 42.2898 56.3341 0.0000 -5.4748 0.0000
# 4 0.0000 0.0000 0.0000 13.2248 0.0000 -6.6540
# 5 -13.8471 -4.9153 -5.4748 0.0000 28.9040 0.0000
# 6 0.0000 0.0000 0.0000 -6.6540 0.0000 15.3587
#
#
#
# Elastic Compliance Matrix: (Units=1/GPa)
#
#
# Indices 1 2 3 4 5 6 
#
# 1 0.025574 -0.005140 -0.028489 0.000000 0.005981 0.000000
# 2 -0.005140 0.018083 -0.007026 0.000000 -0.000718 0.000000
# 3 -0.028489 -0.007026 0.059358 0.000000 -0.003600 0.000000
# 4 0.000000 0.000000 0.000000 0.096692 0.000000 0.041891
# 5 0.005981 -0.000718 -0.003600 0.000000 0.036659 0.000000
# 6 0.000000 0.000000 0.000000 0.041891 0.000000 0.083258
#
#
# Mechanical properties :
#
#
# Convention : Reuss Voigt Hill
#
# Bulk Modulus (GPa) = 46.07329 71.75246 58.91287
# Shear Modulus (GPa) = 12.24987 18.29712 15.27350
#
# Velocity S-wave (km/s) = 2.51127 3.06916 2.80412
# Velocity P-wave (km/s) = 5.66817 7.03557 6.38856
#
# Compressibility (1/GPa) = 0.02170455
#
# Stress axis : x y z
#
# Youngs Moduli (GPa) = 39.10272 55.30111 16.84706
#
# Poissons Ratio (x) = 0.28426 0.47995
# Poissons Ratio (y) = 0.20100 0.11837
# Poissons Ratio (z) = 1.11398 0.38854
#
# Static dielectric constant tensor:
#      x y z
#    x 3.632540 0.000000 -0.150990 
#    y 0.000000 3.288710 0.000000 
#    z -0.150990 0.000000 3.393580 
# 
# 
# High freq. dielectric constant tensor:
#      x y z
#    x 1.766220 0.000000 -0.017980 
#    y 0.000000 1.734840 0.000000 
#    z -0.017980 0.000000 1.735750 
# 
# From -- ./inp_files/105952.got.cif
#   From: 2010.06.25/outbox.cif.g09.slc.cpg/sg12_53_cif.got.tgz:105952.got - 2010.06.28 00:19:55.
