data_PCOD8090627
_publ_section_title
;
Structure prediction by ZEFSAII (Michael W. Deem and Ramdas Pophale) SiO2 
 PCOD8090627
Probable space group: C 2/M
;
_chemical_formula_sum "Si O2"
_cell_formula_units_Z 56
_cell_length_a 15.890794
_cell_length_b 17.161000
_cell_length_c 12.558969
_cell_angle_alpha 90.000000
_cell_angle_beta 58.025933
_cell_angle_gamma 90.000000
_cell_volume 2905.262838
_symmetry_space_group_name_H-M "C 2/M"
_symmetry_group_IT_number 12
_symmetry_cell_setting 'monoclinic'
loop_
_space_group_symop_operation_xyz
x,y,z
-x,y,-z
-x,-y,-z
x,-y,z
1/2+x,1/2+y,z
1/2-x,1/2+y,-z
1/2-x,1/2-y,-z
1/2+x,1/2-y,z
loop_
_atom_site_type_symbol
_atom_site_label
_atom_site_fract_x
_atom_site_fract_y
_atom_site_fract_z
Si Si1 0.526043 0.322205 0.361653
Si Si2 0.710637 0.913155 0.429701
Si Si3 0.579555 0.740898 0.867315
Si Si4 0.577299 0.175740 0.652527
Si Si5 0.281520 0.235199 0.857715
Si Si6 0.060619 0.911313 0.763624
Si Si7 0.888105 0.411829 0.726574
O O1 0.500000 0.347653 0.500000
O O2 0.451083 0.252015 0.393315
O O3 0.637091 0.293865 0.250943
O O4 0.496967 0.396496 0.308479
O O5 0.684503 0.852817 0.540775
O O6 0.822737 0.897537 0.323551
O O7 0.636257 0.898390 0.381146
O O8 0.698462 0.000000 0.482083
O O9 0.584313 0.804013 0.770956
O O10 0.687287 0.734961 0.845145
O O11 0.531642 0.656680 0.866186
O O12 0.500000 0.777994 0.000000
O O13 0.502759 0.104887 0.675185
O O14 0.323284 0.147865 0.838577
O O15 0.250000 0.250000 0.000000
O O16 0.036649 0.000000 0.818548
O O17 0.861480 0.500000 0.778313
#
# Coordination Sequence:
#
# PCOD8090627 Si02
#       7
#     8   8   8   8   8   8   8
#     4  10  22  36  59  86 117 158 195 234 291 348
#     4  10  19  33  57  90 120 150 186 237 294 346
#     4  11  23  39  61  85 114 153 197 245 290 342
#     4  10  20  33  57  87 119 148 190 237 293 348
#     4  11  22  40  61  85 118 153 199 244 290 349
#     4  10  22  38  57  86 119 150 194 241 288 341
#     4  10  19  35  59  88 118 149 188 241 293 343
#
# _framework density 19.275364
#
# number of rings (size 3 to 8) (size 9 to 14) (size 15 to 20)
#    0.000    1.714    1.429    5.143    2.000    2.857 
#    0.000    2.143    0.000    7.714    0.000    0.000 
#    0.000    0.000    0.000    0.000    0.000    0.000 
#
# Total GULP energy -346999.681939 kJ/mol
# GULP energy per Si atom -12392.845784 kJ/mol
# Density = 1.923149 g / cm^3
# Si number density = 19.275364 Si / 1000 Ang^3
#
#
#
# Elastic Constant Matrix: (Units=GPa)
#
#
# Indices 1 2 3 4 5 6 
#
# 1 68.6810 13.2965 10.8292 0.0000 15.1880 0.0000
# 2 13.2965 73.9216 25.4850 0.0000 6.1675 0.0000
# 3 10.8292 25.4850 91.4003 0.0000 14.8651 0.0000
# 4 0.0000 0.0000 0.0000 23.8656 0.0000 1.2901
# 5 15.1880 6.1675 14.8651 0.0000 28.2572 0.0000
# 6 0.0000 0.0000 0.0000 1.2901 0.0000 18.1466
#
#
#
# Elastic Compliance Matrix: (Units=1/GPa)
#
#
# Indices 1 2 3 4 5 6 
#
# 1 0.016908 -0.002340 0.000048 0.000000 -0.008602 0.000000
# 2 -0.002340 0.015326 -0.003999 0.000000 0.000016 0.000000
# 3 0.000048 -0.003999 0.013027 0.000000 -0.006006 0.000000
# 4 0.000000 0.000000 0.000000 0.042063 0.000000 -0.002990
# 5 -0.008602 0.000016 -0.006006 0.000000 0.043169 0.000000
# 6 0.000000 0.000000 0.000000 -0.002990 0.000000 0.055319
#
#
# Mechanical properties :
#
#
# Convention : Reuss Voigt Hill
#
# Bulk Modulus (GPa) = 30.60005 37.02490 33.81248
# Shear Modulus (GPa) = 23.89068 26.34669 25.11868
#
# Velocity S-wave (km/s) = 3.52439 3.70112 3.61383
# Velocity P-wave (km/s) = 5.69837 6.12490 5.91548
#
# Compressibility (1/GPa) = 0.03267968
#
# Stress axis : x y z
#
# Youngs Moduli (GPa) = 59.14412 65.24856 76.76396
#
# Poissons Ratio (x) = 0.15270 -0.00371
# Poissons Ratio (y) = 0.13841 0.30696
# Poissons Ratio (z) = -0.00286 0.26091
#
# Static dielectric constant tensor:
#      x y z
#    x 3.720110 0.000000 -0.032340 
#    y 0.000000 3.612080 0.000000 
#    z -0.032340 0.000000 3.633430 
# 
# 
# High freq. dielectric constant tensor:
#      x y z
#    x 1.755190 0.000000 -0.004800 
#    y 0.000000 1.742410 0.000000 
#    z -0.004800 0.000000 1.744020 
# 
# From -- ./inp_files/146053.got.cif
#   From: 2010.06.25/outbox.cif.g09.slc.cpg/sg12_74_cif.got.tgz:146053.got - 2010.06.28 00:19:55.
