data_PCOD8090798
_publ_section_title
;
Structure prediction by ZEFSAII (Michael W. Deem and Ramdas Pophale) SiO2 
 PCOD8090798
Probable space group: C 2/M
;
_chemical_formula_sum "Si O2"
_cell_formula_units_Z 48
_cell_length_a 23.727849
_cell_length_b 9.254361
_cell_length_c 14.860600
_cell_angle_alpha 90.000000
_cell_angle_beta 121.520126
_cell_angle_gamma 90.000000
_cell_volume 2781.720023
_symmetry_space_group_name_H-M "C 2/M"
_symmetry_group_IT_number 12
_symmetry_cell_setting 'monoclinic'
loop_
_space_group_symop_operation_xyz
x,y,z
-x,y,-z
-x,-y,-z
x,-y,z
1/2+x,1/2+y,z
1/2-x,1/2+y,-z
1/2-x,1/2-y,-z
1/2+x,1/2-y,z
loop_
_atom_site_type_symbol
_atom_site_label
_atom_site_fract_x
_atom_site_fract_y
_atom_site_fract_z
Si Si1 0.509341 0.161432 0.764804
Si Si2 0.558827 0.170206 0.113778
Si Si3 0.343579 0.161176 0.059190
Si Si4 0.174629 0.333757 0.754253
Si Si5 0.454109 0.668707 0.377644
Si Si6 0.320462 0.667318 0.866997
O O1 0.455154 0.208796 0.793490
O O2 0.577336 0.161908 0.876359
O O3 0.510464 0.268610 0.681446
O O4 0.494541 0.000000 0.716035
O O5 0.628159 0.245387 0.150156
O O6 0.567570 0.000000 0.106143
O O7 0.500000 0.228187 0.000000
O O8 0.317560 0.210533 0.134773
O O9 0.318028 0.000000 0.012975
O O10 0.318528 0.277460 0.967424
O O11 0.151104 0.500000 0.729365
O O12 0.117611 0.237733 0.661532
O O13 0.245728 0.311245 0.765548
O O14 0.500000 0.704346 0.500000
O O15 0.444097 0.500000 0.354282
O O16 0.340444 0.500000 0.883725
#
# Coordination Sequence:
#
# PCOD8090798 Si02
#       6
#     8   8   8   8   8   8
#     4   9  18  33  53  75 100 135 175 207 243 297
#     4  10  19  34  51  69 102 144 178 206 239 292
#     4   9  16  30  48  67  98 138 173 204 243 295
#     4   9  20  35  49  70 101 135 170 206 249 304
#     4  10  21  36  56  81 103 123 157 213 269 306
#     4  11  21  30  45  73 105 136 172 210 246 288
#
# _framework density 17.255510999999998
#
# number of rings (size 3 to 8) (size 9 to 14) (size 15 to 20)
#    0.000    2.333    1.667    2.500    0.000    6.333 
#    0.000    0.000    0.000    1.000    0.000    0.000 
#    0.000    0.000    0.000    0.000    0.000    0.000 
#
# Total GULP energy -297544.591868 kJ/mol
# GULP energy per Si atom -12397.691328 kJ/mol
# Density = 1.721624 g / cm^3
# Si number density = 17.255511 Si / 1000 Ang^3
#
#
#
# Elastic Constant Matrix: (Units=GPa)
#
#
# Indices 1 2 3 4 5 6 
#
# 1 114.6005 53.4316 47.8401 0.0000 19.1341 0.0000
# 2 53.4316 81.7105 53.3765 0.0000 3.8609 0.0000
# 3 47.8401 53.3765 77.2569 0.0000 2.8118 0.0000
# 4 0.0000 0.0000 0.0000 26.0927 0.0000 0.3720
# 5 19.1341 3.8609 2.8118 0.0000 13.1280 0.0000
# 6 0.0000 0.0000 0.0000 0.3720 0.0000 29.4525
#
#
#
# Elastic Compliance Matrix: (Units=1/GPa)
#
#
# Indices 1 2 3 4 5 6 
#
# 1 0.018306 -0.007322 -0.005427 0.000000 -0.023366 0.000000
# 2 -0.007322 0.025375 -0.013217 0.000000 0.006040 0.000000
# 3 -0.005427 -0.013217 0.025203 0.000000 0.006399 0.000000
# 4 0.000000 0.000000 0.000000 0.038332 0.000000 -0.000484
# 5 -0.023366 0.006040 0.006399 0.000000 0.107082 0.000000
# 6 0.000000 0.000000 0.000000 -0.000484 0.000000 0.033959
#
#
# Mechanical properties :
#
#
# Convention : Reuss Voigt Hill
#
# Bulk Modulus (GPa) = 58.98837 64.76272 61.87554
# Shear Modulus (GPa) = 16.34839 21.66262 19.00550
#
# Velocity S-wave (km/s) = 3.08137 3.54701 3.32236
# Velocity P-wave (km/s) = 6.84976 7.37483 7.11714
#
# Compressibility (1/GPa) = 0.01695249
#
# Stress axis : x y z
#
# Youngs Moduli (GPa) = 54.62575 39.40933 39.67719
#
# Poissons Ratio (x) = 0.28854 0.21533
# Poissons Ratio (y) = 0.39994 0.52443
# Poissons Ratio (z) = 0.29646 0.52089
#
# Static dielectric constant tensor:
#      x y z
#    x 3.327910 0.000000 0.110330 
#    y 0.000000 3.180690 0.000000 
#    z 0.110330 0.000000 2.894820 
# 
# 
# High freq. dielectric constant tensor:
#      x y z
#    x 1.672080 0.000000 0.009980 
#    y 0.000000 1.668390 0.000000 
#    z 0.009980 0.000000 1.627290 
# 
# From -- ./inp_files/287270.got.cif
#   From: 2010.06.25/outbox.cif.g09.slc.cpg/sg12_144_cif.got.tgz:287270.got - 2010.06.28 00:19:55.
