data_PCOD8090972
_publ_section_title
;
Structure prediction by ZEFSAII (Michael W. Deem and Ramdas Pophale) SiO2 
 PCOD8090972
Probable space group: C 2/M
;
_chemical_formula_sum "Si O2"
_cell_formula_units_Z 48
_cell_length_a 31.394330
_cell_length_b 9.145920
_cell_length_c 9.415127
_cell_angle_alpha 90.000000
_cell_angle_beta 76.813052
_cell_angle_gamma 90.000000
_cell_volume 2632.080373
_symmetry_space_group_name_H-M "C 2/M"
_symmetry_group_IT_number 12
_symmetry_cell_setting 'monoclinic'
loop_
_space_group_symop_operation_xyz
x,y,z
-x,y,-z
-x,-y,-z
x,-y,z
1/2+x,1/2+y,z
1/2-x,1/2+y,-z
1/2-x,1/2-y,-z
1/2+x,1/2-y,z
loop_
_atom_site_type_symbol
_atom_site_label
_atom_site_fract_x
_atom_site_fract_y
_atom_site_fract_z
Si Si1 0.929660 0.833628 0.350485
Si Si2 0.860305 0.834040 0.166556
Si Si3 0.482578 0.329988 0.863206
Si Si4 0.606578 0.167893 0.114863
Si Si5 0.633212 0.831322 0.411232
Si Si6 0.296129 0.327939 0.463679
O O1 0.904614 0.807482 0.221322
O O2 0.911970 0.725393 0.484636
O O3 0.980802 0.803999 0.285581
O O4 0.921238 0.000000 0.407824
O O5 0.818475 0.795779 0.294917
O O6 0.857842 0.000000 0.114496
O O7 0.860918 0.730498 0.029425
O O8 0.470890 0.500000 0.889048
O O9 0.439593 0.248403 0.845660
O O10 0.500000 0.268120 0.000000
O O11 0.631017 0.189275 0.244838
O O12 0.597313 0.000000 0.088473
O O13 0.674101 0.737414 0.434192
O O14 0.639757 0.000000 0.448958
O O15 0.290774 0.500000 0.494427
O O16 0.250000 0.250000 0.500000
#
# Coordination Sequence:
#
# PCOD8090972 Si02
#       6
#     8   8   8   8   8   8
#     4   9  18  34  55  78 103 142 192 232 271 320
#     4   9  18  35  57  80 108 141 180 222 267 322
#     4  10  19  34  54  76 107 145 189 235 272 316
#     4  11  23  35  51  80 114 148 184 225 273 318
#     4  10  22  38  54  78 115 148 178 223 273 321
#     4  10  21  39  64  89 109 136 176 219 268 328
#
# _framework density 18.236523999999999
#
# number of rings (size 3 to 8) (size 9 to 14) (size 15 to 20)
#    0.000    2.167    1.667    2.500    0.000    7.667 
#    0.000    4.167    0.000    0.000    0.000    0.000 
#    0.000    0.000    0.000    0.000    0.000    0.000 
#
# Total GULP energy -297662.610608 kJ/mol
# GULP energy per Si atom -12402.608775 kJ/mol
# Density = 1.819502 g / cm^3
# Si number density = 18.236524 Si / 1000 Ang^3
#
#
#
# Elastic Constant Matrix: (Units=GPa)
#
#
# Indices 1 2 3 4 5 6 
#
# 1 111.0391 66.0503 48.7317 0.0000 -14.0148 0.0000
# 2 66.0503 118.8149 65.4003 0.0000 -4.6251 0.0000
# 3 48.7317 65.4003 94.3889 0.0000 -7.0780 0.0000
# 4 0.0000 0.0000 0.0000 33.1294 0.0000 -0.1274
# 5 -14.0148 -4.6251 -7.0780 0.0000 18.3583 0.0000
# 6 0.0000 0.0000 0.0000 -0.1274 0.0000 28.3342
#
#
#
# Elastic Compliance Matrix: (Units=1/GPa)
#
#
# Indices 1 2 3 4 5 6 
#
# 1 0.015259 -0.006737 -0.002538 0.000000 0.008973 0.000000
# 2 -0.006737 0.016580 -0.008323 0.000000 -0.004175 0.000000
# 3 -0.002538 -0.008323 0.017886 0.000000 0.002862 0.000000
# 4 0.000000 0.000000 0.000000 0.030185 0.000000 0.000136
# 5 0.008973 -0.004175 0.002862 0.000000 0.061373 0.000000
# 6 0.000000 0.000000 0.000000 0.000136 0.000000 0.035294
#
#
# Mechanical properties :
#
#
# Convention : Reuss Voigt Hill
#
# Bulk Modulus (GPa) = 68.81863 76.06748 72.44305
# Shear Modulus (GPa) = 23.08225 25.56841 24.32533
#
# Velocity S-wave (km/s) = 3.56155 3.74845 3.65619
# Velocity P-wave (km/s) = 7.39807 7.78053 7.59171
#
# Compressibility (1/GPa) = 0.01453095
#
# Stress axis : x y z
#
# Youngs Moduli (GPa) = 65.53363 60.31236 55.90923
#
# Poissons Ratio (x) = 0.40631 0.14187
# Poissons Ratio (y) = 0.44148 0.46534
# Poissons Ratio (z) = 0.16629 0.50199
#
# Static dielectric constant tensor:
#      x y z
#    x 3.232680 0.000000 -0.127700 
#    y 0.000000 3.425390 0.000000 
#    z -0.127700 0.000000 3.305760 
# 
# 
# High freq. dielectric constant tensor:
#      x y z
#    x 1.695350 0.000000 -0.011320 
#    y 0.000000 1.711300 0.000000 
#    z -0.011320 0.000000 1.703400 
# 
# From -- ./inp_files/108760.got.cif
#   From: 2010.06.25/outbox.cif.g09.slc.cpg/sg12_55_cif.got.tgz:108760.got - 2010.06.28 00:19:55.
