data_PCOD8090032
_publ_section_title
;
Structure prediction by ZEFSAII (Michael W. Deem and Ramdas Pophale) SiO2 
 PCOD8090032
Probable space group: C 2/M
;
_chemical_formula_sum "Si O2"
_cell_formula_units_Z 56
_cell_length_a 20.461211
_cell_length_b 9.053906
_cell_length_c 27.796371
_cell_angle_alpha 90.000000
_cell_angle_beta 34.739093
_cell_angle_gamma 90.000000
_cell_volume 2934.327650
_symmetry_space_group_name_H-M "C 2/M"
_symmetry_group_IT_number 12
_symmetry_cell_setting 'monoclinic'
loop_
_space_group_symop_operation_xyz
x,y,z
-x,y,-z
-x,-y,-z
x,-y,z
1/2+x,1/2+y,z
1/2-x,1/2+y,-z
1/2-x,1/2-y,-z
1/2+x,1/2-y,z
loop_
_atom_site_type_symbol
_atom_site_label
_atom_site_fract_x
_atom_site_fract_y
_atom_site_fract_z
Si Si1 0.794531 0.173404 0.843347
Si Si2 0.528610 0.675145 0.534950
Si Si3 0.238284 0.675492 0.558330
Si Si4 0.598733 0.671666 0.809064
Si Si5 0.188561 0.175079 0.275770
Si Si6 0.568649 0.673703 0.005299
Si Si7 0.540242 0.671651 0.735511
O O1 0.798184 0.234068 0.786510
O O2 0.911519 0.215160 0.799312
O O3 0.772813 0.000000 0.856918
O O4 0.691941 0.250252 0.933950
O O5 0.500000 0.743455 0.500000
O O6 0.526153 0.500000 0.533573
O O7 0.653667 0.729506 0.475393
O O8 0.434189 0.730434 0.630345
O O9 0.235872 0.500000 0.553585
O O10 0.250000 0.750000 0.500000
O O11 0.123697 0.728725 0.653489
O O12 0.626475 0.500000 0.799163
O O13 0.714076 0.760996 0.748723
O O14 0.500794 0.722212 0.905464
O O15 0.555094 0.709010 0.782393
O O16 0.197027 0.000000 0.272580
O O17 0.588366 0.500000 0.990803
O O18 0.500000 0.730454 0.000000
O O19 0.565095 0.500000 0.709201
#
# Coordination Sequence:
#
# PCOD8090032 Si02
#       7
#     8   8   8   8   8   8   8
#     4  10  21  36  56  81 110 146 188 234 278 329
#     4   9  18  33  54  80 109 142 183 230 275 321
#     4  11  22  38  61  85 114 151 190 231 279 333
#     4  10  21  37  57  81 113 150 182 229 289 336
#     4  10  19  33  55  80 106 140 185 231 274 328
#     4  10  20  36  57  82 114 147 184 230 283 340
#     4  10  22  40  58  81 115 149 186 231 283 335
#
# _framework density 19.084440000000001
#
# number of rings (size 3 to 8) (size 9 to 14) (size 15 to 20)
#    0.000    2.000    1.429    2.143    0.000    6.000 
#    0.000    2.857    0.000    3.857    0.000    0.000 
#    0.000    0.000    0.000    0.000    0.000    0.000 
#
# Total GULP energy -347308.931938 kJ/mol
# GULP energy per Si atom -12403.890426 kJ/mol
# Density = 1.904100 g / cm^3
# Si number density = 19.084440 Si / 1000 Ang^3
#
#
#
# Elastic Constant Matrix: (Units=GPa)
#
#
# Indices 1 2 3 4 5 6 
#
# 1 133.0036 35.0964 49.4492 0.0004 -7.2430 -0.0004
# 2 35.0964 40.4042 39.6092 0.0007 -4.0400 0.0002
# 3 49.4492 39.6092 129.7981 0.0002 -7.2083 -0.0004
# 4 0.0004 0.0007 0.0002 32.4949 -0.0001 -4.0247
# 5 -7.2430 -4.0400 -7.2083 -0.0001 40.0481 0.0004
# 6 -0.0004 0.0002 -0.0004 -4.0247 0.0004 26.1470
#
#
#
# Elastic Compliance Matrix: (Units=1/GPa)
#
#
# Indices 1 2 3 4 5 6 
#
# 1 0.010023 -0.007029 -0.001629 0.000000 0.000811 0.000000
# 2 -0.007029 0.040350 -0.009576 -0.000001 0.001076 -0.000001
# 3 -0.001629 -0.009576 0.011290 0.000000 0.000772 0.000000
# 4 0.000000 -0.000001 0.000000 0.031372 0.000000 0.004829
# 5 0.000811 0.001076 0.000772 0.000000 0.025364 0.000000
# 6 0.000000 -0.000001 0.000000 0.004829 0.000000 0.038989
#
#
# Mechanical properties :
#
#
# Convention : Reuss Voigt Hill
#
# Bulk Modulus (GPa) = 39.68770 61.27951 50.48360
# Shear Modulus (GPa) = 24.72161 31.67476 28.19818
#
# Velocity S-wave (km/s) = 3.60304 4.07838 3.84806
# Velocity P-wave (km/s) = 6.17659 7.37272 6.80100
#
# Compressibility (1/GPa) = 0.02519673
#
# Stress axis : x y z
#
# Youngs Moduli (GPa) = 99.77156 24.78308 88.57639
#
# Poissons Ratio (x) = 0.17419 0.14425
# Poissons Ratio (y) = 0.70126 0.84819
# Poissons Ratio (z) = 0.16248 0.23732
#
# Static dielectric constant tensor:
#      x y z
#    x 3.692340 0.000000 0.128850 
#    y 0.000000 3.240890 0.000000 
#    z 0.128850 0.000000 4.368590 
# 
# 
# High freq. dielectric constant tensor:
#      x y z
#    x 1.753080 0.000000 0.000710 
#    y 0.000000 1.718680 0.000000 
#    z 0.000710 0.000000 1.756700 
# 
# From -- ./inp_files/329711.got.cif
#   From: 2010.06.25/outbox.cif.g09.slc.cpg/sg12_165_cif.got.tgz:329711.got - 2010.06.28 00:19:55.
