data_PCOD8090769
_publ_section_title
;
Structure prediction by ZEFSAII (Michael W. Deem and Ramdas Pophale) SiO2 
 PCOD8090769
Probable space group: C 2/M
;
_chemical_formula_sum "Si O2"
_cell_formula_units_Z 64
_cell_length_a 15.793122
_cell_length_b 23.640105
_cell_length_c 18.759200
_cell_angle_alpha 90.000000
_cell_angle_beta 152.254695
_cell_angle_gamma 90.000000
_cell_volume 3260.547813
_symmetry_space_group_name_H-M "C 2/M"
_symmetry_group_IT_number 12
_symmetry_cell_setting 'monoclinic'
loop_
_space_group_symop_operation_xyz
x,y,z
-x,y,-z
-x,-y,-z
x,-y,z
1/2+x,1/2+y,z
1/2-x,1/2+y,-z
1/2-x,1/2-y,-z
1/2+x,1/2-y,z
loop_
_atom_site_type_symbol
_atom_site_label
_atom_site_fract_x
_atom_site_fract_y
_atom_site_fract_z
Si Si1 0.302354 0.118475 0.825933
Si Si2 0.527056 0.286313 0.627292
Si Si3 0.102965 0.436033 0.249030
Si Si4 0.202584 0.935186 0.898459
Si Si5 0.354063 0.776717 0.159860
Si Si6 0.685416 0.846288 0.423752
Si Si7 0.358393 0.819123 0.449519
Si Si8 0.054690 0.169514 0.861916
O O1 0.171410 0.169653 0.703241
O O2 0.307508 0.081366 0.758947
O O3 0.220489 0.080721 0.828593
O O4 0.500000 0.140829 0.000000
O O5 0.642078 0.238748 0.754307
O O6 0.386817 0.319592 0.574632
O O7 0.406967 0.248430 0.484191
O O8 0.156840 0.500000 0.303753
O O9 0.183941 0.404413 0.378563
O O10 0.887994 0.427732 0.080685
O O11 0.062503 0.892707 0.832318
O O12 0.132908 0.000000 0.851453
O O13 0.542360 0.806235 0.276102
O O14 0.347465 0.715853 0.116186
O O15 0.185470 0.820633 0.027477
O O16 0.627851 0.851219 0.463904
O O17 0.500000 0.849164 0.500000
O O18 0.151625 0.820899 0.267729
#
# Coordination Sequence:
#
# PCOD8090769 Si02
#       8
#     8   8   8   8   8   8   8   8
#     4  10  21  35  56  89 127 161 207 244 286 352
#     4  11  21  37  55  86 125 167 197 239 303 365
#     4  10  22  38  61  88 120 164 206 247 294 353
#     4  10  19  36  61  89 120 158 202 253 301 350
#     4  10  19  33  62  83 113 155 205 250 285 352
#     4  11  20  40  58  83 119 161 199 245 302 360
#     4  11  24  38  57  87 124 154 194 251 314 362
#     4  11  19  36  61  89 114 157 209 248 294 361
#
# _framework density 19.628603999999999
#
# number of rings (size 3 to 8) (size 9 to 14) (size 15 to 20)
#    0.000    1.500    5.000    1.125    1.750    2.500 
#    0.000    5.625    0.000    1.500    0.000    1.750 
#    0.000    0.000    0.000    0.000    0.000    0.000 
#
# Total GULP energy -396482.501252 kJ/mol
# GULP energy per Si atom -12390.078164 kJ/mol
# Density = 1.958393 g / cm^3
# Si number density = 19.628604 Si / 1000 Ang^3
#
#
#
# Elastic Constant Matrix: (Units=GPa)
#
#
# Indices 1 2 3 4 5 6 
#
# 1 97.0812 44.4177 42.4684 0.0002 3.3356 0.0000
# 2 44.4177 120.0800 45.7300 0.0003 2.6321 0.0000
# 3 42.4684 45.7300 95.9650 0.0051 10.0471 0.0017
# 4 0.0002 0.0003 0.0051 26.6837 0.0021 -0.0609
# 5 3.3356 2.6321 10.0471 0.0021 22.7154 0.0006
# 6 0.0000 0.0000 0.0017 -0.0609 0.0006 27.0528
#
#
#
# Elastic Compliance Matrix: (Units=1/GPa)
#
#
# Indices 1 2 3 4 5 6 
#
# 1 0.013827 -0.003393 -0.004541 0.000001 0.000371 0.000000
# 2 -0.003393 0.011029 -0.003851 0.000001 0.000924 0.000000
# 3 -0.004541 -0.003851 0.014835 -0.000002 -0.005449 -0.000001
# 4 0.000001 0.000001 -0.000002 0.037476 -0.000003 0.000084
# 5 0.000371 0.000924 -0.005449 -0.000003 0.046272 -0.000001
# 6 0.000000 0.000000 -0.000001 0.000084 -0.000001 0.036965
#
#
# Mechanical properties :
#
#
# Convention : Reuss Voigt Hill
#
# Bulk Modulus (GPa) = 62.02823 64.26207 63.14515
# Shear Modulus (GPa) = 26.40642 27.32438 26.86540
#
# Velocity S-wave (km/s) = 3.67182 3.73509 3.70359
# Velocity P-wave (km/s) = 7.04598 7.17017 7.10835
#
# Compressibility (1/GPa) = 0.01612169
#
# Stress axis : x y z
#
# Youngs Moduli (GPa) = 72.32293 90.66814 67.40658
#
# Poissons Ratio (x) = 0.30768 0.30608
# Poissons Ratio (y) = 0.24543 0.25956
# Poissons Ratio (z) = 0.32840 0.34913
#
# Static dielectric constant tensor:
#      x y z
#    x 3.331780 0.000000 -0.027030 
#    y 0.000000 3.506090 -0.000010 
#    z -0.027030 -0.000010 3.954600 
# 
# 
# High freq. dielectric constant tensor:
#      x y z
#    x 1.738640 0.000000 -0.002880 
#    y 0.000000 1.741660 0.000000 
#    z -0.002880 0.000000 1.778090 
# 
# From -- ./inp_files/272877.got.cif
#   From: 2010.06.25/outbox.cif.g09.slc.cpg/sg12_137_cif.got.tgz:272877.got - 2010.06.28 00:19:55.
