data_PCOD8090757
_publ_section_title
;
Structure prediction by ZEFSAII (Michael W. Deem and Ramdas Pophale) SiO2 
 PCOD8090757
Probable space group: C 2/M
;
_chemical_formula_sum "Si O2"
_cell_formula_units_Z 40
_cell_length_a 10.191002
_cell_length_b 20.743883
_cell_length_c 15.642232
_cell_angle_alpha 90.000000
_cell_angle_beta 39.078961
_cell_angle_gamma 90.000000
_cell_volume 2084.565428
_symmetry_space_group_name_H-M "C 2/M"
_symmetry_group_IT_number 12
_symmetry_cell_setting 'monoclinic'
loop_
_space_group_symop_operation_xyz
x,y,z
-x,y,-z
-x,-y,-z
x,-y,z
1/2+x,1/2+y,z
1/2-x,1/2+y,-z
1/2-x,1/2-y,-z
1/2+x,1/2-y,z
loop_
_atom_site_type_symbol
_atom_site_label
_atom_site_fract_x
_atom_site_fract_y
_atom_site_fract_z
Si Si1 0.103704 0.500000 0.303138
Si Si2 0.954905 0.000000 0.880261
Si Si3 0.656585 0.127929 0.842282
Si Si4 0.521566 0.000000 0.819768
Si Si5 0.982703 0.758508 0.908054
Si Si6 0.941963 0.132041 0.259154
Si Si7 0.000000 0.401294 0.500000
O O1 0.350531 0.500000 0.150884
O O2 0.960463 0.500000 0.291794
O O3 0.052989 0.438947 0.386815
O O4 0.985535 0.061392 0.805158
O O5 0.723781 0.000000 0.034983
O O6 0.591457 0.191849 0.823107
O O7 0.888670 0.147864 0.754268
O O8 0.641553 0.063346 0.793023
O O9 0.500000 0.117321 0.000000
O O10 0.070195 0.820010 0.814805
O O11 0.750000 0.750000 0.000000
O O12 0.000000 0.771195 0.000000
O O13 0.710211 0.137508 0.416517
#
# Coordination Sequence:
#
# PCOD8090757 Si02
#       7
#     4   4   8   4   8   8   4
#     4   9  21  38  56  89 124 157 204 243 302 364
#     4  10  19  33  60  93 121 149 193 259 305 353
#     4  11  21  37  59  94 125 154 191 252 319 362
#     4  12  20  34  65  96 121 145 205 262 308 355
#     4  11  21  37  61  91 126 156 194 250 315 362
#     4  11  21  40  62  86 123 163 203 239 304 367
#     4   9  22  42  60  78 122 173 198 240 296 361
#
# _framework density 19.188651
#
# number of rings (size 3 to 8) (size 9 to 14) (size 15 to 20)
#    0.000    1.400    6.000    1.800    0.000    6.400 
#    0.000    3.000    0.000    0.000    0.000    0.000 
#    0.000    0.000    0.000    0.000    0.000    0.000 
#
# Total GULP energy -247802.687183 kJ/mol
# GULP energy per Si atom -12390.134359 kJ/mol
# Density = 1.914498 g / cm^3
# Si number density = 19.188651 Si / 1000 Ang^3
#
#
#
# Elastic Constant Matrix: (Units=GPa)
#
#
# Indices 1 2 3 4 5 6 
#
# 1 151.3071 47.6238 52.2843 0.0001 -17.2594 0.0008
# 2 47.6238 136.3608 25.6989 -0.0002 -0.6258 0.0006
# 3 52.2843 25.6989 84.1441 0.0030 -22.9168 0.0025
# 4 0.0001 -0.0002 0.0030 -34.1575 -0.0002 -34.4008
# 5 -17.2594 -0.6258 -22.9168 -0.0002 36.8684 -0.0014
# 6 0.0008 0.0006 0.0025 -34.4008 -0.0014 6.7637
#
#
#
# Elastic Compliance Matrix: (Units=1/GPa)
#
#
# Indices 1 2 3 4 5 6 
#
# 1 0.009064 -0.002301 -0.004556 0.000000 0.001372 0.000000
# 2 -0.002301 0.008447 -0.001691 0.000000 -0.001985 0.000000
# 3 -0.004556 -0.001691 0.017627 0.000001 0.008795 0.000001
# 4 0.000000 0.000000 0.000001 -0.004782 0.000000 -0.024321
# 5 0.001372 -0.001985 0.008795 0.000000 0.033199 0.000001
# 6 0.000000 0.000000 0.000001 -0.024321 0.000001 0.024149
#
#
# Mechanical properties :
#
#
# Convention : Reuss Voigt Hill
#
# Bulk Modulus (GPa) = 55.42169 69.22510 62.32340
# Shear Modulus (GPa) = 45.12149 18.30858 31.71503
#
# Velocity S-wave (km/s) = 4.85445 3.09226 4.06988
# Velocity P-wave (km/s) = 7.76957 6.99313 7.39155
#
# Compressibility (1/GPa) = 0.01804348
#
# Stress axis : x y z
#
# Youngs Moduli (GPa) = 110.32703 118.39201 56.73185
#
# Poissons Ratio (x) = 0.27239 0.25845
# Poissons Ratio (y) = 0.25383 0.09591
# Poissons Ratio (z) = 0.50260 0.20015
#
# Static dielectric constant tensor:
#      x y z
#    x 3.553840 0.000020 -0.578610 
#    y 0.000020 3.652910 0.000030 
#    z -0.578610 0.000030 3.035390 
# 
# 
# High freq. dielectric constant tensor:
#      x y z
#    x 1.760890 0.000000 -0.021870 
#    y 0.000000 1.751580 0.000000 
#    z -0.021870 0.000000 1.713790 
# 
# From -- ./inp_files/120367.got.cif
#   From: 2010.06.25/outbox.cif.g09.slc.cpg/sg12_61_cif.got.tgz:120367.got - 2010.06.28 00:19:55.
