data_PCOD8090624
_publ_section_title
;
Structure prediction by ZEFSAII (Michael W. Deem and Ramdas Pophale) SiO2 
 PCOD8090624
Probable space group: C 2/M
;
_chemical_formula_sum "Si O2"
_cell_formula_units_Z 64
_cell_length_a 19.070676
_cell_length_b 13.086452
_cell_length_c 16.019436
_cell_angle_alpha 90.000000
_cell_angle_beta 133.068387
_cell_angle_gamma 90.000000
_cell_volume 2920.644705
_symmetry_space_group_name_H-M "C 2/M"
_symmetry_group_IT_number 12
_symmetry_cell_setting 'monoclinic'
loop_
_space_group_symop_operation_xyz
x,y,z
-x,y,-z
-x,-y,-z
x,-y,z
1/2+x,1/2+y,z
1/2-x,1/2+y,-z
1/2-x,1/2-y,-z
1/2+x,1/2-y,z
loop_
_atom_site_type_symbol
_atom_site_label
_atom_site_fract_x
_atom_site_fract_y
_atom_site_fract_z
Si Si1 0.421575 0.384659 0.498499
Si Si2 0.332788 0.880028 0.945122
Si Si3 0.778282 0.676712 0.721928
Si Si4 0.094892 0.886488 0.042036
Si Si5 0.669608 0.381701 0.931994
Si Si6 0.320635 0.389219 0.714653
Si Si7 0.975441 0.386435 0.806810
Si Si8 0.976040 0.185843 0.716548
O O1 0.500000 0.334635 0.500000
O O2 0.452611 0.500000 0.543908
O O3 0.317768 0.386701 0.370779
O O4 0.419614 0.324710 0.584074
O O5 0.303127 0.812150 0.840453
O O6 0.267651 0.839835 0.970210
O O7 0.311062 0.000000 0.908228
O O8 0.444755 0.863877 0.057302
O O9 0.758073 0.785597 0.656930
O O10 0.869011 0.618616 0.757524
O O11 0.167655 0.896929 0.176822
O O12 0.062615 0.000000 0.984845
O O13 0.142784 0.828899 0.000468
O O14 0.000000 0.827630 0.000000
O O15 0.687308 0.500000 0.963734
O O16 0.581617 0.363524 0.796482
O O17 0.276185 0.500000 0.648525
O O18 0.420063 0.370958 0.746258
O O19 0.992067 0.500000 0.783649
O O20 0.985983 0.306641 0.740375
#
# Coordination Sequence:
#
# PCOD8090624 Si02
#       8
#     8   8   8   8   8   8   8   8
#     4  11  24  44  68  95 124 155 204 266 314 359
#     4  10  21  38  60  90 127 167 212 256 308 373
#     4  11  23  39  66  91 121 168 212 254 311 365
#     4   9  16  29  51  81 123 160 195 243 304 366
#     4  10  19  33  57  89 124 163 201 253 316 367
#     4  10  21  36  57  90 124 156 201 255 306 368
#     4  10  23  41  61  90 126 165 209 257 307 373
#     4  11  22  37  64  91 120 159 209 258 315 367
#
# _framework density 21.912970000000001
#
# number of rings (size 3 to 8) (size 9 to 14) (size 15 to 20)
#    0.000    1.750    1.250    3.375    1.750    5.500 
#    2.250    1.875    0.000    0.750    0.000    0.000 
#    0.000    0.000    0.000    0.000    0.000    0.000 
#
# Total GULP energy -396598.394320 kJ/mol
# GULP energy per Si atom -12393.699823 kJ/mol
# Density = 2.186310 g / cm^3
# Si number density = 21.912970 Si / 1000 Ang^3
#
#
#
# Elastic Constant Matrix: (Units=GPa)
#
#
# Indices 1 2 3 4 5 6 
#
# 1 117.8513 33.9936 38.4821 0.0000 8.8918 0.0000
# 2 33.9936 97.8362 18.0348 0.0000 -14.5531 0.0000
# 3 38.4821 18.0348 104.9133 0.0000 2.8429 0.0000
# 4 0.0000 0.0000 0.0000 26.5154 0.0000 -3.5153
# 5 8.8918 -14.5531 2.8429 0.0000 29.2744 0.0000
# 6 0.0000 0.0000 0.0000 -3.5153 0.0000 22.3888
#
#
#
# Elastic Compliance Matrix: (Units=1/GPa)
#
#
# Indices 1 2 3 4 5 6 
#
# 1 0.011077 -0.004001 -0.003239 0.000000 -0.005039 0.000000
# 2 -0.004001 0.012941 -0.000967 0.000000 0.007743 0.000000
# 3 -0.003239 -0.000967 0.010901 0.000000 -0.000555 0.000000
# 4 0.000000 0.000000 0.000000 0.038516 0.000000 0.006047
# 5 -0.005039 0.007743 -0.000555 0.000000 0.039593 0.000000
# 6 0.000000 0.000000 0.000000 0.006047 0.000000 0.045615
#
#
# Mechanical properties :
#
#
# Convention : Reuss Voigt Hill
#
# Bulk Modulus (GPa) = 54.03721 55.73575 54.88648
# Shear Modulus (GPa) = 27.58997 30.97510 29.28253
#
# Velocity S-wave (km/s) = 3.55219 3.76380 3.65952
# Velocity P-wave (km/s) = 6.44496 6.66172 6.55424
#
# Compressibility (1/GPa) = 0.01850577
#
# Stress axis : x y z
#
# Youngs Moduli (GPa) = 90.27562 77.27138 91.73579
#
# Poissons Ratio (x) = 0.30919 0.29710
# Poissons Ratio (y) = 0.36123 0.08869
# Poissons Ratio (z) = 0.29238 0.07470
#
# Static dielectric constant tensor:
#      x y z
#    x 4.124510 0.000000 -0.102660 
#    y 0.000000 4.268620 0.000000 
#    z -0.102660 0.000000 3.469010 
# 
# 
# High freq. dielectric constant tensor:
#      x y z
#    x 1.860700 0.000000 -0.006930 
#    y 0.000000 1.875630 0.000000 
#    z -0.006930 0.000000 1.824660 
# 
# From -- ./inp_files/225775.got.cif
#   From: 2010.06.25/outbox.cif.g09.slc.cpg/sg12_113_cif.got.tgz:225775.got - 2010.06.28 00:19:55.
