data_PCOD8090730
_publ_section_title
;
Structure prediction by ZEFSAII (Michael W. Deem and Ramdas Pophale) SiO2 
 PCOD8090730
Probable space group: C 2/M
;
_chemical_formula_sum "Si O2"
_cell_formula_units_Z 56
_cell_length_a 8.636268
_cell_length_b 17.641813
_cell_length_c 22.342133
_cell_angle_alpha 90.000000
_cell_angle_beta 43.025935
_cell_angle_gamma 90.000000
_cell_volume 2322.672634
_symmetry_space_group_name_H-M "C 2/M"
_symmetry_group_IT_number 12
_symmetry_cell_setting 'monoclinic'
loop_
_space_group_symop_operation_xyz
x,y,z
-x,y,-z
-x,-y,-z
x,-y,z
1/2+x,1/2+y,z
1/2-x,1/2+y,-z
1/2-x,1/2-y,-z
1/2+x,1/2-y,z
loop_
_atom_site_type_symbol
_atom_site_label
_atom_site_fract_x
_atom_site_fract_y
_atom_site_fract_z
Si Si1 0.218713 0.000000 0.864289
Si Si2 0.576550 0.412497 0.541473
Si Si3 0.147707 0.654247 0.229429
Si Si4 0.559761 0.855289 0.900980
Si Si5 0.961217 0.090015 0.702544
Si Si6 0.214415 0.500000 0.014531
Si Si7 0.432471 0.087311 0.628614
Si Si8 0.910857 0.761760 0.858251
O O1 0.345765 0.924631 0.807972
O O2 0.234600 0.000000 0.930419
O O3 0.958759 0.000000 0.912818
O O4 0.500000 0.373572 0.500000
O O5 0.507288 0.500000 0.557331
O O6 0.451897 0.379423 0.636088
O O7 0.847637 0.403727 0.475728
O O8 0.010879 0.638430 0.328977
O O9 0.398106 0.679068 0.177985
O O10 0.037336 0.720315 0.220210
O O11 0.758619 0.873094 0.796751
O O12 0.377675 0.802198 0.918561
O O13 0.677591 0.809717 0.922134
O O14 0.433651 0.927839 0.963131
O O15 0.204172 0.115186 0.660723
O O16 0.934913 0.000000 0.712216
O O17 0.401087 0.000000 0.657932
#
# Coordination Sequence:
#
# PCOD8090730 Si02
#       8
#     4   8   8   8   8   4   8   8
#     4  11  24  43  69 100 127 158 207 265 314 369
#     4   9  19  31  49  88 127 158 206 267 318 364
#     4  11  21  42  64  94 126 169 211 258 311 374
#     4  11  21  42  64  94 126 169 211 258 311 374
#     4  10  19  33  59  88 123 161 211 264 317 365
#     4  11  24  43  69 100 127 158 207 265 314 369
#     4  10  19  33  59  88 123 161 211 264 317 365
#     4  10  24  38  63  93 130 168 212 250 312 383
#
# _framework density 24.110157000000001
#
# number of rings (size 3 to 8) (size 9 to 14) (size 15 to 20)
#    0.000    1.714    4.286    0.429    2.000    2.286 
#    0.000    5.714    0.000    5.143    0.000    0.000 
#    0.000    0.000    0.000    0.000    0.000    0.000 
#
# Total GULP energy -347120.786028 kJ/mol
# GULP energy per Si atom -12397.170930 kJ/mol
# Density = 2.405528 g / cm^3
# Si number density = 24.110157 Si / 1000 Ang^3
#
#
#
# Elastic Constant Matrix: (Units=GPa)
#
#
# Indices 1 2 3 4 5 6 
#
# 1 87.0540 14.1188 -18.0597 0.0104 -5.7086 -0.0023
# 2 14.1188 85.2949 -5.5839 0.0010 -3.4914 0.0052
# 3 -18.0597 -5.5839 33.2873 0.0016 -13.4522 0.0016
# 4 0.0104 0.0010 0.0016 16.2982 -0.0011 -2.0874
# 5 -5.7086 -3.4914 -13.4522 -0.0011 24.8161 -0.0017
# 6 -0.0023 0.0052 0.0016 -2.0874 -0.0017 31.0148
#
#
#
# Elastic Compliance Matrix: (Units=1/GPa)
#
#
# Indices 1 2 3 4 5 6 
#
# 1 0.014729 -0.001289 0.011615 -0.000010 0.009503 0.000001
# 2 -0.001289 0.012211 0.002464 0.000000 0.002757 -0.000002
# 3 0.011615 0.002464 0.048630 -0.000010 0.029380 -0.000001
# 4 -0.000010 0.000000 -0.000010 0.061890 -0.000005 0.004165
# 5 0.009503 0.002757 0.029380 -0.000005 0.058796 0.000002
# 6 0.000001 -0.000002 -0.000001 0.004165 0.000002 0.032523
#
#
# Mechanical properties :
#
#
# Convention : Reuss Voigt Hill
#
# Bulk Modulus (GPa) = 9.88625 20.73184 15.30904
# Shear Modulus (GPa) = 21.10455 28.76988 24.93721
#
# Velocity S-wave (km/s) = 2.96182 3.45812 3.21955
# Velocity P-wave (km/s) = 3.97566 4.95603 4.49267
#
# Compressibility (1/GPa) = 0.10115060
#
# Stress axis : x y z
#
# Youngs Moduli (GPa) = 67.89340 81.89017 20.56362
#
# Poissons Ratio (x) = 0.10553 -0.23886
# Poissons Ratio (y) = 0.08749 -0.05066
# Poissons Ratio (z) = -0.78861 -0.20174
#
# Static dielectric constant tensor:
#      x y z
#    x 4.679000 -0.000010 0.076170 
#    y -0.000010 4.213410 0.000030 
#    z 0.076170 0.000030 4.200840 
# 
# 
# High freq. dielectric constant tensor:
#      x y z
#    x 1.974990 0.000000 0.003570 
#    y 0.000000 1.933730 0.000000 
#    z 0.003570 0.000000 1.946390 
# 
# From -- ./inp_files/356700.got.cif
#   From: 2010.06.25/outbox.cif.g09.slc.cpg/sg12_179_cif.got.tgz:356700.got - 2010.06.28 00:19:55.
