data_PCOD8090617
_publ_section_title
;
Structure prediction by ZEFSAII (Michael W. Deem and Ramdas Pophale) SiO2 
 PCOD8090617
Probable space group: C 2/M
;
_chemical_formula_sum "Si O2"
_cell_formula_units_Z 64
_cell_length_a 26.348740
_cell_length_b 8.737563
_cell_length_c 14.909784
_cell_angle_alpha 90.000000
_cell_angle_beta 64.381393
_cell_angle_gamma 90.000000
_cell_volume 3095.136568
_symmetry_space_group_name_H-M "C 2/M"
_symmetry_group_IT_number 12
_symmetry_cell_setting 'monoclinic'
loop_
_space_group_symop_operation_xyz
x,y,z
-x,y,-z
-x,-y,-z
x,-y,z
1/2+x,1/2+y,z
1/2-x,1/2+y,-z
1/2-x,1/2-y,-z
1/2+x,1/2-y,z
loop_
_atom_site_type_symbol
_atom_site_label
_atom_site_fract_x
_atom_site_fract_y
_atom_site_fract_z
Si Si1 0.559284 0.170083 0.427976
Si Si2 0.640854 0.319752 0.225792
Si Si3 0.460964 0.822628 0.192801
Si Si4 0.790335 0.824424 0.539031
Si Si5 0.363008 0.178438 0.137900
Si Si6 0.259648 0.181123 0.747137
Si Si7 0.894214 0.332790 0.413244
Si Si8 0.086888 0.321142 0.093540
O O1 0.500000 0.247905 0.500000
O O2 0.593162 0.275481 0.333937
O O3 0.590922 0.150188 0.495726
O O4 0.550304 0.000000 0.391437
O O5 0.649030 0.500000 0.221177
O O6 0.701511 0.245094 0.201929
O O7 0.621340 0.267447 0.142927
O O8 0.412249 0.753289 0.165185
O O9 0.445736 0.790339 0.308400
O O10 0.523387 0.752927 0.130926
O O11 0.465147 0.000000 0.164693
O O12 0.750000 0.750000 0.500000
O O13 0.788518 0.734042 0.633287
O O14 0.849802 0.804380 0.443400
O O15 0.776506 0.000000 0.567926
O O16 0.304382 0.262770 0.200092
O O17 0.353588 0.000000 0.165436
O O18 0.380449 0.208541 0.022978
O O19 0.260610 0.000000 0.751882
O O20 0.870073 0.500000 0.399785
O O21 0.084506 0.500000 0.120828
#
# Coordination Sequence:
#
# PCOD8090617 Si02
#       8
#     8   8   8   8   8   8   8   8
#     4  10  20  36  60  89 123 164 205 245 299 372
#     4  12  25  41  62  90 126 168 214 269 321 373
#     4   9  18  36  64  97 129 163 207 255 309 380
#     4  12  24  39  60  88 124 163 206 253 305 366
#     4  10  21  39  66  97 127 162 210 266 322 381
#     4  12  25  43  65  90 125 168 214 264 321 384
#     4  10  19  33  57  88 123 162 202 243 296 361
#     4  10  21  40  66  94 125 167 213 261 319 383
#
# _framework density 20.677602
#
# number of rings (size 3 to 8) (size 9 to 14) (size 15 to 20)
#    0.000    1.375    1.250    5.250    0.000    5.750 
#    0.000    2.500    0.000    1.500    0.000    0.000 
#    0.000    0.000    0.000    0.000    0.000    0.000 
#
# Total GULP energy -396686.080301 kJ/mol
# GULP energy per Si atom -12396.440009 kJ/mol
# Density = 2.063054 g / cm^3
# Si number density = 20.677602 Si / 1000 Ang^3
#
#
#
# Elastic Constant Matrix: (Units=GPa)
#
#
# Indices 1 2 3 4 5 6 
#
# 1 116.0306 40.2235 19.2263 0.0000 -2.9609 0.0000
# 2 40.2235 105.2929 33.0050 0.0000 1.2294 0.0000
# 3 19.2263 33.0050 81.7648 0.0000 1.7045 0.0000
# 4 0.0000 0.0000 0.0000 29.2059 0.0000 -3.7627
# 5 -2.9609 1.2294 1.7045 0.0000 36.6476 0.0000
# 6 0.0000 0.0000 0.0000 -3.7627 0.0000 31.1670
#
#
#
# Elastic Compliance Matrix: (Units=1/GPa)
#
#
# Indices 1 2 3 4 5 6 
#
# 1 0.010029 -0.003546 -0.000947 0.000000 0.000973 0.000000
# 2 -0.003546 0.012128 -0.004051 0.000000 -0.000505 0.000000
# 3 -0.000947 -0.004051 0.014101 0.000000 -0.000596 0.000000
# 4 0.000000 0.000000 0.000000 0.034781 0.000000 0.004199
# 5 0.000973 -0.000505 -0.000596 0.000000 0.027410 0.000000
# 6 0.000000 0.000000 0.000000 0.004199 0.000000 0.032592
#
#
# Mechanical properties :
#
#
# Convention : Reuss Voigt Hill
#
# Bulk Modulus (GPa) = 52.16705 54.22200 53.19452
# Shear Modulus (GPa) = 32.35848 33.44633 32.90240
#
# Velocity S-wave (km/s) = 3.96018 4.02620 3.99332
# Velocity P-wave (km/s) = 6.79663 6.92049 6.85884
#
# Compressibility (1/GPa) = 0.01916919
#
# Stress axis : x y z
#
# Youngs Moduli (GPa) = 99.70658 82.45641 70.91866
#
# Poissons Ratio (x) = 0.29237 0.06718
# Poissons Ratio (y) = 0.35354 0.28730
# Poissons Ratio (z) = 0.09446 0.33404
#
# Static dielectric constant tensor:
#      x y z
#    x 4.052040 0.000000 -0.035570 
#    y 0.000000 3.236450 0.000000 
#    z -0.035570 0.000000 3.742580 
# 
# 
# High freq. dielectric constant tensor:
#      x y z
#    x 1.825350 0.000000 -0.000260 
#    y 0.000000 1.781650 0.000000 
#    z -0.000260 0.000000 1.815100 
# 
# From -- ./inp_files/243870.got.cif
#   From: 2010.06.25/outbox.cif.g09.slc.cpg/sg12_122_cif.got.tgz:243870.got - 2010.06.28 00:19:55.
