data_PCOD8090011
_publ_section_title
;
Structure prediction by ZEFSAII (Michael W. Deem and Ramdas Pophale) SiO2 
 PCOD8090011
Probable space group: C 2/M
;
_chemical_formula_sum "Si O2"
_cell_formula_units_Z 64
_cell_length_a 25.657046
_cell_length_b 8.817858
_cell_length_c 22.749779
_cell_angle_alpha 90.000000
_cell_angle_beta 39.945091
_cell_angle_gamma 90.000000
_cell_volume 3304.592691
_symmetry_space_group_name_H-M "C 2/M"
_symmetry_group_IT_number 12
_symmetry_cell_setting 'monoclinic'
loop_
_space_group_symop_operation_xyz
x,y,z
-x,y,-z
-x,-y,-z
x,-y,z
1/2+x,1/2+y,z
1/2-x,1/2+y,-z
1/2-x,1/2-y,-z
1/2+x,1/2-y,z
loop_
_atom_site_type_symbol
_atom_site_label
_atom_site_fract_x
_atom_site_fract_y
_atom_site_fract_z
Si Si1 0.171132 0.820194 0.912735
Si Si2 0.571146 0.663373 0.392806
Si Si3 0.463853 0.321671 0.778745
Si Si4 0.550103 0.679275 0.591271
Si Si5 0.706370 0.820401 0.093735
Si Si6 0.187043 0.818639 0.388231
Si Si7 0.339794 0.320032 0.209908
Si Si8 0.490768 0.319675 0.886456
O O1 0.246958 0.767815 0.887167
O O2 0.180440 0.759344 0.838166
O O3 0.164535 0.000000 0.917376
O O4 0.087740 0.753910 0.012156
O O5 0.500000 0.634217 0.500000
O O6 0.604996 0.500000 0.341923
O O7 0.529175 0.751844 0.374156
O O8 0.643606 0.746551 0.365940
O O9 0.444398 0.500000 0.797072
O O10 0.539442 0.284044 0.669516
O O11 0.385072 0.236565 0.822809
O O12 0.488974 0.260680 0.820888
O O13 0.546138 0.500000 0.582754
O O14 0.635791 0.737844 0.490155
O O15 0.709395 0.000000 0.084580
O O16 0.750000 0.750000 0.000000
O O17 0.276261 0.747028 0.312081
O O18 0.192282 0.000000 0.382586
O O19 0.336313 0.500000 0.216405
O O20 0.428470 0.259074 0.151543
O O21 0.489839 0.500000 0.888124
#
# Coordination Sequence:
#
# PCOD8090011 Si02
#       8
#     8   8   8   8   8   8   8   8
#     4   9  18  33  53  76 101 131 170 210 250 304
#     4   7  11  22  41  64  90 122 158 194 235 286
#     4  10  19  33  55  80 104 133 175 213 251 303
#     4   8  15  28  49  74 100 135 171 205 249 307
#     4  11  21  35  54  79 109 136 165 207 259 310
#     4   9  17  31  49  72 103 133 169 214 256 297
#     4  10  20  33  53  75  98 134 177 215 253 296
#     4   9  17  33  54  74  97 132 176 216 249 298
#
# _framework density 19.366987000000002
#
# number of rings (size 3 to 8) (size 9 to 14) (size 15 to 20)
#    0.000    2.875    1.250    2.250    1.750    1.500 
#    0.000    2.500    0.000    4.125    0.000    0.000 
#    0.000    0.000    0.000    0.000    0.000    0.000 
#
# Total GULP energy -396443.954834 kJ/mol
# GULP energy per Si atom -12388.873589 kJ/mol
# Density = 1.932291 g / cm^3
# Si number density = 19.366987 Si / 1000 Ang^3
#
#
#
# Elastic Constant Matrix: (Units=GPa)
#
#
# Indices 1 2 3 4 5 6 
#
# 1 122.1646 21.1668 61.4551 0.0058 -0.9002 -0.0065
# 2 21.1668 22.7661 19.6416 0.0130 -1.5412 -0.0263
# 3 61.4551 19.6416 132.8497 0.0105 6.7991 -0.0068
# 4 0.0058 0.0130 0.0105 22.9536 -0.0023 -4.6653
# 5 -0.9002 -1.5412 6.7991 -0.0023 28.2885 -0.0006
# 6 -0.0065 -0.0263 -0.0068 -4.6653 -0.0006 15.2564
#
#
#
# Elastic Compliance Matrix: (Units=1/GPa)
#
#
# Indices 1 2 3 4 5 6 
#
# 1 0.011606 -0.006925 -0.004399 0.000001 0.001049 -0.000009
# 2 -0.006925 0.055074 -0.005145 -0.000009 0.004017 0.000087
# 3 -0.004399 -0.005145 0.010473 -0.000002 -0.002937 -0.000007
# 4 0.000001 -0.000009 -0.000002 0.046453 0.000004 0.014205
# 5 0.001049 0.004017 -0.002937 0.000004 0.036308 0.000009
# 6 -0.000009 0.000087 -0.000007 0.014205 0.000009 0.069890
#
#
# Mechanical properties :
#
#
# Convention : Reuss Voigt Hill
#
# Bulk Modulus (GPa) = 22.61598 53.58971 38.10284
# Shear Modulus (GPa) = 18.01932 25.00085 21.51008
#
# Velocity S-wave (km/s) = 3.05358 3.59681 3.33627
# Velocity P-wave (km/s) = 4.91278 6.70672 5.87858
#
# Compressibility (1/GPa) = 0.04421653
#
# Stress axis : x y z
#
# Youngs Moduli (GPa) = 86.16245 18.15743 95.48258
#
# Poissons Ratio (x) = 0.12573 0.42000
# Poissons Ratio (y) = 0.59664 0.49125
# Poissons Ratio (z) = 0.37901 0.09342
#
# Static dielectric constant tensor:
#      x y z
#    x 3.810290 -0.000010 0.075070 
#    y -0.000010 2.949540 0.000010 
#    z 0.075070 0.000010 3.677180 
# 
# 
# High freq. dielectric constant tensor:
#      x y z
#    x 1.750380 0.000000 0.003710 
#    y 0.000000 1.690720 0.000000 
#    z 0.003710 0.000000 1.761440 
# 
# From -- ./inp_files/324928.got.cif
#   From: 2010.06.25/outbox.cif.g09.slc.cpg/sg12_163_cif.got.tgz:324928.got - 2010.06.28 00:19:55.
