data_PCOD8090974
_publ_section_title
;
Structure prediction by ZEFSAII (Michael W. Deem and Ramdas Pophale) SiO2 
 PCOD8090974
Probable space group: C 2/M
;
_chemical_formula_sum "Si O2"
_cell_formula_units_Z 56
_cell_length_a 12.057531
_cell_length_b 13.401935
_cell_length_c 18.164027
_cell_angle_alpha 90.000000
_cell_angle_beta 93.099529
_cell_angle_gamma 90.000000
_cell_volume 2930.908397
_symmetry_space_group_name_H-M "C 2/M"
_symmetry_group_IT_number 12
_symmetry_cell_setting 'monoclinic'
loop_
_space_group_symop_operation_xyz
x,y,z
-x,y,-z
-x,-y,-z
x,-y,z
1/2+x,1/2+y,z
1/2-x,1/2+y,-z
1/2-x,1/2-y,-z
1/2+x,1/2-y,z
loop_
_atom_site_type_symbol
_atom_site_label
_atom_site_fract_x
_atom_site_fract_y
_atom_site_fract_z
Si Si1 0.596549 0.116821 0.597085
Si Si2 0.758959 0.748034 0.886873
Si Si3 0.295308 0.390327 0.318356
Si Si4 0.370175 0.383141 0.008977
Si Si5 0.851465 0.618771 0.558564
Si Si6 0.902732 0.611647 0.803384
Si Si7 0.881011 0.292163 0.254260
O O1 0.470763 0.160855 0.591007
O O2 0.665476 0.153174 0.527185
O O3 0.656771 0.143832 0.675819
O O4 0.586294 0.000000 0.589986
O O5 0.799693 0.838679 0.938925
O O6 0.860551 0.673181 0.872769
O O7 0.713136 0.800020 0.811423
O O8 0.662366 0.680427 0.920046
O O9 0.347981 0.500000 0.331385
O O10 0.250097 0.342627 0.393704
O O11 0.191178 0.396819 0.260650
O O12 0.389951 0.321453 0.285194
O O13 0.340161 0.500000 0.018151
O O14 0.500000 0.369002 0.000000
O O15 0.851179 0.500000 0.567522
O O16 0.939842 0.500000 0.829220
O O17 0.003865 0.671997 0.773272
#
# Coordination Sequence:
#
# PCOD8090974 Si02
#       7
#     8   8   8   8   8   8   8
#     4   9  16  27  48  76 105 137 175 223 269 307
#     4  10  22  37  55  84 111 134 175 218 259 313
#     4   9  18  32  49  72 103 140 183 222 260 312
#     4  10  21  40  62  80 105 142 176 210 256 315
#     4   8  14  28  48  71 101 139 182 221 259 311
#     4  10  19  34  54  76 109 144 171 211 263 312
#     4  11  20  30  52  82 108 134 175 224 266 306
#
# _framework density 19.106705000000002
#
# number of rings (size 3 to 8) (size 9 to 14) (size 15 to 20)
#    0.000    2.429    1.429    2.571    0.000    2.286 
#    0.000    0.714    0.000    6.429    0.000    2.000 
#    0.000    0.000    0.000    0.000    0.000    0.000 
#
# Total GULP energy -346977.143313 kJ/mol
# GULP energy per Si atom -12392.040833 kJ/mol
# Density = 1.906322 g / cm^3
# Si number density = 19.106705 Si / 1000 Ang^3
#
#
#
# Elastic Constant Matrix: (Units=GPa)
#
#
# Indices 1 2 3 4 5 6 
#
# 1 48.5063 38.5037 18.9100 0.0000 -9.5909 0.0000
# 2 38.5037 63.2263 19.2999 0.0000 -3.8530 0.0000
# 3 18.9100 19.2999 103.2602 0.0000 4.1771 0.0000
# 4 0.0000 0.0000 0.0000 26.2512 0.0000 -2.2285
# 5 -9.5909 -3.8530 4.1771 0.0000 21.0286 0.0000
# 6 0.0000 0.0000 0.0000 -2.2285 0.0000 24.0590
#
#
#
# Elastic Compliance Matrix: (Units=1/GPa)
#
#
# Indices 1 2 3 4 5 6 
#
# 1 0.046112 -0.025711 -0.004334 0.000000 0.017181 0.000000
# 2 -0.025711 0.031404 -0.000927 0.000000 -0.005788 0.000000
# 3 -0.004334 -0.000927 0.010825 0.000000 -0.004297 0.000000
# 4 0.000000 0.000000 0.000000 0.038395 0.000000 0.003556
# 5 0.017181 -0.005788 -0.004297 0.000000 0.055183 0.000000
# 6 0.000000 0.000000 0.000000 0.003556 0.000000 0.041894
#
#
# Mechanical properties :
#
#
# Convention : Reuss Voigt Hill
#
# Bulk Modulus (GPa) = 37.88356 40.93556 39.40956
# Shear Modulus (GPa) = 16.97465 23.48635 20.23050
#
# Velocity S-wave (km/s) = 2.98386 3.50983 3.25748
# Velocity P-wave (km/s) = 5.63397 6.15601 5.90076
#
# Compressibility (1/GPa) = 0.02639668
#
# Stress axis : x y z
#
# Youngs Moduli (GPa) = 21.68639 31.84291 92.37875
#
# Poissons Ratio (x) = 0.81872 0.40036
# Poissons Ratio (y) = 0.55759 0.08563
# Poissons Ratio (z) = 0.09399 0.02952
#
# Static dielectric constant tensor:
#      x y z
#    x 3.269880 0.000000 -0.253170 
#    y 0.000000 3.601610 0.000000 
#    z -0.253170 0.000000 3.802200 
# 
# 
# High freq. dielectric constant tensor:
#      x y z
#    x 1.710710 0.000000 -0.021630 
#    y 0.000000 1.734080 0.000000 
#    z -0.021630 0.000000 1.758160 
# 
# From -- ./inp_files/304234.got.cif
#   From: 2010.06.25/outbox.cif.g09.slc.cpg/sg12_153_cif.got.tgz:304234.got - 2010.06.28 00:19:55.
