data_PCOD8090535
_publ_section_title
;
Structure prediction by ZEFSAII (Michael W. Deem and Ramdas Pophale) SiO2 
 PCOD8090535
Probable space group: C 2/M
;
_chemical_formula_sum "Si O2"
_cell_formula_units_Z 56
_cell_length_a 23.840539
_cell_length_b 9.135793
_cell_length_c 13.965293
_cell_angle_alpha 90.000000
_cell_angle_beta 84.053038
_cell_angle_gamma 90.000000
_cell_volume 3025.302369
_symmetry_space_group_name_H-M "C 2/M"
_symmetry_group_IT_number 12
_symmetry_cell_setting 'monoclinic'
loop_
_space_group_symop_operation_xyz
x,y,z
-x,y,-z
-x,-y,-z
x,-y,z
1/2+x,1/2+y,z
1/2-x,1/2+y,-z
1/2-x,1/2-y,-z
1/2+x,1/2-y,z
loop_
_atom_site_type_symbol
_atom_site_label
_atom_site_fract_x
_atom_site_fract_y
_atom_site_fract_z
Si Si1 0.793945 0.171248 0.303008
Si Si2 0.437131 0.327366 0.981945
Si Si3 0.122932 0.170840 0.541882
Si Si4 0.459441 0.167438 0.317216
Si Si5 0.166161 0.331789 0.351781
Si Si6 0.923575 0.667031 0.789586
Si Si7 0.877732 0.671141 0.159455
O O1 0.826321 0.210903 0.395105
O O2 0.729854 0.223180 0.326533
O O3 0.819950 0.261367 0.210352
O O4 0.798734 0.000000 0.278130
O O5 0.429072 0.500000 0.992812
O O6 0.424387 0.279000 0.876551
O O7 0.500000 0.278718 0.000000
O O8 0.391975 0.247954 0.057179
O O9 0.064279 0.234129 0.592738
O O10 0.135576 0.237399 0.437058
O O11 0.115141 0.000000 0.530785
O O12 0.525227 0.202292 0.292058
O O13 0.428453 0.205362 0.223337
O O14 0.448572 0.000000 0.348058
O O15 0.165142 0.500000 0.385382
O O16 0.134413 0.310561 0.256936
O O17 0.929641 0.500000 0.826374
O O18 0.869002 0.500000 0.143181
#
# Coordination Sequence:
#
# PCOD8090535 Si02
#       7
#     8   8   8   8   8   8   8
#     4   9  19  36  56  80 109 141 181 226 269 313
#     4  11  22  35  56  84 112 141 172 215 270 324
#     4  10  20  33  54  80 108 141 180 225 269 317
#     4   9  18  33  53  78 107 138 176 221 267 317
#     4  10  21  37  56  77 107 146 183 223 268 316
#     4  10  21  37  56  79 108 143 182 221 266 320
#     4  10  19  33  57  84 108 138 178 224 266 312
#
# _framework density 18.510546000000001
#
# number of rings (size 3 to 8) (size 9 to 14) (size 15 to 20)
#    0.000    2.143    1.429    1.714    0.000    4.000 
#    0.000    3.571    0.000    0.000    0.000    0.000 
#    0.000    0.000    0.000    0.000    0.000    0.000 
#
# Total GULP energy -347341.157310 kJ/mol
# GULP energy per Si atom -12405.041333 kJ/mol
# Density = 1.846842 g / cm^3
# Si number density = 18.510546 Si / 1000 Ang^3
#
#
#
# Elastic Constant Matrix: (Units=GPa)
#
#
# Indices 1 2 3 4 5 6 
#
# 1 45.2935 16.5477 22.3519 0.0000 -1.1157 0.0000
# 2 16.5477 75.6976 52.8807 0.0000 -5.5862 0.0000
# 3 22.3519 52.8807 100.6479 0.0000 -10.4402 0.0000
# 4 0.0000 0.0000 0.0000 38.5301 0.0000 -2.7988
# 5 -1.1157 -5.5862 -10.4402 0.0000 19.4214 0.0000
# 6 0.0000 0.0000 0.0000 -2.7988 0.0000 20.2191
#
#
#
# Elastic Compliance Matrix: (Units=1/GPa)
#
#
# Indices 1 2 3 4 5 6 
#
# 1 0.025146 -0.002525 -0.004430 0.000000 -0.001663 0.000000
# 2 -0.002525 0.021124 -0.010509 0.000000 0.000282 0.000000
# 3 -0.004430 -0.010509 0.017052 0.000000 0.005889 0.000000
# 4 0.000000 0.000000 0.000000 0.026217 0.000000 0.003629
# 5 -0.001663 0.000282 0.005889 0.000000 0.054641 0.000000
# 6 0.000000 0.000000 0.000000 0.003629 0.000000 0.049961
#
#
# Mechanical properties :
#
#
# Convention : Reuss Voigt Hill
#
# Bulk Modulus (GPa) = 35.21855 45.02217 40.12036
# Shear Modulus (GPa) = 20.96136 24.29137 22.62637
#
# Velocity S-wave (km/s) = 3.36877 3.62650 3.50001
# Velocity P-wave (km/s) = 5.84799 6.47384 6.16885
#
# Compressibility (1/GPa) = 0.02839413
#
# Stress axis : x y z
#
# Youngs Moduli (GPa) = 39.76773 47.33843 58.64465
#
# Poissons Ratio (x) = 0.11952 0.25982
# Poissons Ratio (y) = 0.10040 0.61629
# Poissons Ratio (z) = 0.17619 0.49748
#
# Static dielectric constant tensor:
#      x y z
#    x 3.386730 0.000000 -0.136140 
#    y 0.000000 3.380740 0.000000 
#    z -0.136140 0.000000 3.263900 
# 
# 
# High freq. dielectric constant tensor:
#      x y z
#    x 1.708600 0.000000 -0.012160 
#    y 0.000000 1.720290 0.000000 
#    z -0.012160 0.000000 1.715510 
# 
# From -- ./inp_files/237402.got.cif
#   From: 2010.06.25/outbox.cif.g09.slc.cpg/sg12_119_cif.got.tgz:237402.got - 2010.06.28 00:19:55.
