data_PCOD8090834
_publ_section_title
;
Structure prediction by ZEFSAII (Michael W. Deem and Ramdas Pophale) SiO2 
 PCOD8090834
Probable space group: C 2/M
;
_chemical_formula_sum "Si O2"
_cell_formula_units_Z 64
_cell_length_a 26.337075
_cell_length_b 13.634759
_cell_length_c 14.739231
_cell_angle_alpha 90.000000
_cell_angle_beta 138.330062
_cell_angle_gamma 90.000000
_cell_volume 3518.892532
_symmetry_space_group_name_H-M "C 2/M"
_symmetry_group_IT_number 12
_symmetry_cell_setting 'monoclinic'
loop_
_space_group_symop_operation_xyz
x,y,z
-x,y,-z
-x,-y,-z
x,-y,z
1/2+x,1/2+y,z
1/2-x,1/2+y,-z
1/2-x,1/2-y,-z
1/2+x,1/2-y,z
loop_
_atom_site_type_symbol
_atom_site_label
_atom_site_fract_x
_atom_site_fract_y
_atom_site_fract_z
Si Si1 0.637779 0.287953 0.542222
Si Si2 0.487048 0.390104 0.376684
Si Si3 0.770375 0.611128 0.062662
Si Si4 0.332986 0.300169 0.211693
Si Si5 0.166645 0.114674 0.403577
Si Si6 0.846848 0.111086 0.938042
Si Si7 0.766030 0.614964 0.365855
Si Si8 0.009560 0.116338 0.114722
O O1 0.548651 0.317482 0.412522
O O2 0.664809 0.320708 0.678277
O O3 0.686530 0.343931 0.529882
O O4 0.654278 0.172439 0.546880
O O5 0.500000 0.397405 0.500000
O O6 0.492951 0.500000 0.341116
O O7 0.403206 0.346853 0.250345
O O8 0.802554 0.500000 0.101980
O O9 0.833745 0.683266 0.190453
O O10 0.694511 0.619084 0.021719
O O11 0.744989 0.649224 0.929239
O O12 0.234992 0.138887 0.424970
O O13 0.086213 0.161679 0.261390
O O14 0.157321 0.000000 0.400534
O O15 0.795580 0.157700 0.789036
O O16 0.858203 0.000000 0.920361
O O17 0.932618 0.154804 0.063414
O O18 0.783048 0.500000 0.373960
O O19 0.018415 0.000000 0.129000
O O20 0.000000 0.154760 0.000000
#
# Coordination Sequence:
#
# PCOD8090834 Si02
#       8
#     8   8   8   8   8   8   8   8
#     4  11  21  34  51  74 105 141 179 213 258 314
#     4   9  19  35  52  72 102 135 164 205 258 311
#     4  10  20  34  54  76 100 135 176 220 266 310
#     4  10  21  35  52  77 105 137 177 216 261 315
#     4  10  20  31  49  78 108 138 170 211 261 315
#     4   9  16  28  49  71  95 130 166 209 263 306
#     4  10  19  34  52  73 104 139 176 218 262 307
#     4   9  15  26  45  72 102 128 161 205 257 309
#
# _framework density 18.187539999999998
#
# number of rings (size 3 to 8) (size 9 to 14) (size 15 to 20)
#    0.000    2.250    2.500    1.125    1.750    1.500 
#    0.000    0.625    0.000    2.250    0.000    0.000 
#    0.000    0.500    0.000    1.000    0.000    0.000 
#
# Total GULP energy -396534.416823 kJ/mol
# GULP energy per Si atom -12391.700526 kJ/mol
# Density = 1.814614 g / cm^3
# Si number density = 18.187540 Si / 1000 Ang^3
#
#
#
# Elastic Constant Matrix: (Units=GPa)
#
#
# Indices 1 2 3 4 5 6 
#
# 1 74.4622 38.3927 27.6112 0.0000 -0.4814 0.0000
# 2 38.3927 82.4112 32.6411 0.0000 12.4634 0.0000
# 3 27.6112 32.6411 64.0677 0.0000 -5.2226 0.0000
# 4 0.0000 0.0000 0.0000 21.0836 0.0000 4.2807
# 5 -0.4814 12.4634 -5.2226 0.0000 34.9380 0.0000
# 6 0.0000 0.0000 0.0000 4.2807 0.0000 28.5294
#
#
#
# Elastic Compliance Matrix: (Units=1/GPa)
#
#
# Indices 1 2 3 4 5 6 
#
# 1 0.018834 -0.007498 -0.004108 0.000000 0.002320 0.000000
# 2 -0.007498 0.019890 -0.007581 0.000000 -0.008332 0.000000
# 3 -0.004108 -0.007581 0.021722 0.000000 0.005895 0.000000
# 4 0.000000 0.000000 0.000000 0.048921 0.000000 -0.007340
# 5 0.002320 -0.008332 0.005895 0.000000 0.032508 0.000000
# 6 0.000000 0.000000 0.000000 -0.007340 0.000000 0.036153
#
#
# Mechanical properties :
#
#
# Convention : Reuss Voigt Hill
#
# Bulk Modulus (GPa) = 45.30665 46.47013 45.88839
# Shear Modulus (GPa) = 22.34554 25.06326 23.70440
#
# Velocity S-wave (km/s) = 3.50897 3.71623 3.61409
# Velocity P-wave (km/s) = 6.43289 6.63474 6.53460
#
# Compressibility (1/GPa) = 0.02207181
#
# Stress axis : x y z
#
# Youngs Moduli (GPa) = 53.09623 50.27582 46.03659
#
# Poissons Ratio (x) = 0.37697 0.18910
# Poissons Ratio (y) = 0.39812 0.34902
# Poissons Ratio (z) = 0.21810 0.38116
#
# Static dielectric constant tensor:
#      x y z
#    x 3.451690 0.000000 -0.021380 
#    y 0.000000 3.210140 0.000000 
#    z -0.021380 0.000000 3.425480 
# 
# 
# High freq. dielectric constant tensor:
#      x y z
#    x 1.705730 0.000000 -0.017790 
#    y 0.000000 1.666060 0.000000 
#    z -0.017790 0.000000 1.699720 
# 
# From -- ./inp_files/246376.got.cif
#   From: 2010.06.25/outbox.cif.g09.slc.cpg/sg12_124_cif.got.tgz:246376.got - 2010.06.28 00:19:55.
