data_PCOD8090571
_publ_section_title
;
Structure prediction by ZEFSAII (Michael W. Deem and Ramdas Pophale) SiO2 
 PCOD8090571
Probable space group: C 2/M
;
_chemical_formula_sum "Si O2"
_cell_formula_units_Z 56
_cell_length_a 31.383977
_cell_length_b 13.418888
_cell_length_c 9.283336
_cell_angle_alpha 90.000000
_cell_angle_beta 46.062821
_cell_angle_gamma 90.000000
_cell_volume 2815.282607
_symmetry_space_group_name_H-M "C 2/M"
_symmetry_group_IT_number 12
_symmetry_cell_setting 'monoclinic'
loop_
_space_group_symop_operation_xyz
x,y,z
-x,y,-z
-x,-y,-z
x,-y,z
1/2+x,1/2+y,z
1/2-x,1/2+y,-z
1/2-x,1/2-y,-z
1/2+x,1/2-y,z
loop_
_atom_site_type_symbol
_atom_site_label
_atom_site_fract_x
_atom_site_fract_y
_atom_site_fract_z
Si Si1 0.168545 0.386411 0.134501
Si Si2 0.784405 0.384697 0.284432
Si Si3 0.003384 0.889725 0.323751
Si Si4 0.611614 0.728992 0.449195
Si Si5 0.366132 0.381752 0.050948
Si Si6 0.204487 0.882707 0.058636
Si Si7 0.673319 0.259818 0.589191
O O1 0.157540 0.500000 0.205623
O O2 0.115699 0.320967 0.326453
O O3 0.170904 0.376283 0.955769
O O4 0.229568 0.342279 0.060877
O O5 0.764594 0.500000 0.351475
O O6 0.730148 0.310241 0.381124
O O7 0.814998 0.345853 0.359446
O O8 0.000000 0.902638 0.500000
O O9 0.954502 0.812574 0.384338
O O10 0.994215 0.000000 0.274624
O O11 0.067598 0.844797 0.136995
O O12 0.657224 0.643531 0.292912
O O13 0.626246 0.764723 0.576231
O O14 0.363440 0.500000 0.058393
O O15 0.349143 0.340932 0.245038
O O16 0.320050 0.341376 0.037176
O O17 0.209405 0.000000 0.046829
#
# Coordination Sequence:
#
# PCOD8090571 Si02
#       7
#     8   8   8   8   8   8   8
#     4  10  22  38  59  86 116 154 197 240 285 335
#     4  10  22  39  55  80 121 158 192 233 285 349
#     4  10  21  38  61  88 116 153 194 237 287 338
#     4  12  22  35  59  85 120 149 193 240 283 344
#     4  10  21  37  58  86 121 155 193 235 283 346
#     4  10  19  33  57  85 115 151 189 234 284 337
#     4  11  24  35  56  87 118 157 191 229 296 350
#
# _framework density 19.891431000000001
#
# number of rings (size 3 to 8) (size 9 to 14) (size 15 to 20)
#    0.000    1.571    2.857    2.143    4.000    2.857 
#    0.000    1.429    0.000    1.286    0.000    2.000 
#    0.000    0.000    0.000    0.000    0.000    0.000 
#
# Total GULP energy -347139.165985 kJ/mol
# GULP energy per Si atom -12397.827357 kJ/mol
# Density = 1.984616 g / cm^3
# Si number density = 19.891431 Si / 1000 Ang^3
#
#
#
# Elastic Constant Matrix: (Units=GPa)
#
#
# Indices 1 2 3 4 5 6 
#
# 1 77.2516 32.4136 24.3584 0.0000 12.8531 0.0000
# 2 32.4136 63.8350 6.3617 0.0000 3.5590 0.0000
# 3 24.3584 6.3617 57.5261 0.0000 9.7720 0.0000
# 4 0.0000 0.0000 0.0000 27.9096 0.0000 3.6110
# 5 12.8531 3.5590 9.7720 0.0000 32.5382 0.0000
# 6 0.0000 0.0000 0.0000 3.6110 0.0000 25.6949
#
#
#
# Elastic Compliance Matrix: (Units=1/GPa)
#
#
# Indices 1 2 3 4 5 6 
#
# 1 0.019571 -0.009025 -0.006474 0.000000 -0.004800 0.000000
# 2 -0.009025 0.020052 0.001445 0.000000 0.000938 0.000000
# 3 -0.006474 0.001445 0.020609 0.000000 -0.003790 0.000000
# 4 0.000000 0.000000 0.000000 0.036494 0.000000 -0.005129
# 5 -0.004800 0.000938 -0.003790 0.000000 0.033665 0.000000
# 6 0.000000 0.000000 0.000000 -0.005129 0.000000 0.039639
#
#
# Mechanical properties :
#
#
# Convention : Reuss Voigt Hill
#
# Bulk Modulus (GPa) = 31.12977 36.09777 33.61377
# Shear Modulus (GPa) = 23.94123 26.26048 25.10085
#
# Velocity S-wave (km/s) = 3.47305 3.63738 3.55617
# Velocity P-wave (km/s) = 5.63619 5.98561 5.81352
#
# Compressibility (1/GPa) = 0.03212359
#
# Stress axis : x y z
#
# Youngs Moduli (GPa) = 51.09537 49.87095 48.52327
#
# Poissons Ratio (x) = 0.45008 0.31413
# Poissons Ratio (y) = 0.46113 -0.07010
# Poissons Ratio (z) = 0.33078 -0.07205
#
# Static dielectric constant tensor:
#      x y z
#    x 2.953610 0.000000 0.753900 
#    y 0.000000 3.618120 0.000000 
#    z 0.753900 0.000000 2.850740 
# 
# 
# High freq. dielectric constant tensor:
#      x y z
#    x 1.759230 0.000000 0.016470 
#    y 0.000000 1.778270 0.000000 
#    z 0.016470 0.000000 1.765880 
# 
# From -- ./inp_files/111555.got.cif
#   From: 2010.06.25/outbox.cif.g09.slc.cpg/sg12_56_cif.got.tgz:111555.got - 2010.06.28 00:19:55.
