data_PCOD8090613
_publ_section_title
;
Structure prediction by ZEFSAII (Michael W. Deem and Ramdas Pophale) SiO2 
 PCOD8090613
Probable space group: C 2/M
;
_chemical_formula_sum "Si O2"
_cell_formula_units_Z 40
_cell_length_a 14.366765
_cell_length_b 25.657196
_cell_length_c 11.714894
_cell_angle_alpha 90.000000
_cell_angle_beta 29.392483
_cell_angle_gamma 90.000000
_cell_volume 2119.345495
_symmetry_space_group_name_H-M "C 2/M"
_symmetry_group_IT_number 12
_symmetry_cell_setting 'monoclinic'
loop_
_space_group_symop_operation_xyz
x,y,z
-x,y,-z
-x,-y,-z
x,-y,z
1/2+x,1/2+y,z
1/2-x,1/2+y,-z
1/2-x,1/2-y,-z
1/2+x,1/2-y,z
loop_
_atom_site_type_symbol
_atom_site_label
_atom_site_fract_x
_atom_site_fract_y
_atom_site_fract_z
Si Si1 0.207719 0.585940 0.289716
Si Si2 0.027504 0.156400 0.291182
Si Si3 0.542493 0.558316 0.773844
Si Si4 0.669593 0.306928 0.904027
Si Si5 0.778868 0.307922 0.215461
O O1 0.280650 0.579794 0.341320
O O2 0.184370 0.646251 0.275035
O O3 0.000000 0.560326 0.500000
O O4 0.352340 0.556238 0.052440
O O5 0.196436 0.155142 0.204118
O O6 0.985651 0.096601 0.303004
O O7 0.835581 0.181987 0.545934
O O8 0.090849 0.191607 0.116907
O O9 0.585375 0.500000 0.683250
O O10 0.762054 0.251253 0.780208
O O11 0.500000 0.319087 0.000000
O O12 0.000000 0.319099 0.000000
#
# Coordination Sequence:
#
# PCOD8090613 Si02
#       5
#     8   8   8   8   8
#     4  10  19  33  57  88 119 143 183 232 291 356
#     4  10  21  40  56  83 117 149 200 233 279 340
#     4  10  21  39  57  80 115 150 191 242 286 333
#     4  10  19  37  56  87 120 155 180 225 293 347
#     4  10  23  37  57  82 117 157 196 230 275 333
#
# _framework density 18.873750999999999
#
# number of rings (size 3 to 8) (size 9 to 14) (size 15 to 20)
#    0.000    2.000    4.000    1.800    2.800    8.000 
#    0.000    2.000    0.000    1.200    0.000    0.000 
#    0.000    0.000    0.000    0.000    0.000    0.000 
#
# Total GULP energy -247967.752810 kJ/mol
# GULP energy per Si atom -12398.387640 kJ/mol
# Density = 1.883079 g / cm^3
# Si number density = 18.873751 Si / 1000 Ang^3
#
#
#
# Elastic Constant Matrix: (Units=GPa)
#
#
# Indices 1 2 3 4 5 6 
#
# 1 97.5065 47.3041 52.4619 -0.0041 -6.5408 0.0284
# 2 47.3041 140.1389 43.2741 -0.0034 12.8137 0.0129
# 3 52.4619 43.2741 100.2509 -0.0506 -11.3502 0.2885
# 4 -0.0041 -0.0034 -0.0506 14.9683 0.0046 -32.8555
# 5 -6.5408 12.8137 -11.3502 0.0046 38.0053 -0.0313
# 6 0.0284 0.0129 0.2885 -32.8555 -0.0313 214.7456
#
#
#
# Elastic Compliance Matrix: (Units=1/GPa)
#
#
# Indices 1 2 3 4 5 6 
#
# 1 0.015497 -0.003424 -0.006416 -0.000005 0.001905 0.000006
# 2 -0.003424 0.009613 -0.002889 -0.000001 -0.004693 0.000003
# 3 -0.006416 -0.002889 0.015074 0.000010 0.004372 -0.000017
# 4 -0.000005 -0.000001 0.000010 0.100588 0.000003 0.015390
# 5 0.001905 -0.004693 0.004372 0.000003 0.029528 -0.000001
# 6 0.000006 0.000003 -0.000017 0.015390 -0.000001 0.007011
#
#
# Mechanical properties :
#
#
# Convention : Reuss Voigt Hill
#
# Bulk Modulus (GPa) = 67.90552 69.33072 68.61812
# Shear Modulus (GPa) = 24.07581 66.53427 45.30504
#
# Velocity S-wave (km/s) = 3.57546 5.94380 4.90473
# Velocity P-wave (km/s) = 7.28712 9.16072 8.27710
#
# Compressibility (1/GPa) = 0.01472634
#
# Stress axis : x y z
#
# Youngs Moduli (GPa) = 64.53070 104.02845 66.33738
#
# Poissons Ratio (x) = 0.35619 0.42560
# Poissons Ratio (y) = 0.22095 0.19165
# Poissons Ratio (z) = 0.41401 0.30054
#
# Static dielectric constant tensor:
#      x y z
#    x 3.474490 0.000000 0.004500 
#    y 0.000000 3.485530 0.000000 
#    z 0.004500 0.000000 3.310470 
# 
# 
# High freq. dielectric constant tensor:
#      x y z
#    x 1.730780 0.000000 -0.007930 
#    y 0.000000 1.729460 0.000000 
#    z -0.007930 0.000000 1.721450 
# 
# From -- ./inp_files/135611.got.cif
#   From: 2010.06.25/outbox.cif.g09.slc.cpg/sg12_68_cif.got.tgz:135611.got - 2010.06.28 00:19:55.
