data_PCOD8090235
_publ_section_title
;
Structure prediction by ZEFSAII (Michael W. Deem and Ramdas Pophale) SiO2 
 PCOD8090235
Probable space group: C 2/M
;
_chemical_formula_sum "Si O2"
_cell_formula_units_Z 40
_cell_length_a 18.373246
_cell_length_b 13.773426
_cell_length_c 11.088188
_cell_angle_alpha 90.000000
_cell_angle_beta 139.290115
_cell_angle_gamma 90.000000
_cell_volume 1830.158416
_symmetry_space_group_name_H-M "C 2/M"
_symmetry_group_IT_number 12
_symmetry_cell_setting 'monoclinic'
loop_
_space_group_symop_operation_xyz
x,y,z
-x,y,-z
-x,-y,-z
x,-y,z
1/2+x,1/2+y,z
1/2-x,1/2+y,-z
1/2-x,1/2-y,-z
1/2+x,1/2-y,z
loop_
_atom_site_type_symbol
_atom_site_label
_atom_site_fract_x
_atom_site_fract_y
_atom_site_fract_z
Si Si1 0.498655 0.394255 0.140865
Si Si2 0.758943 0.115930 0.581862
Si Si3 0.323128 0.890886 0.033516
Si Si4 0.954835 0.390204 0.820640
Si Si5 0.272965 0.299652 0.860774
O O1 0.473357 0.500000 0.166832
O O2 0.622823 0.357769 0.333450
O O3 0.500000 0.405645 0.000000
O O4 0.402554 0.320601 0.061605
O O5 0.661238 0.156212 0.371655
O O6 0.744782 0.170877 0.690512
O O7 0.750202 0.000000 0.594600
O O8 0.454963 0.886276 0.172110
O O9 0.307476 0.861147 0.152931
O O10 0.278019 0.000000 0.952919
O O11 0.256337 0.815831 0.862341
O O12 0.925985 0.500000 0.822341
O O13 0.000000 0.336050 0.000000
#
# Coordination Sequence:
#
# PCOD8090235 Si02
#       5
#     8   8   8   8   8
#     4   8  14  27  50  81 114 141 173 226 280 321
#     4   9  17  32  59  89 112 141 184 232 277 324
#     4  10  21  36  54  77 113 154 183 222 279 332
#     4   9  19  36  56  80 113 150 184 223 277 332
#     4  10  19  33  55  85 113 143 186 229 274 332
#
# _framework density 21.856031000000002
#
# number of rings (size 3 to 8) (size 9 to 14) (size 15 to 20)
#    0.000    2.800    0.000    3.000    0.000    3.200 
#    0.000    7.000    0.000    3.600    0.000   25.200 
#    0.000    0.800    0.000    0.000    0.000    0.000 
#
# Total GULP energy -247865.074262 kJ/mol
# GULP energy per Si atom -12393.253713 kJ/mol
# Density = 2.180629 g / cm^3
# Si number density = 21.856031 Si / 1000 Ang^3
#
#
#
# Elastic Constant Matrix: (Units=GPa)
#
#
# Indices 1 2 3 4 5 6 
#
# 1 102.8374 19.8715 57.2832 0.0000 13.4984 0.0000
# 2 19.8715 115.8853 32.3224 0.0000 -0.2861 0.0000
# 3 57.2832 32.3224 160.8564 0.0000 12.0637 0.0000
# 4 0.0000 0.0000 0.0000 7.1655 0.0000 -11.3334
# 5 13.4984 -0.2861 12.0637 0.0000 20.9750 0.0000
# 6 0.0000 0.0000 0.0000 -11.3334 0.0000 18.0389
#
#
#
# Elastic Compliance Matrix: (Units=1/GPa)
#
#
# Indices 1 2 3 4 5 6 
#
# 1 0.012924 -0.001138 -0.003918 0.000000 -0.006080 0.000000
# 2 -0.001138 0.009273 -0.001591 0.000000 0.001774 0.000000
# 3 -0.003918 -0.001591 0.008093 0.000000 -0.002155 0.000000
# 4 0.000000 0.000000 0.000000 22.252931 0.000000 13.981004
# 5 -0.006080 0.001774 -0.002155 0.000000 0.052852 0.000000
# 6 0.000000 0.000000 0.000000 13.981004 0.000000 8.839378
#
#
# Mechanical properties :
#
#
# Convention : Reuss Voigt Hill
#
# Bulk Modulus (GPa) = 58.83789 66.50372 62.67080
# Shear Modulus (GPa) = 0.16029 27.24268 13.70148
#
# Velocity S-wave (km/s) = 0.27110 3.53435 2.50651
# Velocity P-wave (km/s) = 5.20357 6.86656 6.09208
#
# Compressibility (1/GPa) = 0.01699585
#
# Stress axis : x y z
#
# Youngs Moduli (GPa) = 77.37274 107.84531 123.56025
#
# Poissons Ratio (x) = 0.12278 0.48409
# Poissons Ratio (y) = 0.08809 0.19656
# Poissons Ratio (z) = 0.30314 0.17156
#
# Static dielectric constant tensor:
#      x y z
#    x 4.007820 0.000000 0.388540 
#    y 0.000000 4.105350 0.000000 
#    z 0.388540 0.000000 4.028550 
# 
# 
# High freq. dielectric constant tensor:
#      x y z
#    x 1.850500 0.000000 0.015630 
#    y 0.000000 1.877270 0.000000 
#    z 0.015630 0.000000 1.820690 
# 
# From -- ./inp_files/166936.got.cif
#   From: 2010.06.25/outbox.cif.g09.slc.cpg/sg12_84_cif.got.tgz:166936.got - 2010.06.28 00:19:55.
