data_PCOD8090953
_publ_section_title
;
Structure prediction by ZEFSAII (Michael W. Deem and Ramdas Pophale) SiO2 
 PCOD8090953
Probable space group: C 2/M
;
_chemical_formula_sum "Si O2"
_cell_formula_units_Z 64
_cell_length_a 29.963077
_cell_length_b 13.495921
_cell_length_c 9.239666
_cell_angle_alpha 90.000000
_cell_angle_beta 111.454439
_cell_angle_gamma 90.000000
_cell_volume 3477.434746
_symmetry_space_group_name_H-M "C 2/M"
_symmetry_group_IT_number 12
_symmetry_cell_setting 'monoclinic'
loop_
_space_group_symop_operation_xyz
x,y,z
-x,y,-z
-x,-y,-z
x,-y,z
1/2+x,1/2+y,z
1/2-x,1/2+y,-z
1/2-x,1/2-y,-z
1/2+x,1/2-y,z
loop_
_atom_site_type_symbol
_atom_site_label
_atom_site_fract_x
_atom_site_fract_y
_atom_site_fract_z
Si Si1 0.314074 0.758314 0.434667
Si Si2 0.952955 0.613305 0.517848
Si Si3 0.859429 0.616484 0.921107
Si Si4 0.477443 0.605581 0.824697
Si Si5 0.731123 0.114088 0.383632
Si Si6 0.455885 0.615446 0.339804
Si Si7 0.592360 0.776994 0.276913
Si Si8 0.121642 0.287002 0.749535
O O1 0.285456 0.848208 0.477339
O O2 0.280719 0.662318 0.392909
O O3 0.360364 0.739109 0.587294
O O4 0.329530 0.780245 0.287374
O O5 0.962432 0.500000 0.565575
O O6 0.942504 0.665029 0.656882
O O7 0.909176 0.623432 0.353904
O O8 0.000000 0.661501 0.500000
O O9 0.867839 0.500000 0.964993
O O10 0.807465 0.634520 0.788646
O O11 0.898496 0.653354 0.850808
O O12 0.864169 0.684319 0.070081
O O13 0.459646 0.500000 0.732803
O O14 0.521162 0.649876 0.783871
O O15 0.433391 0.677337 0.800527
O O16 0.500000 0.577620 0.000000
O O17 0.741230 0.000000 0.416246
O O18 0.500000 0.634643 0.500000
O O19 0.438950 0.500000 0.322815
O O20 0.409181 0.685199 0.308166
#
# Coordination Sequence:
#
# PCOD8090953 Si02
#       8
#     8   8   8   8   8   8   8   8
#     4   9  20  34  55  81  98 128 171 209 255 308
#     4  10  20  33  50  74 104 139 178 215 251 292
#     4  10  21  35  53  76 103 137 170 206 259 318
#     4  10  20  33  50  72 101 138 174 207 251 303
#     4   9  19  38  57  75 103 132 163 208 260 312
#     4  10  20  34  52  75 104 139 176 211 253 301
#     4  10  19  34  54  75 103 135 174 217 256 301
#     4  11  20  33  54  78 107 134 169 215 255 301
#
# _framework density 18.404371999999999
#
# number of rings (size 3 to 8) (size 9 to 14) (size 15 to 20)
#    0.000    2.125    0.000    4.125    0.000    5.000 
#    0.000    0.000    0.000    6.750    0.000    0.000 
#    0.000    0.000    0.000    0.000    0.000    0.000 
#
# Total GULP energy -396575.699281 kJ/mol
# GULP energy per Si atom -12392.990603 kJ/mol
# Density = 1.836248 g / cm^3
# Si number density = 18.404372 Si / 1000 Ang^3
#
#
#
# Elastic Constant Matrix: (Units=GPa)
#
#
# Indices 1 2 3 4 5 6 
#
# 1 139.4715 58.5581 49.8204 0.0000 -17.0111 0.0000
# 2 58.5581 111.4645 44.6920 0.0000 2.3772 0.0000
# 3 49.8204 44.6920 86.5553 0.0000 -23.5070 0.0000
# 4 0.0000 0.0000 0.0000 25.5400 0.0000 3.6606
# 5 -17.0111 2.3772 -23.5070 0.0000 25.1882 0.0000
# 6 0.0000 0.0000 0.0000 3.6606 0.0000 22.9720
#
#
#
# Elastic Compliance Matrix: (Units=1/GPa)
#
#
# Indices 1 2 3 4 5 6 
#
# 1 0.010660 -0.004906 -0.002039 0.000000 0.005760 0.000000
# 2 -0.004906 0.015214 -0.008468 0.000000 -0.012652 0.000000
# 3 -0.002039 -0.008468 0.022694 0.000000 0.020601 0.000000
# 4 0.000000 0.000000 0.000000 0.040069 0.000000 -0.006385
# 5 0.005760 -0.012652 0.020601 0.000000 0.064012 0.000000
# 6 0.000000 0.000000 0.000000 -0.006385 0.000000 0.044549
#
#
# Mechanical properties :
#
#
# Convention : Reuss Voigt Hill
#
# Bulk Modulus (GPa) = 56.35746 71.51469 63.93608
# Shear Modulus (GPa) = 21.37331 27.03478 24.20405
#
# Velocity S-wave (km/s) = 3.41151 3.83682 3.63040
# Velocity P-wave (km/s) = 6.79751 7.65311 7.23796
#
# Compressibility (1/GPa) = 0.01774388
#
# Stress axis : x y z
#
# Youngs Moduli (GPa) = 93.80433 65.73001 44.06480
#
# Poissons Ratio (x) = 0.32247 0.08983
# Poissons Ratio (y) = 0.46020 0.37312
# Poissons Ratio (z) = 0.19122 0.55657
#
# Static dielectric constant tensor:
#      x y z
#    x 3.465130 0.000000 -0.120640 
#    y 0.000000 3.375760 0.000000 
#    z -0.120640 0.000000 3.282440 
# 
# 
# High freq. dielectric constant tensor:
#      x y z
#    x 1.715260 0.000000 -0.014590 
#    y 0.000000 1.720480 0.000000 
#    z -0.014590 0.000000 1.705580 
# 
# From -- ./inp_files/111648.got.cif
#   From: 2010.06.25/outbox.cif.g09.slc.cpg/sg12_56_cif.got.tgz:111648.got - 2010.06.28 00:19:55.
