data_PCOD8090118
_publ_section_title
;
Structure prediction by ZEFSAII (Michael W. Deem and Ramdas Pophale) SiO2 
 PCOD8090118
Probable space group: C 2/M
;
_chemical_formula_sum "Si O2"
_cell_formula_units_Z 56
_cell_length_a 14.999246
_cell_length_b 9.580407
_cell_length_c 23.835614
_cell_angle_alpha 90.000000
_cell_angle_beta 117.618314
_cell_angle_gamma 90.000000
_cell_volume 3034.873758
_symmetry_space_group_name_H-M "C 2/M"
_symmetry_group_IT_number 12
_symmetry_cell_setting 'monoclinic'
loop_
_space_group_symop_operation_xyz
x,y,z
-x,y,-z
-x,-y,-z
x,-y,z
1/2+x,1/2+y,z
1/2-x,1/2+y,-z
1/2-x,1/2-y,-z
1/2+x,1/2-y,z
loop_
_atom_site_type_symbol
_atom_site_label
_atom_site_fract_x
_atom_site_fract_y
_atom_site_fract_z
Si Si1 0.769819 0.660113 0.383817
Si Si2 0.397040 0.661434 0.501011
Si Si3 0.528060 0.161975 0.070892
Si Si4 0.682384 0.160531 0.939366
Si Si5 0.444877 0.340416 0.640467
Si Si6 0.862817 0.336064 0.293453
Si Si7 0.222299 0.162207 0.150045
O O1 0.799416 0.500000 0.403875
O O2 0.809009 0.749570 0.447324
O O3 0.649117 0.676127 0.344765
O O4 0.817309 0.713299 0.339534
O O5 0.500000 0.696162 0.500000
O O6 0.367035 0.500000 0.487003
O O7 0.408813 0.707996 0.568561
O O8 0.434811 0.193090 0.084798
O O9 0.620555 0.250504 0.120432
O O10 0.558977 0.000000 0.080161
O O11 0.500000 0.210477 0.000000
O O12 0.708514 0.198441 0.883179
O O13 0.705726 0.000000 0.960086
O O14 0.750000 0.250000 0.000000
O O15 0.483446 0.500000 0.649441
O O16 0.533887 0.243700 0.688766
O O17 0.885452 0.500000 0.299018
O O18 0.783853 0.293919 0.222812
O O19 0.192791 0.000000 0.142405
#
# Coordination Sequence:
#
# PCOD8090118 Si02
#       7
#     8   8   8   8   8   8   8
#     4  10  21  36  56  80 109 143 182 224 270 321
#     4  10  19  33  55  82 110 138 178 229 274 317
#     4  10  20  35  56  83 111 137 173 220 267 316
#     4  10  20  35  56  81 109 139 173 216 265 317
#     4  10  21  37  56  80 109 143 182 225 271 320
#     4  10  22  39  55  77 110 146 182 222 265 319
#     4  10  22  38  56  80 111 144 180 220 266 320
#
# _framework density 18.452168
#
# number of rings (size 3 to 8) (size 9 to 14) (size 15 to 20)
#    0.000    2.000    2.857    0.429    0.000    4.000 
#    0.000    0.000    0.000    0.000    0.000    0.000 
#    0.000    0.000    0.000    0.000    0.000    0.000 
#
# Total GULP energy -347319.958183 kJ/mol
# GULP energy per Si atom -12404.284221 kJ/mol
# Density = 1.841017 g / cm^3
# Si number density = 18.452168 Si / 1000 Ang^3
#
#
#
# Elastic Constant Matrix: (Units=GPa)
#
#
# Indices 1 2 3 4 5 6 
#
# 1 96.1070 42.0883 39.2482 0.0000 14.7879 0.0000
# 2 42.0883 62.9140 54.8096 0.0000 18.0317 0.0000
# 3 39.2482 54.8096 108.6085 0.0000 21.2145 0.0000
# 4 0.0000 0.0000 0.0000 30.8483 0.0000 11.3699
# 5 14.7879 18.0317 21.2145 0.0000 26.1242 0.0000
# 6 0.0000 0.0000 0.0000 11.3699 0.0000 31.3318
#
#
#
# Elastic Compliance Matrix: (Units=1/GPa)
#
#
# Indices 1 2 3 4 5 6 
#
# 1 0.014807 -0.008983 -0.000465 0.000000 -0.001803 0.000000
# 2 -0.008983 0.035927 -0.013114 0.000000 -0.009063 0.000000
# 3 -0.000465 -0.013114 0.016846 0.000000 -0.004365 0.000000
# 4 0.000000 0.000000 0.000000 0.037422 0.000000 -0.013580
# 5 -0.001803 -0.009063 -0.004365 0.000000 0.049100 0.000000
# 6 0.000000 0.000000 0.000000 -0.013580 0.000000 0.036844
#
#
# Mechanical properties :
#
#
# Convention : Reuss Voigt Hill
#
# Bulk Modulus (GPa) = 44.53394 59.99132 52.26263
# Shear Modulus (GPa) = 20.52929 26.42643 23.47786
#
# Velocity S-wave (km/s) = 3.33914 3.78849 3.57089
# Velocity P-wave (km/s) = 6.24929 7.19161 6.73695
#
# Compressibility (1/GPa) = 0.02245478
#
# Stress axis : x y z
#
# Youngs Moduli (GPa) = 67.53772 27.83455 59.36137
#
# Poissons Ratio (x) = 0.25005 0.02760
# Poissons Ratio (y) = 0.60672 0.77845
# Poissons Ratio (z) = 0.03140 0.36502
#
# Static dielectric constant tensor:
#      x y z
#    x 3.470910 0.000000 -0.085150 
#    y 0.000000 3.330650 0.000000 
#    z -0.085150 0.000000 3.262440 
# 
# 
# High freq. dielectric constant tensor:
#      x y z
#    x 1.729240 0.000000 -0.004600 
#    y 0.000000 1.710810 0.000000 
#    z -0.004600 0.000000 1.706990 
# 
# From -- ./inp_files/308886.got.cif
#   From: 2010.06.25/outbox.cif.g09.slc.cpg/sg12_155_cif.got.tgz:308886.got - 2010.06.28 00:19:55.
