data_PCOD8090837
_publ_section_title
;
Structure prediction by ZEFSAII (Michael W. Deem and Ramdas Pophale) SiO2 
 PCOD8090837
Probable space group: C 2/M
;
_chemical_formula_sum "Si O2"
_cell_formula_units_Z 56
_cell_length_a 30.043671
_cell_length_b 8.833065
_cell_length_c 16.956027
_cell_angle_alpha 90.000000
_cell_angle_beta 134.131273
_cell_angle_gamma 90.000000
_cell_volume 3229.680161
_symmetry_space_group_name_H-M "C 2/M"
_symmetry_group_IT_number 12
_symmetry_cell_setting 'monoclinic'
loop_
_space_group_symop_operation_xyz
x,y,z
-x,y,-z
-x,-y,-z
x,-y,z
1/2+x,1/2+y,z
1/2-x,1/2+y,-z
1/2-x,1/2-y,-z
1/2+x,1/2-y,z
loop_
_atom_site_type_symbol
_atom_site_label
_atom_site_fract_x
_atom_site_fract_y
_atom_site_fract_z
Si Si1 0.761229 0.820699 0.800486
Si Si2 0.120117 0.323202 0.626949
Si Si3 0.580006 0.824321 0.753487
Si Si4 0.806072 0.179397 0.021315
Si Si5 0.337692 0.324082 0.568821
Si Si6 0.222380 0.821588 0.349315
Si Si7 0.549230 0.323667 0.396617
O O1 0.690422 0.762408 0.717283
O O2 0.793377 0.762211 0.758615
O O3 0.759119 0.000000 0.800650
O O4 0.800165 0.762181 0.923472
O O5 0.116268 0.500000 0.599497
O O6 0.088772 0.291353 0.672206
O O7 0.082715 0.226479 0.517641
O O8 0.628393 0.731250 0.864957
O O9 0.511957 0.772519 0.694802
O O10 0.589313 0.000000 0.784000
O O11 0.800473 0.000000 0.020067
O O12 0.750000 0.250000 0.000000
O O13 0.320926 0.500000 0.540587
O O14 0.290548 0.235318 0.455262
O O15 0.328865 0.269433 0.649279
O O16 0.407063 0.291302 0.625225
O O17 0.226695 0.000000 0.352144
O O18 0.532485 0.500000 0.382879
#
# Coordination Sequence:
#
# PCOD8090837 Si02
#       7
#     8   8   8   8   8   8   8
#     4   9  17  31  53  77 102 132 168 205 248 300
#     4  10  19  34  52  74 103 137 172 206 245 301
#     4  11  23  38  53  72 100 139 181 213 249 300
#     4  11  21  36  55  77 103 134 172 215 255 296
#     4   9  18  30  47  75 106 130 161 207 251 296
#     4   9  16  30  52  74  99 133 167 200 247 303
#     4  11  22  34  49  76 109 137 168 209 257 304
#
# _framework density 17.339179000000001
#
# number of rings (size 3 to 8) (size 9 to 14) (size 15 to 20)
#    0.000    2.000    2.857    1.714    0.000    3.429 
#    0.000    1.429    0.000    0.857    0.000    6.000 
#    0.000    0.000    0.000    0.000    0.000    0.000 
#
# Total GULP energy -347130.000497 kJ/mol
# GULP energy per Si atom -12397.500018 kJ/mol
# Density = 1.729971 g / cm^3
# Si number density = 17.339179 Si / 1000 Ang^3
#
#
#
# Elastic Constant Matrix: (Units=GPa)
#
#
# Indices 1 2 3 4 5 6 
#
# 1 122.3359 30.9295 54.9140 0.0000 -14.2715 0.0000
# 2 30.9295 37.8029 22.5925 0.0000 -8.0678 0.0000
# 3 54.9140 22.5925 92.5550 0.0000 -8.6588 0.0000
# 4 0.0000 0.0000 0.0000 26.9681 0.0000 3.2695
# 5 -14.2715 -8.0678 -8.6588 0.0000 27.8233 0.0000
# 6 0.0000 0.0000 0.0000 3.2695 0.0000 22.1336
#
#
#
# Elastic Compliance Matrix: (Units=1/GPa)
#
#
# Indices 1 2 3 4 5 6 
#
# 1 0.012675 -0.006347 -0.005701 0.000000 0.002887 0.000000
# 2 -0.006347 0.035462 -0.004360 0.000000 0.005670 0.000000
# 3 -0.005701 -0.004360 0.015305 0.000000 0.000575 0.000000
# 4 0.000000 0.000000 0.000000 0.037757 0.000000 -0.005577
# 5 0.002887 0.005670 0.000575 0.000000 0.039245 0.000000
# 6 0.000000 0.000000 0.000000 -0.005577 0.000000 0.046004
#
#
# Mechanical properties :
#
#
# Convention : Reuss Voigt Hill
#
# Bulk Modulus (GPa) = 32.65217 52.17401 42.41309
# Shear Modulus (GPa) = 21.78930 25.00220 23.39575
#
# Velocity S-wave (km/s) = 3.54877 3.80142 3.67727
# Velocity P-wave (km/s) = 5.97194 7.03017 6.52255
#
# Compressibility (1/GPa) = 0.03062583
#
# Stress axis : x y z
#
# Youngs Moduli (GPa) = 78.89828 28.19936 65.33977
#
# Poissons Ratio (x) = 0.17898 0.37248
# Poissons Ratio (y) = 0.50077 0.28488
# Poissons Ratio (z) = 0.44977 0.12295
#
# Static dielectric constant tensor:
#      x y z
#    x 3.778460 0.000000 -0.250200 
#    y 0.000000 3.130070 0.000000 
#    z -0.250200 0.000000 3.370910 
# 
# 
# High freq. dielectric constant tensor:
#      x y z
#    x 1.677490 0.000000 -0.010970 
#    y 0.000000 1.662630 0.000000 
#    z -0.010970 0.000000 1.651870 
# 
# From -- ./inp_files/287377.got.cif
#   From: 2010.06.25/outbox.cif.g09.slc.cpg/sg12_144_cif.got.tgz:287377.got - 2010.06.28 00:19:55.
