data_PCOD8090816
_publ_section_title
;
Structure prediction by ZEFSAII (Michael W. Deem and Ramdas Pophale) SiO2 
 PCOD8090816
Probable space group: C 2/M
;
_chemical_formula_sum "Si O2"
_cell_formula_units_Z 56
_cell_length_a 14.939572
_cell_length_b 12.318153
_cell_length_c 17.534137
_cell_angle_alpha 90.000000
_cell_angle_beta 65.867387
_cell_angle_gamma 90.000000
_cell_volume 2944.756397
_symmetry_space_group_name_H-M "C 2/M"
_symmetry_group_IT_number 12
_symmetry_cell_setting 'monoclinic'
loop_
_space_group_symop_operation_xyz
x,y,z
-x,y,-z
-x,-y,-z
x,-y,z
1/2+x,1/2+y,z
1/2-x,1/2+y,-z
1/2-x,1/2-y,-z
1/2+x,1/2-y,z
loop_
_atom_site_type_symbol
_atom_site_label
_atom_site_fract_x
_atom_site_fract_y
_atom_site_fract_z
Si Si1 0.602927 0.881370 0.183650
Si Si2 0.962943 0.125571 0.144255
Si Si3 0.031764 0.125475 0.403145
Si Si4 0.212465 0.254679 0.853872
Si Si5 0.083195 0.693473 0.028734
Si Si6 0.066060 0.750381 0.696024
Si Si7 0.241054 0.626602 0.693704
O O1 0.678575 0.790563 0.183962
O O2 0.594352 0.888411 0.094964
O O3 0.499897 0.852717 0.258148
O O4 0.634901 0.000000 0.201626
O O5 0.862615 0.157354 0.137100
O O6 0.952401 0.153440 0.237049
O O7 0.053044 0.189258 0.073927
O O8 0.985433 0.000000 0.126043
O O9 0.145345 0.158593 0.354879
O O10 0.000000 0.147399 0.500000
O O11 0.961771 0.201564 0.376409
O O12 0.016030 0.000000 0.385525
O O13 0.205721 0.348699 0.792475
O O14 0.185645 0.301461 0.946710
O O15 0.000000 0.649699 0.000000
O O16 0.177515 0.703457 0.658735
O O17 0.223856 0.500000 0.681288
#
# Coordination Sequence:
#
# PCOD8090816 Si02
#       7
#     8   8   8   8   8   8   8
#     4  11  21  33  51  75 107 148 187 231 279 325
#     4   9  18  32  52  75 106 145 184 234 285 323
#     4  10  21  39  64  90 114 145 186 230 279 339
#     4  10  19  34  51  77 108 142 190 236 275 327
#     4   9  20  33  47  71 105 143 193 236 275 326
#     4  10  20  36  57  84 115 147 186 230 276 337
#     4  10  21  38  61  85 114 152 186 225 284 341
#
# _framework density 19.016855
#
# number of rings (size 3 to 8) (size 9 to 14) (size 15 to 20)
#    0.000    2.143    1.429    2.571    0.000    4.571 
#    0.000    0.000    0.000    1.714    0.000    0.000 
#    0.000    0.000    0.000    0.000    0.000    0.000 
#
# Total GULP energy -347178.369611 kJ/mol
# GULP energy per Si atom -12399.227486 kJ/mol
# Density = 1.897357 g / cm^3
# Si number density = 19.016855 Si / 1000 Ang^3
#
#
#
# Elastic Constant Matrix: (Units=GPa)
#
#
# Indices 1 2 3 4 5 6 
#
# 1 87.7267 37.0459 32.9262 0.0000 8.2188 0.0000
# 2 37.0459 72.7326 28.4393 0.0000 3.0177 0.0000
# 3 32.9262 28.4393 87.5830 0.0000 7.6482 0.0000
# 4 0.0000 0.0000 0.0000 5.2583 0.0000 0.9523
# 5 8.2188 3.0177 7.6482 0.0000 25.8994 0.0000
# 6 0.0000 0.0000 0.0000 0.9523 0.0000 26.7221
#
#
#
# Elastic Compliance Matrix: (Units=1/GPa)
#
#
# Indices 1 2 3 4 5 6 
#
# 1 0.015780 -0.006523 -0.003535 0.000000 -0.003204 0.000000
# 2 -0.006523 0.018447 -0.003624 0.000000 0.000991 0.000000
# 3 -0.003535 -0.003624 0.014154 0.000000 -0.002636 0.000000
# 4 0.000000 0.000000 0.000000 0.191412 0.000000 -0.006821
# 5 -0.003204 0.000991 -0.002636 0.000000 0.040291 0.000000
# 6 0.000000 0.000000 0.000000 -0.006821 0.000000 0.037665
#
#
# Mechanical properties :
#
#
# Convention : Reuss Voigt Hill
#
# Bulk Modulus (GPa) = 47.57892 49.42945 48.50418
# Shear Modulus (GPa) = 14.19977 21.55134 17.87555
#
# Velocity S-wave (km/s) = 2.73553 3.37007 3.06924
# Velocity P-wave (km/s) = 5.92040 6.41810 6.17427
#
# Compressibility (1/GPa) = 0.02101771
#
# Stress axis : x y z
#
# Youngs Moduli (GPa) = 63.37024 54.20841 70.65301
#
# Poissons Ratio (x) = 0.35358 0.24974
# Poissons Ratio (y) = 0.41333 0.25608
# Poissons Ratio (z) = 0.22400 0.19648
#
# Static dielectric constant tensor:
#      x y z
#    x 3.572910 0.000000 -0.017000 
#    y 0.000000 3.184980 0.000000 
#    z -0.017000 0.000000 3.365580 
# 
# 
# High freq. dielectric constant tensor:
#      x y z
#    x 1.745050 0.000000 -0.001990 
#    y 0.000000 1.723730 0.000000 
#    z -0.001990 0.000000 1.724950 
# 
# From -- ./inp_files/268834.got.cif
#   From: 2010.06.25/outbox.cif.g09.slc.cpg/sg12_135_cif.got.tgz:268834.got - 2010.06.28 00:19:55.
