data_PCOD8090813
_publ_section_title
;
Structure prediction by ZEFSAII (Michael W. Deem and Ramdas Pophale) SiO2 
 PCOD8090813
Probable space group: C 2/M
;
_chemical_formula_sum "Si O2"
_cell_formula_units_Z 52
_cell_length_a 9.001612
_cell_length_b 27.814743
_cell_length_c 12.350323
_cell_angle_alpha 90.000000
_cell_angle_beta 70.144487
_cell_angle_gamma 90.000000
_cell_volume 2908.416018
_symmetry_space_group_name_H-M "C 2/M"
_symmetry_group_IT_number 12
_symmetry_cell_setting 'monoclinic'
loop_
_space_group_symop_operation_xyz
x,y,z
-x,y,-z
-x,-y,-z
x,-y,z
1/2+x,1/2+y,z
1/2-x,1/2+y,-z
1/2-x,1/2-y,-z
1/2+x,1/2-y,z
loop_
_atom_site_type_symbol
_atom_site_label
_atom_site_fract_x
_atom_site_fract_y
_atom_site_fract_z
Si Si1 0.639355 0.500000 0.203476
Si Si2 0.923715 0.195948 0.869572
Si Si3 0.757648 0.397956 0.092456
Si Si4 0.055019 0.630807 0.152648
Si Si5 0.793490 0.000000 0.345752
Si Si6 0.240367 0.219626 0.870051
Si Si7 0.963268 0.577698 0.627115
Si Si8 0.778894 0.500000 0.400603
O O1 0.710586 0.452385 0.131335
O O2 0.451439 0.500000 0.235320
O O3 0.670224 0.500000 0.323086
O O4 0.889902 0.138917 0.866522
O O5 0.818654 0.229186 0.813774
O O6 0.114298 0.202454 0.808752
O O7 0.866220 0.219283 0.996312
O O8 0.880845 0.375946 0.147807
O O9 0.827193 0.399872 0.953557
O O10 0.109465 0.685677 0.142146
O O11 0.065232 0.617002 0.275341
O O12 0.694984 0.953169 0.340365
O O13 0.830170 0.000000 0.465383
O O14 0.000000 0.600920 0.500000
O O15 0.111367 0.546510 0.628211
#
# Coordination Sequence:
#
# PCOD8090813 Si02
#       8
#     4   8   8   8   4   8   8   4
#     4  12  21  33  48  78 108 147 163 216 258 310
#     4   9  17  32  47  78 102 136 170 212 247 311
#     4  10  22  32  49  74 113 139 179 201 258 315
#     4  10  19  34  51  75 102 142 171 211 258 315
#     4   9  21  32  52  71  96 134 184 226 255 287
#     4   9  17  29  55  71 104 133 172 211 257 296
#     4   9  18  35  54  72  95 132 181 223 254 298
#     4   9  17  36  53  69  93 135 187 224 244 293
#
# _framework density 17.879148000000001
#
# number of rings (size 3 to 8) (size 9 to 14) (size 15 to 20)
#    0.000    2.462    1.538    2.077    2.154    6.154 
#    0.000    0.769    0.000    0.000    0.000    6.462 
#    0.000    0.000    0.000    0.000    0.000    0.000 
#
# Total GULP energy -322096.176995 kJ/mol
# GULP energy per Si atom -12388.314500 kJ/mol
# Density = 1.783845 g / cm^3
# Si number density = 17.879148 Si / 1000 Ang^3
#
#
#
# Elastic Constant Matrix: (Units=GPa)
#
#
# Indices 1 2 3 4 5 6 
#
# 1 100.2102 39.8314 17.3792 0.0000 -2.7594 0.0000
# 2 39.8314 101.1966 20.0538 0.0000 -2.4278 0.0000
# 3 17.3792 20.0538 72.8305 0.0000 7.6734 0.0000
# 4 0.0000 0.0000 0.0000 10.3170 0.0000 5.2507
# 5 -2.7594 -2.4278 7.6734 0.0000 18.7812 0.0000
# 6 0.0000 0.0000 0.0000 5.2507 0.0000 16.0854
#
#
#
# Elastic Compliance Matrix: (Units=1/GPa)
#
#
# Indices 1 2 3 4 5 6 
#
# 1 0.012086 -0.004332 -0.001901 0.000000 0.001992 0.000000
# 2 -0.004332 0.012132 -0.002513 0.000000 0.001958 0.000000
# 3 -0.001901 -0.002513 0.015612 0.000000 -0.006983 0.000000
# 4 0.000000 0.000000 0.000000 0.116238 0.000000 -0.037944
# 5 0.001992 0.001958 -0.006983 0.000000 0.056644 0.000000
# 6 0.000000 0.000000 0.000000 -0.037944 0.000000 0.074554
#
#
# Mechanical properties :
#
#
# Convention : Reuss Voigt Hill
#
# Bulk Modulus (GPa) = 44.76958 47.64066 46.20512
# Shear Modulus (GPa) = 16.01519 22.16824 19.09171
#
# Velocity S-wave (km/s) = 2.99615 3.52503 3.27130
# Velocity P-wave (km/s) = 6.08800 6.57811 6.33779
#
# Compressibility (1/GPa) = 0.02233659
#
# Stress axis : x y z
#
# Youngs Moduli (GPa) = 82.74299 82.42651 64.05422
#
# Poissons Ratio (x) = 0.35711 0.12176
# Poissons Ratio (y) = 0.35848 0.16097
# Poissons Ratio (z) = 0.15729 0.20714
#
# Static dielectric constant tensor:
#      x y z
#    x 3.639230 0.000000 0.123480 
#    y 0.000000 3.161600 0.000000 
#    z 0.123480 0.000000 3.061500 
# 
# 
# High freq. dielectric constant tensor:
#      x y z
#    x 1.705840 0.000000 0.007740 
#    y 0.000000 1.681580 0.000000 
#    z 0.007740 0.000000 1.647420 
# 
# From -- ./inp_files/123672.got.cif
#   From: 2010.06.25/outbox.cif.g09.slc.cpg/sg12_62_cif.got.tgz:123672.got - 2010.06.28 00:19:55.
