data_PCOD8090054
_publ_section_title
;
Structure prediction by ZEFSAII (Michael W. Deem and Ramdas Pophale) SiO2 
 PCOD8090054
Probable space group: C 2/M
;
_chemical_formula_sum "Si O2"
_cell_formula_units_Z 56
_cell_length_a 13.922607
_cell_length_b 28.308819
_cell_length_c 8.609914
_cell_angle_alpha 90.000000
_cell_angle_beta 68.834345
_cell_angle_gamma 90.000000
_cell_volume 3164.526863
_symmetry_space_group_name_H-M "C 2/M"
_symmetry_group_IT_number 12
_symmetry_cell_setting 'monoclinic'
loop_
_space_group_symop_operation_xyz
x,y,z
-x,y,-z
-x,-y,-z
x,-y,z
1/2+x,1/2+y,z
1/2-x,1/2+y,-z
1/2-x,1/2-y,-z
1/2+x,1/2-y,z
loop_
_atom_site_type_symbol
_atom_site_label
_atom_site_fract_x
_atom_site_fract_y
_atom_site_fract_z
Si Si1 0.618890 0.824150 0.950063
Si Si2 0.389024 0.553763 0.130146
Si Si3 0.313294 0.268503 0.221548
Si Si4 0.887516 0.769944 0.517074
Si Si5 0.390865 0.446869 0.495353
Si Si6 0.785645 0.859769 0.051165
Si Si7 0.803971 0.861127 0.696908
O O1 0.642944 0.767922 0.933559
O O2 0.683129 0.845768 0.766169
O O3 0.500000 0.836655 0.000000
O O4 0.664976 0.847391 0.082547
O O5 0.362961 0.500000 0.093855
O O6 0.392102 0.558405 0.311660
O O7 0.300167 0.588484 0.117593
O O8 0.500000 0.569268 0.000000
O O9 0.193474 0.259675 0.332276
O O10 0.378748 0.260879 0.339137
O O11 0.330179 0.320650 0.142585
O O12 0.872101 0.825748 0.554619
O O13 0.000000 0.752675 0.500000
O O14 0.500000 0.431113 0.500000
O O15 0.363602 0.500000 0.562712
O O16 0.306400 0.413019 0.621460
O O17 0.846206 0.859451 0.850429
#
# Coordination Sequence:
#
# PCOD8090054 Si02
#       7
#     8   8   8   8   8   8   8
#     4   9  21  36  56  76 106 146 189 231 265 312
#     4  10  21  36  57  85 112 141 175 214 273 335
#     4  10  21  36  52  80 107 145 190 223 268 327
#     4  10  21  33  52  75 112 146 180 226 273 322
#     4  10  19  33  55  80 111 142 172 217 273 330
#     4  10  21  35  55  77 111 139 184 226 268 321
#     4   9  20  33  51  78 108 138 185 221 268 328
#
# _framework density 17.696168
#
# number of rings (size 3 to 8) (size 9 to 14) (size 15 to 20)
#    0.857    1.429    0.000    2.571    2.000    3.429 
#    0.000    0.000    0.000    1.714    0.000    2.000 
#    0.000    0.000    0.000    0.000    0.000    0.000 
#
# Total GULP energy -347037.325097 kJ/mol
# GULP energy per Si atom -12394.190182 kJ/mol
# Density = 1.765589 g / cm^3
# Si number density = 17.696168 Si / 1000 Ang^3
#
#
#
# Elastic Constant Matrix: (Units=GPa)
#
#
# Indices 1 2 3 4 5 6 
#
# 1 110.5250 42.8827 27.6927 0.0000 4.3563 0.0000
# 2 42.8827 119.4010 36.8739 0.0000 2.6531 0.0000
# 3 27.6927 36.8739 60.1935 0.0000 3.3860 0.0000
# 4 0.0000 0.0000 0.0000 31.2432 0.0000 7.6481
# 5 4.3563 2.6531 3.3860 0.0000 21.2205 0.0000
# 6 0.0000 0.0000 0.0000 7.6481 0.0000 16.7586
#
#
#
# Elastic Compliance Matrix: (Units=1/GPa)
#
#
# Indices 1 2 3 4 5 6 
#
# 1 0.011048 -0.002949 -0.003198 0.000000 -0.001389 0.000000
# 2 -0.002949 0.011118 -0.005459 0.000000 0.000086 0.000000
# 3 -0.003198 -0.005459 0.021546 0.000000 -0.002099 0.000000
# 4 0.000000 0.000000 0.000000 0.036032 0.000000 -0.016444
# 5 -0.001389 0.000086 -0.002099 0.000000 0.047734 0.000000
# 6 0.000000 0.000000 0.000000 -0.016444 0.000000 0.067175
#
#
# Mechanical properties :
#
#
# Convention : Reuss Voigt Hill
#
# Bulk Modulus (GPa) = 48.77948 56.11313 52.44630
# Shear Modulus (GPa) = 22.25190 26.02246 24.13718
#
# Velocity S-wave (km/s) = 3.54989 3.83889 3.69721
# Velocity P-wave (km/s) = 6.66537 7.17129 6.92295
#
# Compressibility (1/GPa) = 0.02050042
#
# Stress axis : x y z
#
# Youngs Moduli (GPa) = 90.51346 89.94126 46.41135
#
# Poissons Ratio (x) = 0.26528 0.14842
# Poissons Ratio (y) = 0.26697 0.25336
# Poissons Ratio (z) = 0.28945 0.49098
#
# Static dielectric constant tensor:
#      x y z
#    x 3.077430 0.000000 0.089940 
#    y 0.000000 3.291600 0.000000 
#    z 0.089940 0.000000 3.204200 
# 
# 
# High freq. dielectric constant tensor:
#      x y z
#    x 1.657490 0.000000 0.014680 
#    y 0.000000 1.682730 0.000000 
#    z 0.014680 0.000000 1.684410 
# 
# From -- ./inp_files/66486.got.cif
#   From: 2010.06.25/outbox.cif.g09.slc.cpg/sg12_34_cif.got.tgz:66486.got - 2010.06.28 00:19:55.
