data_PCOD8090586
_publ_section_title
;
Structure prediction by ZEFSAII (Michael W. Deem and Ramdas Pophale) SiO2 
 PCOD8090586
Probable space group: C 2/M
;
_chemical_formula_sum "Si O2"
_cell_formula_units_Z 64
_cell_length_a 20.689433
_cell_length_b 12.551354
_cell_length_c 26.308618
_cell_angle_alpha 90.000000
_cell_angle_beta 29.797892
_cell_angle_gamma 90.000000
_cell_volume 3395.024682
_symmetry_space_group_name_H-M "C 2/M"
_symmetry_group_IT_number 12
_symmetry_cell_setting 'monoclinic'
loop_
_space_group_symop_operation_xyz
x,y,z
-x,y,-z
-x,-y,-z
x,-y,z
1/2+x,1/2+y,z
1/2-x,1/2+y,-z
1/2-x,1/2-y,-z
1/2+x,1/2-y,z
loop_
_atom_site_type_symbol
_atom_site_label
_atom_site_fract_x
_atom_site_fract_y
_atom_site_fract_z
Si Si1 0.744948 0.223412 0.422514
Si Si2 0.646306 0.231505 0.189935
Si Si3 0.507093 0.377377 0.784757
Si Si4 0.601351 0.878024 0.608393
Si Si5 0.042143 0.883578 0.527761
Si Si6 0.150226 0.218046 0.024176
Si Si7 0.705001 0.622478 0.240041
Si Si8 0.012095 0.622501 0.933094
O O1 0.841536 0.156934 0.320565
O O2 0.653757 0.141743 0.515814
O O3 0.821933 0.301227 0.406913
O O4 0.656390 0.298290 0.448497
O O5 0.569863 0.307854 0.203464
O O6 0.551895 0.148150 0.282313
O O7 0.718383 0.306464 0.180863
O O8 0.759161 0.166841 0.082121
O O9 0.493641 0.500000 0.778632
O O10 0.453978 0.361136 0.878732
O O11 0.624815 0.000000 0.607574
O O12 0.000000 0.901522 0.500000
O O13 0.921737 0.839674 0.642832
O O14 0.087198 0.000000 0.518496
O O15 0.072968 0.315607 0.050712
O O16 0.250000 0.250000 0.000000
O O17 0.691248 0.500000 0.232315
O O18 0.834968 0.636202 0.185533
O O19 0.966756 0.500000 0.960211
O O20 0.000000 0.662068 0.000000
#
# Coordination Sequence:
#
# PCOD8090586 Si02
#       8
#     8   8   8   8   8   8   8   8
#     4  10  20  36  56  81 111 145 185 235 287 338
#     4  10  19  36  57  86 114 148 191 242 292 349
#     4  10  22  37  56  80 113 156 199 238 285 349
#     4  10  20  34  56  84 111 141 183 237 290 338
#     4  10  21  35  54  83 116 149 183 227 293 356
#     4  10  22  37  56  85 120 156 192 238 299 349
#     4  10  19  33  57  86 116 149 186 237 296 351
#     4  10  20  35  60  91 117 145 189 247 299 349
#
# _framework density 18.851115
#
# number of rings (size 3 to 8) (size 9 to 14) (size 15 to 20)
#    0.000    2.000    2.500    1.125    1.750    2.500 
#    0.000    5.000    0.000    4.125    0.000    0.000 
#    0.000    0.000    0.000    0.000    0.000    0.000 
#
# Total GULP energy -396554.463543 kJ/mol
# GULP energy per Si atom -12392.326986 kJ/mol
# Density = 1.880821 g / cm^3
# Si number density = 18.851115 Si / 1000 Ang^3
#
#
#
# Elastic Constant Matrix: (Units=GPa)
#
#
# Indices 1 2 3 4 5 6 
#
# 1 68.0593 16.3825 25.2666 0.0000 -2.9229 0.0000
# 2 16.3825 67.1358 41.7716 -0.0014 3.2329 0.0004
# 3 25.2666 41.7716 155.0548 -0.0062 8.9369 0.0025
# 4 0.0000 -0.0014 -0.0062 18.3869 0.0012 16.9301
# 5 -2.9229 3.2329 8.9369 0.0012 25.4313 -0.0004
# 6 0.0000 0.0004 0.0025 16.9301 -0.0004 -1.5135
#
#
#
# Elastic Compliance Matrix: (Units=1/GPa)
#
#
# Indices 1 2 3 4 5 6 
#
# 1 0.016265 -0.002831 -0.002058 0.000000 0.002953 -0.000001
# 2 -0.002831 0.018396 -0.004431 0.000000 -0.001107 0.000000
# 3 -0.002058 -0.004431 0.008124 -0.000001 -0.002528 0.000004
# 4 0.000000 0.000000 -0.000001 0.004813 0.000001 0.053839
# 5 0.002953 -0.001107 -0.002528 0.000001 0.040690 -0.000005
# 6 -0.000001 0.000000 0.000004 0.053839 -0.000005 -0.058472
#
#
# Mechanical properties :
#
#
# Convention : Reuss Voigt Hill
#
# Bulk Modulus (GPa) = 41.41429 50.78792 46.10110
# Shear Modulus (GPa) = 88.48838 22.24955 55.36897
#
# Velocity S-wave (km/s) = 6.85876 3.43924 5.42545
# Velocity P-wave (km/s) = 9.20545 6.53998 7.98472
#
# Compressibility (1/GPa) = 0.02414626
#
# Stress axis : x y z
#
# Youngs Moduli (GPa) = 61.48064 54.35949 123.09099
#
# Poissons Ratio (x) = 0.15388 0.25333
# Poissons Ratio (y) = 0.17403 0.54539
# Poissons Ratio (z) = 0.12653 0.24086
#
# Static dielectric constant tensor:
#      x y z
#    x 3.252210 0.000000 0.103600 
#    y 0.000000 3.277850 0.000000 
#    z 0.103600 0.000000 4.342820 
# 
# 
# High freq. dielectric constant tensor:
#      x y z
#    x 1.709030 0.000000 -0.001600 
#    y 0.000000 1.703440 0.000000 
#    z -0.001600 0.000000 1.761160 
# 
# From -- ./inp_files/366005.got.cif
#   From: 2010.06.25/outbox.cif.g09.slc.cpg/sg12_184_cif.got.tgz:366005.got - 2010.06.28 00:19:55.
