data_PCOD8090831
_publ_section_title
;
Structure prediction by ZEFSAII (Michael W. Deem and Ramdas Pophale) SiO2 
 PCOD8090831
Probable space group: C 2/M
;
_chemical_formula_sum "Si O2"
_cell_formula_units_Z 40
_cell_length_a 14.694457
_cell_length_b 8.957093
_cell_length_c 20.072927
_cell_angle_alpha 90.000000
_cell_angle_beta 123.256933
_cell_angle_gamma 90.000000
_cell_volume 2209.285182
_symmetry_space_group_name_H-M "C 2/M"
_symmetry_group_IT_number 12
_symmetry_cell_setting 'monoclinic'
loop_
_space_group_symop_operation_xyz
x,y,z
-x,y,-z
-x,-y,-z
x,-y,z
1/2+x,1/2+y,z
1/2-x,1/2+y,-z
1/2-x,1/2-y,-z
1/2+x,1/2-y,z
loop_
_atom_site_type_symbol
_atom_site_label
_atom_site_fract_x
_atom_site_fract_y
_atom_site_fract_z
Si Si1 0.969583 0.826491 0.411842
Si Si2 0.408646 0.822627 0.878087
Si Si3 0.776912 0.323287 0.700587
Si Si4 0.659825 0.823856 0.418068
Si Si5 0.151037 0.323351 0.000073
O O1 0.848021 0.773503 0.347505
O O2 0.000000 0.793832 0.500000
O O3 0.041037 0.723280 0.393353
O O4 0.988879 0.000000 0.402786
O O5 0.342187 0.753160 0.789233
O O6 0.534627 0.771156 0.923060
O O7 0.406583 0.000000 0.876191
O O8 0.350349 0.770236 0.923165
O O9 0.785045 0.500000 0.706822
O O10 0.828370 0.264922 0.652564
O O11 0.750000 0.750000 0.500000
O O12 0.676562 0.000000 0.429001
O O13 0.165174 0.500000 0.000350
O O14 0.250000 0.250000 0.000000
#
# Coordination Sequence:
#
# PCOD8090831 Si02
#       5
#     8   8   8   8   8
#     4  10  19  34  52  72  97 131 172 209 252 299
#     4   8  16  32  51  73 100 136 170 195 238 305
#     4   9  18  33  52  71 100 136 169 205 247 299
#     4  11  21  34  52  74  98 131 172 213 255 298
#     4   9  17  31  54  78 101 129 165 202 243 297
#
# _framework density 18.105404
#
# number of rings (size 3 to 8) (size 9 to 14) (size 15 to 20)
#    0.000    2.600    2.000    1.800    0.000    2.000 
#    0.000    2.000    0.000    4.800    0.000    0.000 
#    0.000    0.000    0.000    0.000    0.000    0.000 
#
# Total GULP energy -247931.632870 kJ/mol
# GULP energy per Si atom -12396.581643 kJ/mol
# Density = 1.806420 g / cm^3
# Si number density = 18.105404 Si / 1000 Ang^3
#
#
#
# Elastic Constant Matrix: (Units=GPa)
#
#
# Indices 1 2 3 4 5 6 
#
# 1 172.9193 37.4709 93.0257 0.0000 -0.7197 0.0000
# 2 37.4709 33.5466 29.8397 0.0000 -3.3133 0.0000
# 3 93.0257 29.8397 184.8538 0.0000 -2.3532 0.0000
# 4 0.0000 0.0000 0.0000 11.1944 0.0000 1.4989
# 5 -0.7197 -3.3133 -2.3532 0.0000 25.3765 0.0000
# 6 0.0000 0.0000 0.0000 1.4989 0.0000 35.5907
#
#
#
# Elastic Compliance Matrix: (Units=1/GPa)
#
#
# Indices 1 2 3 4 5 6 
#
# 1 0.009238 -0.007324 -0.003480 0.000000 -0.001017 0.000000
# 2 -0.007324 0.041030 -0.002875 0.000000 0.004883 0.000000
# 3 -0.003480 -0.002875 0.007628 0.000000 0.000233 0.000000
# 4 0.000000 0.000000 0.000000 0.089837 0.000000 -0.003783
# 5 -0.001017 0.004883 0.000233 0.000000 0.040037 0.000000
# 6 0.000000 0.000000 0.000000 -0.003783 0.000000 0.028257
#
#
# Mechanical properties :
#
#
# Convention : Reuss Voigt Hill
#
# Bulk Modulus (GPa) = 32.74614 79.11025 55.92820
# Shear Modulus (GPa) = 19.71903 29.83121 24.77512
#
# Velocity S-wave (km/s) = 3.30377 4.06352 3.70318
# Velocity P-wave (km/s) = 5.71654 8.11205 7.01727
#
# Compressibility (1/GPa) = 0.03053795
#
# Stress axis : x y z
#
# Youngs Moduli (GPa) = 108.25177 24.37258 131.09903
#
# Poissons Ratio (x) = 0.17850 0.45616
# Poissons Ratio (y) = 0.79281 0.37696
# Poissons Ratio (z) = 0.37666 0.07008
#
# Static dielectric constant tensor:
#      x y z
#    x 3.404830 0.000000 -0.050980 
#    y 0.000000 2.944700 0.000000 
#    z -0.050980 0.000000 3.791520 
# 
# 
# High freq. dielectric constant tensor:
#      x y z
#    x 1.713080 0.000000 0.000760 
#    y 0.000000 1.659180 0.000000 
#    z 0.000760 0.000000 1.708420 
# 
# From -- ./inp_files/261077.got.cif
#   From: 2010.06.25/outbox.cif.g09.slc.cpg/sg12_131_cif.got.tgz:261077.got - 2010.06.28 00:19:55.
