data_PCOD8090198
_publ_section_title
;
Structure prediction by ZEFSAII (Michael W. Deem and Ramdas Pophale) SiO2 
 PCOD8090198
Probable space group: C 2/M
;
_chemical_formula_sum "Si O2"
_cell_formula_units_Z 64
_cell_length_a 28.986713
_cell_length_b 9.022238
_cell_length_c 18.871456
_cell_angle_alpha 90.000000
_cell_angle_beta 40.888150
_cell_angle_gamma 90.000000
_cell_volume 3230.608698
_symmetry_space_group_name_H-M "C 2/M"
_symmetry_group_IT_number 12
_symmetry_cell_setting 'monoclinic'
loop_
_space_group_symop_operation_xyz
x,y,z
-x,y,-z
-x,-y,-z
x,-y,z
1/2+x,1/2+y,z
1/2-x,1/2+y,-z
1/2-x,1/2-y,-z
1/2+x,1/2-y,z
loop_
_atom_site_type_symbol
_atom_site_label
_atom_site_fract_x
_atom_site_fract_y
_atom_site_fract_z
Si Si1 0.332438 0.174811 0.827431
Si Si2 0.898722 0.828762 0.876397
Si Si3 0.819377 0.326767 0.389054
Si Si4 0.703096 0.669784 0.882904
Si Si5 0.073418 0.167723 0.384092
Si Si6 0.717487 0.171973 0.719901
Si Si7 0.953889 0.674921 0.322234
Si Si8 0.872534 0.166985 0.529407
O O1 0.338594 0.256734 0.895740
O O2 0.266505 0.235345 0.857948
O O3 0.403934 0.219244 0.703318
O O4 0.328461 0.000000 0.845128
O O5 0.973425 0.748064 0.786059
O O6 0.907573 0.000000 0.844970
O O7 0.869975 0.812079 0.989777
O O8 0.808187 0.500000 0.415122
O O9 0.750000 0.250000 0.500000
O O10 0.831942 0.293698 0.290456
O O11 0.890622 0.271071 0.344393
O O12 0.721722 0.500000 0.846194
O O13 0.692630 0.745262 0.819152
O O14 0.128197 0.173951 0.384766
O O15 0.000000 0.223880 0.500000
O O16 0.066952 0.000000 0.360828
O O17 0.794262 0.222159 0.601567
O O18 0.718856 0.000000 0.738532
O O19 0.964862 0.500000 0.308505
O O20 0.931949 0.727692 0.426398
O O21 0.887339 0.000000 0.485304
#
# Coordination Sequence:
#
# PCOD8090198 Si02
#       8
#     8   8   8   8   8   8   8   8
#     4  11  22  37  59  87 116 147 193 245 291 343
#     4  11  24  42  61  82 115 157 199 242 292 351
#     4  10  21  37  59  89 122 155 193 236 289 351
#     4  10  23  41  61  87 117 153 197 245 293 341
#     4  10  20  33  50  77 115 157 193 227 278 344
#     4  10  20  36  60  88 117 152 193 235 285 347
#     4  11  23  38  59  88 120 154 195 245 296 343
#     4  10  19  33  55  83 117 156 193 230 283 350
#
# _framework density 19.810507000000001
#
# number of rings (size 3 to 8) (size 9 to 14) (size 15 to 20)
#    0.000    1.625    2.500    2.250    0.000    4.750 
#    0.000    0.625    0.000    3.750    0.000    0.000 
#    0.000    0.000    0.000    0.000    0.000    0.000 
#
# Total GULP energy -396759.754498 kJ/mol
# GULP energy per Si atom -12398.742328 kJ/mol
# Density = 1.976542 g / cm^3
# Si number density = 19.810507 Si / 1000 Ang^3
#
#
#
# Elastic Constant Matrix: (Units=GPa)
#
#
# Indices 1 2 3 4 5 6 
#
# 1 70.3095 23.8538 26.5585 -0.0011 8.3962 -0.0058
# 2 23.8538 73.3253 40.4906 -0.0261 4.3930 0.0020
# 3 26.5585 40.4906 95.1751 -0.0262 10.1180 0.0011
# 4 -0.0011 -0.0261 -0.0262 33.3638 0.0051 2.8132
# 5 8.3962 4.3930 10.1180 0.0051 26.4670 0.0046
# 6 -0.0058 0.0020 0.0011 2.8132 0.0046 26.3119
#
#
#
# Elastic Compliance Matrix: (Units=1/GPa)
#
#
# Indices 1 2 3 4 5 6 
#
# 1 0.016985 -0.003795 -0.002730 -0.000004 -0.003715 0.000005
# 2 -0.003795 0.018674 -0.006967 0.000009 0.000768 -0.000003
# 3 -0.002730 -0.006967 0.014612 0.000007 -0.003563 -0.000001
# 4 -0.000004 0.000009 0.000007 0.030245 -0.000008 -0.003234
# 5 -0.003715 0.000768 -0.003563 -0.000008 0.040196 -0.000007
# 6 0.000005 -0.000003 -0.000001 -0.003234 -0.000007 0.038351
#
#
# Mechanical properties :
#
#
# Convention : Reuss Voigt Hill
#
# Bulk Modulus (GPa) = 42.94494 46.73507 44.84001
# Shear Modulus (GPa) = 25.79841 27.08900 26.44371
#
# Velocity S-wave (km/s) = 3.61260 3.70186 3.65750
# Velocity P-wave (km/s) = 6.25508 6.47410 6.36553
#
# Compressibility (1/GPa) = 0.02328563
#
# Stress axis : x y z
#
# Youngs Moduli (GPa) = 58.87415 53.55108 68.43882
#
# Poissons Ratio (x) = 0.20325 0.18685
# Poissons Ratio (y) = 0.22345 0.47681
# Poissons Ratio (z) = 0.16073 0.37309
#
# Static dielectric constant tensor:
#      x y z
#    x 3.830210 -0.000030 0.066630 
#    y -0.000030 3.501240 0.000040 
#    z 0.066630 0.000040 3.451520 
# 
# 
# High freq. dielectric constant tensor:
#      x y z
#    x 1.774840 0.000000 0.005600 
#    y 0.000000 1.765060 0.000000 
#    z 0.005600 0.000000 1.767590 
# 
# From -- ./inp_files/295514.got.cif
#   From: 2010.06.25/outbox.cif.g09.slc.cpg/sg12_148_cif.got.tgz:295514.got - 2010.06.28 00:19:55.
