data_PCOD8090381
_publ_section_title
;
Structure prediction by ZEFSAII (Michael W. Deem and Ramdas Pophale) SiO2 
 PCOD8090381
Probable space group: C 2/M
;
_chemical_formula_sum "Si O2"
_cell_formula_units_Z 48
_cell_length_a 29.048827
_cell_length_b 8.957394
_cell_length_c 19.213016
_cell_angle_alpha 90.000000
_cell_angle_beta 31.744863
_cell_angle_gamma 90.000000
_cell_volume 2630.299657
_symmetry_space_group_name_H-M "C 2/M"
_symmetry_group_IT_number 12
_symmetry_cell_setting 'monoclinic'
loop_
_space_group_symop_operation_xyz
x,y,z
-x,y,-z
-x,-y,-z
x,-y,z
1/2+x,1/2+y,z
1/2-x,1/2+y,-z
1/2-x,1/2-y,-z
1/2+x,1/2-y,z
loop_
_atom_site_type_symbol
_atom_site_label
_atom_site_fract_x
_atom_site_fract_y
_atom_site_fract_z
Si Si1 0.883221 0.326127 0.456992
Si Si2 0.726504 0.174984 0.602560
Si Si3 0.656655 0.325874 0.124849
Si Si4 0.518532 0.325714 0.186296
Si Si5 0.972613 0.325699 0.111567
Si Si6 0.979039 0.673865 0.604316
O O1 0.867717 0.500000 0.463820
O O2 0.790251 0.242378 0.580049
O O3 0.937077 0.263990 0.322370
O O4 0.934061 0.293925 0.462943
O O5 0.750000 0.250000 0.500000
O O6 0.628649 0.214991 0.749847
O O7 0.741928 0.000000 0.576870
O O8 0.669802 0.500000 0.120225
O O9 0.605615 0.291995 0.118728
O O10 0.603266 0.262456 0.259194
O O11 0.750000 0.250000 0.000000
O O12 0.496008 0.500000 0.215966
O O13 0.531275 0.266303 0.091478
O O14 0.991580 0.500000 0.098474
O O15 0.000000 0.272637 0.000000
O O16 0.954019 0.500000 0.637261
O O17 0.000000 0.731098 0.500000
#
# Coordination Sequence:
#
# PCOD8090381 Si02
#       6
#     8   8   8   8   8   8
#     4  10  19  33  56  83 109 144 183 221 271 325
#     4  11  21  34  56  82 109 141 182 227 267 319
#     4  10  21  37  58  84 111 144 186 229 273 328
#     4  10  20  35  57  82 108 141 183 228 270 320
#     4  10  22  39  56  77 110 148 182 220 272 326
#     4   9  19  37  59  82 113 148 181 226 279 327
#
# _framework density 18.248871999999999
#
# number of rings (size 3 to 8) (size 9 to 14) (size 15 to 20)
#    0.000    2.000    1.667    2.000    0.000    4.000 
#    3.000    0.000    0.000    0.000    0.000    0.000 
#    0.000    0.000    0.000    0.000    0.000    0.000 
#
# Total GULP energy -297679.641166 kJ/mol
# GULP energy per Si atom -12403.318382 kJ/mol
# Density = 1.820734 g / cm^3
# Si number density = 18.248872 Si / 1000 Ang^3
#
#
#
# Elastic Constant Matrix: (Units=GPa)
#
#
# Indices 1 2 3 4 5 6 
#
# 1 124.1106 60.8484 81.8927 -0.0013 7.9084 -0.0017
# 2 60.8484 92.1327 66.8462 -0.0003 -3.7376 -0.0041
# 3 81.8927 66.8462 127.4505 -0.0020 4.8035 -0.0026
# 4 -0.0013 -0.0003 -0.0020 28.0446 -0.0002 -3.8741
# 5 7.9084 -3.7376 4.8035 -0.0002 34.7105 0.0025
# 6 -0.0017 -0.0041 -0.0026 -3.8741 0.0025 34.1942
#
#
#
# Elastic Compliance Matrix: (Units=1/GPa)
#
#
# Indices 1 2 3 4 5 6 
#
# 1 0.015499 -0.005201 -0.007114 0.000000 -0.003107 0.000000
# 2 -0.005201 0.019622 -0.007111 0.000000 0.004282 0.000001
# 3 -0.007114 -0.007111 0.016199 0.000001 -0.001387 0.000000
# 4 0.000000 0.000000 0.000001 0.036224 0.000000 0.004104
# 5 -0.003107 0.004282 -0.001387 0.000000 0.030171 -0.000002
# 6 0.000000 0.000001 0.000000 0.004104 -0.000002 0.029710
#
#
# Mechanical properties :
#
#
# Convention : Reuss Voigt Hill
#
# Bulk Modulus (GPa) = 80.20281 84.76316 82.48298
# Shear Modulus (GPa) = 26.25595 28.33031 27.29313
#
# Velocity S-wave (km/s) = 3.79723 3.94438 3.87150
# Velocity P-wave (km/s) = 7.95425 8.20326 8.07971
#
# Compressibility (1/GPa) = 0.01246839
#
# Stress axis : x y z
#
# Youngs Moduli (GPa) = 64.51906 50.96372 61.73136
#
# Poissons Ratio (x) = 0.26505 0.43916
# Poissons Ratio (y) = 0.33555 0.43897
# Poissons Ratio (z) = 0.45900 0.36240
#
# Static dielectric constant tensor:
#      x y z
#    x 3.909470 0.000010 0.005420 
#    y 0.000010 3.436990 0.000010 
#    z 0.005420 0.000010 3.355410 
# 
# 
# High freq. dielectric constant tensor:
#      x y z
#    x 1.716990 0.000000 -0.005480 
#    y 0.000000 1.716560 0.000000 
#    z -0.005480 0.000000 1.690690 
# 
# From -- ./inp_files/229936.got.cif
#   From: 2010.06.25/outbox.cif.g09.slc.cpg/sg12_115_cif.got.tgz:229936.got - 2010.06.28 00:19:55.
