data_PCOD8090633
_publ_section_title
;
Structure prediction by ZEFSAII (Michael W. Deem and Ramdas Pophale) SiO2 
 PCOD8090633
Probable space group: C 2/M
;
_chemical_formula_sum "Si O2"
_cell_formula_units_Z 56
_cell_length_a 29.567248
_cell_length_b 14.650341
_cell_length_c 10.849768
_cell_angle_alpha 90.000000
_cell_angle_beta 39.905411
_cell_angle_gamma 90.000000
_cell_volume 3015.023472
_symmetry_space_group_name_H-M "C 2/M"
_symmetry_group_IT_number 12
_symmetry_cell_setting 'monoclinic'
loop_
_space_group_symop_operation_xyz
x,y,z
-x,y,-z
-x,-y,-z
x,-y,z
1/2+x,1/2+y,z
1/2-x,1/2+y,-z
1/2-x,1/2-y,-z
1/2+x,1/2-y,z
loop_
_atom_site_type_symbol
_atom_site_label
_atom_site_fract_x
_atom_site_fract_y
_atom_site_fract_z
Si Si1 0.498957 0.893445 0.149037
Si Si2 0.761501 0.750705 0.119808
Si Si3 0.124060 0.263496 0.572503
Si Si4 0.197296 0.598728 0.582697
Si Si5 0.917662 0.896857 0.173458
Si Si6 0.152058 0.601938 0.936769
Si Si7 0.329912 0.398586 0.137569
O O1 0.443551 0.823612 0.331804
O O2 0.479760 0.000000 0.214650
O O3 0.500000 0.873775 0.000000
O O4 0.574410 0.869300 0.052110
O O5 0.684051 0.752260 0.343277
O O6 0.812564 0.664912 0.034957
O O7 0.807316 0.837150 0.069765
O O8 0.750000 0.750000 0.000000
O O9 0.149963 0.320056 0.635083
O O10 0.107031 0.163645 0.659499
O O11 0.159710 0.500000 0.635124
O O12 0.206585 0.610524 0.709039
O O13 0.272519 0.601500 0.364835
O O14 0.895930 0.862266 0.080368
O O15 0.888677 0.000000 0.254263
O O16 0.000000 0.894520 0.000000
O O17 0.149553 0.500000 0.996637
O O18 0.342644 0.500000 0.056964
#
# Coordination Sequence:
#
# PCOD8090633 Si02
#       7
#     8   8   8   8   8   8   8
#     4  10  19  33  57  93 125 143 166 213 291 367
#     4  11  25  40  54  77 108 151 204 237 261 307
#     4  11  20  33  56  82 114 152 176 223 277 331
#     4   9  16  29  53  87 114 134 168 216 279 346
#     4  10  21  34  53  85 115 139 171 217 279 343
#     4  10  20  35  58  85 116 146 179 229 283 339
#     4   9  19  35  55  78 109 144 178 224 276 324
#
# _framework density 18.573653
#
# number of rings (size 3 to 8) (size 9 to 14) (size 15 to 20)
#    0.000    2.000    1.429    2.571    2.000    5.143 
#    0.000    0.714    0.000    1.714    0.000    3.000 
#    0.000    0.000    0.000    0.000    0.000    0.000 
#
# Total GULP energy -346912.787661 kJ/mol
# GULP energy per Si atom -12389.742416 kJ/mol
# Density = 1.853138 g / cm^3
# Si number density = 18.573653 Si / 1000 Ang^3
#
#
#
# Elastic Constant Matrix: (Units=GPa)
#
#
# Indices 1 2 3 4 5 6 
#
# 1 134.5310 65.2271 53.7610 0.0000 -0.6284 0.0000
# 2 65.2271 110.9038 46.4580 0.0000 1.1223 0.0000
# 3 53.7610 46.4580 60.7663 0.0000 -3.5139 0.0000
# 4 0.0000 0.0000 0.0000 11.7054 0.0000 -12.7657
# 5 -0.6284 1.1223 -3.5139 0.0000 21.4294 0.0000
# 6 0.0000 0.0000 0.0000 -12.7657 0.0000 27.3820
#
#
#
# Elastic Compliance Matrix: (Units=1/GPa)
#
#
# Indices 1 2 3 4 5 6 
#
# 1 0.012631 -0.004004 -0.008157 0.000000 -0.000757 0.000000
# 2 -0.004004 0.014656 -0.007788 0.000000 -0.002162 0.000000
# 3 -0.008157 -0.007788 0.029921 0.000000 0.005075 0.000000
# 4 0.000000 0.000000 0.000000 0.173793 0.000000 0.081024
# 5 -0.000757 -0.002162 0.005075 0.000000 0.047588 0.000000
# 6 0.000000 0.000000 0.000000 0.081024 0.000000 0.074294
#
#
# Mechanical properties :
#
#
# Convention : Reuss Voigt Hill
#
# Bulk Modulus (GPa) = 57.77109 70.78818 64.27963
# Shear Modulus (GPa) = 12.54546 21.48703 17.01625
#
# Velocity S-wave (km/s) = 2.60175 3.40495 3.03008
# Velocity P-wave (km/s) = 6.34009 7.32483 6.85018
#
# Compressibility (1/GPa) = 0.01730970
#
# Stress axis : x y z
#
# Youngs Moduli (GPa) = 79.17156 68.23245 33.42156
#
# Poissons Ratio (x) = 0.27319 0.27263
# Poissons Ratio (y) = 0.31699 0.26027
# Poissons Ratio (z) = 0.64583 0.53137
#
# Static dielectric constant tensor:
#      x y z
#    x 3.322230 0.000000 -0.430640 
#    y 0.000000 3.967150 0.000000 
#    z -0.430640 0.000000 3.331860 
# 
# 
# High freq. dielectric constant tensor:
#      x y z
#    x 1.701720 0.000000 -0.037760 
#    y 0.000000 1.737830 0.000000 
#    z -0.037760 0.000000 1.694260 
# 
# From -- ./inp_files/189165.got.cif
#   From: 2010.06.25/outbox.cif.g09.slc.cpg/sg12_95_cif.got.tgz:189165.got - 2010.06.28 00:19:55.
