data_PCOD8090166
_publ_section_title
;
Structure prediction by ZEFSAII (Michael W. Deem and Ramdas Pophale) SiO2 
 PCOD8090166
Probable space group: C 2/M
;
_chemical_formula_sum "Si O2"
_cell_formula_units_Z 56
_cell_length_a 21.326332
_cell_length_b 8.787051
_cell_length_c 21.476192
_cell_angle_alpha 90.000000
_cell_angle_beta 134.949068
_cell_angle_gamma 90.000000
_cell_volume 2848.310350
_symmetry_space_group_name_H-M "C 2/M"
_symmetry_group_IT_number 12
_symmetry_cell_setting 'monoclinic'
loop_
_space_group_symop_operation_xyz
x,y,z
-x,y,-z
-x,-y,-z
x,-y,z
1/2+x,1/2+y,z
1/2-x,1/2+y,-z
1/2-x,1/2-y,-z
1/2+x,1/2-y,z
loop_
_atom_site_type_symbol
_atom_site_label
_atom_site_fract_x
_atom_site_fract_y
_atom_site_fract_z
Si Si1 0.634987 0.180380 0.066518
Si Si2 0.044474 0.675959 0.727797
Si Si3 0.459979 0.180449 0.882057
Si Si4 0.529003 0.819038 0.452561
Si Si5 0.719110 0.821595 0.542499
Si Si6 0.789996 0.180409 0.091313
Si Si7 0.114869 0.676318 0.297342
O O1 0.618775 0.234359 0.126276
O O2 0.727630 0.239239 0.104146
O O3 0.633692 0.000000 0.061080
O O4 0.554534 0.248351 0.968785
O O5 0.071520 0.500000 0.752406
O O6 0.039764 0.728322 0.651513
O O7 0.112174 0.767555 0.819229
O O8 0.944253 0.700981 0.682543
O O9 0.441955 0.237614 0.800376
O O10 0.465852 0.000000 0.888839
O O11 0.500000 0.752415 0.500000
O O12 0.626643 0.755355 0.504153
O O13 0.532341 0.000000 0.458655
O O14 0.750000 0.750000 0.500000
O O15 0.797002 0.777598 0.644374
O O16 0.710347 0.000000 0.526593
O O17 0.790059 0.000000 0.083171
O O18 0.750000 0.250000 0.000000
O O19 0.141781 0.500000 0.309052
#
# Coordination Sequence:
#
# PCOD8090166 Si02
#       7
#     8   8   8   8   8   8   8
#     4   8  15  29  48  72 102 137 174 217 263 316
#     4  10  20  36  56  79 109 146 187 227 273 331
#     4   8  14  27  50  75 101 134 174 217 266 319
#     4   9  19  37  59  82 112 152 192 230 281 344
#     4  11  21  36  58  82 108 142 184 229 276 328
#     4  11  22  35  53  79 110 143 182 224 274 331
#     4  10  19  33  55  83 109 140 182 227 276 327
#
# _framework density 19.660778000000001
#
# number of rings (size 3 to 8) (size 9 to 14) (size 15 to 20)
#    0.000    2.429    1.429    2.571    0.000    4.000 
#    0.000    0.000    0.000    3.857    0.000    6.000 
#    0.000    0.000    0.000    0.000    0.000    0.000 
#
# Total GULP energy -346939.313099 kJ/mol
# GULP energy per Si atom -12390.689754 kJ/mol
# Density = 1.961603 g / cm^3
# Si number density = 19.660778 Si / 1000 Ang^3
#
#
#
# Elastic Constant Matrix: (Units=GPa)
#
#
# Indices 1 2 3 4 5 6 
#
# 1 115.5385 26.3956 47.1405 0.0000 -2.4065 0.0000
# 2 26.3956 41.8183 24.3970 0.0000 2.4721 0.0000
# 3 47.1405 24.3970 112.5225 0.0000 -9.0177 0.0000
# 4 0.0000 0.0000 0.0000 28.8711 0.0000 3.9725
# 5 -2.4065 2.4721 -9.0177 0.0000 37.1161 0.0000
# 6 0.0000 0.0000 0.0000 3.9725 0.0000 17.6200
#
#
#
# Elastic Compliance Matrix: (Units=1/GPa)
#
#
# Indices 1 2 3 4 5 6 
#
# 1 0.011284 -0.005019 -0.003624 0.000000 0.000185 0.000000
# 2 -0.005019 0.030018 -0.004683 0.000000 -0.003463 0.000000
# 3 -0.003624 -0.004683 0.011654 0.000000 0.002908 0.000000
# 4 0.000000 0.000000 0.000000 0.035746 0.000000 -0.008059
# 5 0.000185 -0.003463 0.002908 0.000000 0.027892 0.000000
# 6 0.000000 0.000000 0.000000 -0.008059 0.000000 0.058571
#
#
# Mechanical properties :
#
#
# Convention : Reuss Voigt Hill
#
# Bulk Modulus (GPa) = 38.01875 51.74951 44.88413
# Shear Modulus (GPa) = 23.74334 28.18453 25.96394
#
# Velocity S-wave (km/s) = 3.47890 3.79032 3.63794
# Velocity P-wave (km/s) = 5.95955 6.74787 6.36593
#
# Compressibility (1/GPa) = 0.02630281
#
# Stress axis : x y z
#
# Youngs Moduli (GPa) = 88.61764 33.31346 85.80723
#
# Poissons Ratio (x) = 0.16720 0.31100
# Poissons Ratio (y) = 0.44478 0.40185
# Poissons Ratio (z) = 0.32119 0.15601
#
# Static dielectric constant tensor:
#      x y z
#    x 4.043500 0.000000 0.092330 
#    y 0.000000 3.258440 0.000000 
#    z 0.092330 0.000000 4.107820 
# 
# 
# High freq. dielectric constant tensor:
#      x y z
#    x 1.772970 0.000000 -0.004610 
#    y 0.000000 1.714950 0.000000 
#    z -0.004610 0.000000 1.775710 
# 
# From -- ./inp_files/320190.got.cif
#   From: 2010.06.25/outbox.cif.g09.slc.cpg/sg12_161_cif.got.tgz:320190.got - 2010.06.28 00:19:55.
