data_PCOD8090254
_publ_section_title
;
Structure prediction by ZEFSAII (Michael W. Deem and Ramdas Pophale) SiO2 
 PCOD8090254
Probable space group: C 2/M
;
_chemical_formula_sum "Si O2"
_cell_formula_units_Z 64
_cell_length_a 20.039937
_cell_length_b 8.865005
_cell_length_c 20.207987
_cell_angle_alpha 90.000000
_cell_angle_beta 102.257959
_cell_angle_gamma 90.000000
_cell_volume 3508.185671
_symmetry_space_group_name_H-M "C 2/M"
_symmetry_group_IT_number 12
_symmetry_cell_setting 'monoclinic'
loop_
_space_group_symop_operation_xyz
x,y,z
-x,y,-z
-x,-y,-z
x,-y,z
1/2+x,1/2+y,z
1/2-x,1/2+y,-z
1/2-x,1/2-y,-z
1/2+x,1/2-y,z
loop_
_atom_site_type_symbol
_atom_site_label
_atom_site_fract_x
_atom_site_fract_y
_atom_site_fract_z
Si Si1 0.331262 0.176359 0.331156
Si Si2 0.132316 0.676583 0.176134
Si Si3 0.269420 0.178656 0.181503
Si Si4 0.103043 0.177771 0.847722
Si Si5 0.505870 0.176345 0.924765
Si Si6 0.964053 0.675465 0.291026
Si Si7 0.761493 0.821589 0.573005
Si Si8 0.618374 0.824654 0.325914
O O1 0.291759 0.239404 0.258704
O O2 0.411994 0.214399 0.340545
O O3 0.298087 0.244085 0.390903
O O4 0.318560 0.000000 0.331353
O O5 0.144844 0.500000 0.170018
O O6 0.193083 0.764412 0.151989
O O7 0.062807 0.727694 0.126748
O O8 0.129214 0.722901 0.252316
O O9 0.321680 0.249214 0.139738
O O10 0.273182 0.000000 0.176541
O O11 0.054836 0.229552 0.777351
O O12 0.069214 0.230791 0.908969
O O13 0.110690 0.000000 0.848090
O O14 0.519683 0.000000 0.916600
O O15 0.500000 0.218325 0.000000
O O16 0.956866 0.500000 0.268950
O O17 0.040454 0.711525 0.330557
O O18 0.750000 0.750000 0.500000
O O19 0.834853 0.775709 0.617132
O O20 0.758165 0.000000 0.565066
O O21 0.635561 0.000000 0.340492
#
# Coordination Sequence:
#
# PCOD8090254 Si02
#       8
#     8   8   8   8   8   8   8   8
#     4   8  16  31  53  77 102 135 181 224 261 319
#     4  10  19  33  55  86 114 138 180 233 278 325
#     4  10  19  34  56  81 109 144 185 228 277 330
#     4  11  21  33  53  83 116 146 182 231 281 326
#     4  10  21  39  60  81 112 154 190 224 276 338
#     4   9  17  34  57  81 108 142 183 226 275 329
#     4  11  22  37  54  78 110 146 187 226 277 335
#     4  10  19  33  56  83 111 139 177 229 278 324
#
# _framework density 18.243048000000002
#
# number of rings (size 3 to 8) (size 9 to 14) (size 15 to 20)
#    0.000    2.125    2.500    2.625    0.000    1.250 
#    0.000    1.875    0.000    3.750    0.000    0.000 
#    0.000    0.000    0.000    0.000    0.000    0.000 
#
# Total GULP energy -396800.002211 kJ/mol
# GULP energy per Si atom -12400.000069 kJ/mol
# Density = 1.820153 g / cm^3
# Si number density = 18.243048 Si / 1000 Ang^3
#
#
#
# Elastic Constant Matrix: (Units=GPa)
#
#
# Indices 1 2 3 4 5 6 
#
# 1 131.2798 41.3853 41.5388 0.0000 -22.5970 0.0000
# 2 41.3853 68.9064 28.3420 0.0000 -8.9675 0.0000
# 3 41.5388 28.3420 79.7708 0.0000 -11.2589 0.0000
# 4 0.0000 0.0000 0.0000 22.2976 0.0000 -1.8755
# 5 -22.5970 -8.9675 -11.2589 0.0000 28.0963 0.0000
# 6 0.0000 0.0000 0.0000 -1.8755 0.0000 30.8776
#
#
#
# Elastic Compliance Matrix: (Units=1/GPa)
#
#
# Indices 1 2 3 4 5 6 
#
# 1 0.011166 -0.004530 -0.003330 0.000000 0.006201 0.000000
# 2 -0.004530 0.019107 -0.004328 0.000000 0.000721 0.000000
# 3 -0.003330 -0.004328 0.016148 0.000000 0.002411 0.000000
# 4 0.000000 0.000000 0.000000 0.045078 0.000000 0.002738
# 5 0.006201 0.000721 0.002411 0.000000 0.041775 0.000000
# 6 0.000000 0.000000 0.000000 0.002738 0.000000 0.032552
#
#
# Mechanical properties :
#
#
# Convention : Reuss Voigt Hill
#
# Bulk Modulus (GPa) = 45.36078 55.83213 50.59645
# Shear Modulus (GPa) = 25.30988 27.50035 26.40512
#
# Velocity S-wave (km/s) = 3.72878 3.88679 3.80861
# Velocity P-wave (km/s) = 6.59220 7.12839 6.86553
#
# Compressibility (1/GPa) = 0.02204548
#
# Stress axis : x y z
#
# Youngs Moduli (GPa) = 89.55524 52.33667 61.92718
#
# Poissons Ratio (x) = 0.23708 0.20622
# Poissons Ratio (y) = 0.40567 0.26802
# Poissons Ratio (z) = 0.29822 0.22652
#
# Static dielectric constant tensor:
#      x y z
#    x 3.678980 0.000000 -0.205820 
#    y 0.000000 3.186120 0.000000 
#    z -0.205820 0.000000 3.239420 
# 
# 
# High freq. dielectric constant tensor:
#      x y z
#    x 1.722490 0.000000 -0.015590 
#    y 0.000000 1.694160 0.000000 
#    z -0.015590 0.000000 1.680090 
# 
# From -- ./inp_files/281367.got.cif
#   From: 2010.06.25/outbox.cif.g09.slc.cpg/sg12_141_cif.got.tgz:281367.got - 2010.06.28 00:19:55.
