data_PCOD8090979
_publ_section_title
;
Structure prediction by ZEFSAII (Michael W. Deem and Ramdas Pophale) SiO2 
 PCOD8090979
Probable space group: C 2/M
;
_chemical_formula_sum "Si O2"
_cell_formula_units_Z 48
_cell_length_a 15.170840
_cell_length_b 8.628547
_cell_length_c 29.812828
_cell_angle_alpha 90.000000
_cell_angle_beta 39.858205
_cell_angle_gamma 90.000000
_cell_volume 2501.116155
_symmetry_space_group_name_H-M "C 2/M"
_symmetry_group_IT_number 12
_symmetry_cell_setting 'monoclinic'
loop_
_space_group_symop_operation_xyz
x,y,z
-x,y,-z
-x,-y,-z
x,-y,z
1/2+x,1/2+y,z
1/2-x,1/2+y,-z
1/2-x,1/2-y,-z
1/2+x,1/2-y,z
loop_
_atom_site_type_symbol
_atom_site_label
_atom_site_fract_x
_atom_site_fract_y
_atom_site_fract_z
Si Si1 0.991242 0.683751 0.672051
Si Si2 0.011176 0.316734 0.428184
Si Si3 0.043414 0.182706 0.067456
Si Si4 0.264268 0.183518 0.828412
Si Si5 0.776105 0.818643 0.919345
Si Si6 0.205868 0.183306 0.422568
O O1 0.985845 0.500000 0.674860
O O2 0.968413 0.742679 0.630405
O O3 0.138372 0.740708 0.632546
O O4 0.871760 0.753104 0.750396
O O5 0.986050 0.500000 0.440785
O O6 0.879189 0.230110 0.500074
O O7 0.147742 0.271336 0.401913
O O8 0.105232 0.229083 0.091674
O O9 0.887544 0.244174 0.125300
O O10 0.053904 0.000000 0.055261
O O11 0.127983 0.264622 0.994961
O O12 0.310879 0.236659 0.859231
O O13 0.266497 0.000000 0.826071
O O14 0.772492 0.000000 0.912573
O O15 0.194209 0.000000 0.419997
#
# Coordination Sequence:
#
# PCOD8090979 Si02
#       6
#     8   8   8   8   8   8
#     4   9  20  35  52  74 103 137 170 206 250 302
#     4  10  19  34  55  78 101 132 173 211 248 295
#     4   9  19  35  55  75  99 135 172 205 249 304
#     4  10  20  36  54  73 101 138 173 203 247 307
#     4  10  20  34  53  79 105 129 166 215 256 292
#     4  10  19  34  54  77 103 132 167 210 258 299
#
# _framework density 19.191431999999999
#
# number of rings (size 3 to 8) (size 9 to 14) (size 15 to 20)
#    0.000    2.333    0.000    3.500    0.000    4.667 
#    0.000    7.500    0.000    0.000    0.000    0.000 
#    0.000    0.000    0.000    0.000    0.000    0.000 
#
# Total GULP energy -297644.424774 kJ/mol
# GULP energy per Si atom -12401.851032 kJ/mol
# Density = 1.914775 g / cm^3
# Si number density = 19.191432 Si / 1000 Ang^3
#
#
#
# Elastic Constant Matrix: (Units=GPa)
#
#
# Indices 1 2 3 4 5 6 
#
# 1 111.1765 8.9521 83.4995 -0.0008 0.9434 -0.0027
# 2 8.9521 17.9141 7.5368 -0.0012 -3.3612 -0.0028
# 3 83.4995 7.5368 144.6603 0.0003 3.7959 -0.0001
# 4 -0.0008 -0.0012 0.0003 22.4942 -0.0003 4.0723
# 5 0.9434 -3.3612 3.7959 -0.0003 22.2478 -0.0008
# 6 -0.0027 -0.0028 -0.0001 4.0723 -0.0008 28.0505
#
#
#
# Elastic Compliance Matrix: (Units=1/GPa)
#
#
# Indices 1 2 3 4 5 6 
#
# 1 0.016190 -0.004204 -0.009132 0.000000 0.000236 0.000001
# 2 -0.004204 0.060090 -0.000951 0.000002 0.009419 0.000005
# 3 -0.009132 -0.000951 0.012282 0.000000 -0.001852 -0.000001
# 4 0.000000 0.000002 0.000000 0.045656 0.000001 -0.006628
# 5 0.000236 0.009419 -0.001852 0.000001 0.046677 0.000002
# 6 0.000001 0.000005 -0.000001 -0.006628 0.000002 0.036612
#
#
# Mechanical properties :
#
#
# Convention : Reuss Voigt Hill
#
# Bulk Modulus (GPa) = 16.67019 52.63642 34.65330
# Shear Modulus (GPa) = 18.79145 26.14268 22.46706
#
# Velocity S-wave (km/s) = 3.13255 3.69481 3.42523
# Velocity P-wave (km/s) = 4.66786 6.75935 5.80851
#
# Compressibility (1/GPa) = 0.05998733
#
# Stress axis : x y z
#
# Youngs Moduli (GPa) = 61.76652 16.64164 81.41924
#
# Poissons Ratio (x) = 0.06996 0.74354
# Poissons Ratio (y) = 0.25967 0.07745
# Poissons Ratio (z) = 0.56406 0.01583
#
# Static dielectric constant tensor:
#      x y z
#    x 3.700470 0.000000 -0.026800 
#    y 0.000000 3.311730 0.000000 
#    z -0.026800 0.000000 3.709010 
# 
# 
# High freq. dielectric constant tensor:
#      x y z
#    x 1.759030 0.000000 0.001960 
#    y 0.000000 1.730920 0.000000 
#    z 0.001960 0.000000 1.744030 
# 
# From -- ./inp_files/360211.got.cif
#   From: 2010.06.25/outbox.cif.g09.slc.cpg/sg12_181_cif.got.tgz:360211.got - 2010.06.28 00:19:55.
