data_PCOD8090681
_publ_section_title
;
Structure prediction by ZEFSAII (Michael W. Deem and Ramdas Pophale) SiO2 
 PCOD8090681
Probable space group: C 2/M
;
_chemical_formula_sum "Si O2"
_cell_formula_units_Z 48
_cell_length_a 17.986967
_cell_length_b 21.237985
_cell_length_c 12.128311
_cell_angle_alpha 90.000000
_cell_angle_beta 148.255816
_cell_angle_gamma 90.000000
_cell_volume 2437.601228
_symmetry_space_group_name_H-M "C 2/M"
_symmetry_group_IT_number 12
_symmetry_cell_setting 'monoclinic'
loop_
_space_group_symop_operation_xyz
x,y,z
-x,y,-z
-x,-y,-z
x,-y,z
1/2+x,1/2+y,z
1/2-x,1/2+y,-z
1/2-x,1/2-y,-z
1/2+x,1/2-y,z
loop_
_atom_site_type_symbol
_atom_site_label
_atom_site_fract_x
_atom_site_fract_y
_atom_site_fract_z
Si Si1 0.074930 0.215354 0.481059
Si Si2 0.190678 0.817964 0.960969
Si Si3 0.362742 0.148153 0.385904
Si Si4 0.817317 0.569971 0.980121
Si Si5 0.660615 0.865793 0.213784
Si Si6 0.644758 0.070531 0.421623
O O1 0.077498 0.290613 0.475757
O O2 0.235098 0.191997 0.676764
O O3 0.000000 0.193847 0.500000
O O4 0.979830 0.187940 0.260816
O O5 0.233662 0.874926 0.935112
O O6 0.250000 0.750000 0.000000
O O7 0.238748 0.833724 0.144848
O O8 0.500000 0.116625 0.500000
O O9 0.294322 0.102204 0.390328
O O10 0.753972 0.500000 0.924980
O O11 0.812755 0.579739 0.842504
O O12 0.976973 0.572288 0.222537
O O13 0.695538 0.892956 0.377628
O O14 0.500000 0.840518 0.000000
O O15 0.703908 0.000000 0.489176
#
# Coordination Sequence:
#
# PCOD8090681 Si02
#       6
#     8   8   8   8   8   8
#     4  11  21  38  63  91 119 157 194 250 304 353
#     4  12  20  36  60  89 124 151 194 248 302 351
#     4  11  21  36  60  90 119 157 198 246 297 355
#     4  10  19  33  58  89 116 152 200 250 295 346
#     4  10  21  39  61  88 122 155 199 247 298 354
#     4  10  21  37  58  84 120 162 202 244 294 354
#
# _framework density 19.691490000000002
#
# number of rings (size 3 to 8) (size 9 to 14) (size 15 to 20)
#    0.000    1.333    6.667    0.500    0.000    5.000 
#    0.000    3.333    0.000    1.000    0.000    0.000 
#    0.000    0.000    0.000    0.000    0.000    0.000 
#
# Total GULP energy -297553.288879 kJ/mol
# GULP energy per Si atom -12398.053703 kJ/mol
# Density = 1.964667 g / cm^3
# Si number density = 19.691490 Si / 1000 Ang^3
#
#
#
# Elastic Constant Matrix: (Units=GPa)
#
#
# Indices 1 2 3 4 5 6 
#
# 1 90.5123 53.3414 33.8602 0.0000 -16.8464 0.0000
# 2 53.3414 89.8845 16.7603 0.0000 0.6921 0.0000
# 3 33.8602 16.7603 86.7149 0.0000 -12.6514 0.0000
# 4 0.0000 0.0000 0.0000 18.2947 0.0000 -5.9993
# 5 -16.8464 0.6921 -12.6514 0.0000 37.7891 0.0000
# 6 0.0000 0.0000 0.0000 -5.9993 0.0000 20.3775
#
#
#
# Elastic Compliance Matrix: (Units=1/GPa)
#
#
# Indices 1 2 3 4 5 6 
#
# 1 0.021343 -0.011821 -0.004867 0.000000 0.008102 0.000000
# 2 -0.011821 0.018125 0.000311 0.000000 -0.005498 0.000000
# 3 -0.004867 0.000311 0.013726 0.000000 0.002420 0.000000
# 4 0.000000 0.000000 0.000000 0.060502 0.000000 0.017812
# 5 0.008102 -0.005498 0.002420 0.000000 0.030985 0.000000
# 6 0.000000 0.000000 0.000000 0.017812 0.000000 0.054318
#
#
# Mechanical properties :
#
#
# Convention : Reuss Voigt Hill
#
# Bulk Modulus (GPa) = 48.92744 52.78173 50.85458
# Shear Modulus (GPa) = 20.95849 26.16892 23.56370
#
# Velocity S-wave (km/s) = 3.26597 3.64943 3.46301
# Velocity P-wave (km/s) = 6.25484 6.67984 6.47083
#
# Compressibility (1/GPa) = 0.02043843
#
# Stress axis : x y z
#
# Youngs Moduli (GPa) = 46.85294 55.17281 72.85644
#
# Poissons Ratio (x) = 0.65219 0.35462
# Poissons Ratio (y) = 0.55384 -0.02262
# Poissons Ratio (z) = 0.22805 -0.01713
#
# Static dielectric constant tensor:
#      x y z
#    x 3.415770 0.000000 -0.198150 
#    y 0.000000 3.582400 0.000000 
#    z -0.198150 0.000000 3.697160 
# 
# 
# High freq. dielectric constant tensor:
#      x y z
#    x 1.745810 0.000000 -0.021860 
#    y 0.000000 1.763640 0.000000 
#    z -0.021860 0.000000 1.760930 
# 
# From -- ./inp_files/134098.got.cif
#   From: 2010.06.25/outbox.cif.g09.slc.cpg/sg12_68_cif.got.tgz:134098.got - 2010.06.28 00:19:55.
