data_PCOD8090346
_publ_section_title
;
Structure prediction by ZEFSAII (Michael W. Deem and Ramdas Pophale) SiO2 
 PCOD8090346
Probable space group: C 2/M
;
_chemical_formula_sum "Si O2"
_cell_formula_units_Z 64
_cell_length_a 17.835750
_cell_length_b 8.880362
_cell_length_c 20.353027
_cell_angle_alpha 90.000000
_cell_angle_beta 82.209323
_cell_angle_gamma 90.000000
_cell_volume 3193.918747
_symmetry_space_group_name_H-M "C 2/M"
_symmetry_group_IT_number 12
_symmetry_cell_setting 'monoclinic'
loop_
_space_group_symop_operation_xyz
x,y,z
-x,y,-z
-x,-y,-z
x,-y,z
1/2+x,1/2+y,z
1/2-x,1/2+y,-z
1/2-x,1/2-y,-z
1/2+x,1/2-y,z
loop_
_atom_site_type_symbol
_atom_site_label
_atom_site_fract_x
_atom_site_fract_y
_atom_site_fract_z
Si Si1 0.330523 0.326008 0.486807
Si Si2 0.812117 0.176425 0.846057
Si Si3 0.580309 0.176602 0.763741
Si Si4 0.850836 0.822690 0.123708
Si Si5 0.311489 0.671778 0.344783
Si Si6 0.931680 0.821839 0.723913
Si Si7 0.829022 0.172918 0.985853
Si Si8 0.636634 0.175825 0.391731
O O1 0.323087 0.500000 0.507025
O O2 0.250000 0.250000 0.500000
O O3 0.357949 0.308140 0.407983
O O4 0.384233 0.243879 0.533770
O O5 0.735574 0.272467 0.853000
O O6 0.864933 0.230933 0.780578
O O7 0.860440 0.206197 0.908534
O O8 0.791188 0.000000 0.842475
O O9 0.592004 0.232314 0.836719
O O10 0.655307 0.215604 0.713119
O O11 0.510592 0.262892 0.740897
O O12 0.565272 0.000000 0.764744
O O13 0.857736 0.000000 0.137579
O O14 0.877356 0.780954 0.045128
O O15 0.319812 0.500000 0.318990
O O16 0.223597 0.712848 0.364293
O O17 0.917866 0.753038 0.654193
O O18 0.935629 0.000000 0.718294
O O19 0.810947 0.000000 0.996447
O O20 0.750000 0.250000 0.000000
O O21 0.620045 0.000000 0.395044
#
# Coordination Sequence:
#
# PCOD8090346 Si02
#       8
#     8   8   8   8   8   8   8   8
#     4   9  17  31  54  83 111 138 171 215 263 310
#     4   9  18  34  57  83 107 135 175 219 262 312
#     4  12  25  38  53  74 105 143 182 224 264 310
#     4  10  19  33  56  82 109 140 172 213 264 316
#     4   9  19  36  58  83 110 139 173 215 262 312
#     4  11  23  38  55  75 105 143 180 221 267 314
#     4   8  15  29  51  80 108 133 167 212 261 311
#     4  10  20  35  57  84 112 140 173 215 261 314
#
# _framework density 20.038079
#
# number of rings (size 3 to 8) (size 9 to 14) (size 15 to 20)
#    0.000    2.250    0.000    4.125    0.000    6.500 
#    0.000    1.250    0.000    7.500    0.000    0.000 
#    0.000    0.000    0.000    0.000    0.000    0.000 
#
# Total GULP energy -396571.464272 kJ/mol
# GULP energy per Si atom -12392.858258 kJ/mol
# Density = 1.999247 g / cm^3
# Si number density = 20.038079 Si / 1000 Ang^3
#
#
#
# Elastic Constant Matrix: (Units=GPa)
#
#
# Indices 1 2 3 4 5 6 
#
# 1 44.8726 16.4437 18.1564 0.0000 24.5644 0.0000
# 2 16.4437 84.0180 35.0743 0.0000 13.9079 0.0000
# 3 18.1564 35.0743 107.1080 0.0000 41.2816 0.0000
# 4 0.0000 0.0000 0.0000 30.7973 0.0000 7.2032
# 5 24.5644 13.9079 41.2816 0.0000 29.9000 0.0000
# 6 0.0000 0.0000 0.0000 7.2032 0.0000 27.9920
#
#
#
# Elastic Compliance Matrix: (Units=1/GPa)
#
#
# Indices 1 2 3 4 5 6 
#
# 1 0.054481 -0.007519 0.019514 0.000000 -0.068204 0.000000
# 2 -0.007519 0.014827 -0.007061 0.000000 0.009029 0.000000
# 3 0.019514 -0.007061 0.028328 0.000000 -0.051859 0.000000
# 4 0.000000 0.000000 0.000000 0.034550 0.000000 -0.008891
# 5 -0.068204 0.009029 -0.051859 0.000000 0.156877 0.000000
# 6 0.000000 0.000000 0.000000 -0.008891 0.000000 0.038012
#
#
# Mechanical properties :
#
#
# Convention : Reuss Voigt Hill
#
# Bulk Modulus (GPa) = 9.30192 41.70528 25.50360
# Shear Modulus (GPa) = 14.16263 28.82614 21.49439
#
# Velocity S-wave (km/s) = 2.66143 3.79696 3.27873
# Velocity P-wave (km/s) = 3.75453 6.33094 5.20467
#
# Compressibility (1/GPa) = 0.10750466
#
# Stress axis : x y z
#
# Youngs Moduli (GPa) = 18.35490 67.44570 35.30081
#
# Poissons Ratio (x) = 0.50713 -0.68886
# Poissons Ratio (y) = 0.13801 0.24925
# Poissons Ratio (z) = -0.35818 0.47621
#
# Static dielectric constant tensor:
#      x y z
#    x 3.202200 0.000000 0.247700 
#    y 0.000000 3.678560 0.000000 
#    z 0.247700 0.000000 4.543020 
# 
# 
# High freq. dielectric constant tensor:
#      x y z
#    x 1.736550 0.000000 0.021570 
#    y 0.000000 1.786960 0.000000 
#    z 0.021570 0.000000 1.807910 
# 
# From -- ./inp_files/314182.got.cif
#   From: 2010.06.25/outbox.cif.g09.slc.cpg/sg12_158_cif.got.tgz:314182.got - 2010.06.28 00:19:55.
