data_PCOD8090208
_publ_section_title
;
Structure prediction by ZEFSAII (Michael W. Deem and Ramdas Pophale) SiO2 
 PCOD8090208
Probable space group: C 2/M
;
_chemical_formula_sum "Si O2"
_cell_formula_units_Z 40
_cell_length_a 8.672395
_cell_length_b 28.654612
_cell_length_c 15.626350
_cell_angle_alpha 90.000000
_cell_angle_beta 32.110870
_cell_angle_gamma 90.000000
_cell_volume 2064.157527
_symmetry_space_group_name_H-M "C 2/M"
_symmetry_group_IT_number 12
_symmetry_cell_setting 'monoclinic'
loop_
_space_group_symop_operation_xyz
x,y,z
-x,y,-z
-x,-y,-z
x,-y,z
1/2+x,1/2+y,z
1/2-x,1/2+y,-z
1/2-x,1/2-y,-z
1/2+x,1/2-y,z
loop_
_atom_site_type_symbol
_atom_site_label
_atom_site_fract_x
_atom_site_fract_y
_atom_site_fract_z
Si Si1 0.148026 0.300878 0.522043
Si Si2 0.860336 0.132022 0.657045
Si Si3 0.445514 0.447964 0.332409
Si Si4 0.309683 0.145736 0.821847
Si Si5 0.666536 0.947095 0.289063
O O1 0.250000 0.250000 0.500000
O O2 0.438801 0.331749 0.386385
O O3 0.000000 0.300471 0.500000
O O4 0.905197 0.321282 0.699329
O O5 0.539558 0.152167 0.791198
O O6 0.000000 0.118472 0.500000
O O7 0.821931 0.086795 0.735265
O O8 0.559662 0.500000 0.295245
O O9 0.408842 0.439224 0.248445
O O10 0.143467 0.439125 0.522264
O O11 0.289922 0.091036 0.805192
O O12 0.000000 0.163524 0.000000
O O13 0.690515 0.000000 0.240663
#
# Coordination Sequence:
#
# PCOD8090208 Si02
#       5
#     8   8   8   8   8
#     4  11  22  42  67  87 110 147 189 235 286 348
#     4  10  19  33  55  84 113 150 195 233 283 340
#     4   9  16  29  53  83 111 151 208 246 271 326
#     4  11  23  38  57  88 124 152 189 239 291 342
#     4   9  17  31  53  81 118 158 195 238 285 333
#
# _framework density 19.378366
#
# number of rings (size 3 to 8) (size 9 to 14) (size 15 to 20)
#    0.000    2.000    4.000    4.200    0.000    1.600 
#    0.000    8.000    0.000    2.400    0.000    0.000 
#    0.000    0.000    0.000    0.000    0.000    0.000 
#
# Total GULP energy -247957.445159 kJ/mol
# GULP energy per Si atom -12397.872258 kJ/mol
# Density = 1.933426 g / cm^3
# Si number density = 19.378366 Si / 1000 Ang^3
#
#
#
# Elastic Constant Matrix: (Units=GPa)
#
#
# Indices 1 2 3 4 5 6 
#
# 1 150.5163 66.9547 44.0149 0.0000 -24.8715 0.0000
# 2 66.9547 126.0151 34.9142 0.0000 -3.9536 0.0000
# 3 44.0149 34.9142 93.3932 0.0000 -18.6892 0.0000
# 4 0.0000 0.0000 0.0000 12.3357 0.0000 -3.4485
# 5 -24.8715 -3.9536 -18.6892 0.0000 19.5902 0.0000
# 6 0.0000 0.0000 0.0000 -3.4485 0.0000 40.7398
#
#
#
# Elastic Compliance Matrix: (Units=1/GPa)
#
#
# Indices 1 2 3 4 5 6 
#
# 1 0.011370 -0.005420 -0.000819 0.000000 0.012560 0.000000
# 2 -0.005420 0.011482 -0.003277 0.000000 -0.007690 0.000000
# 3 -0.000819 -0.003277 0.014804 0.000000 0.012423 0.000000
# 4 0.000000 0.000000 0.000000 0.083030 0.000000 0.007028
# 5 0.012560 -0.007690 0.012423 0.000000 0.077291 0.000000
# 6 0.000000 0.000000 0.000000 0.007028 0.000000 0.025141
#
#
# Mechanical properties :
#
#
# Convention : Reuss Voigt Hill
#
# Bulk Modulus (GPa) = 53.69295 73.52135 63.60715
# Shear Modulus (GPa) = 20.13222 29.46917 24.80070
#
# Velocity S-wave (km/s) = 3.22670 3.90388 3.58133
# Velocity P-wave (km/s) = 6.45368 7.63823 7.07080
#
# Compressibility (1/GPa) = 0.01862442
#
# Stress axis : x y z
#
# Youngs Moduli (GPa) = 87.95346 87.09271 67.54812
#
# Poissons Ratio (x) = 0.47205 0.05530
# Poissons Ratio (y) = 0.47671 0.22135
# Poissons Ratio (z) = 0.07201 0.28540
#
# Static dielectric constant tensor:
#      x y z
#    x 3.836270 0.000000 -0.207140 
#    y 0.000000 3.521580 0.000000 
#    z -0.207140 0.000000 3.161190 
# 
# 
# High freq. dielectric constant tensor:
#      x y z
#    x 1.765350 0.000000 -0.014300 
#    y 0.000000 1.756850 0.000000 
#    z -0.014300 0.000000 1.705550 
# 
# From -- ./inp_files/41869.got.cif
#   From: 2010.06.25/outbox.cif.g09.slc.cpg/sg12_21_cif.got.tgz:41869.got - 2010.06.28 00:19:55.
