data_PCOD8090673
_publ_section_title
;
Structure prediction by ZEFSAII (Michael W. Deem and Ramdas Pophale) SiO2 
 PCOD8090673
Probable space group: C 2/M
;
_chemical_formula_sum "Si O2"
_cell_formula_units_Z 64
_cell_length_a 22.577205
_cell_length_b 9.078899
_cell_length_c 20.021204
_cell_angle_alpha 90.000000
_cell_angle_beta 126.714107
_cell_angle_gamma 90.000000
_cell_volume 3289.778729
_symmetry_space_group_name_H-M "C 2/M"
_symmetry_group_IT_number 12
_symmetry_cell_setting 'monoclinic'
loop_
_space_group_symop_operation_xyz
x,y,z
-x,y,-z
-x,-y,-z
x,-y,z
1/2+x,1/2+y,z
1/2-x,1/2+y,-z
1/2-x,1/2-y,-z
1/2+x,1/2-y,z
loop_
_atom_site_type_symbol
_atom_site_label
_atom_site_fract_x
_atom_site_fract_y
_atom_site_fract_z
Si Si1 0.714157 0.667253 0.727236
Si Si2 0.467822 0.172497 0.655912
Si Si3 0.736684 0.331371 0.894592
Si Si4 0.821277 0.168552 0.573390
Si Si5 0.637688 0.327610 0.951562
Si Si6 0.048841 0.829229 0.596159
Si Si7 0.843848 0.168065 0.744180
Si Si8 0.490395 0.827516 0.824554
O O1 0.739504 0.500000 0.729826
O O2 0.704405 0.694514 0.799502
O O3 0.635338 0.698365 0.638845
O O4 0.775255 0.776755 0.740972
O O5 0.391838 0.254958 0.587544
O O6 0.529264 0.230641 0.646711
O O7 0.493197 0.210561 0.747935
O O8 0.455395 0.000000 0.637759
O O9 0.760786 0.500000 0.922789
O O10 0.672400 0.287119 0.903028
O O11 0.808269 0.229525 0.953746
O O12 0.750000 0.250000 0.500000
O O13 0.822254 0.184555 0.653041
O O14 0.819833 0.000000 0.548726
O O15 0.624763 0.500000 0.951889
O O16 0.559875 0.246652 0.907079
O O17 0.000000 0.779351 0.500000
O O18 0.034504 0.000000 0.604139
O O19 0.916606 0.263121 0.808774
O O20 0.860524 0.000000 0.774654
O O21 0.492101 0.000000 0.839319
#
# Coordination Sequence:
#
# PCOD8090673 Si02
#       8
#     8   8   8   8   8   8   8   8
#     4  10  21  38  58  79 113 154 190 227 276 339
#     4  10  21  36  55  81 110 142 183 229 277 329
#     4   9  19  35  55  83 116 153 188 224 276 335
#     4  10  21  36  56  80 107 141 183 233 284 333
#     4  10  19  33  58  88 117 145 183 235 279 326
#     4  10  22  38  56  82 112 149 189 228 280 336
#     4  10  22  38  56  81 110 145 188 234 283 331
#     4  10  20  36  58  83 112 147 185 228 280 336
#
# _framework density 19.454194000000001
#
# number of rings (size 3 to 8) (size 9 to 14) (size 15 to 20)
#    0.000    2.125    0.000    2.625    1.750    5.750 
#    0.000    0.625    0.000    3.750    0.000    0.000 
#    0.000    0.000    0.000    0.000    0.000    0.000 
#
# Total GULP energy -396949.290225 kJ/mol
# GULP energy per Si atom -12404.665320 kJ/mol
# Density = 1.940992 g / cm^3
# Si number density = 19.454194 Si / 1000 Ang^3
#
#
#
# Elastic Constant Matrix: (Units=GPa)
#
#
# Indices 1 2 3 4 5 6 
#
# 1 79.2688 34.0375 29.4368 0.0000 16.7192 0.0000
# 2 34.0375 93.4391 39.4068 0.0000 16.2124 0.0000
# 3 29.4368 39.4068 83.7102 0.0000 26.4506 0.0000
# 4 0.0000 0.0000 0.0000 30.1087 0.0000 4.3996
# 5 16.7192 16.2124 26.4506 0.0000 33.2544 0.0000
# 6 0.0000 0.0000 0.0000 4.3996 0.0000 38.8993
#
#
#
# Elastic Compliance Matrix: (Units=1/GPa)
#
#
# Indices 1 2 3 4 5 6 
#
# 1 0.016176 -0.004148 -0.002411 0.000000 -0.004193 0.000000
# 2 -0.004148 0.014519 -0.005074 0.000000 -0.000957 0.000000
# 3 -0.002411 -0.005074 0.018723 0.000000 -0.011207 0.000000
# 4 0.000000 0.000000 0.000000 0.033771 0.000000 -0.003820
# 5 -0.004193 -0.000957 -0.011207 0.000000 0.041560 0.000000
# 6 0.000000 0.000000 0.000000 -0.003820 0.000000 0.026139
#
#
# Mechanical properties :
#
#
# Convention : Reuss Voigt Hill
#
# Bulk Modulus (GPa) = 38.23623 51.35338 44.79480
# Shear Modulus (GPa) = 27.34148 30.68828 29.01488
#
# Velocity S-wave (km/s) = 3.75297 3.97604 3.86611
# Velocity P-wave (km/s) = 6.20297 6.89441 6.55781
#
# Compressibility (1/GPa) = 0.02615320
#
# Stress axis : x y z
#
# Youngs Moduli (GPa) = 61.81934 68.87445 53.40940
#
# Poissons Ratio (x) = 0.28572 0.12875
# Poissons Ratio (y) = 0.25645 0.27098
# Poissons Ratio (z) = 0.14902 0.34945
#
# Static dielectric constant tensor:
#      x y z
#    x 3.460950 0.000000 0.128840 
#    y 0.000000 3.601930 0.000000 
#    z 0.128840 0.000000 3.439770 
# 
# 
# High freq. dielectric constant tensor:
#      x y z
#    x 1.751630 0.000000 0.014540 
#    y 0.000000 1.764250 0.000000 
#    z 0.014540 0.000000 1.752790 
# 
# From -- ./inp_files/324288.got.cif
#   From: 2010.06.25/outbox.cif.g09.slc.cpg/sg12_163_cif.got.tgz:324288.got - 2010.06.28 00:19:55.
