data_PCOD8090008
_publ_section_title
;
Structure prediction by ZEFSAII (Michael W. Deem and Ramdas Pophale) SiO2 
 PCOD8090008
Probable space group: C 2/M
;
_chemical_formula_sum "Si O2"
_cell_formula_units_Z 48
_cell_length_a 28.091051
_cell_length_b 9.137740
_cell_length_c 10.383752
_cell_angle_alpha 90.000000
_cell_angle_beta 90.626241
_cell_angle_gamma 90.000000
_cell_volume 2665.232806
_symmetry_space_group_name_H-M "C 2/M"
_symmetry_group_IT_number 12
_symmetry_cell_setting 'monoclinic'
loop_
_space_group_symop_operation_xyz
x,y,z
-x,y,-z
-x,-y,-z
x,-y,z
1/2+x,1/2+y,z
1/2-x,1/2+y,-z
1/2-x,1/2-y,-z
1/2+x,1/2-y,z
loop_
_atom_site_type_symbol
_atom_site_label
_atom_site_fract_x
_atom_site_fract_y
_atom_site_fract_z
Si Si1 0.195673 0.830786 0.873809
Si Si2 0.604293 0.827779 0.251634
Si Si3 0.056074 0.333138 0.990732
Si Si4 0.555038 0.173548 0.506106
Si Si5 0.301023 0.828898 0.863904
Si Si6 0.598470 0.329149 0.751770
O O1 0.247581 0.782062 0.819851
O O2 0.155269 0.799687 0.766512
O O3 0.196642 0.000000 0.912780
O O4 0.183387 0.744002 0.002348
O O5 0.577798 0.768938 0.123642
O O6 0.580846 0.761424 0.379573
O O7 0.660484 0.784719 0.244620
O O8 0.596507 0.000000 0.258158
O O9 0.073417 0.500000 0.965762
O O10 0.071801 0.229468 0.876046
O O11 0.000000 0.327724 0.000000
O O12 0.500000 0.220049 0.500000
O O13 0.580573 0.244882 0.627375
O O14 0.560391 0.000000 0.518882
O O15 0.304160 0.000000 0.889960
O O16 0.587264 0.500000 0.736845
#
# Coordination Sequence:
#
# PCOD8090008 Si02
#       6
#     8   8   8   8   8   8
#     4   9  18  31  49  76 108 138 167 209 263 314
#     4   9  17  31  53  79 100 129 176 224 265 301
#     4  10  19  33  55  80 103 130 174 226 265 303
#     4  10  21  38  57  75 101 139 181 222 262 307
#     4   9  16  30  53  77 102 133 174 219 260 306
#     4  11  22  35  51  77 111 142 172 208 263 325
#
# _framework density 18.009685000000001
#
# number of rings (size 3 to 8) (size 9 to 14) (size 15 to 20)
#    0.000    2.333    1.667    1.500    0.000    4.000 
#    0.000    2.500    0.000    0.000    0.000    0.000 
#    0.000    0.000    0.000    0.000    0.000    0.000 
#
# Total GULP energy -297524.812791 kJ/mol
# GULP energy per Si atom -12396.867200 kJ/mol
# Density = 1.796869 g / cm^3
# Si number density = 18.009685 Si / 1000 Ang^3
#
#
#
# Elastic Constant Matrix: (Units=GPa)
#
#
# Indices 1 2 3 4 5 6 
#
# 1 138.6822 36.7295 79.5701 0.0000 -5.8446 0.0000
# 2 36.7295 30.5435 29.8100 0.0000 1.1632 0.0000
# 3 79.5701 29.8100 141.6633 0.0000 -6.2245 0.0000
# 4 0.0000 0.0000 0.0000 16.9791 0.0000 -2.6010
# 5 -5.8446 1.1632 -6.2245 0.0000 32.2210 0.0000
# 6 0.0000 0.0000 0.0000 -2.6010 0.0000 -14.1058
#
#
#
# Elastic Compliance Matrix: (Units=1/GPa)
#
#
# Indices 1 2 3 4 5 6 
#
# 1 0.013000 -0.010888 -0.004932 0.000000 0.001798 0.000000
# 2 -0.010888 0.050649 -0.004750 0.000000 -0.004721 0.000000
# 3 -0.004932 -0.004750 0.010889 0.000000 0.001381 0.000000
# 4 0.000000 0.000000 0.000000 0.057278 0.000000 -0.010562
# 5 0.001798 -0.004721 0.001381 0.000000 0.031799 0.000000
# 6 0.000000 0.000000 0.000000 -0.010562 0.000000 -0.068945
#
#
# Mechanical properties :
#
#
# Convention : Reuss Voigt Hill
#
# Bulk Modulus (GPa) = 29.94099 67.01203 48.47651
# Shear Modulus (GPa) = 34.02727 18.00414 26.01570
#
# Velocity S-wave (km/s) = 4.35142 3.16522 3.80483
# Velocity P-wave (km/s) = 6.47360 7.11673 6.80277
#
# Compressibility (1/GPa) = 0.03339903
#
# Stress axis : x y z
#
# Youngs Moduli (GPa) = 76.92497 19.74381 91.83455
#
# Poissons Ratio (x) = 0.21497 0.45289
# Poissons Ratio (y) = 0.83755 0.43620
# Poissons Ratio (z) = 0.37936 0.09378
#
# Static dielectric constant tensor:
#      x y z
#    x 3.804620 0.000000 -0.125500 
#    y 0.000000 3.187970 0.000000 
#    z -0.125500 0.000000 3.375490 
# 
# 
# High freq. dielectric constant tensor:
#      x y z
#    x 1.719830 0.000000 -0.001490 
#    y 0.000000 1.676170 0.000000 
#    z -0.001490 0.000000 1.679240 
# 
# From -- ./inp_files/108777.got.cif
#   From: 2010.06.25/outbox.cif.g09.slc.cpg/sg12_55_cif.got.tgz:108777.got - 2010.06.28 00:19:55.
