data_PCOD8090469
_publ_section_title
;
Structure prediction by ZEFSAII (Michael W. Deem and Ramdas Pophale) SiO2 
 PCOD8090469
Probable space group: C 2/M
;
_chemical_formula_sum "Si O2"
_cell_formula_units_Z 64
_cell_length_a 18.627787
_cell_length_b 9.067317
_cell_length_c 20.583885
_cell_angle_alpha 90.000000
_cell_angle_beta 100.065205
_cell_angle_gamma 90.000000
_cell_volume 3423.193348
_symmetry_space_group_name_H-M "C 2/M"
_symmetry_group_IT_number 12
_symmetry_cell_setting 'monoclinic'
loop_
_space_group_symop_operation_xyz
x,y,z
-x,y,-z
-x,-y,-z
x,-y,z
1/2+x,1/2+y,z
1/2-x,1/2+y,-z
1/2-x,1/2-y,-z
1/2+x,1/2-y,z
loop_
_atom_site_type_symbol
_atom_site_label
_atom_site_fract_x
_atom_site_fract_y
_atom_site_fract_z
Si Si1 0.015172 0.170622 0.075811
Si Si2 0.083658 0.675601 0.523046
Si Si3 0.340568 0.330540 0.830436
Si Si4 0.161895 0.671921 0.407963
Si Si5 0.435836 0.831921 0.176942
Si Si6 0.917603 0.666481 0.731622
Si Si7 0.689697 0.675327 0.632102
Si Si8 0.301182 0.326538 0.216604
O O1 0.100764 0.198066 0.103339
O O2 0.966018 0.272158 0.113675
O O3 0.994842 0.000000 0.085236
O O4 0.000000 0.218422 0.000000
O O5 0.087911 0.500000 0.530074
O O6 0.132819 0.738328 0.471091
O O7 0.116603 0.749105 0.592966
O O8 0.000000 0.725743 0.500000
O O9 0.317614 0.500000 0.822585
O O10 0.375043 0.284008 0.767624
O O11 0.268936 0.235218 0.832512
O O12 0.172718 0.500000 0.419249
O O13 0.098701 0.704706 0.345510
O O14 0.239781 0.736592 0.396641
O O15 0.496504 0.821239 0.242854
O O16 0.370211 0.732655 0.189562
O O17 0.410500 0.000000 0.162717
O O18 0.889473 0.500000 0.743792
O O19 0.682299 0.500000 0.625671
O O20 0.698835 0.724653 0.708312
O O21 0.300858 0.500000 0.210978
#
# Coordination Sequence:
#
# PCOD8090469 Si02
#       8
#     8   8   8   8   8   8   8   8
#     4   9  19  38  62  86 117 155 187 220 269 329
#     4  10  22  36  54  78 106 139 179 229 283 336
#     4  10  19  33  56  86 114 139 182 231 266 319
#     4   9  17  34  55  75 103 139 179 219 271 337
#     4  10  21  34  56  87 116 146 184 233 278 322
#     4   9  17  33  55  77 107 145 179 219 276 334
#     4  10  21  37  56  74 102 144 185 225 273 335
#     4  11  22  37  56  79 113 152 186 228 286 338
#
# _framework density 18.695993999999999
#
# number of rings (size 3 to 8) (size 9 to 14) (size 15 to 20)
#    0.000    2.250    1.250    1.500    1.750    2.500 
#    0.000    1.250    0.000    0.000    0.000    0.000 
#    0.000    0.000    0.000    0.000    0.000    0.000 
#
# Total GULP energy -396800.855859 kJ/mol
# GULP energy per Si atom -12400.026746 kJ/mol
# Density = 1.865344 g / cm^3
# Si number density = 18.695994 Si / 1000 Ang^3
#
#
#
# Elastic Constant Matrix: (Units=GPa)
#
#
# Indices 1 2 3 4 5 6 
#
# 1 121.7044 47.2084 50.9206 0.0000 5.4604 0.0000
# 2 47.2084 64.6272 40.6956 0.0000 5.8192 0.0000
# 3 50.9206 40.6956 96.5515 0.0000 14.5957 0.0000
# 4 0.0000 0.0000 0.0000 24.1165 0.0000 1.8890
# 5 5.4604 5.8192 14.5957 0.0000 23.1606 0.0000
# 6 0.0000 0.0000 0.0000 1.8890 0.0000 29.4292
#
#
#
# Elastic Compliance Matrix: (Units=1/GPa)
#
#
# Indices 1 2 3 4 5 6 
#
# 1 0.012394 -0.006713 -0.003891 0.000000 0.001217 0.000000
# 2 -0.006713 0.024702 -0.006822 0.000000 -0.000324 0.000000
# 3 -0.003891 -0.006822 0.016455 0.000000 -0.007738 0.000000
# 4 0.000000 0.000000 0.000000 0.041675 0.000000 -0.002675
# 5 0.001217 -0.000324 -0.007738 0.000000 0.047848 0.000000
# 6 0.000000 0.000000 0.000000 -0.002675 0.000000 0.034152
#
#
# Mechanical properties :
#
#
# Convention : Reuss Voigt Hill
#
# Bulk Modulus (GPa) = 53.48097 62.28136 57.88117
# Shear Modulus (GPa) = 22.90320 24.94516 23.92418
#
# Velocity S-wave (km/s) = 3.50384 3.65670 3.58109
# Velocity P-wave (km/s) = 6.71095 7.15637 6.93724
#
# Compressibility (1/GPa) = 0.01869824
#
# Stress axis : x y z
#
# Youngs Moduli (GPa) = 80.68512 40.48229 60.77324
#
# Poissons Ratio (x) = 0.27175 0.23647
# Poissons Ratio (y) = 0.54162 0.41462
# Poissons Ratio (z) = 0.31394 0.27619
#
# Static dielectric constant tensor:
#      x y z
#    x 3.557860 0.000000 0.128450 
#    y 0.000000 3.304490 0.000000 
#    z 0.128450 0.000000 3.431960 
# 
# 
# High freq. dielectric constant tensor:
#      x y z
#    x 1.731040 0.000000 0.009900 
#    y 0.000000 1.714690 0.000000 
#    z 0.009900 0.000000 1.716000 
# 
# From -- ./inp_files/314123.got.cif
#   From: 2010.06.25/outbox.cif.g09.slc.cpg/sg12_158_cif.got.tgz:314123.got - 2010.06.28 00:19:55.
