data_PCOD8090503
_publ_section_title
;
Structure prediction by ZEFSAII (Michael W. Deem and Ramdas Pophale) SiO2 
 PCOD8090503
Probable space group: C 2/M
;
_chemical_formula_sum "Si O2"
_cell_formula_units_Z 64
_cell_length_a 19.734864
_cell_length_b 8.732216
_cell_length_c 31.541902
_cell_angle_alpha 90.000000
_cell_angle_beta 143.282973
_cell_angle_gamma 90.000000
_cell_volume 3249.738729
_symmetry_space_group_name_H-M "C 2/M"
_symmetry_group_IT_number 12
_symmetry_cell_setting 'monoclinic'
loop_
_space_group_symop_operation_xyz
x,y,z
-x,y,-z
-x,-y,-z
x,-y,z
1/2+x,1/2+y,z
1/2-x,1/2+y,-z
1/2-x,1/2-y,-z
1/2+x,1/2-y,z
loop_
_atom_site_type_symbol
_atom_site_label
_atom_site_fract_x
_atom_site_fract_y
_atom_site_fract_z
Si Si1 0.024212 0.817962 0.735880
Si Si2 0.484417 0.180746 0.126362
Si Si3 0.071949 0.818778 0.667867
Si Si4 0.339011 0.318447 0.511979
Si Si5 0.769702 0.180766 0.622089
Si Si6 0.823728 0.182182 0.111477
Si Si7 0.931810 0.681353 0.006436
Si Si8 0.278849 0.181339 0.715699
O O1 0.071533 0.752466 0.715348
O O2 0.099430 0.751827 0.811811
O O3 0.896058 0.759884 0.675954
O O4 0.028556 0.000000 0.739415
O O5 0.374104 0.255683 0.092574
O O6 0.492326 0.229514 0.080858
O O7 0.597997 0.237656 0.206935
O O8 0.470775 0.000000 0.122989
O O9 0.188827 0.765897 0.705666
O O10 0.963797 0.758639 0.587316
O O11 0.064208 0.000000 0.666260
O O12 0.330387 0.500000 0.509677
O O13 0.250000 0.250000 0.500000
O O14 0.316488 0.261066 0.453254
O O15 0.739096 0.231630 0.653890
O O16 0.758614 0.000000 0.611358
O O17 0.825142 0.000000 0.110025
O O18 0.696914 0.243965 0.056200
O O19 0.928961 0.500000 0.000136
O O20 0.000000 0.750800 0.000000
O O21 0.276526 0.000000 0.706805
#
# Coordination Sequence:
#
# PCOD8090503 Si02
#       8
#     8   8   8   8   8   8   8   8
#     4   9  17  31  54  81 103 137 186 226 262 319
#     4  10  20  34  54  81 112 142 179 228 272 318
#     4   9  19  35  55  79 107 141 183 226 272 330
#     4  11  21  36  58  83 111 145 187 232 279 332
#     4  11  21  37  58  81 112 144 184 231 276 332
#     4  10  19  33  57  81 107 147 185 220 269 328
#     4   9  19  33  52  84 115 140 179 229 272 315
#     4  10  21  36  56  81 109 144 183 228 279 324
#
# _framework density 19.69389
#
# number of rings (size 3 to 8) (size 9 to 14) (size 15 to 20)
#    0.000    2.125    2.500    1.125    1.750    0.500 
#    0.000    3.750    0.000    1.500    0.000    0.000 
#    0.000    0.000    0.000    0.000    0.000    0.000 
#
# Total GULP energy -396795.143199 kJ/mol
# GULP energy per Si atom -12399.848225 kJ/mol
# Density = 1.964907 g / cm^3
# Si number density = 19.693890 Si / 1000 Ang^3
#
#
#
# Elastic Constant Matrix: (Units=GPa)
#
#
# Indices 1 2 3 4 5 6 
#
# 1 147.8007 18.8131 49.4753 0.0002 -6.0249 -0.0002
# 2 18.8131 29.6137 17.7043 0.0006 -0.3755 -0.0008
# 3 49.4753 17.7043 107.6287 0.0000 -9.8694 -0.0001
# 4 0.0002 0.0006 0.0000 17.3408 0.0000 -1.0058
# 5 -6.0249 -0.3755 -9.8694 0.0000 40.8256 0.0001
# 6 -0.0002 -0.0008 -0.0001 -1.0058 0.0001 27.0925
#
#
#
# Elastic Compliance Matrix: (Units=1/GPa)
#
#
# Indices 1 2 3 4 5 6 
#
# 1 0.008286 -0.003332 -0.003223 0.000000 0.000413 0.000000
# 2 -0.003332 0.038846 -0.004981 -0.000001 -0.001339 0.000001
# 3 -0.003223 -0.004981 0.011806 0.000000 0.002333 0.000000
# 4 0.000000 -0.000001 0.000000 0.057792 0.000000 0.002146
# 5 0.000413 -0.001339 0.002333 0.000000 0.025107 0.000000
# 6 0.000000 0.000001 0.000000 0.002146 0.000000 0.036990
#
#
# Mechanical properties :
#
#
# Convention : Reuss Voigt Hill
#
# Bulk Modulus (GPa) = 27.88164 50.78096 39.33130
# Shear Modulus (GPa) = 23.38056 30.32182 26.85119
#
# Velocity S-wave (km/s) = 3.44931 3.92810 3.69647
# Velocity P-wave (km/s) = 5.48196 6.81281 6.18330
#
# Compressibility (1/GPa) = 0.03586590
#
# Stress axis : x y z
#
# Youngs Moduli (GPa) = 120.69107 25.74289 84.70304
#
# Poissons Ratio (x) = 0.08577 0.27299
# Poissons Ratio (y) = 0.40211 0.42191
# Poissons Ratio (z) = 0.38897 0.12823
#
# Static dielectric constant tensor:
#      x y z
#    x 3.792030 0.000000 -0.089790 
#    y 0.000000 3.161430 0.000000 
#    z -0.089790 0.000000 3.925120 
# 
# 
# High freq. dielectric constant tensor:
#      x y z
#    x 1.777310 0.000000 -0.006640 
#    y 0.000000 1.722190 0.000000 
#    z -0.006640 0.000000 1.780930 
# 
# From -- ./inp_files/378375.got.cif
#   From: 2010.06.25/outbox.cif.g09.slc.cpg/sg12_190_cif.got.tgz:378375.got - 2010.06.28 00:19:55.
