data_PCOD8090177
_publ_section_title
;
Structure prediction by ZEFSAII (Michael W. Deem and Ramdas Pophale) SiO2 
 PCOD8090177
Probable space group: C 2/M
;
_chemical_formula_sum "Si O2"
_cell_formula_units_Z 56
_cell_length_a 23.139548
_cell_length_b 14.370971
_cell_length_c 9.285890
_cell_angle_alpha 90.000000
_cell_angle_beta 63.802887
_cell_angle_gamma 90.000000
_cell_volume 2770.721051
_symmetry_space_group_name_H-M "C 2/M"
_symmetry_group_IT_number 12
_symmetry_cell_setting 'monoclinic'
loop_
_space_group_symop_operation_xyz
x,y,z
-x,y,-z
-x,-y,-z
x,-y,z
1/2+x,1/2+y,z
1/2-x,1/2+y,-z
1/2-x,1/2-y,-z
1/2+x,1/2-y,z
loop_
_atom_site_type_symbol
_atom_site_label
_atom_site_fract_x
_atom_site_fract_y
_atom_site_fract_z
Si Si1 0.694779 0.219367 0.865868
Si Si2 0.145119 0.396622 0.493010
Si Si3 0.240847 0.897794 0.429169
Si Si4 0.870382 0.779897 0.335219
Si Si5 0.988852 0.105069 0.166646
Si Si6 0.336614 0.773463 0.783640
Si Si7 0.932838 0.893833 0.652550
O O1 0.712265 0.125511 0.757745
O O2 0.651163 0.283716 0.808317
O O3 0.760987 0.268323 0.836170
O O4 0.653745 0.202577 0.057355
O O5 0.114305 0.500000 0.536864
O O6 0.219086 0.399050 0.465998
O O7 0.109120 0.323951 0.638247
O O8 0.138168 0.360993 0.336429
O O9 0.187639 0.816974 0.499794
O O10 0.210272 0.000000 0.437450
O O11 0.929966 0.844362 0.308617
O O12 0.052730 0.110507 0.192533
O O13 0.965709 0.000000 0.168165
O O14 0.000000 0.153563 0.000000
O O15 0.374960 0.679496 0.690585
O O16 0.000000 0.867359 0.500000
O O17 0.911859 0.000000 0.632679
#
# Coordination Sequence:
#
# PCOD8090177 Si02
#       7
#     8   8   8   8   8   8   8
#     4  10  21  33  54  83 115 150 189 230 284 355
#     4  10  20  35  55  79 108 141 187 234 278 331
#     4  10  19  33  55  83 111 146 185 227 280 345
#     4  11  18  37  58  82 114 150 191 237 285 340
#     4  10  21  36  57  87 117 149 189 231 283 347
#     4  11  20  37  55  78 119 152 185 235 291 335
#     4  10  22  38  57  85 117 154 194 230 279 349
#
# _framework density 20.211345999999999
#
# number of rings (size 3 to 8) (size 9 to 14) (size 15 to 20)
#    0.000    1.714    2.857    3.000    0.000    1.143 
#    0.000    2.857    0.000    4.286    0.000    0.000 
#    0.000    0.000    0.000    0.000    0.000    0.000 
#
# Total GULP energy -346961.684775 kJ/mol
# GULP energy per Si atom -12391.488742 kJ/mol
# Density = 2.016534 g / cm^3
# Si number density = 20.211346 Si / 1000 Ang^3
#
#
#
# Elastic Constant Matrix: (Units=GPa)
#
#
# Indices 1 2 3 4 5 6 
#
# 1 48.6569 23.9302 10.5517 0.0000 5.2949 0.0000
# 2 23.9302 120.6572 29.6509 0.0000 0.3233 0.0000
# 3 10.5517 29.6509 100.8770 0.0000 16.1556 0.0000
# 4 0.0000 0.0000 0.0000 24.5898 0.0000 2.3652
# 5 5.2949 0.3233 16.1556 0.0000 27.4644 0.0000
# 6 0.0000 0.0000 0.0000 2.3652 0.0000 25.8010
#
#
#
# Elastic Compliance Matrix: (Units=1/GPa)
#
#
# Indices 1 2 3 4 5 6 
#
# 1 0.023319 -0.004504 -0.000446 0.000000 -0.004180 0.000000
# 2 -0.004504 0.009866 -0.002815 0.000000 0.002408 0.000000
# 3 -0.000446 -0.002815 0.011888 0.000000 -0.006874 0.000000
# 4 0.000000 0.000000 0.000000 0.041029 0.000000 -0.003761
# 5 -0.004180 0.002408 -0.006874 0.000000 0.041232 0.000000
# 6 0.000000 0.000000 0.000000 -0.003761 0.000000 0.039103
#
#
# Mechanical properties :
#
#
# Convention : Reuss Voigt Hill
#
# Bulk Modulus (GPa) = 33.84748 44.27297 39.06022
# Shear Modulus (GPa) = 26.06694 29.30827 27.68760
#
# Velocity S-wave (km/s) = 3.59516 3.81214 3.70524
# Velocity P-wave (km/s) = 5.83238 6.42877 6.13782
#
# Compressibility (1/GPa) = 0.02954430
#
# Stress axis : x y z
#
# Youngs Moduli (GPa) = 42.88370 101.35332 84.11971
#
# Poissons Ratio (x) = 0.45651 0.03750
# Poissons Ratio (y) = 0.19315 0.23676
# Poissons Ratio (z) = 0.01911 0.28526
#
# Static dielectric constant tensor:
#      x y z
#    x 3.459980 0.000000 0.330910 
#    y 0.000000 3.617070 0.000000 
#    z 0.330910 0.000000 3.888830 
# 
# 
# High freq. dielectric constant tensor:
#      x y z
#    x 1.767720 0.000000 0.030540 
#    y 0.000000 1.772280 0.000000 
#    z 0.030540 0.000000 1.792570 
# 
# From -- ./inp_files/96279.got.cif
#   From: 2010.06.25/outbox.cif.g09.slc.cpg/sg12_49_cif.got.tgz:96279.got - 2010.06.28 00:19:55.
