data_PCOD8090129
_publ_section_title
;
Structure prediction by ZEFSAII (Michael W. Deem and Ramdas Pophale) SiO2 
 PCOD8090129
Probable space group: C 2/M
;
_chemical_formula_sum "Si O2"
_cell_formula_units_Z 64
_cell_length_a 15.444083
_cell_length_b 9.572278
_cell_length_c 26.829139
_cell_angle_alpha 90.000000
_cell_angle_beta 124.514548
_cell_angle_gamma 90.000000
_cell_volume 3268.150684
_symmetry_space_group_name_H-M "C 2/M"
_symmetry_group_IT_number 12
_symmetry_cell_setting 'monoclinic'
loop_
_space_group_symop_operation_xyz
x,y,z
-x,y,-z
-x,-y,-z
x,-y,z
1/2+x,1/2+y,z
1/2-x,1/2+y,-z
1/2-x,1/2-y,-z
1/2+x,1/2-y,z
loop_
_atom_site_type_symbol
_atom_site_label
_atom_site_fract_x
_atom_site_fract_y
_atom_site_fract_z
Si Si1 0.660262 0.339612 0.265054
Si Si2 0.494888 0.838450 0.848804
Si Si3 0.586609 0.162787 0.068893
Si Si4 0.837815 0.163623 0.502129
Si Si5 0.471357 0.653245 0.369835
Si Si6 0.364341 0.157761 0.263389
Si Si7 0.226100 0.153974 0.626934
Si Si8 0.792968 0.338333 0.132610
O O1 0.629422 0.500000 0.265232
O O2 0.562496 0.258881 0.209691
O O3 0.757057 0.328886 0.258926
O O4 0.687565 0.266895 0.327149
O O5 0.460468 0.793246 0.892930
O O6 0.620523 0.817212 0.882824
O O7 0.464787 0.000000 0.828618
O O8 0.690405 0.247689 0.087941
O O9 0.615781 0.000000 0.077352
O O10 0.500000 0.200973 0.000000
O O11 0.750000 0.250000 0.500000
O O12 0.833253 0.203484 0.442452
O O13 0.947617 0.211385 0.562471
O O14 0.819234 0.000000 0.503922
O O15 0.507059 0.500000 0.362586
O O16 0.460184 0.754369 0.318658
O O17 0.358567 0.642406 0.357654
O O18 0.343584 0.213288 0.201083
O O19 0.405321 0.000000 0.275700
O O20 0.278004 0.000000 0.636185
O O21 0.758585 0.500000 0.125699
#
# Coordination Sequence:
#
# PCOD8090129 Si02
#       8
#     8   8   8   8   8   8   8   8
#     4  10  19  33  55  82 111 141 182 235 283 331
#     4  10  21  37  59  85 117 156 193 231 284 344
#     4  10  22  40  61  87 120 154 191 237 282 330
#     4  10  21  35  50  71 102 138 177 225 278 333
#     4   9  18  33  54  76  98 133 182 225 266 325
#     4   9  18  33  53  78 108 139 176 227 281 329
#     4   9  18  34  55  75 100 139 183 225 276 334
#     4  10  21  38  59  85 116 153 194 234 281 341
#
# _framework density 19.582940000000001
#
# number of rings (size 3 to 8) (size 9 to 14) (size 15 to 20)
#    0.000    2.375    1.250    0.750    0.000    5.750 
#    0.000    3.750    0.000    3.750    0.000    0.000 
#    0.000    0.000    0.000    0.000    0.000    0.000 
#
# Total GULP energy -396734.638329 kJ/mol
# GULP energy per Si atom -12397.957448 kJ/mol
# Density = 1.953837 g / cm^3
# Si number density = 19.582940 Si / 1000 Ang^3
#
#
#
# Elastic Constant Matrix: (Units=GPa)
#
#
# Indices 1 2 3 4 5 6 
#
# 1 47.8590 31.0582 29.7772 0.0000 12.4687 0.0000
# 2 31.0582 84.6072 68.5106 0.0000 14.3862 0.0000
# 3 29.7772 68.5106 140.0030 0.0000 12.9551 0.0000
# 4 0.0000 0.0000 0.0000 31.9065 0.0000 5.8152
# 5 12.4687 14.3862 12.9551 0.0000 15.2702 0.0000
# 6 0.0000 0.0000 0.0000 5.8152 0.0000 25.3437
#
#
#
# Elastic Compliance Matrix: (Units=1/GPa)
#
#
# Indices 1 2 3 4 5 6 
#
# 1 0.031008 -0.007293 -0.001431 0.000000 -0.017234 0.000000
# 2 -0.007293 0.023230 -0.009053 0.000000 -0.008250 0.000000
# 3 -0.001431 -0.009053 0.011915 0.000000 -0.000411 0.000000
# 4 0.000000 0.000000 0.000000 0.032709 0.000000 -0.007505
# 5 -0.017234 -0.008250 -0.000411 0.000000 0.087680 0.000000
# 6 0.000000 0.000000 0.000000 -0.007505 0.000000 0.041180
#
#
# Mechanical properties :
#
#
# Convention : Reuss Voigt Hill
#
# Bulk Modulus (GPa) = 32.68181 59.01790 45.84986
# Shear Modulus (GPa) = 18.28305 24.04561 21.16433
#
# Velocity S-wave (km/s) = 3.05884 3.50792 3.29105
# Velocity P-wave (km/s) = 5.40375 6.82717 6.15673
#
# Compressibility (1/GPa) = 0.03059806
#
# Stress axis : x y z
#
# Youngs Moduli (GPa) = 32.24954 43.04776 83.92550
#
# Poissons Ratio (x) = 0.31395 0.12014
# Poissons Ratio (y) = 0.23520 0.75978
# Poissons Ratio (z) = 0.04616 0.38971
#
# Static dielectric constant tensor:
#      x y z
#    x 3.541300 0.000000 0.001460 
#    y 0.000000 3.651890 0.000000 
#    z 0.001460 0.000000 3.353680 
# 
# 
# High freq. dielectric constant tensor:
#      x y z
#    x 1.751380 0.000000 -0.003350 
#    y 0.000000 1.758240 0.000000 
#    z -0.003350 0.000000 1.764240 
# 
# From -- ./inp_files/375564.got.cif
#   From: 2010.06.25/outbox.cif.g09.slc.cpg/sg12_188_cif.got.tgz:375564.got - 2010.06.28 00:19:55.
