data_PCOD8090680
_publ_section_title
;
Structure prediction by ZEFSAII (Michael W. Deem and Ramdas Pophale) SiO2 
 PCOD8090680
Probable space group: C 2/M
;
_chemical_formula_sum "Si O2"
_cell_formula_units_Z 48
_cell_length_a 29.678967
_cell_length_b 8.517462
_cell_length_c 14.877118
_cell_angle_alpha 90.000000
_cell_angle_beta 40.261435
_cell_angle_gamma 90.000000
_cell_volume 2430.502194
_symmetry_space_group_name_H-M "C 2/M"
_symmetry_group_IT_number 12
_symmetry_cell_setting 'monoclinic'
loop_
_space_group_symop_operation_xyz
x,y,z
-x,y,-z
-x,-y,-z
x,-y,z
1/2+x,1/2+y,z
1/2-x,1/2+y,-z
1/2-x,1/2-y,-z
1/2+x,1/2-y,z
loop_
_atom_site_type_symbol
_atom_site_label
_atom_site_fract_x
_atom_site_fract_y
_atom_site_fract_z
Si Si1 0.851237 0.319386 0.409494
Si Si2 0.439997 0.318458 0.419281
Si Si3 0.790004 0.318632 0.318139
Si Si4 0.191692 0.320285 0.909954
Si Si5 0.400583 0.318808 0.801162
Si Si6 0.160325 0.319371 0.282644
O O1 0.871364 0.500000 0.391370
O O2 0.912078 0.215827 0.361338
O O3 0.844285 0.274217 0.314699
O O4 0.778374 0.288367 0.570993
O O5 0.429822 0.500000 0.458910
O O6 0.520255 0.268516 0.301066
O O7 0.398148 0.215954 0.554648
O O8 0.766448 0.500000 0.363987
O O9 0.826343 0.288094 0.167179
O O10 0.176071 0.500000 0.959528
O O11 0.272847 0.288873 0.803829
O O12 0.143304 0.207018 0.041642
O O13 0.395477 0.500000 0.780149
O O14 0.370190 0.211530 0.769179
O O15 0.182815 0.500000 0.255524
#
# Coordination Sequence:
#
# PCOD8090680 Si02
#       6
#     8   8   8   8   8   8
#     4  10  19  33  58  89 116 148 192 240 287 341
#     4  11  23  40  60  85 118 156 194 239 293 345
#     4   9  19  35  57  86 118 151 189 236 290 342
#     4  11  22  39  62  87 119 155 193 238 289 344
#     4  11  25  42  59  82 118 158 196 239 291 347
#     4  12  24  39  62  89 115 149 197 244 289 345
#
# _framework density 19.749002999999998
#
# number of rings (size 3 to 8) (size 9 to 14) (size 15 to 20)
#    0.000    1.333    1.667    4.500    0.000    6.000 
#    0.000    0.833    0.000    5.000    0.000    0.000 
#    0.000    0.000    0.000    0.000    0.000    0.000 
#
# Total GULP energy -297732.983692 kJ/mol
# GULP energy per Si atom -12405.540987 kJ/mol
# Density = 1.970405 g / cm^3
# Si number density = 19.749003 Si / 1000 Ang^3
#
#
#
# Elastic Constant Matrix: (Units=GPa)
#
#
# Indices 1 2 3 4 5 6 
#
# 1 91.4078 14.6371 49.6551 -0.0005 31.2096 0.0005
# 2 14.6371 51.4896 11.4205 0.0035 6.0881 -0.0008
# 3 49.6551 11.4205 97.3288 0.0005 -0.4462 -0.0002
# 4 -0.0005 0.0035 0.0005 29.1538 0.0000 0.8400
# 5 31.2096 6.0881 -0.4462 0.0000 13.7567 -0.0003
# 6 0.0005 -0.0008 -0.0002 0.8400 -0.0003 30.9258
#
#
#
# Elastic Compliance Matrix: (Units=1/GPa)
#
#
# Indices 1 2 3 4 5 6 
#
# 1 -0.157409 -0.017344 0.084027 -0.000003 0.367512 0.000006
# 2 -0.017344 0.019182 0.006740 -0.000003 0.031078 0.000001
# 3 0.084027 0.006740 -0.034278 0.000001 -0.194725 -0.000003
# 4 -0.000003 -0.000003 0.000001 0.034328 0.000007 -0.000932
# 5 0.367512 0.031078 -0.194725 0.000007 -0.781148 -0.000014
# 6 0.000006 0.000001 -0.000003 -0.000932 -0.000014 0.032361
#
#
# Mechanical properties :
#
#
# Convention : Reuss Voigt Hill
#
# Bulk Modulus (GPa) = -38.97283 43.51685 2.27201
# Shear Modulus (GPa) = -4.79679 25.73483 10.46902
#
# Velocity S-wave (km/s) = -1.56018 3.61376 2.30490
# Velocity P-wave (km/s) = 4.79817 6.28451 2.86990
#
# Compressibility (1/GPa) = -0.02565890
#
# Stress axis : x y z
#
# Youngs Moduli (GPa) = -6.35288 52.13163 -29.17320
#
# Poissons Ratio (x) = 0.90419 2.45133
# Poissons Ratio (y) = -0.11019 0.19664
# Poissons Ratio (z) = 0.53381 -0.35139
#
# Static dielectric constant tensor:
#      x y z
#    x 3.864410 0.000000 0.128940 
#    y 0.000000 3.563840 0.000000 
#    z 0.128940 0.000000 3.408240 
# 
# 
# High freq. dielectric constant tensor:
#      x y z
#    x 1.783740 0.000000 0.012490 
#    y 0.000000 1.776580 0.000000 
#    z 0.012490 0.000000 1.749330 
# 
# From -- ./inp_files/244658.got.cif
#   From: 2010.06.25/outbox.cif.g09.slc.cpg/sg12_123_cif.got.tgz:244658.got - 2010.06.28 00:19:55.
