data_PCOD8090604
_publ_section_title
;
Structure prediction by ZEFSAII (Michael W. Deem and Ramdas Pophale) SiO2 
 PCOD8090604
Probable space group: C 2/M
;
_chemical_formula_sum "Si O2"
_cell_formula_units_Z 48
_cell_length_a 24.722006
_cell_length_b 8.857251
_cell_length_c 12.459044
_cell_angle_alpha 90.000000
_cell_angle_beta 109.173298
_cell_angle_gamma 90.000000
_cell_volume 2576.813104
_symmetry_space_group_name_H-M "C 2/M"
_symmetry_group_IT_number 12
_symmetry_cell_setting 'monoclinic'
loop_
_space_group_symop_operation_xyz
x,y,z
-x,y,-z
-x,-y,-z
x,-y,z
1/2+x,1/2+y,z
1/2-x,1/2+y,-z
1/2-x,1/2-y,-z
1/2+x,1/2-y,z
loop_
_atom_site_type_symbol
_atom_site_label
_atom_site_fract_x
_atom_site_fract_y
_atom_site_fract_z
Si Si1 0.431814 0.673219 0.637550
Si Si2 0.630885 0.673168 0.618522
Si Si3 0.558716 0.321735 0.773316
Si Si4 0.061267 0.678004 0.999124
Si Si5 0.645787 0.822605 0.242324
Si Si6 0.243697 0.677802 0.612437
O O1 0.425049 0.500000 0.671658
O O2 0.418416 0.687985 0.503112
O O3 0.495468 0.735332 0.700110
O O4 0.387526 0.777144 0.672043
O O5 0.652175 0.500000 0.639562
O O6 0.603649 0.729638 0.712177
O O7 0.683890 0.780104 0.627335
O O8 0.558480 0.500000 0.783867
O O9 0.578484 0.250173 0.897650
O O10 0.057969 0.500000 0.982396
O O11 0.109453 0.726865 0.115162
O O12 0.000000 0.740760 0.000000
O O13 0.706204 0.737120 0.277038
O O14 0.657061 0.000000 0.252141
O O15 0.248650 0.500000 0.602359
O O16 0.250000 0.750000 0.500000
#
# Coordination Sequence:
#
# PCOD8090604 Si02
#       6
#     8   8   8   8   8   8
#     4  10  19  33  57  87 120 153 186 233 290 345
#     4  10  21  38  58  85 121 156 192 236 288 343
#     4  10  21  36  58  88 120 155 194 236 286 347
#     4  10  21  38  58  83 117 154 192 240 290 339
#     4  11  22  37  59  86 116 150 194 240 286 337
#     4  12  24  39  60  86 116 151 193 238 286 341
#
# _framework density 18.627659999999999
#
# number of rings (size 3 to 8) (size 9 to 14) (size 15 to 20)
#    0.000    1.500    3.333    2.500    0.000    4.333 
#    0.000    0.833    0.000    3.000    0.000    0.000 
#    0.000    0.000    0.000    0.000    0.000    0.000 
#
# Total GULP energy -297719.844491 kJ/mol
# GULP energy per Si atom -12404.993520 kJ/mol
# Density = 1.858526 g / cm^3
# Si number density = 18.627660 Si / 1000 Ang^3
#
#
#
# Elastic Constant Matrix: (Units=GPa)
#
#
# Indices 1 2 3 4 5 6 
#
# 1 100.0304 32.9392 53.0722 0.0000 3.4771 0.0000
# 2 32.9392 65.4212 35.1259 0.0000 5.5905 0.0000
# 3 53.0722 35.1259 119.5671 0.0000 -4.3303 0.0000
# 4 0.0000 0.0000 0.0000 25.0882 0.0000 -3.0454
# 5 3.4771 5.5905 -4.3303 0.0000 35.9767 0.0000
# 6 0.0000 0.0000 0.0000 -3.0454 0.0000 30.5818
#
#
#
# Elastic Compliance Matrix: (Units=1/GPa)
#
#
# Indices 1 2 3 4 5 6 
#
# 1 0.014142 -0.004289 -0.005065 0.000000 -0.001310 0.000000
# 2 -0.004289 0.019893 -0.004055 0.000000 -0.003165 0.000000
# 3 -0.005065 -0.004055 0.011895 0.000000 0.002551 0.000000
# 4 0.000000 0.000000 0.000000 0.040347 0.000000 0.004018
# 5 -0.001310 -0.003165 0.002551 0.000000 0.028721 0.000000
# 6 0.000000 0.000000 0.000000 0.004018 0.000000 0.033099
#
#
# Mechanical properties :
#
#
# Convention : Reuss Voigt Hill
#
# Bulk Modulus (GPa) = 52.32124 58.58812 55.45468
# Shear Modulus (GPa) = 27.58087 29.25478 28.41782
#
# Velocity S-wave (km/s) = 3.85208 3.96726 3.91009
# Velocity P-wave (km/s) = 6.92341 7.24610 7.08659
#
# Compressibility (1/GPa) = 0.01911270
#
# Stress axis : x y z
#
# Youngs Moduli (GPa) = 70.71166 50.26987 84.06830
#
# Poissons Ratio (x) = 0.21562 0.42577
# Poissons Ratio (y) = 0.30330 0.34087
# Poissons Ratio (z) = 0.35812 0.20383
#
# Static dielectric constant tensor:
#      x y z
#    x 3.504480 0.000000 0.141260 
#    y 0.000000 3.341800 0.000000 
#    z 0.141260 0.000000 3.553450 
# 
# 
# High freq. dielectric constant tensor:
#      x y z
#    x 1.721560 0.000000 0.006660 
#    y 0.000000 1.718210 0.000000 
#    z 0.006660 0.000000 1.725530 
# 
# From -- ./inp_files/172446.got.cif
#   From: 2010.06.25/outbox.cif.g09.slc.cpg/sg12_87_cif.got.tgz:172446.got - 2010.06.28 00:19:55.
