data_PCOD8090906
_publ_section_title
;
Structure prediction by ZEFSAII (Michael W. Deem and Ramdas Pophale) SiO2 
 PCOD8090906
Probable space group: C 2/M
;
_chemical_formula_sum "Si O2"
_cell_formula_units_Z 40
_cell_length_a 11.717046
_cell_length_b 15.011999
_cell_length_c 13.918706
_cell_angle_alpha 90.000000
_cell_angle_beta 52.327810
_cell_angle_gamma 90.000000
_cell_volume 1937.838407
_symmetry_space_group_name_H-M "C 2/M"
_symmetry_group_IT_number 12
_symmetry_cell_setting 'monoclinic'
loop_
_space_group_symop_operation_xyz
x,y,z
-x,y,-z
-x,-y,-z
x,-y,z
1/2+x,1/2+y,z
1/2-x,1/2+y,-z
1/2-x,1/2-y,-z
1/2+x,1/2-y,z
loop_
_atom_site_type_symbol
_atom_site_label
_atom_site_fract_x
_atom_site_fract_y
_atom_site_fract_z
Si Si1 0.752735 0.602146 0.359035
Si Si2 0.746973 0.656651 0.155510
Si Si3 0.500000 0.276810 0.000000
Si Si4 0.281495 0.401682 0.034068
Si Si5 0.548097 0.811125 0.274583
Si Si6 0.500000 0.267972 0.500000
O O1 0.748743 0.500000 0.401879
O O2 0.727499 0.592844 0.257007
O O3 0.628640 0.665519 0.466655
O O4 0.898557 0.653293 0.310657
O O5 0.881769 0.718637 0.116629
O O6 0.601621 0.714248 0.209247
O O7 0.789046 0.605172 0.036090
O O8 0.418424 0.336779 0.963785
O O9 0.339689 0.500000 0.021204
O O10 0.167798 0.381503 0.177151
O O11 0.542484 0.799897 0.392831
#
# Coordination Sequence:
#
# PCOD8090906 Si02
#       6
#     8   8   4   8   8   4
#     4  11  21  37  59  85 109 136 179 235 277 314
#     4  10  20  35  58  84 112 146 178 212 270 336
#     4  10  19  34  53  76 114 154 178 204 255 328
#     4  11  21  35  55  85 115 142 177 225 270 315
#     4  10  21  37  58  80 108 147 185 220 266 326
#     4  10  23  40  59  76 104 148 190 222 269 326
#
# _framework density 20.641556999999999
#
# number of rings (size 3 to 8) (size 9 to 14) (size 15 to 20)
#    0.000    1.600    0.000    7.200    0.000    0.000 
#    0.000    5.000    0.000    0.000    0.000    0.000 
#    0.000    0.000    0.000    0.000    0.000    0.000 
#
# Total GULP energy -247785.927158 kJ/mol
# GULP energy per Si atom -12389.296358 kJ/mol
# Density = 2.059458 g / cm^3
# Si number density = 20.641557 Si / 1000 Ang^3
#
#
#
# Elastic Constant Matrix: (Units=GPa)
#
#
# Indices 1 2 3 4 5 6 
#
# 1 82.0255 27.7095 28.4156 0.0000 -15.5044 0.0000
# 2 27.7095 76.9140 23.7581 0.0000 1.1323 0.0000
# 3 28.4156 23.7581 104.4495 0.0000 11.2452 0.0000
# 4 0.0000 0.0000 0.0000 -30.9749 0.0000 18.8145
# 5 -15.5044 1.1323 11.2452 0.0000 36.9872 0.0000
# 6 0.0000 0.0000 0.0000 18.8145 0.0000 10.0960
#
#
#
# Elastic Compliance Matrix: (Units=1/GPa)
#
#
# Indices 1 2 3 4 5 6 
#
# 1 0.017013 -0.004883 -0.004447 0.000000 0.008633 0.000000
# 2 -0.004883 0.015396 -0.001967 0.000000 -0.001920 0.000000
# 3 -0.004447 -0.001967 0.011812 0.000000 -0.005395 0.000000
# 4 0.000000 0.000000 0.000000 -0.015143 0.000000 0.028220
# 5 0.008633 -0.001920 -0.005395 0.000000 0.032354 0.000000
# 6 0.000000 0.000000 0.000000 0.028220 0.000000 0.046460
#
#
# Mechanical properties :
#
#
# Convention : Reuss Voigt Hill
#
# Bulk Modulus (GPa) = 46.23664 47.01726 46.62695
# Shear Modulus (GPa) = 36.31183 15.45538 25.88361
#
# Velocity S-wave (km/s) = 4.19879 2.73930 3.54497
# Velocity P-wave (km/s) = 6.77900 5.72996 6.27643
#
# Compressibility (1/GPa) = 0.02162787
#
# Stress axis : x y z
#
# Youngs Moduli (GPa) = 58.77762 64.94999 84.65825
#
# Poissons Ratio (x) = 0.31713 0.37650
# Poissons Ratio (y) = 0.28699 0.16653
# Poissons Ratio (z) = 0.26140 0.12776
#
# Static dielectric constant tensor:
#      x y z
#    x 3.684770 0.000000 -0.114770 
#    y 0.000000 3.627700 0.000000 
#    z -0.114770 0.000000 3.810620 
# 
# 
# High freq. dielectric constant tensor:
#      x y z
#    x 1.801250 0.000000 -0.008000 
#    y 0.000000 1.798940 0.000000 
#    z -0.008000 0.000000 1.806380 
# 
# From -- ./inp_files/204181.got.cif
#   From: 2010.06.25/outbox.cif.g09.slc.cpg/sg12_103_cif.got.tgz:204181.got - 2010.06.28 00:19:55.
