data_PCOD8090612
_publ_section_title
;
Structure prediction by ZEFSAII (Michael W. Deem and Ramdas Pophale) SiO2 
 PCOD8090612
Probable space group: C 2/M
;
_chemical_formula_sum "Si O2"
_cell_formula_units_Z 64
_cell_length_a 20.457436
_cell_length_b 8.626130
_cell_length_c 32.253065
_cell_angle_alpha 90.000000
_cell_angle_beta 143.822266
_cell_angle_gamma 90.000000
_cell_volume 3359.735657
_symmetry_space_group_name_H-M "C 2/M"
_symmetry_group_IT_number 12
_symmetry_cell_setting 'monoclinic'
loop_
_space_group_symop_operation_xyz
x,y,z
-x,y,-z
-x,-y,-z
x,-y,z
1/2+x,1/2+y,z
1/2-x,1/2+y,-z
1/2-x,1/2-y,-z
1/2+x,1/2-y,z
loop_
_atom_site_type_symbol
_atom_site_label
_atom_site_fract_x
_atom_site_fract_y
_atom_site_fract_z
Si Si1 0.135589 0.820224 0.212490
Si Si2 0.883824 0.319460 0.708101
Si Si3 0.620822 0.820147 0.792278
Si Si4 0.914539 0.320592 0.079765
Si Si5 0.911061 0.180201 0.571102
Si Si6 0.227502 0.821308 0.922220
Si Si7 0.654732 0.320237 0.721548
Si Si8 0.236640 0.819516 0.427279
O O1 0.136488 0.776490 0.260975
O O2 0.253242 0.783670 0.252742
O O3 0.042204 0.725510 0.139244
O O4 0.109944 0.000000 0.194343
O O5 0.879210 0.500000 0.716819
O O6 0.787323 0.277073 0.626428
O O7 0.001721 0.272012 0.749297
O O8 0.713748 0.782717 0.874308
O O9 0.645604 0.717066 0.765197
O O10 0.625706 0.000000 0.782643
O O11 0.903223 0.500000 0.086626
O O12 0.866296 0.218947 0.092347
O O13 0.848582 0.286720 0.003470
O O14 0.853676 0.231015 0.584715
O O15 0.858939 0.276795 0.506450
O O16 0.040150 0.219822 0.639795
O O17 0.888569 0.000000 0.551383
O O18 0.214099 0.000000 0.902959
O O19 0.684759 0.500000 0.731734
O O20 0.229726 0.000000 0.413188
#
# Coordination Sequence:
#
# PCOD8090612 Si02
#       8
#     8   8   8   8   8   8   8   8
#     4  12  25  40  60  86 119 156 197 241 293 351
#     4  11  22  37  59  87 119 154 195 242 289 341
#     4  11  22  36  59  89 120 152 195 244 289 343
#     4  10  20  36  57  85 118 154 194 237 292 347
#     4   9  19  35  56  84 116 153 190 232 290 348
#     4  10  20  34  58  88 118 151 192 243 291 341
#     4  11  23  41  62  84 119 158 196 239 292 354
#     4  10  19  33  57  88 118 149 190 241 289 339
#
# _framework density 19.049118
#
# number of rings (size 3 to 8) (size 9 to 14) (size 15 to 20)
#    0.000    1.500    2.500    3.375    0.000    4.000 
#    0.000    1.250    0.000    7.500    0.000    0.000 
#    0.000    0.000    0.000    0.000    0.000    0.000 
#
# Total GULP energy -396978.905316 kJ/mol
# GULP energy per Si atom -12405.590791 kJ/mol
# Density = 1.900576 g / cm^3
# Si number density = 19.049118 Si / 1000 Ang^3
#
#
#
# Elastic Constant Matrix: (Units=GPa)
#
#
# Indices 1 2 3 4 5 6 
#
# 1 69.6556 18.6071 38.0079 -0.0002 3.0641 0.0003
# 2 18.6071 48.6703 30.1321 -0.0003 -2.8856 0.0003
# 3 38.0079 30.1321 124.5292 -0.0002 -2.8771 0.0004
# 4 -0.0002 -0.0003 -0.0002 34.4002 0.0000 -2.2077
# 5 3.0641 -2.8856 -2.8771 0.0000 25.1209 -0.0002
# 6 0.0003 0.0003 0.0004 -2.2077 -0.0002 29.7164
#
#
#
# Elastic Compliance Matrix: (Units=1/GPa)
#
#
# Indices 1 2 3 4 5 6 
#
# 1 0.018141 -0.004296 -0.004572 0.000000 -0.003230 0.000000
# 2 -0.004296 0.025297 -0.004743 0.000000 0.002887 0.000000
# 3 -0.004572 -0.004743 0.010602 0.000000 0.001227 0.000000
# 4 0.000000 0.000000 0.000000 0.029209 0.000000 0.002170
# 5 -0.003230 0.002887 0.001227 0.000000 0.040673 0.000000
# 6 0.000000 0.000000 0.000000 0.002170 0.000000 0.033813
#
#
# Mechanical properties :
#
#
# Convention : Reuss Voigt Hill
#
# Bulk Modulus (GPa) = 37.29043 46.26102 41.77572
# Shear Modulus (GPa) = 25.78715 28.25471 27.02093
#
# Velocity S-wave (km/s) = 3.68328 3.85548 3.77037
# Velocity P-wave (km/s) = 6.14062 6.64511 6.39784
#
# Compressibility (1/GPa) = 0.02681653
#
# Stress axis : x y z
#
# Youngs Moduli (GPa) = 55.12455 39.53112 94.32529
#
# Poissons Ratio (x) = 0.16984 0.43124
# Poissons Ratio (y) = 0.23684 0.44738
# Poissons Ratio (z) = 0.25202 0.18749
#
# Static dielectric constant tensor:
#      x y z
#    x 3.284870 0.000000 0.017240 
#    y 0.000000 3.481870 0.000000 
#    z 0.017240 0.000000 3.696820 
# 
# 
# High freq. dielectric constant tensor:
#      x y z
#    x 1.707130 0.000000 -0.005930 
#    y 0.000000 1.751460 0.000000 
#    z -0.005930 0.000000 1.756250 
# 
# From -- ./inp_files/378269.got.cif
#   From: 2010.06.25/outbox.cif.g09.slc.cpg/sg12_190_cif.got.tgz:378269.got - 2010.06.28 00:19:55.
