data_PCOD8090850
_publ_section_title
;
Structure prediction by ZEFSAII (Michael W. Deem and Ramdas Pophale) SiO2 
 PCOD8090850
Probable space group: C 2/M
;
_chemical_formula_sum "Si O2"
_cell_formula_units_Z 56
_cell_length_a 25.446527
_cell_length_b 9.001889
_cell_length_c 18.512871
_cell_angle_alpha 90.000000
_cell_angle_beta 42.662124
_cell_angle_gamma 90.000000
_cell_volume 2873.800235
_symmetry_space_group_name_H-M "C 2/M"
_symmetry_group_IT_number 12
_symmetry_cell_setting 'monoclinic'
loop_
_space_group_symop_operation_xyz
x,y,z
-x,y,-z
-x,-y,-z
x,-y,z
1/2+x,1/2+y,z
1/2-x,1/2+y,-z
1/2-x,1/2-y,-z
1/2+x,1/2-y,z
loop_
_atom_site_type_symbol
_atom_site_label
_atom_site_fract_x
_atom_site_fract_y
_atom_site_fract_z
Si Si1 0.208753 0.174941 0.703712
Si Si2 0.925202 0.174891 0.262725
Si Si3 0.223912 0.175796 0.849544
Si Si4 0.345381 0.329890 0.487189
Si Si5 0.599765 0.676398 0.089992
Si Si6 0.503670 0.669859 0.578022
Si Si7 0.869366 0.324026 0.794866
O O1 0.122850 0.214869 0.760912
O O2 0.218486 0.243895 0.774142
O O3 0.270166 0.238973 0.585401
O O4 0.221262 0.000000 0.692894
O O5 0.881069 0.239343 0.377628
O O6 0.012306 0.239236 0.168783
O O7 0.932579 0.000000 0.266478
O O8 0.300922 0.234740 0.811729
O O9 0.227516 0.000000 0.840044
O O10 0.147687 0.224436 0.970762
O O11 0.320478 0.500000 0.500477
O O12 0.407886 0.314846 0.487454
O O13 0.601320 0.500000 0.099690
O O14 0.641586 0.750570 0.116027
O O15 0.500000 0.726160 0.500000
O O16 0.474400 0.500000 0.615550
O O17 0.451361 0.775312 0.679690
O O18 0.866562 0.500000 0.806312
#
# Coordination Sequence:
#
# PCOD8090850 Si02
#       7
#     8   8   8   8   8   8   8
#     4  10  20  35  54  80 108 138 175 218 270 319
#     4   9  18  33  56  80 104 135 179 224 260 310
#     4   9  20  35  54  80 109 138 175 220 267 316
#     4  10  19  34  52  77 108 138 178 217 255 314
#     4  10  19  37  59  77 104 143 179 220 263 308
#     4  10  20  34  54  78 107 145 182 215 258 316
#     4  11  21  34  52  80 112 139 174 220 265 316
#
# _framework density 19.486391999999999
#
# number of rings (size 3 to 8) (size 9 to 14) (size 15 to 20)
#    0.000    2.143    1.429    2.143    0.000    1.429 
#    0.000    5.714    0.000    0.000    0.000    2.000 
#    0.000    0.000    0.000    0.000    0.000    0.000 
#
# Total GULP energy -347223.521026 kJ/mol
# GULP energy per Si atom -12400.840037 kJ/mol
# Density = 1.944204 g / cm^3
# Si number density = 19.486392 Si / 1000 Ang^3
#
#
#
# Elastic Constant Matrix: (Units=GPa)
#
#
# Indices 1 2 3 4 5 6 
#
# 1 105.4255 20.4999 33.0511 0.0119 0.0868 -0.0065
# 2 20.4999 31.3090 17.4020 0.0225 -1.5286 -0.0164
# 3 33.0511 17.4020 96.1932 0.0138 -3.2906 -0.0103
# 4 0.0119 0.0225 0.0138 20.7160 -0.0100 3.2577
# 5 0.0868 -1.5286 -3.2906 -0.0100 29.3498 0.0039
# 6 -0.0065 -0.0164 -0.0103 3.2577 0.0039 20.1327
#
#
#
# Elastic Compliance Matrix: (Units=1/GPa)
#
#
# Indices 1 2 3 4 5 6 
#
# 1 0.011563 -0.005985 -0.002913 0.000002 -0.000672 -0.000003
# 2 -0.005985 0.038645 -0.004884 -0.000040 0.001483 0.000033
# 3 -0.002913 -0.004884 0.012319 -0.000001 0.001135 0.000001
# 4 0.000002 -0.000040 -0.000001 0.049532 0.000016 -0.008015
# 5 -0.000672 0.001483 0.001135 0.000016 0.034278 -0.000008
# 6 -0.000003 0.000033 0.000001 -0.008015 -0.000008 0.050967
#
#
# Mechanical properties :
#
#
# Convention : Reuss Voigt Hill
#
# Bulk Modulus (GPa) = 28.60146 41.64820 35.12483
# Shear Modulus (GPa) = 21.13952 24.83802 22.98877
#
# Velocity S-wave (km/s) = 3.29726 3.57408 3.43845
# Velocity P-wave (km/s) = 5.40420 6.20092 5.81622
#
# Compressibility (1/GPa) = 0.03496324
#
# Stress axis : x y z
#
# Youngs Moduli (GPa) = 86.48327 25.87640 81.17447
#
# Poissons Ratio (x) = 0.15486 0.23648
# Poissons Ratio (y) = 0.51756 0.39647
# Poissons Ratio (z) = 0.25195 0.12639
#
# Static dielectric constant tensor:
#      x y z
#    x 3.859490 0.000000 0.102330 
#    y 0.000000 3.170320 0.000000 
#    z 0.102330 0.000000 3.651840 
# 
# 
# High freq. dielectric constant tensor:
#      x y z
#    x 1.774630 0.000000 0.001840 
#    y 0.000000 1.716700 0.000000 
#    z 0.001840 0.000000 1.763520 
# 
# From -- ./inp_files/288148.got.cif
#   From: 2010.06.25/outbox.cif.g09.slc.cpg/sg12_145_cif.got.tgz:288148.got - 2010.06.28 00:19:55.
