data_PCOD8090861
_publ_section_title
;
Structure prediction by ZEFSAII (Michael W. Deem and Ramdas Pophale) SiO2 
 PCOD8090861
Probable space group: C 2/M
;
_chemical_formula_sum "Si O2"
_cell_formula_units_Z 48
_cell_length_a 29.398200
_cell_length_b 19.159189
_cell_length_c 16.404423
_cell_angle_alpha 90.000000
_cell_angle_beta 17.956463
_cell_angle_gamma 90.000000
_cell_volume 2848.552447
_symmetry_space_group_name_H-M "C 2/M"
_symmetry_group_IT_number 12
_symmetry_cell_setting 'monoclinic'
loop_
_space_group_symop_operation_xyz
x,y,z
-x,y,-z
-x,-y,-z
x,-y,z
1/2+x,1/2+y,z
1/2-x,1/2+y,-z
1/2-x,1/2-y,-z
1/2+x,1/2-y,z
loop_
_atom_site_type_symbol
_atom_site_label
_atom_site_fract_x
_atom_site_fract_y
_atom_site_fract_z
Si Si1 0.050917 0.083101 0.326373
Si Si2 0.668623 0.329480 0.724252
Si Si3 0.191861 0.919279 0.837008
Si Si4 0.889175 0.919108 0.441749
Si Si5 0.330982 0.833120 0.282049
Si Si6 0.841269 0.582674 0.747547
O O1 0.000000 0.114656 0.500000
O O2 0.933915 0.105352 0.456466
O O3 0.057874 0.000000 0.317985
O O4 0.213830 0.112020 0.025246
O O5 0.735046 0.371701 0.686903
O O6 0.685440 0.247728 0.713067
O O7 0.757834 0.351782 0.492630
O O8 0.500000 0.351426 0.000000
O O9 0.303156 0.897972 0.719566
O O10 0.211825 0.000000 0.778820
O O11 0.024603 0.904654 0.149898
O O12 0.746983 0.875700 0.657018
O O13 0.845901 0.000000 0.514856
O O14 0.500000 0.856163 0.000000
O O15 0.845626 0.500000 0.749801
O O16 0.000000 0.615749 0.500000
#
# Coordination Sequence:
#
# PCOD8090861 Si02
#       6
#     8   8   8   8   8   8
#     4   8  14  26  45  67  92 125 156 181 226 289
#     4  10  19  34  53  69  91 129 167 193 231 291
#     4   9  17  30  52  77  94 121 164 200 234 277
#     4   9  17  31  51  73  98 126 158 198 238 278
#     4  10  21  34  48  70  98 128 160 195 239 285
#     4   8  14  26  44  68  97 120 146 192 238 274
#
# _framework density 16.850663999999998
#
# number of rings (size 3 to 8) (size 9 to 14) (size 15 to 20)
#    0.000    3.000    1.667    2.000    0.000    1.333 
#    3.000    0.000    0.000    1.000    0.000    4.667 
#    0.000    0.000    0.000    0.000    0.000    0.000 
#
# Total GULP energy -297541.056677 kJ/mol
# GULP energy per Si atom -12397.544028 kJ/mol
# Density = 1.681231 g / cm^3
# Si number density = 16.850664 Si / 1000 Ang^3
#
#
#
# Elastic Constant Matrix: (Units=GPa)
#
#
# Indices 1 2 3 4 5 6 
#
# 1 147.6524 49.0900 85.5465 -0.0014 -1.0700 -0.0071
# 2 49.0900 35.3895 32.9700 -0.0051 -1.1534 -0.0030
# 3 85.5465 32.9700 121.7812 -0.0024 -7.4708 -0.0046
# 4 -0.0014 -0.0051 -0.0024 11.8443 0.0009 1.5071
# 5 -1.0700 -1.1534 -7.4708 0.0009 32.3920 0.0067
# 6 -0.0071 -0.0030 -0.0046 1.5071 0.0067 3.2263
#
#
#
# Elastic Compliance Matrix: (Units=1/GPa)
#
#
# Indices 1 2 3 4 5 6 
#
# 1 0.016180 -0.015798 -0.007192 -0.000009 -0.001687 0.000019
# 2 -0.015798 0.053247 -0.003280 0.000020 0.000618 -0.000002
# 3 -0.007192 -0.003280 0.014333 0.000001 0.002951 -0.000005
# 4 -0.000009 0.000020 0.000001 0.089764 0.000007 -0.041930
# 5 -0.001687 0.000618 0.002951 0.000007 0.031519 -0.000067
# 6 0.000019 -0.000002 -0.000005 -0.041930 -0.000067 0.329535
#
#
# Mechanical properties :
#
#
# Convention : Reuss Voigt Hill
#
# Bulk Modulus (GPa) = 32.03201 71.11511 51.57356
# Shear Modulus (GPa) = 8.36785 18.64030 13.50408
#
# Velocity S-wave (km/s) = 2.23085 3.32957 2.83397
# Velocity P-wave (km/s) = 5.06815 7.55488 6.43282
#
# Compressibility (1/GPa) = 0.03121877
#
# Stress axis : x y z
#
# Youngs Moduli (GPa) = 61.80561 18.78034 69.77043
#
# Poissons Ratio (x) = 0.29669 0.50179
# Poissons Ratio (y) = 0.97641 0.22887
# Poissons Ratio (z) = 0.44451 0.06160
#
# Static dielectric constant tensor:
#      x y z
#    x 3.236480 0.000000 0.000440 
#    y 0.000000 2.753710 0.000010 
#    z 0.000440 0.000010 3.342590 
# 
# 
# High freq. dielectric constant tensor:
#      x y z
#    x 1.656650 0.000000 -0.001180 
#    y 0.000000 1.607840 0.000000 
#    z -0.001180 0.000000 1.645540 
# 
# From -- ./inp_files/177682.got.cif
#   From: 2010.06.25/outbox.cif.g09.slc.cpg/sg12_89_cif.got.tgz:177682.got - 2010.06.28 00:19:55.
