data_PCOD8090029
_publ_section_title
;
Structure prediction by ZEFSAII (Michael W. Deem and Ramdas Pophale) SiO2 
 PCOD8090029
Probable space group: C 2/M
;
_chemical_formula_sum "Si O2"
_cell_formula_units_Z 56
_cell_length_a 21.138279
_cell_length_b 9.530319
_cell_length_c 29.912801
_cell_angle_alpha 90.000000
_cell_angle_beta 29.834223
_cell_angle_gamma 90.000000
_cell_volume 2997.922588
_symmetry_space_group_name_H-M "C 2/M"
_symmetry_group_IT_number 12
_symmetry_cell_setting 'monoclinic'
loop_
_space_group_symop_operation_xyz
x,y,z
-x,y,-z
-x,-y,-z
x,-y,z
1/2+x,1/2+y,z
1/2-x,1/2+y,-z
1/2-x,1/2-y,-z
1/2+x,1/2-y,z
loop_
_atom_site_type_symbol
_atom_site_label
_atom_site_fract_x
_atom_site_fract_y
_atom_site_fract_z
Si Si1 0.486099 0.164542 0.458897
Si Si2 0.944836 0.838103 0.082957
Si Si3 0.470371 0.341057 0.723906
Si Si4 0.744092 0.839895 0.459274
Si Si5 0.654203 0.163219 0.274499
Si Si6 0.919140 0.342457 0.927208
Si Si7 0.122641 0.843170 0.125693
O O1 0.500000 0.233451 0.500000
O O2 0.359892 0.223492 0.511454
O O3 0.610856 0.197547 0.352034
O O4 0.467634 0.000000 0.476492
O O5 0.798512 0.789775 0.176829
O O6 0.025574 0.739226 0.064905
O O7 0.960062 0.000000 0.088416
O O8 0.000000 0.814611 0.000000
O O9 0.432151 0.500000 0.734445
O O10 0.617618 0.332325 0.647986
O O11 0.440506 0.243863 0.700237
O O12 0.391339 0.287586 0.815196
O O13 0.750000 0.750000 0.500000
O O14 0.707399 0.000000 0.494376
O O15 0.637236 0.000000 0.274398
O O16 0.975464 0.500000 0.890513
O O17 0.954176 0.259833 0.860306
O O18 0.769020 0.347625 0.023725
O O19 0.063779 0.000000 0.157709
#
# Coordination Sequence:
#
# PCOD8090029 Si02
#       7
#     8   8   8   8   8   8   8
#     4   9  18  33  53  78 106 138 179 221 264 319
#     4  10  21  35  52  76 106 141 180 220 266 321
#     4  10  20  33  54  81 106 137 176 219 271 322
#     4  10  19  33  55  80 106 137 173 219 270 319
#     4  10  20  34  54  77 103 140 179 222 270 317
#     4  10  20  34  53  76 105 141 178 220 270 315
#     4   9  19  35  53  76 106 139 176 218 265 320
#
# _framework density 18.679601000000002
#
# number of rings (size 3 to 8) (size 9 to 14) (size 15 to 20)
#    0.000    2.286    1.429    1.286    0.000    3.143 
#    0.000    4.286    0.000    1.714    0.000    0.000 
#    0.000    0.000    0.000    0.000    0.000    0.000 
#
# Total GULP energy -347149.472794 kJ/mol
# GULP energy per Si atom -12398.195457 kJ/mol
# Density = 1.863709 g / cm^3
# Si number density = 18.679601 Si / 1000 Ang^3
#
#
#
# Elastic Constant Matrix: (Units=GPa)
#
#
# Indices 1 2 3 4 5 6 
#
# 1 126.9188 56.8073 30.0262 -0.0423 18.8985 -0.0575
# 2 56.8073 74.7076 20.7435 -0.0154 6.1726 -0.0328
# 3 30.0262 20.7435 68.7785 -0.0250 19.1958 -0.0400
# 4 -0.0423 -0.0154 -0.0250 16.5271 0.0147 2.1846
# 5 18.8985 6.1726 19.1958 0.0147 28.6874 0.0257
# 6 -0.0575 -0.0328 -0.0400 2.1846 0.0257 39.5536
#
#
#
# Elastic Compliance Matrix: (Units=1/GPa)
#
#
# Indices 1 2 3 4 5 6 
#
# 1 0.013159 -0.009147 -0.001372 0.000027 -0.005783 0.000012
# 2 -0.009147 0.020969 -0.003386 -0.000012 0.003780 -0.000001
# 3 -0.001372 -0.003386 0.019310 0.000030 -0.011289 0.000020
# 4 0.000027 -0.000012 0.000030 0.060952 -0.000063 -0.003366
# 5 -0.005783 0.003780 -0.011289 -0.000063 0.045408 -0.000043
# 6 0.000012 -0.000001 0.000020 -0.003366 -0.000043 0.025468
#
#
# Mechanical properties :
#
#
# Convention : Reuss Voigt Hill
#
# Bulk Modulus (GPa) = 39.01978 53.95098 46.48538
# Shear Modulus (GPa) = 22.56126 27.80881 25.18504
#
# Velocity S-wave (km/s) = 3.47912 3.86259 3.67586
# Velocity P-wave (km/s) = 6.08879 6.98840 6.55405
#
# Compressibility (1/GPa) = 0.02562803
#
# Stress axis : x y z
#
# Youngs Moduli (GPa) = 75.99441 47.68988 51.78606
#
# Poissons Ratio (x) = 0.43623 0.07105
# Poissons Ratio (y) = 0.69514 0.17533
# Poissons Ratio (z) = 0.10427 0.16146
#
# Static dielectric constant tensor:
#      x y z
#    x 3.470790 0.000010 0.015070 
#    y 0.000010 3.429810 0.000010 
#    z 0.015070 0.000010 3.621130 
# 
# 
# High freq. dielectric constant tensor:
#      x y z
#    x 1.721980 0.000000 0.005220 
#    y 0.000000 1.707470 0.000000 
#    z 0.005220 0.000000 1.729490 
# 
# From -- ./inp_files/380654.got.cif
#   From: 2010.06.25/outbox.cif.g09.slc.cpg/sg12_191_cif.got.tgz:380654.got - 2010.06.28 00:19:55.
