data_PCOD8090801
_publ_section_title
;
Structure prediction by ZEFSAII (Michael W. Deem and Ramdas Pophale) SiO2 
 PCOD8090801
Probable space group: C 2/M
;
_chemical_formula_sum "Si O2"
_cell_formula_units_Z 40
_cell_length_a 19.183673
_cell_length_b 25.332521
_cell_length_c 9.602045
_cell_angle_alpha 90.000000
_cell_angle_beta 30.992291
_cell_angle_gamma 90.000000
_cell_volume 2402.790927
_symmetry_space_group_name_H-M "C 2/M"
_symmetry_group_IT_number 12
_symmetry_cell_setting 'monoclinic'
loop_
_space_group_symop_operation_xyz
x,y,z
-x,y,-z
-x,-y,-z
x,-y,z
1/2+x,1/2+y,z
1/2-x,1/2+y,-z
1/2-x,1/2-y,-z
1/2+x,1/2-y,z
loop_
_atom_site_type_symbol
_atom_site_label
_atom_site_fract_x
_atom_site_fract_y
_atom_site_fract_z
Si Si1 0.181789 0.500000 0.309909
Si Si2 0.851325 0.187078 0.212261
Si Si3 0.382639 0.885331 0.897290
Si Si4 0.896282 0.500000 0.875446
Si Si5 0.144564 0.690530 0.810393
Si Si6 0.695103 0.114032 0.280463
O O1 0.123541 0.500000 0.255030
O O2 0.260327 0.555416 0.197351
O O3 0.056350 0.500000 0.631821
O O4 0.853080 0.247585 0.159921
O O5 0.757941 0.176337 0.504675
O O6 0.797110 0.155288 0.173134
O O7 0.000000 0.167666 0.000000
O O8 0.338565 0.943975 0.031785
O O9 0.310491 0.873977 0.874057
O O10 0.544907 0.881899 0.602602
O O11 0.326257 0.841568 0.098944
O O12 0.000000 0.672552 0.000000
#
# Coordination Sequence:
#
# PCOD8090801 Si02
#       6
#     4   8   8   4   8   8
#     4   7  12  24  46  71 100 125 152 191 246 292
#     4  10  21  34  49  68 100 135 163 196 246 292
#     4   9  16  29  53  76  98 122 163 206 240 283
#     4   7  12  24  44  76 100 118 148 204 253 274
#     4  10  19  34  51  70  96 132 167 202 241 284
#     4   9  16  30  51  76  98 127 161 200 241 287
#
# _framework density 16.647307999999999
#
# number of rings (size 3 to 8) (size 9 to 14) (size 15 to 20)
#    0.000    3.000    2.000    2.400    0.000    0.800 
#    0.000    3.000    0.000    0.000    0.000    4.200 
#    0.000    0.000    0.000    0.000    0.000    0.000 
#
# Total GULP energy -247772.971192 kJ/mol
# GULP energy per Si atom -12388.648560 kJ/mol
# Density = 1.660942 g / cm^3
# Si number density = 16.647308 Si / 1000 Ang^3
#
#
#
# Elastic Constant Matrix: (Units=GPa)
#
#
# Indices 1 2 3 4 5 6 
#
# 1 97.6173 73.3792 40.3886 0.0017 -1.3778 0.0016
# 2 73.3792 112.4512 41.3853 0.0008 9.6868 -0.0024
# 3 40.3886 41.3853 67.7020 0.0056 -1.7145 -0.0074
# 4 0.0017 0.0008 0.0056 13.7414 -0.0023 -0.8575
# 5 -1.3778 9.6868 -1.7145 -0.0023 23.2693 -0.0011
# 6 0.0016 -0.0024 -0.0074 -0.8575 -0.0011 15.6526
#
#
#
# Elastic Compliance Matrix: (Units=1/GPa)
#
#
# Indices 1 2 3 4 5 6 
#
# 1 0.022483 -0.013364 -0.005078 0.000001 0.006520 -0.000006
# 2 -0.013364 0.020110 -0.004561 0.000001 -0.009499 0.000002
# 3 -0.005078 -0.004561 0.020667 -0.000006 0.003121 0.000009
# 4 0.000001 0.000001 -0.000006 0.073022 0.000007 0.004000
# 5 0.006520 -0.009499 0.003121 0.000007 0.047545 0.000003
# 6 -0.000006 0.000002 0.000009 0.004000 0.000003 0.064107
#
#
# Mechanical properties :
#
#
# Convention : Reuss Voigt Hill
#
# Bulk Modulus (GPa) = 57.95820 65.34183 61.65002
# Shear Modulus (GPa) = 16.68381 18.70716 17.69548
#
# Velocity S-wave (km/s) = 3.16918 3.35585 3.26385
# Velocity P-wave (km/s) = 6.94856 7.37235 7.16359
#
# Compressibility (1/GPa) = 0.01725381
#
# Stress axis : x y z
#
# Youngs Moduli (GPa) = 44.47868 49.72653 48.38540
#
# Poissons Ratio (x) = 0.66453 0.24571
# Poissons Ratio (y) = 0.59440 0.22070
# Poissons Ratio (z) = 0.22587 0.22681
#
# Static dielectric constant tensor:
#      x y z
#    x 2.886370 0.000000 0.022950 
#    y 0.000000 3.444400 0.000010 
#    z 0.022950 0.000010 2.818610 
# 
# 
# High freq. dielectric constant tensor:
#      x y z
#    x 1.621140 0.000000 0.007780 
#    y 0.000000 1.656770 0.000000 
#    z 0.007780 0.000000 1.602790 
# 
# From -- ./inp_files/49970.got.cif
#   From: 2010.06.25/outbox.cif.g09.slc.cpg/sg12_25_cif.got.tgz:49970.got - 2010.06.28 00:19:55.
