data_PCOD8090526
_publ_section_title
;
Structure prediction by ZEFSAII (Michael W. Deem and Ramdas Pophale) SiO2 
 PCOD8090526
Probable space group: C 2/M
;
_chemical_formula_sum "Si O2"
_cell_formula_units_Z 48
_cell_length_a 14.168869
_cell_length_b 23.080507
_cell_length_c 11.482729
_cell_angle_alpha 90.000000
_cell_angle_beta 136.547878
_cell_angle_gamma 90.000000
_cell_volume 2582.587841
_symmetry_space_group_name_H-M "C 2/M"
_symmetry_group_IT_number 12
_symmetry_cell_setting 'monoclinic'
loop_
_space_group_symop_operation_xyz
x,y,z
-x,y,-z
-x,-y,-z
x,-y,z
1/2+x,1/2+y,z
1/2-x,1/2+y,-z
1/2-x,1/2-y,-z
1/2+x,1/2-y,z
loop_
_atom_site_type_symbol
_atom_site_label
_atom_site_fract_x
_atom_site_fract_y
_atom_site_fract_z
Si Si1 0.486158 0.194339 0.125036
Si Si2 0.850120 0.104193 0.388847
Si Si3 0.131031 0.500000 0.955629
Si Si4 0.675772 0.000000 0.271205
Si Si5 0.740758 0.381169 0.948390
Si Si6 0.488232 0.669068 0.856289
Si Si7 0.240865 0.182691 0.511593
O O1 0.481233 0.263229 0.134990
O O2 0.607427 0.163679 0.310050
O O3 0.500000 0.177276 0.000000
O O4 0.351236 0.169585 0.066921
O O5 0.762655 0.056954 0.383585
O O6 0.778276 0.119600 0.205615
O O7 0.860300 0.163396 0.473712
O O8 0.000000 0.078151 0.500000
O O9 0.157164 0.500000 0.116164
O O10 0.199364 0.443458 0.957854
O O11 0.967281 0.500000 0.787281
O O12 0.599911 0.368898 0.888549
O O13 0.332349 0.655573 0.669873
O O14 0.500000 0.650493 0.000000
O O15 0.250000 0.250000 0.500000
#
# Coordination Sequence:
#
# PCOD8090526 Si02
#       7
#     8   8   4   4   8   8   8
#     4  10  19  33  57  83 109 144 180 227 285 334
#     4  11  19  32  55  85 116 142 179 231 285 338
#     4   9  20  32  53  83 111 142 178 227 283 342
#     4   9  19  32  52  83 117 139 171 225 298 344
#     4  11  20  35  57  82 113 144 186 227 281 337
#     4  10  22  38  53  77 113 151 192 229 268 324
#     4  10  20  35  52  79 115 146 181 226 276 328
#
# _framework density 18.586008
#
# number of rings (size 3 to 8) (size 9 to 14) (size 15 to 20)
#    0.000    1.833    3.333    1.750    2.333    0.000 
#    0.000    1.250    0.000    0.000    0.000    2.333 
#    0.000    0.000    0.000    0.000    0.000    0.000 
#
# Total GULP energy -297335.216220 kJ/mol
# GULP energy per Si atom -12388.967343 kJ/mol
# Density = 1.854371 g / cm^3
# Si number density = 18.586008 Si / 1000 Ang^3
#
#
#
# Elastic Constant Matrix: (Units=GPa)
#
#
# Indices 1 2 3 4 5 6 
#
# 1 63.5509 45.9653 40.0126 0.0000 8.4005 0.0000
# 2 45.9653 87.5084 29.2357 0.0000 6.3402 0.0000
# 3 40.0126 29.2357 130.6294 0.0000 11.9949 0.0000
# 4 0.0000 0.0000 0.0000 16.3436 0.0000 8.8305
# 5 8.4005 6.3402 11.9949 0.0000 31.6038 0.0000
# 6 0.0000 0.0000 0.0000 8.8305 0.0000 32.9382
#
#
#
# Elastic Compliance Matrix: (Units=1/GPa)
#
#
# Indices 1 2 3 4 5 6 
#
# 1 0.029352 -0.013284 -0.005746 0.000000 -0.002956 0.000000
# 2 -0.013284 0.018430 -0.000042 0.000000 -0.000150 0.000000
# 3 -0.005746 -0.000042 0.009619 0.000000 -0.002115 0.000000
# 4 0.000000 0.000000 0.000000 0.071550 0.000000 -0.019182
# 5 -0.002956 -0.000150 -0.002115 0.000000 0.033260 0.000000
# 6 0.000000 0.000000 0.000000 -0.019182 0.000000 0.035503
#
#
# Mechanical properties :
#
#
# Convention : Reuss Voigt Hill
#
# Bulk Modulus (GPa) = 51.92956 56.90176 54.41566
# Shear Modulus (GPa) = 20.63753 27.27546 23.95649
#
# Velocity S-wave (km/s) = 3.33585 3.83499 3.59409
# Velocity P-wave (km/s) = 6.54507 7.09164 6.82383
#
# Compressibility (1/GPa) = 0.01925686
#
# Stress axis : x y z
#
# Youngs Moduli (GPa) = 34.06933 54.25970 103.96111
#
# Poissons Ratio (x) = 0.72077 0.59739
# Poissons Ratio (y) = 0.45256 0.00437
# Poissons Ratio (z) = 0.19577 0.00228
#
# Static dielectric constant tensor:
#      x y z
#    x 3.175830 0.000000 0.207600 
#    y 0.000000 3.470240 0.000000 
#    z 0.207600 0.000000 3.916030 
# 
# 
# High freq. dielectric constant tensor:
#      x y z
#    x 1.685330 0.000000 0.025740 
#    y 0.000000 1.715190 0.000000 
#    z 0.025740 0.000000 1.733010 
# 
# From -- ./inp_files/135563.got.cif
#   From: 2010.06.25/outbox.cif.g09.slc.cpg/sg12_68_cif.got.tgz:135563.got - 2010.06.28 00:19:55.
