data_PCOD8090884
_publ_section_title
;
Structure prediction by ZEFSAII (Michael W. Deem and Ramdas Pophale) SiO2 
 PCOD8090884
Probable space group: C 2/M
;
_chemical_formula_sum "Si O2"
_cell_formula_units_Z 48
_cell_length_a 16.648290
_cell_length_b 13.071186
_cell_length_c 12.890500
_cell_angle_alpha 90.000000
_cell_angle_beta 69.559026
_cell_angle_gamma 90.000000
_cell_volume 2628.506364
_symmetry_space_group_name_H-M "C 2/M"
_symmetry_group_IT_number 12
_symmetry_cell_setting 'monoclinic'
loop_
_space_group_symop_operation_xyz
x,y,z
-x,y,-z
-x,-y,-z
x,-y,z
1/2+x,1/2+y,z
1/2-x,1/2+y,-z
1/2-x,1/2-y,-z
1/2+x,1/2-y,z
loop_
_atom_site_type_symbol
_atom_site_label
_atom_site_fract_x
_atom_site_fract_y
_atom_site_fract_z
Si Si1 0.100427 0.616984 0.464740
Si Si2 0.351098 0.882393 0.326296
Si Si3 0.163087 0.205459 0.083662
Si Si4 0.719177 0.247647 0.270406
Si Si5 0.367113 0.384031 0.110451
Si Si6 0.010210 0.294767 0.882960
O O1 0.128477 0.500000 0.430405
O O2 0.127593 0.651751 0.567149
O O3 0.142199 0.692500 0.363403
O O4 0.000000 0.629765 0.500000
O O5 0.269902 0.817620 0.327419
O O6 0.433484 0.865241 0.216614
O O7 0.325027 0.000000 0.332528
O O8 0.181812 0.177906 0.195640
O O9 0.084475 0.286034 0.122833
O O10 0.250000 0.250000 0.000000
O O11 0.135354 0.116485 0.015349
O O12 0.778456 0.159242 0.195355
O O13 0.380840 0.500000 0.141857
O O14 0.444911 0.316110 0.119815
O O15 0.000000 0.348845 0.000000
#
# Coordination Sequence:
#
# PCOD8090884 Si02
#       6
#     8   8   8   8   8   8
#     4  10  20  34  55  79 100 128 168 210 251 297
#     4  10  21  35  51  74 101 132 171 210 250 297
#     4   9  18  31  47  70 100 130 162 200 245 295
#     4  10  19  34  53  74 104 135 163 204 255 301
#     4   9  18  32  52  76 101 132 170 207 243 291
#     4   9  18  33  51  72 101 134 169 207 249 293
#
# _framework density 18.261322
#
# number of rings (size 3 to 8) (size 9 to 14) (size 15 to 20)
#    0.000    2.500    0.000    3.000    0.000    4.000 
#    0.000    3.333    0.000    1.500    0.000    0.000 
#    0.000    0.000    0.000    0.000    0.000    0.000 
#
# Total GULP energy -297419.994009 kJ/mol
# GULP energy per Si atom -12392.499750 kJ/mol
# Density = 1.821976 g / cm^3
# Si number density = 18.261322 Si / 1000 Ang^3
#
#
#
# Elastic Constant Matrix: (Units=GPa)
#
#
# Indices 1 2 3 4 5 6 
#
# 1 97.9588 18.4217 34.8559 0.0000 10.8394 0.0000
# 2 18.4217 61.3243 36.2138 0.0000 6.2806 0.0000
# 3 34.8559 36.2138 106.7127 0.0000 10.6818 0.0000
# 4 0.0000 0.0000 0.0000 8.7556 0.0000 14.6231
# 5 10.8394 6.2806 10.6818 0.0000 38.1095 0.0000
# 6 0.0000 0.0000 0.0000 14.6231 0.0000 2.0793
#
#
#
# Elastic Compliance Matrix: (Units=1/GPa)
#
#
# Indices 1 2 3 4 5 6 
#
# 1 0.011854 -0.001472 -0.003147 0.000000 -0.002247 0.000000
# 2 -0.001472 0.020656 -0.006410 0.000000 -0.001189 0.000000
# 3 -0.003147 -0.006410 0.012736 0.000000 -0.001618 0.000000
# 4 0.000000 0.000000 0.000000 -0.010628 0.000000 0.074749
# 5 -0.002247 -0.001189 -0.001618 0.000000 0.027529 0.000000
# 6 0.000000 0.000000 0.000000 0.074749 0.000000 -0.044756
#
#
# Mechanical properties :
#
#
# Convention : Reuss Voigt Hill
#
# Bulk Modulus (GPa) = 43.12738 49.44206 46.28472
# Shear Modulus (GPa) = 105.98086 21.55583 63.76834
#
# Velocity S-wave (km/s) = 7.62638 3.43944 5.91572
# Velocity P-wave (km/s) = 10.06067 6.55030 8.48892
#
# Compressibility (1/GPa) = 0.02318712
#
# Stress axis : x y z
#
# Youngs Moduli (GPa) = 84.36172 48.41215 78.51619
#
# Poissons Ratio (x) = 0.07127 0.24712
# Poissons Ratio (y) = 0.12419 0.50328
# Poissons Ratio (z) = 0.26552 0.31032
#
# Static dielectric constant tensor:
#      x y z
#    x 3.514300 0.000000 0.115050 
#    y 0.000000 3.000780 0.000000 
#    z 0.115050 0.000000 3.603690 
# 
# 
# High freq. dielectric constant tensor:
#      x y z
#    x 1.723670 0.000000 0.001590 
#    y 0.000000 1.670880 0.000000 
#    z 0.001590 0.000000 1.717240 
# 
# From -- ./inp_files/142894.got.cif
#   From: 2010.06.25/outbox.cif.g09.slc.cpg/sg12_72_cif.got.tgz:142894.got - 2010.06.28 00:19:55.
