data_PCOD8090923
_publ_section_title
;
Structure prediction by ZEFSAII (Michael W. Deem and Ramdas Pophale) SiO2 
 PCOD8090923
Probable space group: C 2/M
;
_chemical_formula_sum "Si O2"
_cell_formula_units_Z 48
_cell_length_a 19.379185
_cell_length_b 15.120861
_cell_length_c 19.123711
_cell_angle_alpha 90.000000
_cell_angle_beta 153.340531
_cell_angle_gamma 90.000000
_cell_volume 2514.360857
_symmetry_space_group_name_H-M "C 2/M"
_symmetry_group_IT_number 12
_symmetry_cell_setting 'monoclinic'
loop_
_space_group_symop_operation_xyz
x,y,z
-x,y,-z
-x,-y,-z
x,-y,z
1/2+x,1/2+y,z
1/2-x,1/2+y,-z
1/2-x,1/2-y,-z
1/2+x,1/2-y,z
loop_
_atom_site_type_symbol
_atom_site_label
_atom_site_fract_x
_atom_site_fract_y
_atom_site_fract_z
Si Si1 0.102742 0.816957 0.933463
Si Si2 0.570128 0.329717 0.488717
Si Si3 0.328738 0.500000 0.607638
Si Si4 0.386285 0.000000 0.060800
Si Si5 0.701547 0.339024 0.862840
Si Si6 0.347219 0.500000 0.030980
Si Si7 0.232193 0.802774 0.410899
Si Si8 0.251062 0.500000 0.380336
O O1 0.150219 0.834122 0.896351
O O2 0.929401 0.781768 0.773284
O O3 0.129659 0.912277 0.995532
O O4 0.210392 0.751884 0.074769
O O5 0.500000 0.309246 0.500000
O O6 0.439341 0.357100 0.315509
O O7 0.643097 0.237488 0.528759
O O8 0.691589 0.410663 0.606355
O O9 0.510317 0.500000 0.785280
O O10 0.247048 0.409418 0.561916
O O11 0.326278 0.500000 0.523354
O O12 0.568927 0.000000 0.225378
O O13 0.326473 0.084737 0.964703
O O14 0.317152 0.000000 0.077382
O O15 0.250000 0.750000 0.500000
#
# Coordination Sequence:
#
# PCOD8090923 Si02
#       8
#     8   8   4   4   8   4   8   4
#     4   9  17  31  57  84 111 141 190 251 287 330
#     4  12  25  40  57  82 123 166 194 236 302 366
#     4  10  20  33  64  91 119 149 198 256 285 338
#     4  10  20  30  53  82 112 145 186 241 288 349
#     4  10  19  34  53  80 113 147 191 241 295 341
#     4   8  16  32  50  87 117 139 175 240 311 334
#     4  11  19  36  60  89 116 151 204 245 287 343
#     4  12  21  37  59  88 116 155 203 239 296 358
#
# _framework density 19.090339
#
# number of rings (size 3 to 8) (size 9 to 14) (size 15 to 20)
#    0.000    1.667    3.333    3.750    0.000    1.333 
#    0.000    4.583    0.000    0.000    0.000    3.500 
#    0.000    0.000    0.000    0.000    0.000    0.000 
#
# Total GULP energy -297399.469491 kJ/mol
# GULP energy per Si atom -12391.644562 kJ/mol
# Density = 1.904689 g / cm^3
# Si number density = 19.090339 Si / 1000 Ang^3
#
#
#
# Elastic Constant Matrix: (Units=GPa)
#
#
# Indices 1 2 3 4 5 6 
#
# 1 82.6427 39.0593 20.3757 -0.0010 15.5932 0.0001
# 2 39.0593 146.7784 30.5707 -0.0041 9.7393 -0.0011
# 3 20.3757 30.5707 71.7303 -0.0019 16.8044 0.0001
# 4 -0.0010 -0.0041 -0.0019 33.2288 -0.0003 9.9599
# 5 15.5932 9.7393 16.8044 -0.0003 13.2107 0.0005
# 6 0.0001 -0.0011 0.0001 9.9599 0.0005 17.7875
#
#
#
# Elastic Compliance Matrix: (Units=1/GPa)
#
#
# Indices 1 2 3 4 5 6 
#
# 1 0.017065 -0.003511 0.001084 0.000000 -0.018933 0.000000
# 2 -0.003511 0.008239 -0.002937 0.000001 0.001806 0.000000
# 3 0.001084 -0.002937 0.020908 0.000001 -0.025710 0.000000
# 4 0.000000 0.000001 0.000001 0.036164 0.000001 -0.020250
# 5 -0.018933 0.001806 -0.025710 0.000001 0.129417 -0.000004
# 6 0.000000 0.000000 0.000000 -0.020250 -0.000004 0.067558
#
#
# Mechanical properties :
#
#
# Convention : Reuss Voigt Hill
#
# Bulk Modulus (GPa) = 28.18113 53.46254 40.82184
# Shear Modulus (GPa) = 16.56146 26.92176 21.74161
#
# Velocity S-wave (km/s) = 2.94858 3.75938 3.37839
# Velocity P-wave (km/s) = 5.13675 6.84907 6.05376
#
# Compressibility (1/GPa) = 0.03548473
#
# Stress axis : x y z
#
# Youngs Moduli (GPa) = 58.60109 121.37185 47.82838
#
# Poissons Ratio (x) = 0.42609 -0.05186
# Poissons Ratio (y) = 0.20573 0.14049
# Poissons Ratio (z) = -0.06355 0.35650
#
# Static dielectric constant tensor:
#      x y z
#    x 3.034490 0.000000 0.217220 
#    y 0.000000 4.456200 0.000000 
#    z 0.217220 0.000000 3.474680 
# 
# 
# High freq. dielectric constant tensor:
#      x y z
#    x 1.682650 0.000000 0.026370 
#    y 0.000000 1.771380 0.000000 
#    z 0.026370 0.000000 1.740690 
# 
# From -- ./inp_files/278104.got.cif
#   From: 2010.06.25/outbox.cif.g09.slc.cpg/sg12_140_cif.got.tgz:278104.got - 2010.06.28 00:19:55.
