data_PCOD8090059
_publ_section_title
;
Structure prediction by ZEFSAII (Michael W. Deem and Ramdas Pophale) SiO2 
 PCOD8090059
Probable space group: C 2/M
;
_chemical_formula_sum "Si O2"
_cell_formula_units_Z 64
_cell_length_a 19.831203
_cell_length_b 15.429415
_cell_length_c 28.369347
_cell_angle_alpha 90.000000
_cell_angle_beta 21.172556
_cell_angle_gamma 90.000000
_cell_volume 3135.227764
_symmetry_space_group_name_H-M "C 2/M"
_symmetry_group_IT_number 12
_symmetry_cell_setting 'monoclinic'
loop_
_space_group_symop_operation_xyz
x,y,z
-x,y,-z
-x,-y,-z
x,-y,z
1/2+x,1/2+y,z
1/2-x,1/2+y,-z
1/2-x,1/2-y,-z
1/2+x,1/2-y,z
loop_
_atom_site_type_symbol
_atom_site_label
_atom_site_fract_x
_atom_site_fract_y
_atom_site_fract_z
Si Si1 0.641707 0.099421 0.802235
Si Si2 0.118051 0.717857 0.971206
Si Si3 0.468493 0.401144 0.413261
Si Si4 0.241675 0.643978 0.380738
Si Si5 0.008567 0.096926 0.049543
Si Si6 0.793762 0.830986 0.613358
Si Si7 0.850913 0.595151 0.659234
Si Si8 0.033572 0.902401 0.267225
O O1 0.825219 0.135446 0.709489
O O2 0.670071 0.106664 0.727135
O O3 0.593438 0.000000 0.846628
O O4 0.475467 0.161536 0.926671
O O5 0.317797 0.674214 0.833513
O O6 0.142470 0.819342 0.972143
O O7 0.000000 0.713773 0.000000
O O8 0.476538 0.500000 0.423324
O O9 0.304138 0.361257 0.552288
O O10 0.421392 0.386505 0.389137
O O11 0.308168 0.738590 0.321250
O O12 0.229955 0.587563 0.341066
O O13 0.388534 0.600107 0.319356
O O14 0.037199 0.654204 0.539249
O O15 0.807807 0.127331 0.201166
O O16 0.066655 0.000000 0.032745
O O17 0.000000 0.083551 0.000000
O O18 0.000000 0.824333 0.500000
O O19 0.916065 0.500000 0.632564
O O20 0.123215 0.000000 0.209896
#
# Coordination Sequence:
#
# PCOD8090059 Si02
#       8
#     8   8   8   8   8   8   8   8
#     4  10  19  33  56  85 115 154 198 237 283 344
#     4  11  21  35  61  85 118 153 195 242 295 346
#     4   9  19  34  53  80 116 152 189 238 290 344
#     4  11  21  35  59  87 117 150 195 247 298 347
#     4   9  20  37  60  88 116 150 197 245 293 351
#     4  10  19  33  55  80 112 150 195 239 289 345
#     4  10  19  36  60  84 110 148 194 245 299 350
#     4  11  23  38  56  87 124 157 197 245 296 347
#
# _framework density 20.41319
#
# number of rings (size 3 to 8) (size 9 to 14) (size 15 to 20)
#    0.000    1.875    2.500    3.000    1.750    2.500 
#    0.000    2.500    0.000    4.500    0.000    0.000 
#    0.000    0.000    0.000    0.000    0.000    0.000 
#
# Total GULP energy -396537.616968 kJ/mol
# GULP energy per Si atom -12391.800530 kJ/mol
# Density = 2.036673 g / cm^3
# Si number density = 20.413190 Si / 1000 Ang^3
#
#
#
# Elastic Constant Matrix: (Units=GPa)
#
#
# Indices 1 2 3 4 5 6 
#
# 1 71.2192 19.6368 37.9100 0.0633 5.8675 0.0338
# 2 19.6368 121.6245 36.9333 0.1528 5.8841 0.0384
# 3 37.9100 36.9333 71.0673 0.4727 19.5931 0.0288
# 4 0.0633 0.1528 0.4727 26.8340 0.0289 8.3771
# 5 5.8675 5.8841 19.5931 0.0289 27.0582 0.0215
# 6 0.0338 0.0384 0.0288 8.3771 0.0215 22.5910
#
#
#
# Elastic Compliance Matrix: (Units=1/GPa)
#
#
# Indices 1 2 3 4 5 6 
#
# 1 0.019994 0.000192 -0.011944 0.000185 0.004271 -0.000088
# 2 0.000192 0.009847 -0.005770 0.000053 0.001995 -0.000031
# 3 -0.011944 -0.005770 0.027968 -0.000471 -0.016406 0.000182
# 4 0.000185 0.000053 -0.000471 0.042153 0.000257 -0.015631
# 5 0.004271 0.001995 -0.016406 0.000257 0.047477 -0.000129
# 6 -0.000088 -0.000031 0.000182 -0.015631 -0.000129 0.050062
#
#
# Mechanical properties :
#
#
# Convention : Reuss Voigt Hill
#
# Bulk Modulus (GPa) = 43.92940 50.31903 47.12421
# Shear Modulus (GPa) = 20.82182 26.59205 23.70693
#
# Velocity S-wave (km/s) = 3.19724 3.61319 3.41156
# Velocity P-wave (km/s) = 5.93267 6.48927 6.21720
#
# Compressibility (1/GPa) = 0.02276380
#
# Stress axis : x y z
#
# Youngs Moduli (GPa) = 50.01487 101.55753 35.75562
#
# Poissons Ratio (x) = -0.01951 0.42707
# Poissons Ratio (y) = -0.00961 0.20632
# Poissons Ratio (z) = 0.59739 0.58600
#
# Static dielectric constant tensor:
#      x y z
#    x 3.484100 0.000020 0.377840 
#    y 0.000020 3.961770 0.000280 
#    z 0.377840 0.000280 3.530590 
# 
# 
# High freq. dielectric constant tensor:
#      x y z
#    x 1.767910 0.000000 0.040230 
#    y 0.000000 1.814450 0.000030 
#    z 0.040230 0.000030 1.774020 
# 
# From -- ./inp_files/290150.got.cif
#   From: 2010.06.25/outbox.cif.g09.slc.cpg/sg12_146_cif.got.tgz:290150.got - 2010.06.28 00:19:55.
