data_PCOD8090648
_publ_section_title
;
Structure prediction by ZEFSAII (Michael W. Deem and Ramdas Pophale) SiO2 
 PCOD8090648
Probable space group: C 2/M
;
_chemical_formula_sum "Si O2"
_cell_formula_units_Z 56
_cell_length_a 30.355830
_cell_length_b 18.729548
_cell_length_c 8.814037
_cell_angle_alpha 90.000000
_cell_angle_beta 144.772452
_cell_angle_gamma 90.000000
_cell_volume 2890.603038
_symmetry_space_group_name_H-M "C 2/M"
_symmetry_group_IT_number 12
_symmetry_cell_setting 'monoclinic'
loop_
_space_group_symop_operation_xyz
x,y,z
-x,y,-z
-x,-y,-z
x,-y,z
1/2+x,1/2+y,z
1/2-x,1/2+y,-z
1/2-x,1/2-y,-z
1/2+x,1/2-y,z
loop_
_atom_site_type_symbol
_atom_site_label
_atom_site_fract_x
_atom_site_fract_y
_atom_site_fract_z
Si Si1 0.991661 0.583432 0.306796
Si Si2 0.573619 0.298528 0.515917
Si Si3 0.074851 0.323361 0.306075
Si Si4 0.655226 0.848431 0.235894
Si Si5 0.604243 0.706821 0.939451
Si Si6 0.181349 0.917714 0.326435
Si Si7 0.572992 0.580642 0.294441
O O1 0.006372 0.500000 0.347659
O O2 0.054896 0.615547 0.371683
O O3 0.000000 0.615261 0.500000
O O4 0.906773 0.600867 0.015542
O O5 0.608126 0.244400 0.489388
O O6 0.484579 0.279126 0.281042
O O7 0.619051 0.290821 0.800850
O O8 0.586152 0.377961 0.488223
O O9 0.141086 0.347841 0.377455
O O10 0.000000 0.301267 0.000000
O O11 0.735517 0.884088 0.430028
O O12 0.652600 0.768360 0.159790
O O13 0.628738 0.628692 0.066048
O O14 0.147754 0.914184 0.401012
O O15 0.183235 0.000000 0.274138
O O16 0.554061 0.500000 0.288876
O O17 0.500000 0.613340 0.000000
#
# Coordination Sequence:
#
# PCOD8090648 Si02
#       7
#     8   8   8   8   8   8   8
#     4  10  20  35  57  86 117 153 198 241 286 342
#     4  11  20  36  61  90 117 147 192 252 292 342
#     4  10  19  33  58  85 114 151 193 240 281 341
#     4  11  22  38  59  86 119 156 195 239 290 346
#     4  11  22  36  61  88 119 152 191 242 299 349
#     4  11  24  41  59  84 119 157 195 242 294 348
#     4  10  20  37  61  85 113 154 201 244 290 346
#
# _framework density 19.37312
#
# number of rings (size 3 to 8) (size 9 to 14) (size 15 to 20)
#    0.000    1.429    4.286    3.000    0.000    3.714 
#    0.000    5.714    0.000    0.000    0.000    0.000 
#    0.000    0.000    0.000    0.000    0.000    0.000 
#
# Total GULP energy -347273.145856 kJ/mol
# GULP energy per Si atom -12402.612352 kJ/mol
# Density = 1.932903 g / cm^3
# Si number density = 19.373120 Si / 1000 Ang^3
#
#
#
# Elastic Constant Matrix: (Units=GPa)
#
#
# Indices 1 2 3 4 5 6 
#
# 1 121.2343 45.6670 46.2328 0.0000 -17.6851 0.0000
# 2 45.6670 106.3681 30.4376 0.0000 -13.0056 0.0000
# 3 46.2328 30.4376 55.3409 0.0000 -7.4124 0.0000
# 4 0.0000 0.0000 0.0000 19.6951 0.0000 -2.2469
# 5 -17.6851 -13.0056 -7.4124 0.0000 38.7413 0.0000
# 6 0.0000 0.0000 0.0000 -2.2469 0.0000 32.2334
#
#
#
# Elastic Compliance Matrix: (Units=1/GPa)
#
#
# Indices 1 2 3 4 5 6 
#
# 1 0.013227 -0.002648 -0.009138 0.000000 0.003401 0.000000
# 2 -0.002648 0.011957 -0.004093 0.000000 0.002022 0.000000
# 3 -0.009138 -0.004093 0.027928 0.000000 -0.000202 0.000000
# 4 0.000000 0.000000 0.000000 0.051181 0.000000 0.003568
# 5 0.003401 0.002022 -0.000202 0.000000 0.028005 0.000000
# 6 0.000000 0.000000 0.000000 0.003568 0.000000 0.031272
#
#
# Mechanical properties :
#
#
# Convention : Reuss Voigt Hill
#
# Bulk Modulus (GPa) = 46.83151 58.62424 52.72788
# Shear Modulus (GPa) = 24.69795 28.84102 26.76948
#
# Velocity S-wave (km/s) = 3.57439 3.86257 3.72127
# Velocity P-wave (km/s) = 6.42347 7.08653 6.76313
#
# Compressibility (1/GPa) = 0.02135314
#
# Stress axis : x y z
#
# Youngs Moduli (GPa) = 75.60404 83.63526 35.80629
#
# Poissons Ratio (x) = 0.22147 0.32720
# Poissons Ratio (y) = 0.20020 0.14656
# Poissons Ratio (z) = 0.69087 0.34233
#
# Static dielectric constant tensor:
#      x y z
#    x 3.744260 0.000000 -0.197120 
#    y 0.000000 3.616850 0.000000 
#    z -0.197120 0.000000 3.314920 
# 
# 
# High freq. dielectric constant tensor:
#      x y z
#    x 1.760630 0.000000 -0.011220 
#    y 0.000000 1.766460 0.000000 
#    z -0.011220 0.000000 1.725340 
# 
# From -- ./inp_files/106012.got.cif
#   From: 2010.06.25/outbox.cif.g09.slc.cpg/sg12_54_cif.got.tgz:106012.got - 2010.06.28 00:19:55.
