data_PCOD8090548
_publ_section_title
;
Structure prediction by ZEFSAII (Michael W. Deem and Ramdas Pophale) SiO2 
 PCOD8090548
Probable space group: C 2/M
;
_chemical_formula_sum "Si O2"
_cell_formula_units_Z 64
_cell_length_a 22.505214
_cell_length_b 24.038997
_cell_length_c 12.185321
_cell_angle_alpha 90.000000
_cell_angle_beta 147.537032
_cell_angle_gamma 90.000000
_cell_volume 3538.441884
_symmetry_space_group_name_H-M "C 2/M"
_symmetry_group_IT_number 12
_symmetry_cell_setting 'monoclinic'
loop_
_space_group_symop_operation_xyz
x,y,z
-x,y,-z
-x,-y,-z
x,-y,z
1/2+x,1/2+y,z
1/2-x,1/2+y,-z
1/2-x,1/2-y,-z
1/2+x,1/2-y,z
loop_
_atom_site_type_symbol
_atom_site_label
_atom_site_fract_x
_atom_site_fract_y
_atom_site_fract_z
Si Si1 0.186478 0.203578 0.967721
Si Si2 0.316871 0.938738 0.906830
Si Si3 0.617980 0.100837 0.215236
Si Si4 0.059777 0.222125 0.381211
Si Si5 0.286355 0.687293 0.554958
Si Si6 0.190574 0.333237 0.624944
Si Si7 0.557132 0.063719 0.352351
Si Si8 0.381670 0.362432 0.338355
O O1 0.164801 0.153174 0.852586
O O2 0.071731 0.228582 0.833532
O O3 0.250000 0.250000 0.000000
O O4 0.257965 0.179549 0.178113
O O5 0.344008 0.941196 0.820165
O O6 0.209012 0.901688 0.751021
O O7 0.285384 0.000000 0.898281
O O8 0.426792 0.918977 0.144633
O O9 0.699709 0.152700 0.348418
O O10 0.611203 0.065735 0.316141
O O11 0.500000 0.127545 0.000000
O O12 0.098114 0.186854 0.332825
O O13 0.107706 0.284427 0.458211
O O14 0.097772 0.191080 0.551856
O O15 0.250000 0.750000 0.500000
O O16 0.287379 0.663031 0.681566
O O17 0.122293 0.391312 0.528776
O O18 0.570928 0.000000 0.418007
O O19 0.500000 0.392624 0.500000
#
# Coordination Sequence:
#
# PCOD8090548 Si02
#       8
#     8   8   8   8   8   8   8   8
#     4  11  23  37  56  79 107 153 191 221 268 335
#     4  10  19  33  57  84 111 148 186 229 278 322
#     4   9  16  30  55  82 113 146 180 221 276 337
#     4  10  20  37  57  82 114 137 181 236 276 330
#     4   9  18  34  50  83 116 137 172 222 287 334
#     4  10  21  36  56  84 111 148 179 219 289 334
#     4   9  19  34  54  85 116 142 182 228 276 337
#     4  10  21  37  55  78 112 144 187 237 266 315
#
# _framework density 18.087057000000001
#
# number of rings (size 3 to 8) (size 9 to 14) (size 15 to 20)
#    0.000    2.250    2.500    0.375    1.750    2.250 
#   11.250    0.625    0.000    2.250    0.000    1.750 
#    0.000    0.000    0.000    0.000    0.000    0.000 
#
# Total GULP energy -396529.148474 kJ/mol
# GULP energy per Si atom -12391.535890 kJ/mol
# Density = 1.804589 g / cm^3
# Si number density = 18.087057 Si / 1000 Ang^3
#
#
#
# Elastic Constant Matrix: (Units=GPa)
#
#
# Indices 1 2 3 4 5 6 
#
# 1 98.2909 29.7118 53.4366 0.0000 16.1401 0.0000
# 2 29.7118 88.2253 52.4682 0.0000 10.7155 0.0000
# 3 53.4366 52.4682 107.8097 0.0000 1.7701 0.0000
# 4 0.0000 0.0000 0.0000 23.5087 0.0000 -0.3447
# 5 16.1401 10.7155 1.7701 0.0000 34.9349 0.0000
# 6 0.0000 0.0000 0.0000 -0.3447 0.0000 18.2523
#
#
#
# Elastic Compliance Matrix: (Units=1/GPa)
#
#
# Indices 1 2 3 4 5 6 
#
# 1 0.015355 0.000155 -0.007575 0.000000 -0.006758 0.000000
# 2 0.000155 0.016694 -0.008122 0.000000 -0.004780 0.000000
# 3 -0.007575 -0.008122 0.016899 0.000000 0.005135 0.000000
# 4 0.000000 0.000000 0.000000 0.042549 0.000000 0.000804
# 5 -0.006758 -0.004780 0.005135 0.000000 0.032953 0.000000
# 6 0.000000 0.000000 0.000000 0.000804 0.000000 0.054803
#
#
# Mechanical properties :
#
#
# Convention : Reuss Voigt Hill
#
# Bulk Modulus (GPa) = 55.98596 62.83989 59.41293
# Shear Modulus (GPa) = 23.11684 25.91979 24.51831
#
# Velocity S-wave (km/s) = 3.57891 3.78968 3.68580
# Velocity P-wave (km/s) = 6.93534 7.34625 7.14375
#
# Compressibility (1/GPa) = 0.01786162
#
# Stress axis : x y z
#
# Youngs Moduli (GPa) = 65.12487 59.90307 59.17526
#
# Poissons Ratio (x) = -0.00926 0.44826
# Poissons Ratio (y) = -0.01007 0.48065
# Poissons Ratio (z) = 0.49333 0.48656
#
# Static dielectric constant tensor:
#      x y z
#    x 3.759850 0.000000 -0.054830 
#    y 0.000000 3.451750 0.000000 
#    z -0.054830 0.000000 4.183600 
# 
# 
# High freq. dielectric constant tensor:
#      x y z
#    x 1.712040 0.000000 0.004710 
#    y 0.000000 1.683250 0.000000 
#    z 0.004710 0.000000 1.684870 
# 
# From -- ./inp_files/178575.got.cif
#   From: 2010.06.25/outbox.cif.g09.slc.cpg/sg12_90_cif.got.tgz:178575.got - 2010.06.28 00:19:55.
