data_PCOD8090724
_publ_section_title
;
Structure prediction by ZEFSAII (Michael W. Deem and Ramdas Pophale) SiO2 
 PCOD8090724
Probable space group: C 2/M
;
_chemical_formula_sum "Si O2"
_cell_formula_units_Z 56
_cell_length_a 21.023482
_cell_length_b 9.032060
_cell_length_c 31.321486
_cell_angle_alpha 90.000000
_cell_angle_beta 28.662447
_cell_angle_gamma 90.000000
_cell_volume 2852.705262
_symmetry_space_group_name_H-M "C 2/M"
_symmetry_group_IT_number 12
_symmetry_cell_setting 'monoclinic'
loop_
_space_group_symop_operation_xyz
x,y,z
-x,y,-z
-x,-y,-z
x,-y,z
1/2+x,1/2+y,z
1/2-x,1/2+y,-z
1/2-x,1/2-y,-z
1/2+x,1/2-y,z
loop_
_atom_site_type_symbol
_atom_site_label
_atom_site_fract_x
_atom_site_fract_y
_atom_site_fract_z
Si Si1 0.884694 0.669335 0.040300
Si Si2 0.303399 0.664331 0.773804
Si Si3 0.869544 0.675481 0.954546
Si Si4 0.833499 0.331250 0.232214
Si Si5 0.771501 0.828273 0.555488
Si Si6 0.059658 0.669678 0.610269
Si Si7 0.846561 0.324615 0.594470
O O1 0.929204 0.500000 0.006037
O O2 0.751455 0.680490 0.146207
O O3 0.863004 0.740997 0.006623
O O4 0.000000 0.749869 0.000000
O O5 0.367540 0.500000 0.730913
O O6 0.189640 0.684680 0.805057
O O7 0.407844 0.795159 0.707679
O O8 0.847886 0.500000 0.966386
O O9 0.013568 0.717037 0.849347
O O10 0.750000 0.750000 0.000000
O O11 0.812478 0.500000 0.259668
O O12 0.724825 0.232147 0.320632
O O13 0.895740 0.772125 0.454992
O O14 0.638737 0.795369 0.607046
O O15 0.762033 0.739144 0.604962
O O16 0.790727 0.000000 0.554492
O O17 0.078319 0.500000 0.585363
O O18 0.839633 0.500000 0.598228
O O19 0.000000 0.270913 0.500000
#
# Coordination Sequence:
#
# PCOD8090724 Si02
#       7
#     8   8   8   8   8   8   8
#     4   9  16  33  60  84 108 143 191 239 278 328
#     4  10  19  33  59  88 110 144 195 239 281 338
#     4  10  21  38  60  87 120 156 196 245 299 352
#     4  10  21  37  58  84 115 153 196 242 287 347
#     4  10  21  38  58  79 109 150 192 232 278 340
#     4  10  21  36  55  82 115 147 181 233 291 340
#     4  11  24  39  57  83 116 152 190 238 293 346
#
# _framework density 19.630489000000001
#
# number of rings (size 3 to 8) (size 9 to 14) (size 15 to 20)
#    0.000    2.000    1.429    2.143    0.000    7.429 
#    0.000    3.571    0.000    0.857    0.000    0.000 
#    0.000    0.000    0.000    0.000    0.000    0.000 
#
# Total GULP energy -347180.423143 kJ/mol
# GULP energy per Si atom -12399.300827 kJ/mol
# Density = 1.958581 g / cm^3
# Si number density = 19.630489 Si / 1000 Ang^3
#
#
#
# Elastic Constant Matrix: (Units=GPa)
#
#
# Indices 1 2 3 4 5 6 
#
# 1 107.6219 33.1206 52.3119 0.0064 5.9064 -0.0979
# 2 33.1206 55.2554 37.9389 0.0080 -0.7839 -0.0515
# 3 52.3119 37.9389 108.5808 -0.0075 -4.7314 -0.0044
# 4 0.0064 0.0080 -0.0075 25.3619 0.0003 -6.3627
# 5 5.9064 -0.7839 -4.7314 0.0003 32.3883 -0.0041
# 6 -0.0979 -0.0515 -0.0044 -6.3627 -0.0041 27.6812
#
#
#
# Elastic Compliance Matrix: (Units=1/GPa)
#
#
# Indices 1 2 3 4 5 6 
#
# 1 0.013290 -0.004629 -0.004927 0.000006 -0.003255 0.000039
# 2 -0.004629 0.025436 -0.006636 -0.000001 0.000490 0.000030
# 3 -0.004927 -0.006636 0.014024 0.000001 0.002787 -0.000027
# 4 0.000006 -0.000001 0.000001 0.041842 0.000000 0.009618
# 5 -0.003255 0.000490 0.002787 0.000000 0.031888 -0.000005
# 6 0.000039 0.000030 -0.000027 0.009618 -0.000005 0.038336
#
#
# Mechanical properties :
#
#
# Convention : Reuss Voigt Hill
#
# Bulk Modulus (GPa) = 49.10413 57.57787 53.34100
# Shear Modulus (GPa) = 24.51113 26.95872 25.73493
#
# Velocity S-wave (km/s) = 3.53742 3.70984 3.62466
# Velocity P-wave (km/s) = 6.46166 6.90978 6.68947
#
# Compressibility (1/GPa) = 0.02036489
#
# Stress axis : x y z
#
# Youngs Moduli (GPa) = 75.24369 39.31462 71.30841
#
# Poissons Ratio (x) = 0.18200 0.35135
# Poissons Ratio (y) = 0.34833 0.47319
# Poissons Ratio (z) = 0.37074 0.26088
#
# Static dielectric constant tensor:
#      x y z
#    x 3.687210 -0.000030 0.062920 
#    y -0.000030 3.348250 0.000000 
#    z 0.062920 0.000000 3.468860 
# 
# 
# High freq. dielectric constant tensor:
#      x y z
#    x 1.770820 0.000000 0.003180 
#    y 0.000000 1.743450 0.000000 
#    z 0.003180 0.000000 1.764890 
# 
# From -- ./inp_files/329703.got.cif
#   From: 2010.06.25/outbox.cif.g09.slc.cpg/sg12_165_cif.got.tgz:329703.got - 2010.06.28 00:19:55.
