data_PCOD8090249
_publ_section_title
;
Structure prediction by ZEFSAII (Michael W. Deem and Ramdas Pophale) SiO2 
 PCOD8090249
Probable space group: C 2/M
;
_chemical_formula_sum "Si O2"
_cell_formula_units_Z 64
_cell_length_a 29.587388
_cell_length_b 8.958734
_cell_length_c 18.380386
_cell_angle_alpha 90.000000
_cell_angle_beta 140.043416
_cell_angle_gamma 90.000000
_cell_volume 3128.836720
_symmetry_space_group_name_H-M "C 2/M"
_symmetry_group_IT_number 12
_symmetry_cell_setting 'monoclinic'
loop_
_space_group_symop_operation_xyz
x,y,z
-x,y,-z
-x,-y,-z
x,-y,z
1/2+x,1/2+y,z
1/2-x,1/2+y,-z
1/2-x,1/2-y,-z
1/2+x,1/2-y,z
loop_
_atom_site_type_symbol
_atom_site_label
_atom_site_fract_x
_atom_site_fract_y
_atom_site_fract_z
Si Si1 0.349472 0.177546 0.486961
Si Si2 0.442891 0.825941 0.869258
Si Si3 0.288725 0.824870 0.738581
Si Si4 0.056435 0.823955 0.283767
Si Si5 0.925403 0.676858 0.435146
Si Si6 0.921817 0.671599 0.166530
Si Si7 0.797701 0.329730 0.913204
Si Si8 0.829070 0.324581 0.185931
O O1 0.270136 0.233951 0.377423
O O2 0.375901 0.247523 0.595327
O O3 0.401054 0.232183 0.484960
O O4 0.348306 0.000000 0.491858
O O5 0.364618 0.789869 0.799128
O O6 0.455594 0.732506 0.812466
O O7 0.453076 0.000000 0.863596
O O8 0.500000 0.775863 0.000000
O O9 0.290446 0.764686 0.823345
O O10 0.271550 0.000000 0.713693
O O11 0.988922 0.777503 0.247632
O O12 0.066777 0.000000 0.297063
O O13 0.931819 0.500000 0.443841
O O14 0.866498 0.729820 0.305909
O O15 0.000000 0.745237 0.500000
O O16 0.945960 0.500000 0.209793
O O17 0.873818 0.731630 0.172851
O O18 0.878507 0.685542 0.038052
O O19 0.773630 0.500000 0.885234
O O20 0.748614 0.244256 0.910123
O O21 0.820739 0.500000 0.171284
#
# Coordination Sequence:
#
# PCOD8090249 Si02
#       8
#     8   8   8   8   8   8   8   8
#     4  11  22  39  63  87 120 164 206 251 304 366
#     4  10  22  44  72  96 122 161 204 243 297 369
#     4  10  21  38  62  91 124 159 200 253 303 360
#     4  12  26  42  62  91 125 156 197 257 312 359
#     4   9  17  31  53  81 113 155 207 254 293 344
#     4  10  21  38  60  85 119 166 210 248 301 369
#     4  10  20  35  57  87 124 161 198 246 304 364
#     4  10  19  33  55  85 119 159 208 254 298 357
#
# _framework density 20.454885999999998
#
# number of rings (size 3 to 8) (size 9 to 14) (size 15 to 20)
#    0.000    1.750    1.250    3.375    0.000    6.250 
#    0.000    1.250    0.000    1.875    0.000    0.000 
#    0.000    0.000    0.000    0.000    0.000    0.000 
#
# Total GULP energy -396870.811876 kJ/mol
# GULP energy per Si atom -12402.212871 kJ/mol
# Density = 2.040833 g / cm^3
# Si number density = 20.454886 Si / 1000 Ang^3
#
#
#
# Elastic Constant Matrix: (Units=GPa)
#
#
# Indices 1 2 3 4 5 6 
#
# 1 89.5959 42.4136 43.1125 0.0000 3.8911 0.0000
# 2 42.4136 71.4587 47.0942 0.0000 1.3032 0.0000
# 3 43.1125 47.0942 123.3044 0.0000 -3.3425 0.0000
# 4 0.0000 0.0000 0.0000 29.1985 0.0000 4.1360
# 5 3.8911 1.3032 -3.3425 0.0000 36.3334 0.0000
# 6 0.0000 0.0000 0.0000 4.1360 0.0000 31.0989
#
#
#
# Elastic Compliance Matrix: (Units=1/GPa)
#
#
# Indices 1 2 3 4 5 6 
#
# 1 0.016252 -0.007804 -0.002748 0.000000 -0.001713 0.000000
# 2 -0.007804 0.022513 -0.005884 0.000000 -0.000513 0.000000
# 3 -0.002748 -0.005884 0.011360 0.000000 0.001550 0.000000
# 4 0.000000 0.000000 0.000000 0.034906 0.000000 -0.004642
# 5 -0.001713 -0.000513 0.001550 0.000000 0.027867 0.000000
# 6 0.000000 0.000000 0.000000 -0.004642 0.000000 0.032773
#
#
# Mechanical properties :
#
#
# Convention : Reuss Voigt Hill
#
# Bulk Modulus (GPa) = 57.95952 61.06664 59.51308
# Shear Modulus (GPa) = 27.13034 29.44206 28.28620
#
# Velocity S-wave (km/s) = 3.64586 3.79801 3.72271
# Velocity P-wave (km/s) = 6.79116 7.01087 6.90189
#
# Compressibility (1/GPa) = 0.01725342
#
# Stress axis : x y z
#
# Youngs Moduli (GPa) = 61.52934 44.41857 88.02623
#
# Poissons Ratio (x) = 0.34664 0.24193
# Poissons Ratio (y) = 0.48017 0.51793
# Poissons Ratio (z) = 0.16911 0.26135
#
# Static dielectric constant tensor:
#      x y z
#    x 3.794220 0.000000 -0.045490 
#    y 0.000000 3.378770 0.000000 
#    z -0.045490 0.000000 3.848950 
# 
# 
# High freq. dielectric constant tensor:
#      x y z
#    x 1.804340 0.000000 -0.000290 
#    y 0.000000 1.769890 0.000000 
#    z -0.000290 0.000000 1.815300 
# 
# From -- ./inp_files/295716.got.cif
#   From: 2010.06.25/outbox.cif.g09.slc.cpg/sg12_148_cif.got.tgz:295716.got - 2010.06.28 00:19:55.
