data_PCOD8090386
_publ_section_title
;
Structure prediction by ZEFSAII (Michael W. Deem and Ramdas Pophale) SiO2 
 PCOD8090386
Probable space group: C 2/M
;
_chemical_formula_sum "Si O2"
_cell_formula_units_Z 64
_cell_length_a 19.868440
_cell_length_b 9.304508
_cell_length_c 24.038632
_cell_angle_alpha 90.000000
_cell_angle_beta 128.365747
_cell_angle_gamma 90.000000
_cell_volume 3484.326222
_symmetry_space_group_name_H-M "C 2/M"
_symmetry_group_IT_number 12
_symmetry_cell_setting 'monoclinic'
loop_
_space_group_symop_operation_xyz
x,y,z
-x,y,-z
-x,-y,-z
x,-y,z
1/2+x,1/2+y,z
1/2-x,1/2+y,-z
1/2-x,1/2-y,-z
1/2+x,1/2-y,z
loop_
_atom_site_type_symbol
_atom_site_label
_atom_site_fract_x
_atom_site_fract_y
_atom_site_fract_z
Si Si1 0.402563 0.334031 0.436861
Si Si2 0.035405 0.666434 0.076019
Si Si3 0.747832 0.668517 0.556818
Si Si4 0.767199 0.333334 0.836824
Si Si5 0.147470 0.164831 0.302519
Si Si6 0.799690 0.665455 0.296763
Si Si7 0.518317 0.335286 0.846734
Si Si8 0.712791 0.334699 0.929099
O O1 0.500000 0.292729 0.500000
O O2 0.393287 0.500000 0.414729
O O3 0.343312 0.301115 0.460091
O O4 0.375249 0.237866 0.370804
O O5 0.011459 0.500000 0.068325
O O6 0.136120 0.693875 0.132728
O O7 0.986110 0.744703 0.099704
O O8 0.000000 0.729404 0.000000
O O9 0.763178 0.500000 0.555079
O O10 0.750000 0.750000 0.500000
O O11 0.824994 0.730209 0.633798
O O12 0.740970 0.500000 0.818235
O O13 0.705134 0.241701 0.765481
O O14 0.757237 0.280533 0.895206
O O15 0.209486 0.185103 0.281701
O O16 0.052369 0.212828 0.234919
O O17 0.149831 0.000000 0.325020
O O18 0.823395 0.500000 0.299810
O O19 0.501086 0.500000 0.854154
O O20 0.611527 0.310754 0.868503
O O21 0.734876 0.500000 0.951547
O O22 0.750000 0.250000 0.000000
#
# Coordination Sequence:
#
# PCOD8090386 Si02
#       8
#     8   8   8   8   8   8   8   8
#     4   9  19  37  59  82 109 144 183 219 261 316
#     4  10  20  33  53  80 107 137 175 222 267 315
#     4  10  20  35  57  83 111 144 180 217 264 317
#     4  10  20  35  54  77 108 143 180 218 266 326
#     4   9  18  34  55  79 109 141 177 222 267 313
#     4  10  19  33  56  83 111 141 176 223 272 314
#     4  10  20  36  56  79 106 139 180 223 269 319
#     4  10  22  39  57  77 106 145 182 222 273 325
#
# _framework density 18.367971000000001
#
# number of rings (size 3 to 8) (size 9 to 14) (size 15 to 20)
#    0.000    2.250    1.250    1.500    0.000    4.000 
#    2.250    0.000    0.000    0.000    0.000    0.000 
#    0.000    0.000    0.000    0.000    0.000    0.000 
#
# Total GULP energy -396902.346300 kJ/mol
# GULP energy per Si atom -12403.198322 kJ/mol
# Density = 1.832616 g / cm^3
# Si number density = 18.367971 Si / 1000 Ang^3
#
#
#
# Elastic Constant Matrix: (Units=GPa)
#
#
# Indices 1 2 3 4 5 6 
#
# 1 42.1227 27.7454 27.7082 0.0000 -6.0951 0.0000
# 2 27.7454 84.1282 65.9532 0.0000 -10.3213 0.0000
# 3 27.7082 65.9532 125.9374 0.0000 -6.4589 0.0000
# 4 0.0000 0.0000 0.0000 38.0521 0.0000 -4.7644
# 5 -6.0951 -10.3213 -6.4589 0.0000 34.6848 0.0000
# 6 0.0000 0.0000 0.0000 -4.7644 0.0000 26.0536
#
#
#
# Elastic Compliance Matrix: (Units=1/GPa)
#
#
# Indices 1 2 3 4 5 6 
#
# 1 0.031002 -0.007907 -0.002545 0.000000 0.002621 0.000000
# 2 -0.007907 0.022769 -0.010004 0.000000 0.003523 0.000000
# 3 -0.002545 -0.010004 0.013695 0.000000 -0.000874 0.000000
# 4 0.000000 0.000000 0.000000 0.026896 0.000000 0.004918
# 5 0.002621 0.003523 -0.000874 0.000000 0.030177 0.000000
# 6 0.000000 0.000000 0.000000 0.004918 0.000000 0.039282
#
#
# Mechanical properties :
#
#
# Convention : Reuss Voigt Hill
#
# Bulk Modulus (GPa) = 37.66076 55.00023 46.33050
# Shear Modulus (GPa) = 23.40985 28.47686 25.94336
#
# Velocity S-wave (km/s) = 3.57388 3.94173 3.76230
# Velocity P-wave (km/s) = 6.13010 7.12214 6.64466
#
# Compressibility (1/GPa) = 0.02655284
#
# Stress axis : x y z
#
# Youngs Moduli (GPa) = 32.25569 43.91878 73.02131
#
# Poissons Ratio (x) = 0.34729 0.18587
# Poissons Ratio (y) = 0.25506 0.73049
# Poissons Ratio (z) = 0.08211 0.43935
#
# Static dielectric constant tensor:
#      x y z
#    x 3.330870 0.000000 0.072920 
#    y 0.000000 3.380870 0.000000 
#    z 0.072920 0.000000 3.435920 
# 
# 
# High freq. dielectric constant tensor:
#      x y z
#    x 1.701320 0.000000 0.002270 
#    y 0.000000 1.710890 0.000000 
#    z 0.002270 0.000000 1.719820 
# 
# From -- ./inp_files/346152.got.cif
#   From: 2010.06.25/outbox.cif.g09.slc.cpg/sg12_174_cif.got.tgz:346152.got - 2010.06.28 00:19:55.
