data_PCOD8090641
_publ_section_title
;
Structure prediction by ZEFSAII (Michael W. Deem and Ramdas Pophale) SiO2 
 PCOD8090641
Probable space group: C 2/M
;
_chemical_formula_sum "Si O2"
_cell_formula_units_Z 64
_cell_length_a 27.114584
_cell_length_b 17.179178
_cell_length_c 9.318931
_cell_angle_alpha 90.000000
_cell_angle_beta 127.529953
_cell_angle_gamma 90.000000
_cell_volume 3442.419300
_symmetry_space_group_name_H-M "C 2/M"
_symmetry_group_IT_number 12
_symmetry_cell_setting 'monoclinic'
loop_
_space_group_symop_operation_xyz
x,y,z
-x,y,-z
-x,-y,-z
x,-y,z
1/2+x,1/2+y,z
1/2-x,1/2+y,-z
1/2-x,1/2-y,-z
1/2+x,1/2-y,z
loop_
_atom_site_type_symbol
_atom_site_label
_atom_site_fract_x
_atom_site_fract_y
_atom_site_fract_z
Si Si1 0.370520 0.295923 0.093422
Si Si2 0.948874 0.583668 0.029595
Si Si3 0.438786 0.778054 0.473063
Si Si4 0.757550 0.697508 0.785613
Si Si5 0.722225 0.411050 0.975322
Si Si6 0.483343 0.751537 0.137223
Si Si7 0.819644 0.647630 0.359012
Si Si8 0.185485 0.412022 0.336045
O O1 0.402475 0.280169 0.303302
O O2 0.335943 0.378978 0.034850
O O3 0.422855 0.301008 0.061971
O O4 0.320873 0.228263 0.970605
O O5 0.945689 0.500000 0.108936
O O6 0.966391 0.658922 0.154991
O O7 0.883788 0.602388 0.840475
O O8 0.000000 0.574725 0.000000
O O9 0.500000 0.811495 0.500000
O O10 0.459960 0.730305 0.655050
O O11 0.391934 0.846145 0.440420
O O12 0.724943 0.638462 0.835868
O O13 0.710030 0.767144 0.670452
O O14 0.769988 0.650809 0.661025
O O15 0.710646 0.500000 0.915077
O O16 0.785582 0.401597 0.176093
O O17 0.500000 0.742236 0.000000
O O18 0.813027 0.599466 0.491983
O O19 0.207643 0.500000 0.340041
#
# Coordination Sequence:
#
# PCOD8090641 Si02
#       8
#     8   8   8   8   8   8   8   8
#     4  10  19  38  56  83 110 143 192 232 273 334
#     4   9  17  30  47  72 112 150 178 214 263 321
#     4  10  20  34  58  82 112 143 189 233 268 322
#     4  11  20  37  58  78 111 148 191 230 272 332
#     4  11  22  38  60  81 112 150 183 236 290 332
#     4  10  19  33  58  83 110 146 193 227 276 330
#     4  11  20  37  57  84 113 143 188 231 278 333
#     4  11  22  34  52  82 117 147 184 230 274 325
#
# _framework density 18.591576
#
# number of rings (size 3 to 8) (size 9 to 14) (size 15 to 20)
#    0.000    1.625    3.750    3.375    0.000    0.000 
#    0.000    0.625    0.000    6.375    0.000    0.000 
#    0.000    0.000    0.000    0.000    0.000    0.000 
#
# Total GULP energy -396634.910537 kJ/mol
# GULP energy per Si atom -12394.840954 kJ/mol
# Density = 1.854926 g / cm^3
# Si number density = 18.591576 Si / 1000 Ang^3
#
#
#
# Elastic Constant Matrix: (Units=GPa)
#
#
# Indices 1 2 3 4 5 6 
#
# 1 93.2691 22.0125 31.5088 0.0000 3.6962 0.0000
# 2 22.0125 77.6850 11.5667 0.0000 3.8540 0.0000
# 3 31.5088 11.5667 68.0679 0.0000 -2.8589 0.0000
# 4 0.0000 0.0000 0.0000 21.9372 0.0000 -7.1974
# 5 3.6962 3.8540 -2.8589 0.0000 29.0150 0.0000
# 6 0.0000 0.0000 0.0000 -7.1974 0.0000 18.9243
#
#
#
# Elastic Compliance Matrix: (Units=1/GPa)
#
#
# Indices 1 2 3 4 5 6 
#
# 1 0.013433 -0.002846 -0.005815 0.000000 -0.001906 0.000000
# 2 -0.002846 0.013924 -0.001116 0.000000 -0.001597 0.000000
# 3 -0.005815 -0.001116 0.017683 0.000000 0.002631 0.000000
# 4 0.000000 0.000000 0.000000 0.052084 0.000000 0.019809
# 5 -0.001906 -0.001597 0.002631 0.000000 0.035179 0.000000
# 6 0.000000 0.000000 0.000000 0.019809 0.000000 0.060376
#
#
# Mechanical properties :
#
#
# Convention : Reuss Voigt Hill
#
# Bulk Modulus (GPa) = 39.23499 41.02199 40.12849
# Shear Modulus (GPa) = 22.65229 25.57090 24.11159
#
# Velocity S-wave (km/s) = 3.49437 3.71267 3.60517
# Velocity P-wave (km/s) = 6.11803 6.36327 6.24185
#
# Compressibility (1/GPa) = 0.02548746
#
# Stress axis : x y z
#
# Youngs Moduli (GPa) = 74.44199 71.81686 56.55155
#
# Poissons Ratio (x) = 0.20440 0.32883
# Poissons Ratio (y) = 0.21187 0.06310
# Poissons Ratio (z) = 0.43286 0.08013
#
# Static dielectric constant tensor:
#      x y z
#    x 3.561490 0.000000 0.113350 
#    y 0.000000 3.425770 0.000000 
#    z 0.113350 0.000000 3.446070 
# 
# 
# High freq. dielectric constant tensor:
#      x y z
#    x 1.728800 0.000000 0.003380 
#    y 0.000000 1.689910 0.000000 
#    z 0.003380 0.000000 1.722400 
# 
# From -- ./inp_files/112022.got.cif
#   From: 2010.06.25/outbox.cif.g09.slc.cpg/sg12_57_cif.got.tgz:112022.got - 2010.06.28 00:19:55.
