data_PCOD8090144
_publ_section_title
;
Structure prediction by ZEFSAII (Michael W. Deem and Ramdas Pophale) SiO2 
 PCOD8090144
Probable space group: C 2/M
;
_chemical_formula_sum "Si O2"
_cell_formula_units_Z 56
_cell_length_a 12.769971
_cell_length_b 17.101032
_cell_length_c 12.388879
_cell_angle_alpha 90.000000
_cell_angle_beta 95.506161
_cell_angle_gamma 90.000000
_cell_volume 2692.996075
_symmetry_space_group_name_H-M "C 2/M"
_symmetry_group_IT_number 12
_symmetry_cell_setting 'monoclinic'
loop_
_space_group_symop_operation_xyz
x,y,z
-x,y,-z
-x,-y,-z
x,-y,z
1/2+x,1/2+y,z
1/2-x,1/2+y,-z
1/2-x,1/2-y,-z
1/2+x,1/2-y,z
loop_
_atom_site_type_symbol
_atom_site_label
_atom_site_fract_x
_atom_site_fract_y
_atom_site_fract_z
Si Si1 0.018449 0.909806 0.230127
Si Si2 0.208579 0.089565 0.104648
Si Si3 0.600199 0.316381 0.436872
Si Si4 0.174915 0.354635 0.483535
Si Si5 0.393112 0.087001 0.736656
Si Si6 0.290424 0.406337 0.134590
Si Si7 0.880413 0.406505 0.286575
O O1 0.087192 0.903149 0.127857
O O2 0.075460 0.853126 0.319272
O O3 0.901281 0.878424 0.195676
O O4 0.018831 0.000000 0.271723
O O5 0.287218 0.126983 0.201646
O O6 0.243390 0.000000 0.098814
O O7 0.222123 0.128089 0.987769
O O8 0.500000 0.330841 0.500000
O O9 0.699183 0.360512 0.499091
O O10 0.631859 0.226137 0.428881
O O11 0.140468 0.418255 0.392304
O O12 0.125381 0.368172 0.595848
O O13 0.304992 0.129587 0.802489
O O14 0.510323 0.123240 0.756733
O O15 0.400244 0.000000 0.783370
O O16 0.292251 0.500000 0.133298
O O17 0.876349 0.500000 0.300945
#
# Coordination Sequence:
#
# PCOD8090144 Si02
#       7
#     8   8   8   8   8   8   8
#     4  10  19  34  55  81 111 141 179 225 271 325
#     4   9  17  31  53  82 111 141 179 222 270 321
#     4  11  23  36  54  80 106 144 179 221 277 324
#     4  11  22  37  54  78 109 145 183 222 268 327
#     4  10  20  33  53  80 110 145 182 225 269 313
#     4   9  18  32  53  84 114 140 176 224 274 318
#     4  10  19  33  55  82 112 146 184 223 263 317
#
# _framework density 20.794684
#
# number of rings (size 3 to 8) (size 9 to 14) (size 15 to 20)
#    0.000    2.000    1.429    3.000    0.000    4.286 
#    0.000    2.857    0.000    0.857    7.429    0.000 
#    0.000    0.000    0.000    0.000    0.000    0.286 
#
# Total GULP energy -347078.247884 kJ/mol
# GULP energy per Si atom -12395.651710 kJ/mol
# Density = 2.074735 g / cm^3
# Si number density = 20.794684 Si / 1000 Ang^3
#
#
#
# Elastic Constant Matrix: (Units=GPa)
#
#
# Indices 1 2 3 4 5 6 
#
# 1 168.9382 18.5743 58.5385 0.0000 -16.1440 0.0000
# 2 18.5743 27.0131 26.7732 0.0000 3.6461 0.0000
# 3 58.5385 26.7732 122.7706 0.0000 -2.1034 0.0000
# 4 0.0000 0.0000 0.0000 10.0478 0.0000 2.7190
# 5 -16.1440 3.6461 -2.1034 0.0000 33.1986 0.0000
# 6 0.0000 0.0000 0.0000 2.7190 0.0000 21.6869
#
#
#
# Elastic Compliance Matrix: (Units=1/GPa)
#
#
# Indices 1 2 3 4 5 6 
#
# 1 0.007619 -0.002832 -0.002949 0.000000 0.003829 0.000000
# 2 -0.002832 0.049440 -0.009558 0.000000 -0.007413 0.000000
# 3 -0.002949 -0.009558 0.011642 0.000000 0.000353 0.000000
# 4 0.000000 0.000000 0.000000 0.103019 0.000000 -0.012916
# 5 0.003829 -0.007413 0.000353 0.000000 0.032820 0.000000
# 6 0.000000 0.000000 0.000000 -0.012916 0.000000 0.047730
#
#
# Mechanical properties :
#
#
# Convention : Reuss Voigt Hill
#
# Bulk Modulus (GPa) = 26.30109 58.49932 42.40021
# Shear Modulus (GPa) = 16.91337 27.30905 22.11121
#
# Velocity S-wave (km/s) = 2.85502 3.62784 3.26438
# Velocity P-wave (km/s) = 4.85218 6.76323 5.88578
#
# Compressibility (1/GPa) = 0.03802124
#
# Stress axis : x y z
#
# Youngs Moduli (GPa) = 131.25745 20.22643 85.89549
#
# Poissons Ratio (x) = 0.05728 0.25334
# Poissons Ratio (y) = 0.37174 0.82101
# Poissons Ratio (z) = 0.38713 0.19333
#
# Static dielectric constant tensor:
#      x y z
#    x 4.141650 0.000000 -0.013870 
#    y 0.000000 3.292050 0.000000 
#    z -0.013870 0.000000 3.784810 
# 
# 
# High freq. dielectric constant tensor:
#      x y z
#    x 1.838850 0.000000 -0.001870 
#    y 0.000000 1.761300 0.000000 
#    z -0.001870 0.000000 1.811520 
# 
# From -- ./inp_files/133216.got.cif
#   From: 2010.06.25/outbox.cif.g09.slc.cpg/sg12_67_cif.got.tgz:133216.got - 2010.06.28 00:19:55.
