data_PCOD8090875
_publ_section_title
;
Structure prediction by ZEFSAII (Michael W. Deem and Ramdas Pophale) SiO2 
 PCOD8090875
Probable space group: C 2/M
;
_chemical_formula_sum "Si O2"
_cell_formula_units_Z 48
_cell_length_a 19.448813
_cell_length_b 8.735438
_cell_length_c 15.971817
_cell_angle_alpha 90.000000
_cell_angle_beta 103.484072
_cell_angle_gamma 90.000000
_cell_volume 2638.715663
_symmetry_space_group_name_H-M "C 2/M"
_symmetry_group_IT_number 12
_symmetry_cell_setting 'monoclinic'
loop_
_space_group_symop_operation_xyz
x,y,z
-x,y,-z
-x,-y,-z
x,-y,z
1/2+x,1/2+y,z
1/2-x,1/2+y,-z
1/2-x,1/2-y,-z
1/2+x,1/2-y,z
loop_
_atom_site_type_symbol
_atom_site_label
_atom_site_fract_x
_atom_site_fract_y
_atom_site_fract_z
Si Si1 0.680778 0.818537 0.522275
Si Si2 0.919503 0.823675 0.633574
Si Si3 0.019933 0.817520 0.098203
Si Si4 0.811955 0.317935 0.286203
Si Si5 0.452154 0.181417 0.236057
Si Si6 0.840571 0.175160 0.780729
O O1 0.750000 0.750000 0.500000
O O2 0.610105 0.759981 0.456605
O O3 0.674881 0.759690 0.615878
O O4 0.685111 0.000000 0.517473
O O5 0.992019 0.744578 0.681458
O O6 0.861318 0.807636 0.689727
O O7 0.934983 0.000000 0.617545
O O8 0.963462 0.748897 0.146790
O O9 0.098185 0.751205 0.143269
O O10 0.017737 0.000000 0.106953
O O11 0.000000 0.762197 0.000000
O O12 0.806505 0.500000 0.286867
O O13 0.737137 0.249251 0.230031
O O14 0.874719 0.263329 0.243583
O O15 0.458466 0.000000 0.235079
O O16 0.835720 0.000000 0.806268
#
# Coordination Sequence:
#
# PCOD8090875 Si02
#       6
#     8   8   8   8   8   8
#     4  11  20  32  51  76 104 137 183 224 257 301
#     4  10  19  34  53  73 102 140 178 216 259 307
#     4   9  18  34  57  80 102 132 169 211 261 318
#     4   9  18  32  50  73 103 140 174 211 263 311
#     4  10  20  34  53  76 103 134 172 217 262 308
#     4   8  14  29  52  72  95 133 174 204 245 311
#
# _framework density 18.190667999999999
#
# number of rings (size 3 to 8) (size 9 to 14) (size 15 to 20)
#    0.000    2.500    1.667    2.500    0.000    1.000 
#    0.000    7.500    0.000    0.000    0.000    0.000 
#    0.000    0.000    0.000    0.000    0.000    0.000 
#
# Total GULP energy -297513.078530 kJ/mol
# GULP energy per Si atom -12396.378272 kJ/mol
# Density = 1.814927 g / cm^3
# Si number density = 18.190668 Si / 1000 Ang^3
#
#
#
# Elastic Constant Matrix: (Units=GPa)
#
#
# Indices 1 2 3 4 5 6 
#
# 1 153.2250 31.3240 81.4774 0.0000 -4.3227 0.0000
# 2 31.3240 47.7975 34.0326 0.0000 -0.6559 0.0000
# 3 81.4774 34.0326 141.9835 0.0000 8.2003 0.0000
# 4 0.0000 0.0000 0.0000 23.7907 0.0000 0.2002
# 5 -4.3227 -0.6559 8.2003 0.0000 23.5184 0.0000
# 6 0.0000 0.0000 0.0000 0.2002 0.0000 23.3244
#
#
#
# Elastic Compliance Matrix: (Units=1/GPa)
#
#
# Indices 1 2 3 4 5 6 
#
# 1 0.010001 -0.002737 -0.005292 0.000000 0.003607 0.000000
# 2 -0.002737 0.026167 -0.004811 0.000000 0.001904 0.000000
# 3 -0.005292 -0.004811 0.011529 0.000000 -0.005127 0.000000
# 4 0.000000 0.000000 0.000000 0.042036 0.000000 -0.000361
# 5 0.003607 0.001904 -0.005127 0.000000 0.045023 0.000000
# 6 0.000000 0.000000 0.000000 -0.000361 0.000000 0.042877
#
#
# Mechanical properties :
#
#
# Convention : Reuss Voigt Hill
#
# Bulk Modulus (GPa) = 45.41859 70.74158 58.08009
# Shear Modulus (GPa) = 23.73565 27.20486 25.47026
#
# Velocity S-wave (km/s) = 3.61616 3.87142 3.74596
# Velocity P-wave (km/s) = 6.51596 7.67836 7.12092
#
# Compressibility (1/GPa) = 0.02201741
#
# Stress axis : x y z
#
# Youngs Moduli (GPa) = 99.98514 38.21558 86.73785
#
# Poissons Ratio (x) = 0.10461 0.45898
# Poissons Ratio (y) = 0.27369 0.41733
# Poissons Ratio (z) = 0.52908 0.18387
#
# Static dielectric constant tensor:
#      x y z
#    x 3.624140 0.000000 0.164920 
#    y 0.000000 3.130280 0.000000 
#    z 0.164920 0.000000 3.356480 
# 
# 
# High freq. dielectric constant tensor:
#      x y z
#    x 1.711940 0.000000 0.012020 
#    y 0.000000 1.680420 0.000000 
#    z 0.012020 0.000000 1.692770 
# 
# From -- ./inp_files/221527.got.cif
#   From: 2010.06.25/outbox.cif.g09.slc.cpg/sg12_111_cif.got.tgz:221527.got - 2010.06.28 00:19:55.
