data_PCOD8090992
_publ_section_title
;
Structure prediction by ZEFSAII (Michael W. Deem and Ramdas Pophale) SiO2 
 PCOD8090992
Probable space group: C 2/M
;
_chemical_formula_sum "Si O2"
_cell_formula_units_Z 64
_cell_length_a 31.099783
_cell_length_b 8.924520
_cell_length_c 14.857463
_cell_angle_alpha 90.000000
_cell_angle_beta 48.522064
_cell_angle_gamma 90.000000
_cell_volume 3089.519436
_symmetry_space_group_name_H-M "C 2/M"
_symmetry_group_IT_number 12
_symmetry_cell_setting 'monoclinic'
loop_
_space_group_symop_operation_xyz
x,y,z
-x,y,-z
-x,-y,-z
x,-y,z
1/2+x,1/2+y,z
1/2-x,1/2+y,-z
1/2-x,1/2-y,-z
1/2+x,1/2-y,z
loop_
_atom_site_type_symbol
_atom_site_label
_atom_site_fract_x
_atom_site_fract_y
_atom_site_fract_z
Si Si1 0.114382 0.176132 0.207553
Si Si2 0.411535 0.822841 0.371948
Si Si3 0.175241 0.672696 0.771498
Si Si4 0.289449 0.829188 0.586751
Si Si5 0.805796 0.671675 0.774280
Si Si6 0.554400 0.178070 0.868688
Si Si7 0.307670 0.826573 0.043151
Si Si8 0.499208 0.176202 0.605804
O O1 0.135056 0.263377 0.268598
O O2 0.049852 0.227672 0.278279
O O3 0.118588 0.000000 0.217143
O O4 0.149715 0.224068 0.071532
O O5 0.345741 0.760142 0.458450
O O6 0.447991 0.772921 0.233235
O O7 0.443206 0.774455 0.420450
O O8 0.404856 0.000000 0.381863
O O9 0.177679 0.500000 0.742128
O O10 0.230444 0.744103 0.644813
O O11 0.114666 0.742228 0.823383
O O12 0.178226 0.701817 0.872861
O O13 0.305630 0.812975 0.668426
O O14 0.278698 0.000000 0.574210
O O15 0.798302 0.500000 0.815030
O O16 0.756459 0.771602 0.888613
O O17 0.553361 0.000000 0.880774
O O18 0.500000 0.245296 0.000000
O O19 0.314054 0.000000 0.007029
O O20 0.500000 0.220687 0.500000
O O21 0.487274 0.000000 0.634844
#
# Coordination Sequence:
#
# PCOD8090992 Si02
#       8
#     8   8   8   8   8   8   8   8
#     4  12  24  35  51  77 110 147 187 231 282 340
#     4   9  18  33  56  83 111 145 189 233 279 333
#     4   9  19  34  55  84 112 143 185 231 278 330
#     4   9  18  34  57  83 111 145 182 226 279 337
#     4  10  19  34  54  77 109 147 187 230 281 334
#     4   9  18  32  54  84 115 145 184 235 280 326
#     4  10  20  34  53  78 109 144 186 233 281 332
#     4  10  21  38  59  82 108 143 189 236 281 332
#
# _framework density 20.715194
#
# number of rings (size 3 to 8) (size 9 to 14) (size 15 to 20)
#    0.000    2.250    0.000    3.000    1.750    3.750 
#    0.000    0.625    0.000    1.125    0.000    0.000 
#    0.000    0.000    0.000    0.000    0.000    0.000 
#
# Total GULP energy -396688.376706 kJ/mol
# GULP energy per Si atom -12396.511772 kJ/mol
# Density = 2.066805 g / cm^3
# Si number density = 20.715194 Si / 1000 Ang^3
#
#
#
# Elastic Constant Matrix: (Units=GPa)
#
#
# Indices 1 2 3 4 5 6 
#
# 1 115.0566 27.5981 54.1996 0.0000 -24.4508 0.0001
# 2 27.5981 46.8109 15.4716 -0.0001 -3.7660 0.0003
# 3 54.1996 15.4716 121.1962 0.0000 -21.9547 0.0000
# 4 0.0000 -0.0001 0.0000 22.0177 0.0000 -8.4336
# 5 -24.4508 -3.7660 -21.9547 0.0000 31.9884 0.0000
# 6 0.0001 0.0003 0.0000 -8.4336 0.0000 18.7276
#
#
#
# Elastic Compliance Matrix: (Units=1/GPa)
#
#
# Indices 1 2 3 4 5 6 
#
# 1 0.013497 -0.006078 -0.004021 0.000000 0.006842 0.000000
# 2 -0.006078 0.025057 -0.000900 0.000000 -0.002313 0.000000
# 3 -0.004021 -0.000900 0.010949 0.000000 0.004336 0.000000
# 4 0.000000 0.000000 0.000000 0.054886 0.000000 0.024717
# 5 0.006842 -0.002313 0.004336 0.000000 0.039194 0.000000
# 6 0.000000 0.000000 0.000000 0.024717 0.000000 0.064528
#
#
# Mechanical properties :
#
#
# Convention : Reuss Voigt Hill
#
# Bulk Modulus (GPa) = 36.35460 53.06693 44.71077
# Shear Modulus (GPa) = 20.89619 26.93302 23.91461
#
# Velocity S-wave (km/s) = 3.17951 3.60968 3.40140
# Velocity P-wave (km/s) = 5.57377 6.56095 6.08740
#
# Compressibility (1/GPa) = 0.02750683
#
# Stress axis : x y z
#
# Youngs Moduli (GPa) = 74.08867 39.90855 91.32873
#
# Poissons Ratio (x) = 0.24257 0.36721
# Poissons Ratio (y) = 0.45033 0.08216
# Poissons Ratio (z) = 0.29789 0.03590
#
# Static dielectric constant tensor:
#      x y z
#    x 3.908810 0.000000 -0.181070 
#    y 0.000000 3.433650 0.000000 
#    z -0.181070 0.000000 3.931980 
# 
# 
# High freq. dielectric constant tensor:
#      x y z
#    x 1.817760 0.000000 -0.004860 
#    y 0.000000 1.769330 0.000000 
#    z -0.004860 0.000000 1.820130 
# 
# From -- ./inp_files/249694.got.cif
#   From: 2010.06.25/outbox.cif.g09.slc.cpg/sg12_125_cif.got.tgz:249694.got - 2010.06.28 00:19:55.
