data_PCOD8090819
_publ_section_title
;
Structure prediction by ZEFSAII (Michael W. Deem and Ramdas Pophale) SiO2 
 PCOD8090819
Probable space group: C 2/M
;
_chemical_formula_sum "Si O2"
_cell_formula_units_Z 64
_cell_length_a 17.171902
_cell_length_b 13.146577
_cell_length_c 28.235440
_cell_angle_alpha 90.000000
_cell_angle_beta 149.584274
_cell_angle_gamma 90.000000
_cell_volume 3227.069028
_symmetry_space_group_name_H-M "C 2/M"
_symmetry_group_IT_number 12
_symmetry_cell_setting 'monoclinic'
loop_
_space_group_symop_operation_xyz
x,y,z
-x,y,-z
-x,-y,-z
x,-y,z
1/2+x,1/2+y,z
1/2-x,1/2+y,-z
1/2-x,1/2-y,-z
1/2+x,1/2-y,z
loop_
_atom_site_type_symbol
_atom_site_label
_atom_site_fract_x
_atom_site_fract_y
_atom_site_fract_z
Si Si1 0.090688 0.384008 0.500302
Si Si2 0.795135 0.387698 0.059341
Si Si3 0.629675 0.239408 0.345640
Si Si4 0.863123 0.302766 0.995024
Si Si5 0.286636 0.208203 0.797466
Si Si6 0.639833 0.384889 0.804233
Si Si7 0.850986 0.384964 0.733269
Si Si8 0.062785 0.617376 0.680152
O O1 0.149268 0.500000 0.537052
O O2 0.235568 0.312370 0.565501
O O3 0.000000 0.349456 0.500000
O O4 0.979602 0.375083 0.397093
O O5 0.725906 0.500000 0.028417
O O6 0.788850 0.357706 0.001163
O O7 0.965857 0.382796 0.168859
O O8 0.688029 0.314589 0.033983
O O9 0.496944 0.309272 0.252182
O O10 0.700612 0.166636 0.342601
O O11 0.568087 0.170178 0.356348
O O12 0.046073 0.305027 0.092007
O O13 0.796676 0.360598 0.914773
O O14 0.175104 0.131226 0.767130
O O15 0.279506 0.177981 0.738990
O O16 0.224985 0.323556 0.771593
O O17 0.587015 0.500000 0.785644
O O18 0.788377 0.500000 0.702325
O O19 0.083635 0.500000 0.707065
#
# Coordination Sequence:
#
# PCOD8090819 Si02
#       8
#     8   8   8   8   8   8   8   8
#     4  10  21  39  63  89 117 148 184 231 290 343
#     4   9  18  32  51  75 108 146 187 234 281 331
#     4  11  21  37  61  87 115 150 189 234 279 347
#     4  10  19  34  51  80 112 146 195 238 281 331
#     4  10  22  36  56  80 114 151 194 235 282 337
#     4  11  22  36  55  83 115 150 193 241 286 333
#     4  10  19  35  57  80 110 151 188 230 284 335
#     4  10  22  40  60  86 117 151 189 233 287 341
#
# _framework density 19.832238
#
# number of rings (size 3 to 8) (size 9 to 14) (size 15 to 20)
#    0.000    1.875    1.250    3.000    0.000    2.500 
#    0.000    0.625    0.000   11.250    0.000    0.000 
#    0.000    0.000    0.000    0.000    0.000    0.000 
#
# Total GULP energy -396836.143631 kJ/mol
# GULP energy per Si atom -12401.129488 kJ/mol
# Density = 1.978710 g / cm^3
# Si number density = 19.832238 Si / 1000 Ang^3
#
#
#
# Elastic Constant Matrix: (Units=GPa)
#
#
# Indices 1 2 3 4 5 6 
#
# 1 75.1844 32.5246 10.8203 0.0000 -5.2045 0.0000
# 2 32.5246 137.8710 21.4848 0.0001 4.6736 0.0000
# 3 10.8203 21.4848 49.6310 0.0005 -4.4050 0.0001
# 4 0.0000 0.0001 0.0005 29.0073 0.0001 0.9266
# 5 -5.2045 4.6736 -4.4050 0.0001 26.2074 0.0000
# 6 0.0000 0.0000 0.0001 0.9266 0.0000 28.9877
#
#
#
# Elastic Compliance Matrix: (Units=1/GPa)
#
#
# Indices 1 2 3 4 5 6 
#
# 1 0.015259 -0.003478 -0.001520 0.000000 0.003395 0.000000
# 2 -0.003478 0.008673 -0.003243 0.000000 -0.002783 0.000000
# 3 -0.001520 -0.003243 0.022240 0.000000 0.004015 0.000000
# 4 0.000000 0.000000 0.000000 0.034509 0.000000 -0.001103
# 5 0.003395 -0.002783 0.004015 0.000000 0.040002 0.000000
# 6 0.000000 0.000000 0.000000 -0.001103 0.000000 0.034533
#
#
# Mechanical properties :
#
#
# Convention : Reuss Voigt Hill
#
# Bulk Modulus (GPa) = 33.68074 43.59397 38.63736
# Shear Modulus (GPa) = 27.53364 30.03092 28.78228
#
# Velocity S-wave (km/s) = 3.73007 3.89556 3.81371
# Velocity P-wave (km/s) = 5.96414 6.50099 6.23834
#
# Compressibility (1/GPa) = 0.02969056
#
# Stress axis : x y z
#
# Youngs Moduli (GPa) = 65.53546 115.29551 44.96329
#
# Poissons Ratio (x) = 0.40099 0.06833
# Poissons Ratio (y) = 0.22793 0.14583
# Poissons Ratio (z) = 0.09960 0.37394
#
# Static dielectric constant tensor:
#      x y z
#    x 3.532090 0.000000 -0.089000 
#    y 0.000000 3.767770 0.000000 
#    z -0.089000 0.000000 3.367720 
# 
# 
# High freq. dielectric constant tensor:
#      x y z
#    x 1.774110 0.000000 -0.009670 
#    y 0.000000 1.782950 0.000000 
#    z -0.009670 0.000000 1.753490 
# 
# From -- ./inp_files/296522.got.cif
#   From: 2010.06.25/outbox.cif.g09.slc.cpg/sg12_149_cif.got.tgz:296522.got - 2010.06.28 00:19:55.
