data_PCOD8090219
_publ_section_title
;
Structure prediction by ZEFSAII (Michael W. Deem and Ramdas Pophale) SiO2 
 PCOD8090219
Probable space group: C 2/M
;
_chemical_formula_sum "Si O2"
_cell_formula_units_Z 56
_cell_length_a 28.414525
_cell_length_b 8.588793
_cell_length_c 19.413216
_cell_angle_alpha 90.000000
_cell_angle_beta 144.665383
_cell_angle_gamma 90.000000
_cell_volume 2740.067260
_symmetry_space_group_name_H-M "C 2/M"
_symmetry_group_IT_number 12
_symmetry_cell_setting 'monoclinic'
loop_
_space_group_symop_operation_xyz
x,y,z
-x,y,-z
-x,-y,-z
x,-y,z
1/2+x,1/2+y,z
1/2-x,1/2+y,-z
1/2-x,1/2-y,-z
1/2+x,1/2-y,z
loop_
_atom_site_type_symbol
_atom_site_label
_atom_site_fract_x
_atom_site_fract_y
_atom_site_fract_z
Si Si1 0.997488 0.182700 0.291772
Si Si2 0.786177 0.817140 0.613224
Si Si3 0.829384 0.318675 0.061613
Si Si4 0.043772 0.684171 0.205361
Si Si5 0.941686 0.816479 0.489409
Si Si6 0.130496 0.319620 0.044018
Si Si7 0.736657 0.684533 0.694046
O O1 0.902257 0.218529 0.179766
O O2 0.041977 0.275582 0.283955
O O3 0.033272 0.246972 0.405879
O O4 0.013453 0.000000 0.300133
O O5 0.750000 0.750000 0.500000
O O6 0.878693 0.762982 0.737032
O O7 0.733215 0.759837 0.614506
O O8 0.782167 0.000000 0.603000
O O9 0.841464 0.500000 0.093900
O O10 0.750000 0.250000 0.000000
O O11 0.823603 0.293055 0.973007
O O12 0.050394 0.500000 0.204913
O O13 0.961467 0.749595 0.069814
O O14 0.846690 0.773603 0.364566
O O15 0.000000 0.741551 0.500000
O O16 0.955237 0.000000 0.504988
O O17 0.121442 0.500000 0.049514
O O18 0.186920 0.245432 0.171243
O O19 0.743824 0.500000 0.693633
#
# Coordination Sequence:
#
# PCOD8090219 Si02
#       7
#     8   8   8   8   8   8   8
#     4  10  19  33  55  84 115 150 195 244 296 350
#     4  12  25  41  62  89 118 152 197 244 300 357
#     4  10  20  34  54  82 112 152 200 248 299 350
#     4  10  20  38  61  87 120 155 197 243 293 349
#     4   9  19  33  55  84 112 149 196 241 286 344
#     4   8  18  35  58  85 116 156 197 239 290 356
#     4  10  20  38  62  87 118 155 198 244 293 351
#
# _framework density 20.437455
#
# number of rings (size 3 to 8) (size 9 to 14) (size 15 to 20)
#    0.000    2.143    0.000    4.286    2.000    1.714 
#    0.000    7.857    0.000    2.143    0.000    0.000 
#    0.000    0.000    0.000    0.000    0.000    0.000 
#
# Total GULP energy -347152.312123 kJ/mol
# GULP energy per Si atom -12398.296862 kJ/mol
# Density = 2.039094 g / cm^3
# Si number density = 20.437455 Si / 1000 Ang^3
#
#
#
# Elastic Constant Matrix: (Units=GPa)
#
#
# Indices 1 2 3 4 5 6 
#
# 1 111.7411 29.5402 48.5041 0.0000 12.0545 0.0000
# 2 29.5402 62.7332 26.7405 0.0000 1.8465 0.0000
# 3 48.5041 26.7405 126.4195 0.0000 -8.5286 0.0000
# 4 0.0000 0.0000 0.0000 22.6419 0.0000 1.4144
# 5 12.0545 1.8465 -8.5286 0.0000 30.4920 0.0000
# 6 0.0000 0.0000 0.0000 1.4144 0.0000 31.2236
#
#
#
# Elastic Compliance Matrix: (Units=1/GPa)
#
#
# Indices 1 2 3 4 5 6 
#
# 1 0.012511 -0.003846 -0.004387 0.000000 -0.005940 0.000000
# 2 -0.003846 0.018841 -0.002532 0.000000 -0.000328 0.000000
# 3 -0.004387 -0.002532 0.010454 0.000000 0.004812 0.000000
# 4 0.000000 0.000000 0.000000 0.044291 0.000000 -0.002006
# 5 -0.005940 -0.000328 0.004812 0.000000 0.036510 0.000000
# 6 0.000000 0.000000 0.000000 -0.002006 0.000000 0.032118
#
#
# Mechanical properties :
#
#
# Convention : Reuss Voigt Hill
#
# Bulk Modulus (GPa) = 49.32265 56.71817 53.02041
# Shear Modulus (GPa) = 27.32038 29.94544 28.63291
#
# Velocity S-wave (km/s) = 3.66017 3.83198 3.74706
# Velocity P-wave (km/s) = 6.48446 6.88412 6.68728
#
# Compressibility (1/GPa) = 0.02027466
#
# Stress axis : x y z
#
# Youngs Moduli (GPa) = 79.92674 53.07709 95.66047
#
# Poissons Ratio (x) = 0.20416 0.41971
# Poissons Ratio (y) = 0.30743 0.24217
# Poissons Ratio (z) = 0.35068 0.13437
#
# Static dielectric constant tensor:
#      x y z
#    x 3.818460 0.000000 0.082880 
#    y 0.000000 3.439890 0.000000 
#    z 0.082880 0.000000 4.135840 
# 
# 
# High freq. dielectric constant tensor:
#      x y z
#    x 1.803900 0.000000 0.008970 
#    y 0.000000 1.769000 0.000000 
#    z 0.008970 0.000000 1.809890 
# 
# From -- ./inp_files/292499.got.cif
#   From: 2010.06.25/outbox.cif.g09.slc.cpg/sg12_147_cif.got.tgz:292499.got - 2010.06.28 00:19:55.
