data_PCOD8090345
_publ_section_title
;
Structure prediction by ZEFSAII (Michael W. Deem and Ramdas Pophale) SiO2 
 PCOD8090345
Probable space group: C 2/M
;
_chemical_formula_sum "Si O2"
_cell_formula_units_Z 64
_cell_length_a 28.850637
_cell_length_b 9.437348
_cell_length_c 14.424132
_cell_angle_alpha 90.000000
_cell_angle_beta 58.122083
_cell_angle_gamma 90.000000
_cell_volume 3334.973717
_symmetry_space_group_name_H-M "C 2/M"
_symmetry_group_IT_number 12
_symmetry_cell_setting 'monoclinic'
loop_
_space_group_symop_operation_xyz
x,y,z
-x,y,-z
-x,-y,-z
x,-y,z
1/2+x,1/2+y,z
1/2-x,1/2+y,-z
1/2-x,1/2-y,-z
1/2+x,1/2-y,z
loop_
_atom_site_type_symbol
_atom_site_label
_atom_site_fract_x
_atom_site_fract_y
_atom_site_fract_z
Si Si1 0.600023 0.659406 0.523919
Si Si2 0.800768 0.331910 0.904961
Si Si3 0.001733 0.660268 0.604798
Si Si4 0.267921 0.665014 0.390842
Si Si5 0.182476 0.335120 0.325666
Si Si6 0.112590 0.158672 0.716771
Si Si7 0.491594 0.832490 0.115261
Si Si8 0.583381 0.837819 0.155917
O O1 0.592411 0.500000 0.494951
O O2 0.542051 0.729452 0.610177
O O3 0.629599 0.748635 0.413308
O O4 0.630739 0.663032 0.589559
O O5 0.793625 0.500000 0.926107
O O6 0.803421 0.293208 0.793892
O O7 0.855460 0.274367 0.900369
O O8 0.750000 0.250000 0.000000
O O9 0.023142 0.500000 0.597045
O O10 0.000000 0.700968 0.500000
O O11 0.942829 0.678745 0.714242
O O12 0.260703 0.500000 0.422319
O O13 0.250000 0.750000 0.500000
O O14 0.232550 0.708352 0.338791
O O15 0.330401 0.698766 0.293673
O O16 0.167590 0.500000 0.349348
O O17 0.065414 0.267567 0.792004
O O18 0.092843 0.000000 0.764420
O O19 0.543110 0.769935 0.120277
O O20 0.486792 0.000000 0.136440
O O21 0.500000 0.791665 0.000000
O O22 0.590195 0.000000 0.120820
#
# Coordination Sequence:
#
# PCOD8090345 Si02
#       8
#     8   8   8   8   8   8   8   8
#     4  11  21  33  53  83 119 149 180 230 285 336
#     4  10  22  41  61  83 110 146 190 235 282 329
#     4  10  19  33  56  82 108 148 192 225 272 338
#     4  10  20  35  55  81 114 151 189 233 282 339
#     4  10  21  37  59  83 111 151 198 236 275 340
#     4  10  21  36  53  79 115 149 180 224 286 340
#     4  10  21  37  58  83 108 143 192 234 272 329
#     4   9  18  35  57  79 109 143 179 228 275 324
#
# _framework density 19.190556000000001
#
# number of rings (size 3 to 8) (size 9 to 14) (size 15 to 20)
#    0.000    2.000    2.500    1.125    0.000    5.000 
#    0.000    1.250    0.000    0.000    0.000    0.000 
#    0.000    0.000    0.000    0.000    0.000    0.000 
#
# Total GULP energy -396685.962550 kJ/mol
# GULP energy per Si atom -12396.436330 kJ/mol
# Density = 1.914688 g / cm^3
# Si number density = 19.190556 Si / 1000 Ang^3
#
#
#
# Elastic Constant Matrix: (Units=GPa)
#
#
# Indices 1 2 3 4 5 6 
#
# 1 128.1025 35.4367 53.0312 0.0000 -11.3543 0.0000
# 2 35.4367 55.4234 35.0502 0.0000 -9.2845 0.0000
# 3 53.0312 35.0502 102.9396 0.0000 -4.9690 0.0000
# 4 0.0000 0.0000 0.0000 28.1137 0.0000 -7.2883
# 5 -11.3543 -9.2845 -4.9690 0.0000 33.1705 0.0000
# 6 0.0000 0.0000 0.0000 -7.2883 0.0000 24.7969
#
#
#
# Elastic Compliance Matrix: (Units=1/GPa)
#
#
# Indices 1 2 3 4 5 6 
#
# 1 0.010777 -0.003964 -0.004108 0.000000 0.001964 0.000000
# 2 -0.003964 0.025417 -0.006380 0.000000 0.004801 0.000000
# 3 -0.004108 -0.006380 0.013950 0.000000 -0.001102 0.000000
# 4 0.000000 0.000000 0.000000 0.038504 0.000000 0.011317
# 5 0.001964 0.004801 -0.001102 0.000000 0.031998 0.000000
# 6 0.000000 0.000000 0.000000 0.011317 0.000000 0.043654
#
#
# Mechanical properties :
#
#
# Convention : Reuss Voigt Hill
#
# Bulk Modulus (GPa) = 47.08109 59.27797 53.17953
# Shear Modulus (GPa) = 24.96454 28.07937 26.52195
#
# Velocity S-wave (km/s) = 3.61068 3.82931 3.72160
# Velocity P-wave (km/s) = 6.47838 7.10688 6.79989
#
# Compressibility (1/GPa) = 0.02123995
#
# Stress axis : x y z
#
# Youngs Moduli (GPa) = 92.78698 39.34406 71.68581
#
# Poissons Ratio (x) = 0.15597 0.29446
# Poissons Ratio (y) = 0.36782 0.45737
# Poissons Ratio (z) = 0.38113 0.25103
#
# Static dielectric constant tensor:
#      x y z
#    x 3.884280 0.000000 0.130540 
#    y 0.000000 3.323940 0.000000 
#    z 0.130540 0.000000 3.361570 
# 
# 
# High freq. dielectric constant tensor:
#      x y z
#    x 1.762770 0.000000 0.000680 
#    y 0.000000 1.724890 0.000000 
#    z 0.000680 0.000000 1.736280 
# 
# From -- ./inp_files/248948.got.cif
#   From: 2010.06.25/outbox.cif.g09.slc.cpg/sg12_125_cif.got.tgz:248948.got - 2010.06.28 00:19:55.
