data_PCOD8090053
_publ_section_title
;
Structure prediction by ZEFSAII (Michael W. Deem and Ramdas Pophale) SiO2 
 PCOD8090053
Probable space group: C 2/M
;
_chemical_formula_sum "Si O2"
_cell_formula_units_Z 56
_cell_length_a 18.045144
_cell_length_b 8.354425
_cell_length_c 18.742247
_cell_angle_alpha 90.000000
_cell_angle_beta 75.604428
_cell_angle_gamma 90.000000
_cell_volume 2736.806575
_symmetry_space_group_name_H-M "C 2/M"
_symmetry_group_IT_number 12
_symmetry_cell_setting 'monoclinic'
loop_
_space_group_symop_operation_xyz
x,y,z
-x,y,-z
-x,-y,-z
x,-y,z
1/2+x,1/2+y,z
1/2-x,1/2+y,-z
1/2-x,1/2-y,-z
1/2+x,1/2-y,z
loop_
_atom_site_type_symbol
_atom_site_label
_atom_site_fract_x
_atom_site_fract_y
_atom_site_fract_z
Si Si1 0.876067 0.313140 0.841359
Si Si2 0.165687 0.811883 0.007562
Si Si3 0.431950 0.814837 0.568401
Si Si4 0.770582 0.815099 0.571963
Si Si5 0.847665 0.812678 0.289587
Si Si6 0.705547 0.688985 0.847414
Si Si7 0.988976 0.813396 0.701195
O O1 0.887057 0.500000 0.823211
O O2 0.792089 0.248036 0.838948
O O3 0.937521 0.212047 0.782983
O O4 0.889604 0.277598 0.922795
O O5 0.149344 0.769539 0.927931
O O6 0.159816 0.000000 0.022557
O O7 0.250000 0.750000 0.000000
O O8 0.500000 0.761471 0.500000
O O9 0.359844 0.706915 0.565718
O O10 0.455392 0.787371 0.644152
O O11 0.410521 0.000000 0.562355
O O12 0.750000 0.750000 0.500000
O O13 0.722648 0.719401 0.641695
O O14 0.748612 0.000000 0.582023
O O15 0.829518 0.734751 0.216333
O O16 0.926426 0.743376 0.302678
O O17 0.858791 0.000000 0.276745
O O18 0.712735 0.500000 0.837909
O O19 0.991182 0.000000 0.680058
#
# Coordination Sequence:
#
# PCOD8090053 Si02
#       7
#     8   8   8   8   8   8   8
#     4  10  19  33  55  80 110 149 192 239 291 346
#     4   9  16  29  51  79 110 143 186 236 287 346
#     4  11  24  42  64  88 117 153 190 231 282 339
#     4  12  25  41  63  90 119 151 190 234 282 336
#     4  10  21  39  60  83 115 152 192 237 287 342
#     4   8  16  32  55  80 105 142 187 231 283 340
#     4  11  23  37  57  85 115 150 192 239 287 339
#
# _framework density 20.461803
#
# number of rings (size 3 to 8) (size 9 to 14) (size 15 to 20)
#    0.000    1.857    0.000    5.571    0.000    5.714 
#    0.000    4.286    0.000    4.286    0.000    0.000 
#    0.000    0.000    0.000    0.000    0.000    0.000 
#
# Total GULP energy -347175.190921 kJ/mol
# GULP energy per Si atom -12399.113961 kJ/mol
# Density = 2.041523 g / cm^3
# Si number density = 20.461803 Si / 1000 Ang^3
#
#
#
# Elastic Constant Matrix: (Units=GPa)
#
#
# Indices 1 2 3 4 5 6 
#
# 1 104.5729 9.2645 50.6813 0.0000 6.1343 0.0000
# 2 9.2645 34.2393 1.8059 0.0000 2.5839 0.0000
# 3 50.6813 1.8059 155.3119 0.0000 7.7173 0.0000
# 4 0.0000 0.0000 0.0000 30.9998 0.0000 -0.0630
# 5 6.1343 2.5839 7.7173 0.0000 35.1981 0.0000
# 6 0.0000 0.0000 0.0000 -0.0630 0.0000 20.5333
#
#
#
# Elastic Compliance Matrix: (Units=1/GPa)
#
#
# Indices 1 2 3 4 5 6 
#
# 1 0.011685 -0.002889 -0.003730 0.000000 -0.001007 0.000000
# 2 -0.002889 0.030092 0.000685 0.000000 -0.001856 0.000000
# 3 -0.003730 0.000685 0.007702 0.000000 -0.001089 0.000000
# 4 0.000000 0.000000 0.000000 0.032258 0.000000 0.000099
# 5 -0.001007 -0.001856 -0.001089 0.000000 0.028961 0.000000
# 6 0.000000 0.000000 0.000000 0.000099 0.000000 0.048702
#
#
# Mechanical properties :
#
#
# Convention : Reuss Voigt Hill
#
# Bulk Modulus (GPa) = 26.58736 46.40305 36.49521
# Shear Modulus (GPa) = 27.20280 32.83772 30.02026
#
# Velocity S-wave (km/s) = 3.65011 4.01038 3.83448
# Velocity P-wave (km/s) = 5.54854 6.64615 6.12199
#
# Compressibility (1/GPa) = 0.03761186
#
# Stress axis : x y z
#
# Youngs Moduli (GPa) = 85.57814 33.23154 129.83952
#
# Poissons Ratio (x) = 0.09601 0.48424
# Poissons Ratio (y) = 0.24725 -0.08895
# Poissons Ratio (z) = 0.31916 -0.02277
#
# Static dielectric constant tensor:
#      x y z
#    x 3.726440 0.000000 0.161680 
#    y 0.000000 3.555300 0.000000 
#    z 0.161680 0.000000 4.172490 
# 
# 
# High freq. dielectric constant tensor:
#      x y z
#    x 1.780660 0.000000 0.003340 
#    y 0.000000 1.786900 0.000000 
#    z 0.003340 0.000000 1.823590 
# 
# From -- ./inp_files/275184.got.cif
#   From: 2010.06.25/outbox.cif.g09.slc.cpg/sg12_138_cif.got.tgz:275184.got - 2010.06.28 00:19:55.
