data_PCOD8090220
_publ_section_title
;
Structure prediction by ZEFSAII (Michael W. Deem and Ramdas Pophale) SiO2 
 PCOD8090220
Probable space group: C 2/M
;
_chemical_formula_sum "Si O2"
_cell_formula_units_Z 44
_cell_length_a 12.772877
_cell_length_b 20.205313
_cell_length_c 10.734472
_cell_angle_alpha 90.000000
_cell_angle_beta 121.146784
_cell_angle_gamma 90.000000
_cell_volume 2370.992247
_symmetry_space_group_name_H-M "C 2/M"
_symmetry_group_IT_number 12
_symmetry_cell_setting 'monoclinic'
loop_
_space_group_symop_operation_xyz
x,y,z
-x,y,-z
-x,-y,-z
x,-y,z
1/2+x,1/2+y,z
1/2-x,1/2+y,-z
1/2-x,1/2-y,-z
1/2+x,1/2-y,z
loop_
_atom_site_type_symbol
_atom_site_label
_atom_site_fract_x
_atom_site_fract_y
_atom_site_fract_z
Si Si1 0.664249 0.076433 0.750469
Si Si2 0.848571 0.301585 0.103445
Si Si3 0.262630 0.155103 0.440868
Si Si4 0.449893 0.733310 0.595504
Si Si5 0.598781 0.927689 0.303725
Si Si6 0.500000 0.129680 0.000000
O O1 0.715724 0.132505 0.877304
O O2 0.715097 0.097564 0.647044
O O3 0.517128 0.080790 0.673949
O O4 0.706225 0.000000 0.804934
O O5 0.907132 0.321716 0.009754
O O6 0.947383 0.269806 0.258883
O O7 0.750000 0.250000 0.000000
O O8 0.353232 0.215960 0.474370
O O9 0.121927 0.180292 0.361386
O O10 0.296485 0.124037 0.595661
O O11 0.500000 0.698356 0.500000
O O12 0.564092 0.917614 0.139182
O O13 0.654771 0.000000 0.352712
#
# Coordination Sequence:
#
# PCOD8090220 Si02
#       6
#     8   8   8   8   8   4
#     4  10  20  37  60  90 116 146 196 247 294 341
#     4  11  24  37  59  84 118 154 195 237 291 345
#     4  11  20  34  60  84 117 143 188 242 295 344
#     4  11  22  37  57  85 115 149 194 240 291 344
#     4  10  19  33  55  84 116 148 186 238 293 348
#     4  10  21  34  50  86 111 146 186 234 294 342
#
# _framework density 18.557631000000001
#
# number of rings (size 3 to 8) (size 9 to 14) (size 15 to 20)
#    0.000    1.455    5.455    1.364    5.091    2.182 
#    0.000    0.000    0.000    5.455    0.000    0.000 
#    0.000    0.000    0.000    0.000    0.000    0.000 
#
# Total GULP energy -272575.958649 kJ/mol
# GULP energy per Si atom -12389.816302 kJ/mol
# Density = 1.851539 g / cm^3
# Si number density = 18.557631 Si / 1000 Ang^3
#
#
#
# Elastic Constant Matrix: (Units=GPa)
#
#
# Indices 1 2 3 4 5 6 
#
# 1 79.1129 43.1837 50.2264 0.0000 -16.7978 0.0000
# 2 43.1837 126.1056 48.7744 0.0000 0.3599 0.0000
# 3 50.2264 48.7744 63.2790 0.0000 -11.5733 0.0000
# 4 0.0000 0.0000 0.0000 42.0630 0.0000 -21.2962
# 5 -16.7978 0.3599 -11.5733 0.0000 27.1443 0.0000
# 6 0.0000 0.0000 0.0000 -21.2962 0.0000 50.9176
#
#
#
# Elastic Compliance Matrix: (Units=1/GPa)
#
#
# Indices 1 2 3 4 5 6 
#
# 1 0.027543 -0.002361 -0.018350 0.000000 0.009252 0.000000
# 2 -0.002361 0.011957 -0.008285 0.000000 -0.005152 0.000000
# 3 -0.018350 -0.008285 0.037631 0.000000 0.004799 0.000000
# 4 0.000000 0.000000 0.000000 0.030161 0.000000 0.012615
# 5 0.009252 -0.005152 0.004799 0.000000 0.044680 0.000000
# 6 0.000000 0.000000 0.000000 0.012615 0.000000 0.024916
#
#
# Mechanical properties :
#
#
# Convention : Reuss Voigt Hill
#
# Bulk Modulus (GPa) = 52.24497 61.42960 56.83729
# Shear Modulus (GPa) = 20.72452 32.44583 26.58517
#
# Velocity S-wave (km/s) = 3.34543 4.18590 3.78904
# Velocity P-wave (km/s) = 6.56784 7.51906 7.05949
#
# Compressibility (1/GPa) = 0.01914060
#
# Stress axis : x y z
#
# Youngs Moduli (GPa) = 36.30654 83.62996 26.57359
#
# Poissons Ratio (x) = 0.19746 0.48762
# Poissons Ratio (y) = 0.08572 0.22016
# Poissons Ratio (z) = 0.66622 0.69286
#
# Static dielectric constant tensor:
#      x y z
#    x 3.196620 0.000000 -0.440600 
#    y 0.000000 3.175250 0.000000 
#    z -0.440600 0.000000 2.952660 
# 
# 
# High freq. dielectric constant tensor:
#      x y z
#    x 1.702070 0.000000 -0.030750 
#    y 0.000000 1.725640 0.000000 
#    z -0.030750 0.000000 1.701420 
# 
# From -- ./inp_files/131861.got.cif
#   From: 2010.06.25/outbox.cif.g09.slc.cpg/sg12_66_cif.got.tgz:131861.got - 2010.06.28 00:19:55.
