data_PCOD8090402
_publ_section_title
;
Structure prediction by ZEFSAII (Michael W. Deem and Ramdas Pophale) SiO2 
 PCOD8090402
Probable space group: C 2/M
;
_chemical_formula_sum "Si O2"
_cell_formula_units_Z 64
_cell_length_a 30.395727
_cell_length_b 9.371433
_cell_length_c 25.975335
_cell_angle_alpha 90.000000
_cell_angle_beta 153.121539
_cell_angle_gamma 90.000000
_cell_volume 3345.135034
_symmetry_space_group_name_H-M "C 2/M"
_symmetry_group_IT_number 12
_symmetry_cell_setting 'monoclinic'
loop_
_space_group_symop_operation_xyz
x,y,z
-x,y,-z
-x,-y,-z
x,-y,z
1/2+x,1/2+y,z
1/2-x,1/2+y,-z
1/2-x,1/2-y,-z
1/2+x,1/2-y,z
loop_
_atom_site_type_symbol
_atom_site_label
_atom_site_fract_x
_atom_site_fract_y
_atom_site_fract_z
Si Si1 0.522537 0.335659 0.255927
Si Si2 0.587617 0.334829 0.214196
Si Si3 0.450311 0.833693 0.000481
Si Si4 0.655828 0.166018 0.770586
Si Si5 0.197355 0.835470 0.989058
Si Si6 0.461342 0.165745 0.625901
Si Si7 0.213255 0.666914 0.632212
Si Si8 0.273757 0.331864 0.249893
O O1 0.524473 0.500000 0.274591
O O2 0.593517 0.306226 0.281630
O O3 0.559216 0.245788 0.342399
O O4 0.414699 0.289576 0.125393
O O5 0.565947 0.500000 0.180729
O O6 0.688505 0.285887 0.294201
O O7 0.497525 0.248079 0.097282
O O8 0.337047 0.796925 0.880000
O O9 0.470115 0.000000 0.029135
O O10 0.500000 0.778632 0.000000
O O11 0.753553 0.197457 0.904767
O O12 0.563555 0.214375 0.708170
O O13 0.657150 0.261856 0.720915
O O14 0.647041 0.000000 0.745661
O O15 0.210528 0.000000 0.988653
O O16 0.250000 0.750000 0.000000
O O17 0.376112 0.204263 0.497755
O O18 0.463030 0.000000 0.641077
O O19 0.215301 0.500000 0.649115
O O20 0.199392 0.761300 0.668096
O O21 0.293758 0.500000 0.273913
#
# Coordination Sequence:
#
# PCOD8090402 Si02
#       8
#     8   8   8   8   8   8   8   8
#     4  10  21  36  56  85 117 146 184 235 283 331
#     4  10  21  37  59  86 115 149 188 229 279 336
#     4  10  20  36  57  84 118 148 180 227 283 339
#     4  10  21  38  59  83 114 150 188 230 278 334
#     4  10  19  33  56  83 113 147 183 225 276 335
#     4  10  22  40  60  82 110 150 196 235 276 331
#     4  10  22  40  60  82 111 149 194 237 276 329
#     4  11  23  38  59  86 115 147 185 231 284 339
#
# _framework density 19.132261
#
# number of rings (size 3 to 8) (size 9 to 14) (size 15 to 20)
#    0.000    1.875    2.500    1.125    0.000    5.250 
#    0.000    2.500    0.000    0.000    0.000    0.000 
#    0.000    0.000    0.000    0.000    0.000    0.000 
#
# Total GULP energy -396939.314804 kJ/mol
# GULP energy per Si atom -12404.353588 kJ/mol
# Density = 1.908872 g / cm^3
# Si number density = 19.132261 Si / 1000 Ang^3
#
#
#
# Elastic Constant Matrix: (Units=GPa)
#
#
# Indices 1 2 3 4 5 6 
#
# 1 97.1514 41.9496 29.6924 0.0000 -30.1793 0.0000
# 2 41.9496 58.5928 43.8688 0.0000 -20.8759 0.0000
# 3 29.6924 43.8688 93.1669 0.0000 -18.9805 0.0000
# 4 0.0000 0.0000 0.0000 28.4409 0.0000 -8.0417
# 5 -30.1793 -20.8759 -18.9805 0.0000 23.1362 0.0000
# 6 0.0000 0.0000 0.0000 -8.0417 0.0000 33.8537
#
#
#
# Elastic Compliance Matrix: (Units=1/GPa)
#
#
# Indices 1 2 3 4 5 6 
#
# 1 0.019260 -0.008210 0.001605 0.000000 0.019032 0.000000
# 2 -0.008210 0.036244 -0.011969 0.000000 0.012175 0.000000
# 3 0.001605 -0.011969 0.016910 0.000000 0.005167 0.000000
# 4 0.000000 0.000000 0.000000 0.037692 0.000000 0.008954
# 5 0.019032 0.012175 0.005167 0.000000 0.083271 0.000000
# 6 0.000000 0.000000 0.000000 0.008954 0.000000 0.031666
#
#
# Mechanical properties :
#
#
# Convention : Reuss Voigt Hill
#
# Bulk Modulus (GPa) = 28.35623 53.32586 40.84104
# Shear Modulus (GPa) = 18.25175 25.97951 22.11563
#
# Velocity S-wave (km/s) = 3.09200 3.68895 3.40359
# Velocity P-wave (km/s) = 5.25363 6.78802 6.06951
#
# Compressibility (1/GPa) = 0.03526562
#
# Stress axis : x y z
#
# Youngs Moduli (GPa) = 51.92193 27.59097 59.13551
#
# Poissons Ratio (x) = 0.22652 -0.09490
# Poissons Ratio (y) = 0.42627 0.70780
# Poissons Ratio (z) = -0.08333 0.33024
#
# Static dielectric constant tensor:
#      x y z
#    x 3.699290 0.000000 0.134560 
#    y 0.000000 3.401420 0.000000 
#    z 0.134560 0.000000 3.500730 
# 
# 
# High freq. dielectric constant tensor:
#      x y z
#    x 1.753560 0.000000 -0.001440 
#    y 0.000000 1.737230 0.000000 
#    z -0.001440 0.000000 1.741500 
# 
# From -- ./inp_files/250073.got.cif
#   From: 2010.06.25/outbox.cif.g09.slc.cpg/sg12_126_cif.got.tgz:250073.got - 2010.06.28 00:19:55.
