data_PCOD8090683
_publ_section_title
;
Structure prediction by ZEFSAII (Michael W. Deem and Ramdas Pophale) SiO2 
 PCOD8090683
Probable space group: C 2/M
;
_chemical_formula_sum "Si O2"
_cell_formula_units_Z 56
_cell_length_a 15.196070
_cell_length_b 8.815697
_cell_length_c 24.389296
_cell_angle_alpha 90.000000
_cell_angle_beta 61.045606
_cell_angle_gamma 90.000000
_cell_volume 2858.893001
_symmetry_space_group_name_H-M "C 2/M"
_symmetry_group_IT_number 12
_symmetry_cell_setting 'monoclinic'
loop_
_space_group_symop_operation_xyz
x,y,z
-x,y,-z
-x,-y,-z
x,-y,z
1/2+x,1/2+y,z
1/2-x,1/2+y,-z
1/2-x,1/2-y,-z
1/2+x,1/2-y,z
loop_
_atom_site_type_symbol
_atom_site_label
_atom_site_fract_x
_atom_site_fract_y
_atom_site_fract_z
Si Si1 0.325531 0.820105 0.933526
Si Si2 0.331983 0.178970 0.712494
Si Si3 0.748424 0.180017 0.846649
Si Si4 0.475364 0.820744 0.067132
Si Si5 0.764434 0.324386 0.359787
Si Si6 0.101472 0.821386 0.496384
Si Si7 0.943723 0.674889 0.379764
O O1 0.306664 0.754452 0.879460
O O2 0.438994 0.772153 0.915655
O O3 0.311749 0.000000 0.937818
O O4 0.250000 0.750000 0.000000
O O5 0.301677 0.267686 0.775666
O O6 0.255330 0.222172 0.687284
O O7 0.443659 0.236536 0.663049
O O8 0.329009 0.000000 0.724403
O O9 0.633076 0.238741 0.880179
O O10 0.754267 0.000000 0.850737
O O11 0.471531 0.000000 0.062733
O O12 0.500000 0.749965 0.000000
O O13 0.742931 0.500000 0.351585
O O14 0.694042 0.269161 0.430889
O O15 0.879729 0.299629 0.343479
O O16 0.113286 0.757510 0.553702
O O17 0.000000 0.755794 0.500000
O O18 0.096862 0.000000 0.502842
O O19 0.947029 0.500000 0.394802
#
# Coordination Sequence:
#
# PCOD8090683 Si02
#       7
#     8   8   8   8   8   8   8
#     4  11  21  37  62  91 121 151 188 234 283 340
#     4  11  24  41  58  83 117 154 196 242 287 342
#     4  11  23  41  63  86 116 156 196 237 289 346
#     4   9  18  36  61  87 116 151 188 225 280 348
#     4  10  21  39  60  84 115 154 196 238 291 350
#     4  10  19  33  58  89 117 146 190 248 296 336
#     4  10  22  38  59  84 116 156 196 236 290 355
#
# _framework density 19.588001999999999
#
# number of rings (size 3 to 8) (size 9 to 14) (size 15 to 20)
#    0.000    1.714    2.857    1.714    0.000    3.143 
#    0.000    9.286    0.000    0.000    0.000    0.000 
#    0.000    0.000    0.000    0.000    0.000    0.000 
#
# Total GULP energy -347272.389823 kJ/mol
# GULP energy per Si atom -12402.585351 kJ/mol
# Density = 1.954342 g / cm^3
# Si number density = 19.588002 Si / 1000 Ang^3
#
#
#
# Elastic Constant Matrix: (Units=GPa)
#
#
# Indices 1 2 3 4 5 6 
#
# 1 131.5310 37.0281 49.3951 0.0000 17.8824 0.0000
# 2 37.0281 52.8424 30.0980 0.0000 6.5711 0.0001
# 3 49.3951 30.0980 112.2709 0.0000 18.4697 0.0000
# 4 0.0000 0.0000 0.0000 34.3138 0.0000 6.3964
# 5 17.8824 6.5711 18.4697 0.0000 23.6307 0.0000
# 6 0.0000 0.0001 0.0000 6.3964 0.0000 30.8827
#
#
#
# Elastic Compliance Matrix: (Units=1/GPa)
#
#
# Indices 1 2 3 4 5 6 
#
# 1 0.010717 -0.005526 -0.002470 0.000000 -0.004643 0.000000
# 2 -0.005526 0.025247 -0.004441 0.000000 0.000632 0.000000
# 3 -0.002470 -0.004441 0.012249 0.000000 -0.006469 0.000000
# 4 0.000000 0.000000 0.000000 0.030313 0.000000 -0.006278
# 5 -0.004643 0.000632 -0.006469 0.000000 0.050712 0.000000
# 6 0.000000 0.000000 0.000000 -0.006278 0.000000 0.033681
#
#
# Mechanical properties :
#
#
# Convention : Reuss Voigt Hill
#
# Bulk Modulus (GPa) = 42.84633 58.85410 50.85022
# Shear Modulus (GPa) = 25.56593 29.77363 27.66978
#
# Velocity S-wave (km/s) = 3.61665 3.90294 3.76252
# Velocity P-wave (km/s) = 6.27387 7.10083 6.70012
#
# Compressibility (1/GPa) = 0.02333922
#
# Stress axis : x y z
#
# Youngs Moduli (GPa) = 93.30848 39.60842 81.64153
#
# Poissons Ratio (x) = 0.21886 0.20166
# Poissons Ratio (y) = 0.51558 0.36260
# Poissons Ratio (z) = 0.23047 0.17591
#
# Static dielectric constant tensor:
#      x y z
#    x 3.573100 0.000000 -0.469160 
#    y 0.000000 3.424110 0.000000 
#    z -0.469160 0.000000 3.090600 
# 
# 
# High freq. dielectric constant tensor:
#      x y z
#    x 1.779480 0.000000 0.000970 
#    y 0.000000 1.747770 0.000000 
#    z 0.000970 0.000000 1.760600 
# 
# From -- ./inp_files/338585.got.cif
#   From: 2010.06.25/outbox.cif.g09.slc.cpg/sg12_170_cif.got.tgz:338585.got - 2010.06.28 00:19:55.
