data_PCOD8090551
_publ_section_title
;
Structure prediction by ZEFSAII (Michael W. Deem and Ramdas Pophale) SiO2 
 PCOD8090551
Probable space group: C 2/M
;
_chemical_formula_sum "Si O2"
_cell_formula_units_Z 64
_cell_length_a 15.538586
_cell_length_b 9.152934
_cell_length_c 23.603930
_cell_angle_alpha 90.000000
_cell_angle_beta 89.361106
_cell_angle_gamma 90.000000
_cell_volume 3356.828423
_symmetry_space_group_name_H-M "C 2/M"
_symmetry_group_IT_number 12
_symmetry_cell_setting 'monoclinic'
loop_
_space_group_symop_operation_xyz
x,y,z
-x,y,-z
-x,-y,-z
x,-y,z
1/2+x,1/2+y,z
1/2-x,1/2+y,-z
1/2-x,1/2-y,-z
1/2+x,1/2-y,z
loop_
_atom_site_type_symbol
_atom_site_label
_atom_site_fract_x
_atom_site_fract_y
_atom_site_fract_z
Si Si1 0.496250 0.673526 0.936438
Si Si2 0.659185 0.326773 0.863451
Si Si3 0.826449 0.167867 0.873779
Si Si4 0.411732 0.829232 0.238473
Si Si5 0.752856 0.673354 0.440096
Si Si6 0.582898 0.829325 0.632271
Si Si7 0.082235 0.165436 0.239431
Si Si8 0.407961 0.669170 0.632259
O O1 0.497850 0.500000 0.937071
O O2 0.578775 0.729894 0.901092
O O3 0.409224 0.728113 0.907008
O O4 0.500000 0.737118 0.000000
O O5 0.663158 0.500000 0.859309
O O6 0.745657 0.266669 0.892265
O O7 0.653894 0.258602 0.800691
O O8 0.841337 0.184183 0.806096
O O9 0.807525 0.000000 0.890068
O O10 0.390642 0.790352 0.303675
O O11 0.508163 0.778630 0.223555
O O12 0.402146 0.000000 0.225947
O O13 0.751227 0.500000 0.447530
O O14 0.750000 0.750000 0.500000
O O15 0.839778 0.724062 0.408115
O O16 0.670874 0.728025 0.404658
O O17 0.495314 0.750554 0.614153
O O18 0.565474 0.000000 0.626147
O O19 0.117677 0.197368 0.302044
O O20 0.044492 0.000000 0.235753
O O21 0.424293 0.500000 0.620308
#
# Coordination Sequence:
#
# PCOD8090551 Si02
#       8
#     8   8   8   8   8   8   8   8
#     4   9  19  38  60  79 109 153 192 227 273 332
#     4  11  22  36  55  84 115 147 187 232 279 328
#     4  10  20  35  57  84 112 149 189 225 277 334
#     4  10  19  33  57  84 114 147 183 227 278 335
#     4  10  22  39  57  79 108 147 186 225 270 326
#     4   9  20  37  57  81 111 145 182 224 276 328
#     4   9  17  33  57  82 112 147 183 225 277 334
#     4   9  19  35  57  81 109 143 183 226 273 324
#
# _framework density 19.065615000000001
#
# number of rings (size 3 to 8) (size 9 to 14) (size 15 to 20)
#    0.000    2.375    1.250    0.750    1.750    3.000 
#    0.000    2.500    0.000    2.625    0.000    0.000 
#    0.000    0.000    0.000    0.000    0.000    0.000 
#
# Total GULP energy -396830.012100 kJ/mol
# GULP energy per Si atom -12400.937878 kJ/mol
# Density = 1.902222 g / cm^3
# Si number density = 19.065615 Si / 1000 Ang^3
#
#
#
# Elastic Constant Matrix: (Units=GPa)
#
#
# Indices 1 2 3 4 5 6 
#
# 1 159.0761 49.4110 77.4383 0.0000 9.8695 0.0000
# 2 49.4110 53.8022 37.0359 0.0000 1.4331 0.0000
# 3 77.4383 37.0359 118.1239 0.0000 8.3814 0.0000
# 4 0.0000 0.0000 0.0000 20.1764 0.0000 2.4327
# 5 9.8695 1.4331 8.3814 0.0000 25.3322 0.0000
# 6 0.0000 0.0000 0.0000 2.4327 0.0000 35.1680
#
#
#
# Elastic Compliance Matrix: (Units=1/GPa)
#
#
# Indices 1 2 3 4 5 6 
#
# 1 0.010835 -0.006517 -0.004901 0.000000 -0.002231 0.000000
# 2 -0.006517 0.027655 -0.004575 0.000000 0.002488 0.000000
# 3 -0.004901 -0.004575 0.013271 0.000000 -0.002222 0.000000
# 4 0.000000 0.000000 0.000000 0.049980 0.000000 -0.003457
# 5 -0.002231 0.002488 -0.002222 0.000000 0.040939 0.000000
# 6 0.000000 0.000000 0.000000 -0.003457 0.000000 0.028674
#
#
# Mechanical properties :
#
#
# Convention : Reuss Voigt Hill
#
# Bulk Modulus (GPa) = 50.57183 73.19697 61.88440
# Shear Modulus (GPa) = 23.81721 27.27646 25.54684
#
# Velocity S-wave (km/s) = 3.53827 3.78651 3.66449
# Velocity P-wave (km/s) = 6.57839 7.58897 7.10168
#
# Compressibility (1/GPa) = 0.01977386
#
# Stress axis : x y z
#
# Youngs Moduli (GPa) = 92.29252 36.16004 75.35248
#
# Poissons Ratio (x) = 0.23567 0.36934
# Poissons Ratio (y) = 0.60150 0.34472
# Poissons Ratio (z) = 0.45237 0.16542
#
# Static dielectric constant tensor:
#      x y z
#    x 3.500170 0.000000 0.035280 
#    y 0.000000 3.308970 0.000000 
#    z 0.035280 0.000000 3.588450 
# 
# 
# High freq. dielectric constant tensor:
#      x y z
#    x 1.743800 0.000000 0.003310 
#    y 0.000000 1.721750 0.000000 
#    z 0.003310 0.000000 1.740790 
# 
# From -- ./inp_files/338760.got.cif
#   From: 2010.06.25/outbox.cif.g09.slc.cpg/sg12_170_cif.got.tgz:338760.got - 2010.06.28 00:19:55.
