data_PCOD8090285
_publ_section_title
;
Structure prediction by ZEFSAII (Michael W. Deem and Ramdas Pophale) SiO2 
 PCOD8090285
Probable space group: C 2/M
;
_chemical_formula_sum "Si O2"
_cell_formula_units_Z 48
_cell_length_a 29.331396
_cell_length_b 8.649355
_cell_length_c 19.105753
_cell_angle_alpha 90.000000
_cell_angle_beta 30.964047
_cell_angle_gamma 90.000000
_cell_volume 2493.825609
_symmetry_space_group_name_H-M "C 2/M"
_symmetry_group_IT_number 12
_symmetry_cell_setting 'monoclinic'
loop_
_space_group_symop_operation_xyz
x,y,z
-x,y,-z
-x,-y,-z
x,-y,z
1/2+x,1/2+y,z
1/2-x,1/2+y,-z
1/2-x,1/2-y,-z
1/2+x,1/2-y,z
loop_
_atom_site_type_symbol
_atom_site_label
_atom_site_fract_x
_atom_site_fract_y
_atom_site_fract_z
Si Si1 0.339923 0.182381 0.352874
Si Si2 0.501588 0.316632 0.765694
Si Si3 0.010807 0.816262 0.596224
Si Si4 0.662998 0.815707 0.941035
Si Si5 0.638753 0.683672 0.308991
Si Si6 0.098078 0.682922 0.877344
O O1 0.250000 0.250000 0.500000
O O2 0.424786 0.245552 0.281356
O O3 0.345154 0.233298 0.264833
O O4 0.339371 0.000000 0.361867
O O5 0.508700 0.500000 0.759200
O O6 0.517518 0.252209 0.666160
O O7 0.404445 0.263587 0.916938
O O8 0.919801 0.757186 0.679467
O O9 0.094564 0.757493 0.440061
O O10 0.009527 0.000000 0.599490
O O11 0.761245 0.754913 0.830680
O O12 0.643981 0.756353 0.887349
O O13 0.653847 0.000000 0.959103
O O14 0.639985 0.500000 0.309530
O O15 0.090358 0.500000 0.890892
O O16 0.000000 0.755519 0.000000
#
# Coordination Sequence:
#
# PCOD8090285 Si02
#       6
#     8   8   8   8   8   8
#     4  11  23  39  58  81 110 140 179 222 266 317
#     4  11  22  35  53  79 113 144 174 219 275 322
#     4   8  16  31  51  78 108 137 178 229 268 311
#     4  10  19  33  56  80 103 139 185 225 266 316
#     4   8  15  30  54  79 101 135 186 230 263 310
#     4   9  17  33  55  76 102 138 178 219 258 309
#
# _framework density 19.247537000000001
#
# number of rings (size 3 to 8) (size 9 to 14) (size 15 to 20)
#    0.000    2.500    1.667    2.000    2.333    0.667 
#    0.000    2.500    0.000    1.000    0.000    5.833 
#    0.000    0.000    0.000    0.000    0.000    0.000 
#
# Total GULP energy -297516.593124 kJ/mol
# GULP energy per Si atom -12396.524713 kJ/mol
# Density = 1.920373 g / cm^3
# Si number density = 19.247537 Si / 1000 Ang^3
#
#
#
# Elastic Constant Matrix: (Units=GPa)
#
#
# Indices 1 2 3 4 5 6 
#
# 1 68.8222 16.4267 30.5944 0.0116 5.7100 -0.0100
# 2 16.4267 36.1151 25.3897 -0.0075 3.8256 0.0077
# 3 30.5944 25.3897 126.5927 -0.0040 -4.7494 0.0000
# 4 0.0116 -0.0075 -0.0040 30.1116 0.0067 -0.6198
# 5 5.7100 3.8256 -4.7494 0.0067 42.6355 -0.0051
# 6 -0.0100 0.0077 0.0000 -0.6198 -0.0051 12.2396
#
#
#
# Elastic Compliance Matrix: (Units=1/GPa)
#
#
# Indices 1 2 3 4 5 6 
#
# 1 0.017437 -0.005445 -0.003205 -0.000008 -0.002204 0.000016
# 2 -0.005445 0.034503 -0.005717 0.000010 -0.003004 -0.000027
# 3 -0.003205 -0.005717 0.009897 0.000001 0.002045 0.000002
# 4 -0.000008 0.000010 0.000001 0.033244 -0.000005 0.001684
# 5 -0.002204 -0.003004 0.002045 -0.000005 0.024247 0.000010
# 6 0.000016 -0.000027 0.000002 0.001684 0.000010 0.081787
#
#
# Mechanical properties :
#
#
# Convention : Reuss Voigt Hill
#
# Bulk Modulus (GPa) = 30.20719 41.81682 36.01201
# Shear Modulus (GPa) = 20.75688 27.60528 24.18108
#
# Velocity S-wave (km/s) = 3.28749 3.79122 3.54831
# Velocity P-wave (km/s) = 5.48983 6.39824 5.96136
#
# Compressibility (1/GPa) = 0.03310470
#
# Stress axis : x y z
#
# Youngs Moduli (GPa) = 57.34835 28.98301 101.03895
#
# Poissons Ratio (x) = 0.15780 0.32382
# Poissons Ratio (y) = 0.31224 0.57762
# Poissons Ratio (z) = 0.18379 0.16569
#
# Static dielectric constant tensor:
#      x y z
#    x 3.870530 -0.000010 0.023750 
#    y -0.000010 3.043740 0.000020 
#    z 0.023750 0.000020 3.821460 
# 
# 
# High freq. dielectric constant tensor:
#      x y z
#    x 1.758590 0.000000 0.001240 
#    y 0.000000 1.699280 0.000000 
#    z 0.001240 0.000000 1.762430 
# 
# From -- ./inp_files/295366.got.cif
#   From: 2010.06.25/outbox.cif.g09.slc.cpg/sg12_148_cif.got.tgz:295366.got - 2010.06.28 00:19:55.
