data_PCOD8090677
_publ_section_title
;
Structure prediction by ZEFSAII (Michael W. Deem and Ramdas Pophale) SiO2 
 PCOD8090677
Probable space group: C 2/M
;
_chemical_formula_sum "Si O2"
_cell_formula_units_Z 48
_cell_length_a 24.669028
_cell_length_b 8.747465
_cell_length_c 12.498321
_cell_angle_alpha 90.000000
_cell_angle_beta 71.317833
_cell_angle_gamma 90.000000
_cell_volume 2554.924421
_symmetry_space_group_name_H-M "C 2/M"
_symmetry_group_IT_number 12
_symmetry_cell_setting 'monoclinic'
loop_
_space_group_symop_operation_xyz
x,y,z
-x,y,-z
-x,-y,-z
x,-y,z
1/2+x,1/2+y,z
1/2-x,1/2+y,-z
1/2-x,1/2-y,-z
1/2+x,1/2-y,z
loop_
_atom_site_type_symbol
_atom_site_label
_atom_site_fract_x
_atom_site_fract_y
_atom_site_fract_z
Si Si1 0.061178 0.319173 0.495487
Si Si2 0.126901 0.178311 0.886201
Si Si3 0.145777 0.320863 0.261820
Si Si4 0.256815 0.179687 0.112044
Si Si5 0.937118 0.321269 0.262658
Si Si6 0.935169 0.676956 0.885125
O O1 0.056955 0.500000 0.483778
O O2 0.110671 0.257107 0.385881
O O3 0.076312 0.274472 0.606992
O O4 0.000000 0.247685 0.500000
O O5 0.184281 0.270831 0.871934
O O6 0.104933 0.221239 0.782627
O O7 0.140172 0.000000 0.884480
O O8 0.078166 0.222657 0.002459
O O9 0.158335 0.500000 0.264397
O O10 0.205474 0.232009 0.221348
O O11 0.110636 0.284671 0.176940
O O12 0.256410 0.000000 0.098928
O O13 0.250000 0.250000 0.000000
O O14 0.925803 0.500000 0.249409
O O15 0.002588 0.279016 0.196896
O O16 0.932249 0.500000 0.920307
#
# Coordination Sequence:
#
# PCOD8090677 Si02
#       6
#     8   8   8   8   8   8
#     4   9  16  32  60  91 118 150 192 234 279 338
#     4  12  25  39  56  82 118 158 198 241 291 343
#     4  10  19  34  60  92 120 148 189 237 283 339
#     4  12  24  40  61  85 114 150 193 240 291 346
#     4  10  20  36  59  88 121 157 195 235 285 345
#     4  10  19  33  58  88 120 154 189 234 290 347
#
# _framework density 18.787248999999999
#
# number of rings (size 3 to 8) (size 9 to 14) (size 15 to 20)
#    0.000    1.500    3.333    3.500    0.000    2.667 
#    0.000    1.667    0.000    1.000    0.000    0.000 
#    0.000    0.000    0.000    0.000    0.000    0.000 
#
# Total GULP energy -297701.844700 kJ/mol
# GULP energy per Si atom -12404.243529 kJ/mol
# Density = 1.874449 g / cm^3
# Si number density = 18.787249 Si / 1000 Ang^3
#
#
#
# Elastic Constant Matrix: (Units=GPa)
#
#
# Indices 1 2 3 4 5 6 
#
# 1 72.5920 32.3357 34.9829 0.0000 -12.7761 0.0000
# 2 32.3357 79.4292 40.0750 0.0000 -2.9703 0.0000
# 3 34.9829 40.0750 129.7306 0.0000 -13.0158 0.0000
# 4 0.0000 0.0000 0.0000 17.4564 0.0000 -1.5365
# 5 -12.7761 -2.9703 -13.0158 0.0000 28.8167 0.0000
# 6 0.0000 0.0000 0.0000 -1.5365 0.0000 28.7584
#
#
#
# Elastic Compliance Matrix: (Units=1/GPa)
#
#
# Indices 1 2 3 4 5 6 
#
# 1 0.018907 -0.006174 -0.002528 0.000000 0.006604 0.000000
# 2 -0.006174 0.016940 -0.003841 0.000000 -0.002726 0.000000
# 3 -0.002528 -0.003841 0.009872 0.000000 0.002942 0.000000
# 4 0.000000 0.000000 0.000000 0.057556 0.000000 0.003075
# 5 0.006604 -0.002726 0.002942 0.000000 0.038678 0.000000
# 6 0.000000 0.000000 0.000000 0.003075 0.000000 0.034937
#
#
# Mechanical properties :
#
#
# Convention : Reuss Voigt Hill
#
# Bulk Modulus (GPa) = 48.47332 55.17098 51.82215
# Shear Modulus (GPa) = 23.94020 26.63019 25.28520
#
# Velocity S-wave (km/s) = 3.57358 3.76900 3.67259
# Velocity P-wave (km/s) = 6.54862 6.95489 6.75481
#
# Compressibility (1/GPa) = 0.02062990
#
# Stress axis : x y z
#
# Youngs Moduli (GPa) = 52.89126 59.03347 101.29748
#
# Poissons Ratio (x) = 0.36449 0.25613
# Poissons Ratio (y) = 0.32656 0.38912
# Poissons Ratio (z) = 0.13374 0.22677
#
# Static dielectric constant tensor:
#      x y z
#    x 3.559930 0.000000 -0.082930 
#    y 0.000000 3.221800 0.000000 
#    z -0.082930 0.000000 3.611010 
# 
# 
# High freq. dielectric constant tensor:
#      x y z
#    x 1.732360 0.000000 -0.003990 
#    y 0.000000 1.706670 0.000000 
#    z -0.003990 0.000000 1.734970 
# 
# From -- ./inp_files/172105.got.cif
#   From: 2010.06.25/outbox.cif.g09.slc.cpg/sg12_87_cif.got.tgz:172105.got - 2010.06.28 00:19:55.
