data_PCOD8090155
_publ_section_title
;
Structure prediction by ZEFSAII (Michael W. Deem and Ramdas Pophale) SiO2 
 PCOD8090155
Probable space group: C 2/M
;
_chemical_formula_sum "Si O2"
_cell_formula_units_Z 56
_cell_length_a 25.960448
_cell_length_b 9.028730
_cell_length_c 12.903406
_cell_angle_alpha 90.000000
_cell_angle_beta 112.545412
_cell_angle_gamma 90.000000
_cell_volume 2793.288657
_symmetry_space_group_name_H-M "C 2/M"
_symmetry_group_IT_number 12
_symmetry_cell_setting 'monoclinic'
loop_
_space_group_symop_operation_xyz
x,y,z
-x,y,-z
-x,-y,-z
x,-y,z
1/2+x,1/2+y,z
1/2-x,1/2+y,-z
1/2-x,1/2-y,-z
1/2+x,1/2-y,z
loop_
_atom_site_type_symbol
_atom_site_label
_atom_site_fract_x
_atom_site_fract_y
_atom_site_fract_z
Si Si1 0.949544 0.171841 0.656197
Si Si2 0.151577 0.173165 0.879021
Si Si3 0.160725 0.672327 0.097291
Si Si4 0.441008 0.828234 0.311007
Si Si5 0.632229 0.829431 0.543222
Si Si6 0.554626 0.329332 0.105375
Si Si7 0.778648 0.830398 0.267654
O O1 0.890547 0.238764 0.572908
O O2 0.956788 0.198898 0.783293
O O3 0.998136 0.257405 0.632874
O O4 0.952144 0.000000 0.629061
O O5 0.092419 0.247387 0.806428
O O6 0.196878 0.209697 0.826320
O O7 0.141002 0.000000 0.884971
O O8 0.173913 0.240267 0.002591
O O9 0.155101 0.500000 0.065741
O O10 0.105304 0.727601 0.109661
O O11 0.212589 0.700174 0.214970
O O12 0.410195 0.803202 0.395420
O O13 0.446631 0.000000 0.287397
O O14 0.693325 0.770401 0.622300
O O15 0.637778 0.000000 0.516374
O O16 0.569861 0.500000 0.094518
O O17 0.500000 0.281139 0.000000
O O18 0.792439 0.000000 0.305247
#
# Coordination Sequence:
#
# PCOD8090155 Si02
#       7
#     8   8   8   8   8   8   8
#     4  11  22  36  57  82 110 147 187 228 276 330
#     4  10  19  33  55  82 115 151 182 219 272 331
#     4  11  22  36  57  84 112 144 184 230 277 325
#     4  10  20  34  54  83 116 146 182 228 275 325
#     4  10  21  36  56  83 114 147 183 226 274 326
#     4  10  23  42  60  80 108 143 185 228 270 324
#     4   9  20  37  56  82 114 146 183 226 272 326
#
# _framework density 20.048052999999999
#
# number of rings (size 3 to 8) (size 9 to 14) (size 15 to 20)
#    0.000    1.857    0.000    3.857    0.000    7.714 
#    0.000    0.714    0.000    0.000    0.000    0.000 
#    0.000    0.000    0.000    0.000    0.000    0.000 
#
# Total GULP energy -347352.957127 kJ/mol
# GULP energy per Si atom -12405.462755 kJ/mol
# Density = 2.000242 g / cm^3
# Si number density = 20.048053 Si / 1000 Ang^3
#
#
#
# Elastic Constant Matrix: (Units=GPa)
#
#
# Indices 1 2 3 4 5 6 
#
# 1 86.4750 47.1489 33.8258 0.0000 25.2867 0.0000
# 2 47.1489 125.4570 57.2826 0.0000 17.7445 0.0000
# 3 33.8258 57.2826 99.3836 0.0000 27.1461 0.0000
# 4 0.0000 0.0000 0.0000 35.5782 0.0000 5.9822
# 5 25.2867 17.7445 27.1461 0.0000 27.0698 0.0000
# 6 0.0000 0.0000 0.0000 5.9822 0.0000 32.3240
#
#
#
# Elastic Compliance Matrix: (Units=1/GPa)
#
#
# Indices 1 2 3 4 5 6 
#
# 1 0.018327 -0.005155 0.000670 0.000000 -0.014413 0.000000
# 2 -0.005155 0.012294 -0.006123 0.000000 0.002897 0.000000
# 3 0.000670 -0.006123 0.017130 0.000000 -0.013791 0.000000
# 4 0.000000 0.000000 0.000000 0.029010 0.000000 -0.005369
# 5 -0.014413 0.002897 -0.013791 0.000000 0.062336 0.000000
# 6 0.000000 0.000000 0.000000 -0.005369 0.000000 0.031930
#
#
# Mechanical properties :
#
#
# Convention : Reuss Voigt Hill
#
# Bulk Modulus (GPa) = 37.68456 65.31447 51.49951
# Shear Modulus (GPa) = 24.86479 30.53162 27.69820
#
# Velocity S-wave (km/s) = 3.52555 3.90670 3.72101
# Velocity P-wave (km/s) = 5.95068 7.28007 6.64868
#
# Compressibility (1/GPa) = 0.02653607
#
# Stress axis : x y z
#
# Youngs Moduli (GPa) = 54.56371 81.33955 58.37822
#
# Poissons Ratio (x) = 0.41932 -0.03914
# Poissons Ratio (y) = 0.28129 0.35743
# Poissons Ratio (z) = -0.03658 0.49802
#
# Static dielectric constant tensor:
#      x y z
#    x 3.474280 0.000000 0.216720 
#    y 0.000000 3.697100 0.000000 
#    z 0.216720 0.000000 3.641080 
# 
# 
# High freq. dielectric constant tensor:
#      x y z
#    x 1.769150 0.000000 0.019360 
#    y 0.000000 1.791130 0.000000 
#    z 0.019360 0.000000 1.783870 
# 
# From -- ./inp_files/181044.got.cif
#   From: 2010.06.25/outbox.cif.g09.slc.cpg/sg12_91_cif.got.tgz:181044.got - 2010.06.28 00:19:55.
