data_PCOD8090702
_publ_section_title
;
Structure prediction by ZEFSAII (Michael W. Deem and Ramdas Pophale) SiO2 
 PCOD8090702
Probable space group: C 2/M
;
_chemical_formula_sum "Si O2"
_cell_formula_units_Z 48
_cell_length_a 20.474858
_cell_length_b 19.310412
_cell_length_c 11.660082
_cell_angle_alpha 90.000000
_cell_angle_beta 149.746547
_cell_angle_gamma 90.000000
_cell_volume 2322.708182
_symmetry_space_group_name_H-M "C 2/M"
_symmetry_group_IT_number 12
_symmetry_cell_setting 'monoclinic'
loop_
_space_group_symop_operation_xyz
x,y,z
-x,y,-z
-x,-y,-z
x,-y,z
1/2+x,1/2+y,z
1/2-x,1/2+y,-z
1/2-x,1/2-y,-z
1/2+x,1/2-y,z
loop_
_atom_site_type_symbol
_atom_site_label
_atom_site_fract_x
_atom_site_fract_y
_atom_site_fract_z
Si Si1 0.554863 0.788842 0.906553
Si Si2 0.709785 0.000000 0.371803
Si Si3 0.498555 0.500000 0.776241
Si Si4 0.677094 0.849417 0.304365
Si Si5 0.353809 0.000000 0.469846
Si Si6 0.552346 0.112088 0.703269
Si Si7 0.027205 0.853328 0.170821
Si Si8 0.251102 0.000000 0.064693
O O1 0.415933 0.813011 0.745204
O O2 0.585009 0.821375 0.828656
O O3 0.550680 0.706143 0.877646
O O4 0.667035 0.810942 0.166579
O O5 0.847700 0.000000 0.513748
O O6 0.634095 0.930251 0.220938
O O7 0.731781 0.000000 0.544110
O O8 0.529590 0.429484 0.892890
O O9 0.594470 0.500000 0.809895
O O10 0.821354 0.847915 0.571345
O O11 0.444481 0.932512 0.605545
O O12 0.262656 0.000000 0.220875
O O13 0.500000 0.135543 0.500000
O O14 0.683604 0.067834 0.889281
O O15 0.000000 0.832818 0.000000
#
# Coordination Sequence:
#
# PCOD8090702 Si02
#       8
#     8   4   4   8   4   8   8   4
#     4  11  21  37  61  89 126 158 193 257 314 363
#     4  10  19  33  58  89 127 157 192 245 306 384
#     4  10  24  37  58  86 118 163 210 241 296 361
#     4  10  22  36  56  96 128 156 191 247 322 367
#     4   9  16  30  53  88 123 147 194 257 297 350
#     4   9  19  36  59  87 116 159 206 251 303 339
#     4  11  23  38  60  90 127 161 196 246 310 375
#     4   9  20  36  56  84 120 160 214 257 278 349
#
# _framework density 20.665533
#
# number of rings (size 3 to 8) (size 9 to 14) (size 15 to 20)
#    0.000    2.000    3.333    1.750    4.667    2.667 
#    0.000    0.833    0.000    7.000    0.000    0.000 
#    0.000    0.000    0.000    0.000    0.000    0.000 
#
# Total GULP energy -297471.266330 kJ/mol
# GULP energy per Si atom -12394.636097 kJ/mol
# Density = 2.061850 g / cm^3
# Si number density = 20.665533 Si / 1000 Ang^3
#
#
#
# Elastic Constant Matrix: (Units=GPa)
#
#
# Indices 1 2 3 4 5 6 
#
# 1 88.7750 38.5454 41.4637 0.0000 3.4344 0.0000
# 2 38.5454 164.7258 37.1974 0.0000 -6.1032 0.0000
# 3 41.4637 37.1974 92.0021 0.0000 -1.6009 0.0000
# 4 0.0000 0.0000 0.0000 15.8387 0.0000 -4.2710
# 5 3.4344 -6.1032 -1.6009 0.0000 26.7479 0.0000
# 6 0.0000 0.0000 0.0000 -4.2710 0.0000 18.1161
#
#
#
# Elastic Compliance Matrix: (Units=1/GPa)
#
#
# Indices 1 2 3 4 5 6 
#
# 1 0.015153 -0.002308 -0.005945 0.000000 -0.002828 0.000000
# 2 -0.002308 0.007082 -0.001792 0.000000 0.001805 0.000000
# 3 -0.005945 -0.001792 0.014294 0.000000 0.001210 0.000000
# 4 0.000000 0.000000 0.000000 0.067423 0.000000 0.015896
# 5 -0.002828 0.001805 0.001210 0.000000 0.038234 0.000000
# 6 0.000000 0.000000 0.000000 0.015896 0.000000 0.058947
#
#
# Mechanical properties :
#
#
# Convention : Reuss Voigt Hill
#
# Bulk Modulus (GPa) = 60.83006 64.43512 62.63259
# Shear Modulus (GPa) = 22.05534 27.36028 24.70781
#
# Velocity S-wave (km/s) = 3.27043 3.64257 3.46150
# Velocity P-wave (km/s) = 6.61516 6.99563 6.80805
#
# Compressibility (1/GPa) = 0.01643924
#
# Stress axis : x y z
#
# Youngs Moduli (GPa) = 65.99481 141.19789 69.95846
#
# Poissons Ratio (x) = 0.32588 0.41591
# Poissons Ratio (y) = 0.15232 0.12535
# Poissons Ratio (z) = 0.39235 0.25301
#
# Static dielectric constant tensor:
#      x y z
#    x 3.488010 0.000000 0.090640 
#    y 0.000000 4.102820 0.000000 
#    z 0.090640 0.000000 3.522480 
# 
# 
# High freq. dielectric constant tensor:
#      x y z
#    x 1.778910 0.000000 0.007420 
#    y 0.000000 1.821880 0.000000 
#    z 0.007420 0.000000 1.793300 
# 
# From -- ./inp_files/133053.got.cif
#   From: 2010.06.25/outbox.cif.g09.slc.cpg/sg12_67_cif.got.tgz:133053.got - 2010.06.28 00:19:55.
