data_PCOD8090828
_publ_section_title
;
Structure prediction by ZEFSAII (Michael W. Deem and Ramdas Pophale) SiO2 
 PCOD8090828
Probable space group: C 2/M
;
_chemical_formula_sum "Si O2"
_cell_formula_units_Z 48
_cell_length_a 23.813309
_cell_length_b 8.995441
_cell_length_c 23.479158
_cell_angle_alpha 90.000000
_cell_angle_beta 32.764014
_cell_angle_gamma 90.000000
_cell_volume 2721.865094
_symmetry_space_group_name_H-M "C 2/M"
_symmetry_group_IT_number 12
_symmetry_cell_setting 'monoclinic'
loop_
_space_group_symop_operation_xyz
x,y,z
-x,y,-z
-x,-y,-z
x,-y,z
1/2+x,1/2+y,z
1/2-x,1/2+y,-z
1/2-x,1/2-y,-z
1/2+x,1/2-y,z
loop_
_atom_site_type_symbol
_atom_site_label
_atom_site_fract_x
_atom_site_fract_y
_atom_site_fract_z
Si Si1 0.248003 0.329043 0.364030
Si Si2 0.651857 0.824305 0.112260
Si Si3 0.108994 0.833385 0.263796
Si Si4 0.947754 0.172014 0.255446
Si Si5 0.126338 0.834598 0.559790
Si Si6 0.886469 0.175704 0.613675
O O1 0.223000 0.500000 0.373732
O O2 0.372566 0.303555 0.265132
O O3 0.196361 0.283463 0.467586
O O4 0.204697 0.235383 0.348690
O O5 0.648128 0.777346 0.181639
O O6 0.550466 0.771719 0.163567
O O7 0.660995 0.000000 0.100591
O O8 0.750000 0.750000 0.000000
O O9 0.146548 0.778531 0.293962
O O10 0.985493 0.835953 0.374222
O O11 0.150083 0.000000 0.215020
O O12 0.883456 0.217759 0.366633
O O13 0.982729 0.000000 0.231571
O O14 0.175354 0.000000 0.513533
O O15 0.000000 0.241442 0.500000
O O16 0.889674 0.000000 0.604073
#
# Coordination Sequence:
#
# PCOD8090828 Si02
#       6
#     8   8   8   8   8   8
#     4  11  21  30  46  74 108 142 177 219 258 298
#     4  11  22  37  60  84 104 129 167 217 271 319
#     4   9  18  34  54  76 105 140 179 218 257 305
#     4   9  20  36  50  71 105 140 173 214 265 313
#     4   9  16  30  49  68 100 143 180 211 253 311
#     4  10  19  34  52  71 104 151 187 211 251 306
#
# _framework density 17.634967
#
# number of rings (size 3 to 8) (size 9 to 14) (size 15 to 20)
#    0.000    2.167    1.667    3.500    0.000    5.000 
#    0.000    0.000    0.000    1.000    0.000    7.000 
#    0.000    0.000    0.000    0.000    0.000    0.000 
#
# Total GULP energy -297542.852094 kJ/mol
# GULP energy per Si atom -12397.618837 kJ/mol
# Density = 1.759483 g / cm^3
# Si number density = 17.634967 Si / 1000 Ang^3
#
#
#
# Elastic Constant Matrix: (Units=GPa)
#
#
# Indices 1 2 3 4 5 6 
#
# 1 120.9688 42.1449 44.2867 -0.0001 -10.8697 0.0000
# 2 42.1449 78.5100 46.3150 -0.0004 1.0189 0.0001
# 3 44.2867 46.3150 79.4727 -0.0001 -2.4653 0.0001
# 4 -0.0001 -0.0004 -0.0001 26.6375 0.0002 -0.7301
# 5 -10.8697 1.0189 -2.4653 0.0002 8.8705 0.0000
# 6 0.0000 0.0001 0.0001 -0.7301 0.0000 29.2591
#
#
#
# Elastic Compliance Matrix: (Units=1/GPa)
#
#
# Indices 1 2 3 4 5 6 
#
# 1 0.012667 -0.004732 -0.003836 0.000000 0.014999 0.000000
# 2 -0.004732 0.021440 -0.010202 0.000000 -0.011096 0.000000
# 3 -0.003836 -0.010202 0.020736 0.000000 0.002234 0.000000
# 4 0.000000 0.000000 0.000000 0.037567 -0.000001 0.000937
# 5 0.014999 -0.011096 0.002234 -0.000001 0.133008 0.000000
# 6 0.000000 0.000000 0.000000 0.000937 0.000000 0.034201
#
#
# Mechanical properties :
#
#
# Convention : Reuss Voigt Hill
#
# Bulk Modulus (GPa) = 57.79404 60.49387 59.14395
# Shear Modulus (GPa) = 16.50570 22.70041 19.60306
#
# Velocity S-wave (km/s) = 3.06267 3.59170 3.33769
# Velocity P-wave (km/s) = 6.73425 7.18180 6.96163
#
# Compressibility (1/GPa) = 0.01730282
#
# Stress axis : x y z
#
# Youngs Moduli (GPa) = 78.94375 46.64250 48.22635
#
# Poissons Ratio (x) = 0.22069 0.18500
# Poissons Ratio (y) = 0.37352 0.49201
# Poissons Ratio (z) = 0.30284 0.47585
#
# Static dielectric constant tensor:
#      x y z
#    x 3.439570 0.000000 -0.051080 
#    y 0.000000 3.205950 0.000000 
#    z -0.051080 0.000000 2.989670 
# 
# 
# High freq. dielectric constant tensor:
#      x y z
#    x 1.689030 0.000000 -0.005100 
#    y 0.000000 1.679390 0.000000 
#    z -0.005100 0.000000 1.644320 
# 
# From -- ./inp_files/172034.got.cif
#   From: 2010.06.25/outbox.cif.g09.slc.cpg/sg12_87_cif.got.tgz:172034.got - 2010.06.28 00:19:55.
