data_PCOD8090592
_publ_section_title
;
Structure prediction by ZEFSAII (Michael W. Deem and Ramdas Pophale) SiO2 
 PCOD8090592
Probable space group: C 2/M
;
_chemical_formula_sum "Si O2"
_cell_formula_units_Z 56
_cell_length_a 19.662722
_cell_length_b 13.694047
_cell_length_c 13.791265
_cell_angle_alpha 90.000000
_cell_angle_beta 137.478265
_cell_angle_gamma 90.000000
_cell_volume 2509.820288
_symmetry_space_group_name_H-M "C 2/M"
_symmetry_group_IT_number 12
_symmetry_cell_setting 'monoclinic'
loop_
_space_group_symop_operation_xyz
x,y,z
-x,y,-z
-x,-y,-z
x,-y,z
1/2+x,1/2+y,z
1/2-x,1/2+y,-z
1/2-x,1/2-y,-z
1/2+x,1/2-y,z
loop_
_atom_site_type_symbol
_atom_site_label
_atom_site_fract_x
_atom_site_fract_y
_atom_site_fract_z
Si Si1 0.461614 0.108945 0.666740
Si Si2 0.740668 0.385689 0.445470
Si Si3 0.051825 0.390705 0.962957
Si Si4 0.356208 0.614716 0.464067
Si Si5 0.466698 0.386246 0.857602
Si Si6 0.948844 0.195744 0.246612
Si Si7 0.773173 0.115965 0.173328
O O1 0.350037 0.150095 0.523412
O O2 0.470568 0.105926 0.792350
O O3 0.540432 0.189620 0.712072
O O4 0.483883 0.000000 0.646849
O O5 0.753965 0.500000 0.476844
O O6 0.709413 0.337830 0.516540
O O7 0.652772 0.364361 0.275496
O O8 0.080265 0.500000 0.027938
O O9 0.158727 0.343960 0.043096
O O10 0.000000 0.335146 0.000000
O O11 0.340143 0.500000 0.447461
O O12 0.474010 0.634744 0.605722
O O13 0.318678 0.656379 0.322249
O O14 0.488929 0.500000 0.857941
O O15 0.527577 0.320728 0.843373
O O16 0.500000 0.357007 0.000000
O O17 0.836018 0.162742 0.151213
O O18 0.780810 0.000000 0.170962
#
# Coordination Sequence:
#
# PCOD8090592 Si02
#       7
#     8   8   8   8   8   8   8
#     4  10  21  36  52  72 106 150 194 237 275 318
#     4   8  15  31  55  80 108 146 187 229 279 329
#     4   9  18  34  57  83 111 144 181 224 278 339
#     4   9  17  31  54  84 113 136 167 221 288 349
#     4   9  18  33  53  81 117 151 188 235 282 331
#     4  11  21  32  52  81 112 147 189 229 278 337
#     4  10  19  33  57  87 116 143 173 221 287 347
#
# _framework density 22.312353999999999
#
# number of rings (size 3 to 8) (size 9 to 14) (size 15 to 20)
#    0.000    2.571    0.000    3.429    0.000    8.000 
#    0.000    1.429    0.000    3.429    0.000    4.000 
#    0.000    7.429    0.000    0.000    0.000    0.000 
#
# Total GULP energy -347059.257101 kJ/mol
# GULP energy per Si atom -12394.973468 kJ/mol
# Density = 2.226157 g / cm^3
# Si number density = 22.312354 Si / 1000 Ang^3
#
#
#
# Elastic Constant Matrix: (Units=GPa)
#
#
# Indices 1 2 3 4 5 6 
#
# 1 109.3727 28.6594 52.7150 0.0000 27.1834 0.0000
# 2 28.6594 66.9470 16.9494 0.0000 9.3534 0.0000
# 3 52.7150 16.9494 119.0571 0.0000 8.3295 0.0000
# 4 0.0000 0.0000 0.0000 11.0039 0.0000 7.7423
# 5 27.1834 9.3534 8.3295 0.0000 37.5109 0.0000
# 6 0.0000 0.0000 0.0000 7.7423 0.0000 7.1968
#
#
#
# Elastic Compliance Matrix: (Units=1/GPa)
#
#
# Indices 1 2 3 4 5 6 
#
# 1 0.014920 -0.003796 -0.005460 0.000000 -0.008653 0.000000
# 2 -0.003796 0.016908 -0.000634 0.000000 -0.001325 0.000000
# 3 -0.005460 -0.000634 0.010787 0.000000 0.001720 0.000000
# 4 0.000000 0.000000 0.000000 0.373880 0.000000 -0.402222
# 5 -0.008653 -0.001325 0.001720 0.000000 0.032878 0.000000
# 6 0.000000 0.000000 0.000000 -0.402222 0.000000 0.571665
#
#
# Mechanical properties :
#
#
# Convention : Reuss Voigt Hill
#
# Bulk Modulus (GPa) = 43.79250 54.66935 49.23093
# Shear Modulus (GPa) = 4.76904 24.27917 14.52410
#
# Velocity S-wave (km/s) = 1.46357 3.30229 2.55413
# Velocity P-wave (km/s) = 4.74612 6.25261 5.55071
#
# Compressibility (1/GPa) = 0.02283496
#
# Stress axis : x y z
#
# Youngs Moduli (GPa) = 67.02347 59.14494 92.70470
#
# Poissons Ratio (x) = 0.22450 0.50621
# Poissons Ratio (y) = 0.25440 0.05875
# Poissons Ratio (z) = 0.36598 0.03748
#
# Static dielectric constant tensor:
#      x y z
#    x 3.819340 0.000000 0.140030 
#    y 0.000000 3.955470 0.000000 
#    z 0.140030 0.000000 4.026040 
# 
# 
# High freq. dielectric constant tensor:
#      x y z
#    x 1.844040 0.000000 0.012100 
#    y 0.000000 1.876720 0.000000 
#    z 0.012100 0.000000 1.878610 
# 
# From -- ./inp_files/233721.got.cif
#   From: 2010.06.25/outbox.cif.g09.slc.cpg/sg12_117_cif.got.tgz:233721.got - 2010.06.28 00:19:55.
