data_PCOD8090728
_publ_section_title
;
Structure prediction by ZEFSAII (Michael W. Deem and Ramdas Pophale) SiO2 
 PCOD8090728
Probable space group: C 2/M
;
_chemical_formula_sum "Si O2"
_cell_formula_units_Z 56
_cell_length_a 19.243606
_cell_length_b 31.815931
_cell_length_c 7.624562
_cell_angle_alpha 90.000000
_cell_angle_beta 37.332812
_cell_angle_gamma 90.000000
_cell_volume 2830.978620
_symmetry_space_group_name_H-M "C 2/M"
_symmetry_group_IT_number 12
_symmetry_cell_setting 'monoclinic'
loop_
_space_group_symop_operation_xyz
x,y,z
-x,y,-z
-x,-y,-z
x,-y,z
1/2+x,1/2+y,z
1/2-x,1/2+y,-z
1/2-x,1/2-y,-z
1/2+x,1/2-y,z
loop_
_atom_site_type_symbol
_atom_site_label
_atom_site_fract_x
_atom_site_fract_y
_atom_site_fract_z
Si Si1 0.600318 0.236543 0.173678
Si Si2 0.507268 0.076095 0.777658
Si Si3 0.757974 0.813148 0.116312
Si Si4 0.033256 0.333518 0.741775
Si Si5 0.263236 0.048095 0.234734
Si Si6 0.633900 0.599204 0.196497
Si Si7 0.753314 0.951798 0.325949
O O1 0.500000 0.253034 0.500000
O O2 0.693653 0.208046 0.082693
O O3 0.543784 0.206500 0.144896
O O4 0.655495 0.278175 0.976788
O O5 0.505916 0.123116 0.692819
O O6 0.627700 0.053886 0.490336
O O7 0.500000 0.076192 0.000000
O O8 0.398810 0.051162 0.917743
O O9 0.668238 0.824412 0.449149
O O10 0.824303 0.853136 0.909739
O O11 0.000000 0.346574 0.000000
O O12 0.194136 0.077985 0.242918
O O13 0.241241 0.062667 0.480770
O O14 0.224126 0.000000 0.285046
O O15 0.500000 0.599279 0.500000
O O16 0.657061 0.574824 0.968238
O O17 0.789723 0.000000 0.238101
#
# Coordination Sequence:
#
# PCOD8090728 Si02
#       7
#     8   8   8   8   8   8   8
#     4   9  19  35  59  83 112 151 193 237 296 353
#     4   9  17  34  60  90 121 151 188 240 308 360
#     4  10  20  38  57  81 114 153 196 243 291 351
#     4  10  19  33  59  88 118 149 186 240 301 357
#     4  10  22  39  62  90 119 155 199 251 305 356
#     4  12  25  40  60  83 118 164 211 246 292 357
#     4  10  21  39  62  89 123 156 194 250 304 355
#
# _framework density 19.781147000000001
#
# number of rings (size 3 to 8) (size 9 to 14) (size 15 to 20)
#    0.000    2.000    1.429    2.143    0.000    4.571 
#    0.000    2.857    3.143    0.000    0.000    0.000 
#    0.000    0.000    0.000    0.000    0.000    0.000 
#
# Total GULP energy -347016.002070 kJ/mol
# GULP energy per Si atom -12393.428645 kJ/mol
# Density = 1.973612 g / cm^3
# Si number density = 19.781147 Si / 1000 Ang^3
#
#
#
# Elastic Constant Matrix: (Units=GPa)
#
#
# Indices 1 2 3 4 5 6 
#
# 1 60.3761 30.9512 25.4125 0.0000 -7.2908 0.0000
# 2 30.9512 124.1006 50.9304 0.0000 -5.5775 0.0000
# 3 25.4125 50.9304 110.0003 0.0000 -8.7867 0.0000
# 4 0.0000 0.0000 0.0000 41.9837 0.0000 -1.4621
# 5 -7.2908 -5.5775 -8.7867 0.0000 27.2589 0.0000
# 6 0.0000 0.0000 0.0000 -1.4621 0.0000 24.1258
#
#
#
# Elastic Compliance Matrix: (Units=1/GPa)
#
#
# Indices 1 2 3 4 5 6 
#
# 1 0.020035 -0.003768 -0.002584 0.000000 0.003755 0.000000
# 2 -0.003768 0.010665 -0.004079 0.000000 -0.000140 0.000000
# 3 -0.002584 -0.004079 0.011757 0.000000 0.002264 0.000000
# 4 0.000000 0.000000 0.000000 0.023869 0.000000 0.001446
# 5 0.003755 -0.000140 0.002264 0.000000 0.038391 0.000000
# 6 0.000000 0.000000 0.000000 0.001446 0.000000 0.041537
#
#
# Mechanical properties :
#
#
# Convention : Reuss Voigt Hill
#
# Bulk Modulus (GPa) = 46.30377 56.56281 51.43329
# Shear Modulus (GPa) = 28.68367 31.15252 29.91810
#
# Velocity S-wave (km/s) = 3.81208 3.97276 3.89325
# Velocity P-wave (km/s) = 6.54483 7.04983 6.80202
#
# Compressibility (1/GPa) = 0.02159651
#
# Stress axis : x y z
#
# Youngs Moduli (GPa) = 49.91160 93.76219 85.05359
#
# Poissons Ratio (x) = 0.35326 0.21980
# Poissons Ratio (y) = 0.18805 0.34692
# Poissons Ratio (z) = 0.12899 0.38244
#
# Static dielectric constant tensor:
#      x y z
#    x 3.291220 0.000000 -0.115000 
#    y 0.000000 3.813860 0.000000 
#    z -0.115000 0.000000 3.781940 
# 
# 
# High freq. dielectric constant tensor:
#      x y z
#    x 1.741890 0.000000 -0.002140 
#    y 0.000000 1.788550 0.000000 
#    z -0.002140 0.000000 1.774800 
# 
# From -- ./inp_files/91528.got.cif
#   From: 2010.06.25/outbox.cif.g09.slc.cpg/sg12_46_cif.got.tgz:91528.got - 2010.06.28 00:19:55.
