data_PCOD8090461
_publ_section_title
;
Structure prediction by ZEFSAII (Michael W. Deem and Ramdas Pophale) SiO2 
 PCOD8090461
Probable space group: C 2/M
;
_chemical_formula_sum "Si O2"
_cell_formula_units_Z 48
_cell_length_a 26.060383
_cell_length_b 18.829918
_cell_length_c 11.893439
_cell_angle_alpha 90.000000
_cell_angle_beta 155.860554
_cell_angle_gamma 90.000000
_cell_volume 2386.801196
_symmetry_space_group_name_H-M "C 2/M"
_symmetry_group_IT_number 12
_symmetry_cell_setting 'monoclinic'
loop_
_space_group_symop_operation_xyz
x,y,z
-x,y,-z
-x,-y,-z
x,-y,z
1/2+x,1/2+y,z
1/2-x,1/2+y,-z
1/2-x,1/2-y,-z
1/2+x,1/2-y,z
loop_
_atom_site_type_symbol
_atom_site_label
_atom_site_fract_x
_atom_site_fract_y
_atom_site_fract_z
Si Si1 0.757733 0.416463 0.277850
Si Si2 0.859404 0.583912 0.718627
Si Si3 0.360280 0.302695 0.349723
Si Si4 0.360439 0.697310 0.091667
Si Si5 0.500010 0.916195 0.624186
Si Si6 0.741752 0.916439 0.245747
O O1 0.728772 0.500000 0.211047
O O2 0.781137 0.392332 0.452996
O O3 0.878033 0.392201 0.446981
O O4 0.643340 0.372610 0.995274
O O5 0.876442 0.500000 0.751921
O O6 0.781060 0.607234 0.671254
O O7 0.000000 0.617440 0.000000
O O8 0.499906 0.268670 0.643836
O O9 0.338946 0.325686 0.177868
O O10 0.356295 0.372654 0.421048
O O11 0.249950 0.249975 0.168623
O O12 0.500000 0.880590 0.500000
O O13 0.501064 0.000000 0.614922
O O14 0.621297 0.891632 0.934031
O O15 0.770129 0.000000 0.292873
#
# Coordination Sequence:
#
# PCOD8090461 Si02
#       6
#     8   8   8   8   8   8
#     4  10  19  33  56  85 116 151 194 238 284 338
#     4   9  16  30  52  83 120 157 193 237 288 335
#     4  10  23  41  60  84 116 153 189 234 294 354
#     4  10  23  41  60  84 116 153 189 234 294 354
#     4   9  16  25  45  81 115 142 178 226 275 326
#     4  10  19  33  56  85 116 151 194 238 284 338
#
# _framework density 20.110598
#
# number of rings (size 3 to 8) (size 9 to 14) (size 15 to 20)
#    0.000    2.333    1.667    1.000    2.333    2.667 
#    0.000    3.333    0.000    3.000    0.000    0.000 
#    0.000    0.000    0.000    0.000    0.000    0.000 
#
# Total GULP energy -297528.073276 kJ/mol
# GULP energy per Si atom -12397.003053 kJ/mol
# Density = 2.006483 g / cm^3
# Si number density = 20.110598 Si / 1000 Ang^3
#
#
#
# Elastic Constant Matrix: (Units=GPa)
#
#
# Indices 1 2 3 4 5 6 
#
# 1 115.5002 37.7810 61.8007 0.0000 -24.2005 0.0000
# 2 37.7810 59.1201 41.2411 0.0000 2.4809 0.0000
# 3 61.8007 41.2411 96.4834 0.0000 10.7969 0.0000
# 4 0.0000 0.0000 0.0000 29.5590 0.0000 3.5040
# 5 -24.2005 2.4809 10.7969 0.0000 25.8079 0.0000
# 6 0.0000 0.0000 0.0000 3.5040 0.0000 23.1903
#
#
#
# Elastic Compliance Matrix: (Units=1/GPa)
#
#
# Indices 1 2 3 4 5 6 
#
# 1 0.028787 -0.006039 -0.019874 0.000000 0.035889 0.000000
# 2 -0.006039 0.025476 -0.006414 0.000000 -0.005428 0.000000
# 3 -0.019874 -0.006414 0.029220 0.000000 -0.030244 0.000000
# 4 0.000000 0.000000 0.000000 0.034448 0.000000 -0.005205
# 5 0.035889 -0.005428 -0.030244 0.000000 0.085576 0.000000
# 6 0.000000 0.000000 0.000000 -0.005205 0.000000 0.043908
#
#
# Mechanical properties :
#
#
# Convention : Reuss Voigt Hill
#
# Bulk Modulus (GPa) = 53.10691 61.41659 57.26175
# Shear Modulus (GPa) = 15.70629 24.39685 20.05157
#
# Velocity S-wave (km/s) = 2.79766 3.48679 3.16106
# Velocity P-wave (km/s) = 6.07459 6.84222 6.46980
#
# Compressibility (1/GPa) = 0.01882994
#
# Stress axis : x y z
#
# Youngs Moduli (GPa) = 34.73815 39.25273 34.22284
#
# Poissons Ratio (x) = 0.23704 0.68013
# Poissons Ratio (y) = 0.20978 0.21951
# Poissons Ratio (z) = 0.69038 0.25177
#
# Static dielectric constant tensor:
#      x y z
#    x 3.849960 0.000000 -0.127220 
#    y 0.000000 3.267510 0.000000 
#    z -0.127220 0.000000 3.638500 
# 
# 
# High freq. dielectric constant tensor:
#      x y z
#    x 1.785250 0.000000 -0.005610 
#    y 0.000000 1.755320 0.000000 
#    z -0.005610 0.000000 1.775540 
# 
# From -- ./inp_files/184842.got.cif
#   From: 2010.06.25/outbox.cif.g09.slc.cpg/sg12_93_cif.got.tgz:184842.got - 2010.06.28 00:19:55.
