data_PCOD8090278
_publ_section_title
;
Structure prediction by ZEFSAII (Michael W. Deem and Ramdas Pophale) SiO2 
 PCOD8090278
Probable space group: C 2/M
;
_chemical_formula_sum "Si O2"
_cell_formula_units_Z 64
_cell_length_a 10.610016
_cell_length_b 19.688577
_cell_length_c 18.971248
_cell_angle_alpha 90.000000
_cell_angle_beta 60.507565
_cell_angle_gamma 90.000000
_cell_volume 3449.494699
_symmetry_space_group_name_H-M "C 2/M"
_symmetry_group_IT_number 12
_symmetry_cell_setting 'monoclinic'
loop_
_space_group_symop_operation_xyz
x,y,z
-x,y,-z
-x,-y,-z
x,-y,z
1/2+x,1/2+y,z
1/2-x,1/2+y,-z
1/2-x,1/2-y,-z
1/2+x,1/2-y,z
loop_
_atom_site_type_symbol
_atom_site_label
_atom_site_fract_x
_atom_site_fract_y
_atom_site_fract_z
Si Si1 0.746915 0.834526 0.948704
Si Si2 0.085091 0.688516 0.772515
Si Si3 0.907439 0.182711 0.422354
Si Si4 0.730157 0.808587 0.108667
Si Si5 0.975084 0.077245 0.289182
Si Si6 0.209019 0.209732 0.401831
Si Si7 0.808491 0.576332 0.158545
Si Si8 0.581268 0.333800 0.824570
O O1 0.690247 0.763399 0.930881
O O2 0.682137 0.898382 0.924733
O O3 0.918318 0.830654 0.894868
O O4 0.698142 0.844898 0.042787
O O5 0.175590 0.669078 0.677700
O O6 0.093335 0.625334 0.822440
O O7 0.146652 0.759721 0.785864
O O8 0.915850 0.701770 0.805394
O O9 0.941368 0.112932 0.372800
O O10 0.830019 0.165479 0.518109
O O11 0.793676 0.222881 0.404337
O O12 0.059252 0.223075 0.398319
O O13 0.830831 0.856049 0.129784
O O14 0.894396 0.114281 0.246420
O O15 0.145521 0.081150 0.230854
O O16 0.919354 0.000000 0.307962
O O17 0.868625 0.500000 0.146286
#
# Coordination Sequence:
#
# PCOD8090278 Si02
#       8
#     8   8   8   8   8   8   8   8
#     4   9  19  34  51  79 107 140 185 225 277 320
#     4  11  20  32  54  81 108 142 183 223 272 329
#     4  10  20  37  55  88 113 148 181 233 278 334
#     4  10  20  32  54  80 107 139 184 235 269 322
#     4  10  20  35  57  81 108 144 185 225 276 329
#     4  10  21  33  58  84 119 139 186 231 280 322
#     4  10  20  36  54  76 111 145 179 223 274 330
#     4  10  19  33  56  79 108 142 180 234 273 321
#
# _framework density 18.553442
#
# number of rings (size 3 to 8) (size 9 to 14) (size 15 to 20)
#    0.000    2.000    3.750    0.375    1.750    0.500 
#    0.000    4.375    0.000    3.000    0.000   11.375 
#    0.000    0.000    0.000    0.000    0.000    0.000 
#
# Total GULP energy -396569.127012 kJ/mol
# GULP energy per Si atom -12392.785219 kJ/mol
# Density = 1.851121 g / cm^3
# Si number density = 18.553442 Si / 1000 Ang^3
#
#
#
# Elastic Constant Matrix: (Units=GPa)
#
#
# Indices 1 2 3 4 5 6 
#
# 1 76.2546 32.6357 30.2303 0.0000 16.4400 0.0000
# 2 32.6357 105.7904 28.0667 0.0000 13.2746 0.0000
# 3 30.2303 28.0667 101.5244 0.0000 3.5634 0.0000
# 4 0.0000 0.0000 0.0000 23.2337 0.0000 3.5642
# 5 16.4400 13.2746 3.5634 0.0000 20.3720 0.0000
# 6 0.0000 0.0000 0.0000 3.5642 0.0000 21.6020
#
#
#
# Elastic Compliance Matrix: (Units=1/GPa)
#
#
# Indices 1 2 3 4 5 6 
#
# 1 0.018830 -0.003107 -0.004312 0.000000 -0.012417 0.000000
# 2 -0.003107 0.011554 -0.002106 0.000000 -0.004653 0.000000
# 3 -0.004312 -0.002106 0.011617 0.000000 0.002820 0.000000
# 4 0.000000 0.000000 0.000000 0.044159 0.000000 -0.007286
# 5 -0.012417 -0.004653 0.002820 0.000000 0.061646 0.000000
# 6 0.000000 0.000000 0.000000 -0.007286 0.000000 0.047494
#
#
# Mechanical properties :
#
#
# Convention : Reuss Voigt Hill
#
# Bulk Modulus (GPa) = 43.57029 51.71498 47.64263
# Shear Modulus (GPa) = 22.52256 25.88398 24.20327
#
# Velocity S-wave (km/s) = 3.48793 3.73916 3.61573
# Velocity P-wave (km/s) = 6.30520 6.82465 6.57006
#
# Compressibility (1/GPa) = 0.02295142
#
# Stress axis : x y z
#
# Youngs Moduli (GPa) = 53.10614 86.55328 86.08070
#
# Poissons Ratio (x) = 0.26891 0.37120
# Poissons Ratio (y) = 0.16499 0.18125
# Poissons Ratio (z) = 0.22901 0.18225
#
# Static dielectric constant tensor:
#      x y z
#    x 3.382640 0.000000 0.081340 
#    y 0.000000 3.184580 0.000000 
#    z 0.081340 0.000000 3.619360 
# 
# 
# High freq. dielectric constant tensor:
#      x y z
#    x 1.717140 0.000000 0.004170 
#    y 0.000000 1.675000 0.000000 
#    z 0.004170 0.000000 1.733980 
# 
# From -- ./inp_files/264805.got.cif
#   From: 2010.06.25/outbox.cif.g09.slc.cpg/sg12_133_cif.got.tgz:264805.got - 2010.06.28 00:19:55.
