data_PCOD8090372
_publ_section_title
;
Structure prediction by ZEFSAII (Michael W. Deem and Ramdas Pophale) SiO2 
 PCOD8090372
Probable space group: C 2/M
;
_chemical_formula_sum "Si O2"
_cell_formula_units_Z 40
_cell_length_a 24.276243
_cell_length_b 9.068785
_cell_length_c 24.761472
_cell_angle_alpha 90.000000
_cell_angle_beta 157.016875
_cell_angle_gamma 90.000000
_cell_volume 2128.548700
_symmetry_space_group_name_H-M "C 2/M"
_symmetry_group_IT_number 12
_symmetry_cell_setting 'monoclinic'
loop_
_space_group_symop_operation_xyz
x,y,z
-x,y,-z
-x,-y,-z
x,-y,z
1/2+x,1/2+y,z
1/2-x,1/2+y,-z
1/2-x,1/2-y,-z
1/2+x,1/2-y,z
loop_
_atom_site_type_symbol
_atom_site_label
_atom_site_fract_x
_atom_site_fract_y
_atom_site_fract_z
Si Si1 0.674376 0.674059 0.310230
Si Si2 0.098404 0.830844 0.752274
Si Si3 0.444153 0.165450 0.702830
Si Si4 0.937441 0.831307 0.500579
Si Si5 0.904966 0.334012 0.056961
O O1 0.671664 0.500000 0.312697
O O2 0.677700 0.744660 0.374162
O O3 0.808838 0.724658 0.397953
O O4 0.533721 0.731563 0.151628
O O5 0.982429 0.741217 0.681180
O O6 0.255361 0.766483 0.903561
O O7 0.061833 0.813807 0.656506
O O8 0.093797 0.000000 0.767714
O O9 0.388984 0.000000 0.641559
O O10 0.583834 0.162559 0.867315
O O11 0.000000 0.781255 0.500000
O O12 0.882815 0.000000 0.449622
O O13 0.922989 0.500000 0.049862
#
# Coordination Sequence:
#
# PCOD8090372 Si02
#       5
#     8   8   8   8   8
#     4  10  20  35  56  79 108 143 176 215 263 314
#     4  10  19  33  56  83 108 139 178 217 261 313
#     4   9  18  32  54  82 114 141 168 211 265 320
#     4  10  22  40  58  76 103 140 181 224 267 311
#     4   8  17  33  53  81 112 139 171 211 262 320
#
# _framework density 18.792147
#
# number of rings (size 3 to 8) (size 9 to 14) (size 15 to 20)
#    1.200    1.400    0.000    2.400    0.000    2.800 
#    0.000    1.000    0.000    6.000    0.000    0.000 
#    0.000    0.000    0.000    0.000    0.000    0.000 
#
# Total GULP energy -247877.729937 kJ/mol
# GULP energy per Si atom -12393.886497 kJ/mol
# Density = 1.874938 g / cm^3
# Si number density = 18.792147 Si / 1000 Ang^3
#
#
#
# Elastic Constant Matrix: (Units=GPa)
#
#
# Indices 1 2 3 4 5 6 
#
# 1 89.1702 37.5985 21.5275 -0.0011 -9.4567 -0.0006
# 2 37.5985 103.4870 10.8964 -0.0012 0.3198 -0.0007
# 3 21.5275 10.8964 30.2788 -0.0012 -6.0059 -0.0008
# 4 -0.0011 -0.0012 -0.0012 11.1097 0.0000 6.6091
# 5 -9.4567 0.3198 -6.0059 0.0000 20.9222 0.0000
# 6 -0.0006 -0.0007 -0.0008 6.6091 0.0000 30.3616
#
#
#
# Elastic Compliance Matrix: (Units=1/GPa)
#
#
# Indices 1 2 3 4 5 6 
#
# 1 0.015841 -0.004868 -0.008563 0.000000 0.004776 0.000000
# 2 -0.004868 0.011571 -0.001245 0.000001 -0.002735 0.000000
# 3 -0.008563 -0.001245 0.041141 0.000004 0.007958 0.000000
# 4 0.000000 0.000001 0.000004 0.103402 0.000001 -0.022509
# 5 0.004776 -0.002735 0.007958 0.000001 0.052281 0.000000
# 6 0.000000 0.000000 0.000000 -0.022509 0.000000 0.037836
#
#
# Mechanical properties :
#
#
# Convention : Reuss Voigt Hill
#
# Bulk Modulus (GPa) = 25.51027 40.33119 32.92073
# Shear Modulus (GPa) = 16.42067 22.67292 19.54680
#
# Velocity S-wave (km/s) = 2.95923 3.47725 3.22865
# Velocity P-wave (km/s) = 5.02797 6.13433 5.60850
#
# Compressibility (1/GPa) = 0.03919989
#
# Stress axis : x y z
#
# Youngs Moduli (GPa) = 63.12661 86.41986 24.30642
#
# Poissons Ratio (x) = 0.42073 0.20814
# Poissons Ratio (y) = 0.30733 0.03027
# Poissons Ratio (z) = 0.54057 0.10762
#
# Static dielectric constant tensor:
#      x y z
#    x 3.127810 0.000000 0.049290 
#    y 0.000000 3.334690 0.000000 
#    z 0.049290 0.000000 3.357200 
# 
# 
# High freq. dielectric constant tensor:
#      x y z
#    x 1.699930 0.000000 0.011370 
#    y 0.000000 1.725670 0.000000 
#    z 0.011370 0.000000 1.723760 
# 
# From -- ./inp_files/324432.got.cif
#   From: 2010.06.25/outbox.cif.g09.slc.cpg/sg12_163_cif.got.tgz:324432.got - 2010.06.28 00:19:55.
