data_PCOD8090478
_publ_section_title
;
Structure prediction by ZEFSAII (Michael W. Deem and Ramdas Pophale) SiO2 
 PCOD8090478
Probable space group: C 2/M
;
_chemical_formula_sum "Si O2"
_cell_formula_units_Z 64
_cell_length_a 26.845123
_cell_length_b 13.607884
_cell_length_c 9.908096
_cell_angle_alpha 90.000000
_cell_angle_beta 68.051282
_cell_angle_gamma 90.000000
_cell_volume 3357.135806
_symmetry_space_group_name_H-M "C 2/M"
_symmetry_group_IT_number 12
_symmetry_cell_setting 'monoclinic'
loop_
_space_group_symop_operation_xyz
x,y,z
-x,y,-z
-x,-y,-z
x,-y,z
1/2+x,1/2+y,z
1/2-x,1/2+y,-z
1/2-x,1/2-y,-z
1/2+x,1/2-y,z
loop_
_atom_site_type_symbol
_atom_site_label
_atom_site_fract_x
_atom_site_fract_y
_atom_site_fract_z
Si Si1 0.269888 0.656910 0.900666
Si Si2 0.155056 0.394878 0.001745
Si Si3 0.343687 0.110720 0.314443
Si Si4 0.777217 0.113943 0.596680
Si Si5 0.437967 0.386128 0.587962
Si Si6 0.618406 0.303278 0.605078
Si Si7 0.060111 0.115156 0.913898
Si Si8 0.379417 0.313761 0.896709
O O1 0.282989 0.676209 0.729505
O O2 0.325255 0.623575 0.917611
O O3 0.250000 0.750000 0.000000
O O4 0.218867 0.584681 0.960624
O O5 0.127489 0.500000 0.069224
O O6 0.131343 0.303748 0.110925
O O7 0.145451 0.371875 0.854252
O O8 0.280939 0.128906 0.411930
O O9 0.379535 0.187364 0.362783
O O10 0.360340 0.000000 0.339921
O O11 0.821681 0.151204 0.445098
O O12 0.786895 0.000000 0.623533
O O13 0.500000 0.368963 0.500000
O O14 0.421886 0.500000 0.585691
O O15 0.403359 0.318756 0.523270
O O16 0.426521 0.349274 0.750630
O O17 0.578066 0.360502 0.744503
O O18 0.102535 0.166451 0.969703
O O19 0.061416 0.000000 0.939274
O O20 0.000000 0.155972 0.000000
#
# Coordination Sequence:
#
# PCOD8090478 Si02
#       8
#     8   8   8   8   8   8   8   8
#     4   9  18  31  55  83 116 150 189 227 274 337
#     4   9  18  35  58  86 117 151 190 231 280 336
#     4   9  19  36  58  84 117 154 190 231 278 339
#     4  10  19  33  56  86 120 155 189 228 283 347
#     4  11  24  40  60  85 113 150 192 236 294 353
#     4  12  21  37  61  85 116 154 195 234 288 351
#     4  11  24  39  56  82 115 148 191 249 299 338
#     4  11  20  37  60  85 112 151 195 237 282 343
#
# _framework density 19.063869
#
# number of rings (size 3 to 8) (size 9 to 14) (size 15 to 20)
#    0.000    1.750    2.500    3.750    0.000    3.500 
#    0.000    0.625    0.000    4.500    0.000    0.000 
#    0.000    0.000    0.000    0.000    0.000    0.000 
#
# Total GULP energy -396654.404761 kJ/mol
# GULP energy per Si atom -12395.450149 kJ/mol
# Density = 1.902048 g / cm^3
# Si number density = 19.063869 Si / 1000 Ang^3
#
#
#
# Elastic Constant Matrix: (Units=GPa)
#
#
# Indices 1 2 3 4 5 6 
#
# 1 62.4346 35.6718 12.0570 0.0000 -4.9324 0.0000
# 2 35.6718 107.0306 26.1374 0.0000 -2.3664 0.0000
# 3 12.0570 26.1374 66.5509 0.0000 -16.3485 0.0000
# 4 0.0000 0.0000 0.0000 25.3946 0.0000 -0.3998
# 5 -4.9324 -2.3664 -16.3485 0.0000 30.3727 0.0000
# 6 0.0000 0.0000 0.0000 -0.3998 0.0000 18.9505
#
#
#
# Elastic Compliance Matrix: (Units=1/GPa)
#
#
# Indices 1 2 3 4 5 6 
#
# 1 0.020019 -0.006505 -0.000459 0.000000 0.002497 0.000000
# 2 -0.006505 0.012515 -0.004329 0.000000 -0.002411 0.000000
# 3 -0.000459 -0.004329 0.019254 0.000000 0.009952 0.000000
# 4 0.000000 0.000000 0.000000 0.039392 0.000000 0.000831
# 5 0.002497 -0.002411 0.009952 0.000000 0.038499 0.000000
# 6 0.000000 0.000000 0.000000 0.000831 0.000000 0.052787
#
#
# Mechanical properties :
#
#
# Convention : Reuss Voigt Hill
#
# Bulk Modulus (GPa) = 34.24291 42.63871 38.44081
# Shear Modulus (GPa) = 23.27911 25.75355 24.51633
#
# Velocity S-wave (km/s) = 3.49823 3.67946 3.58999
# Velocity P-wave (km/s) = 5.85816 6.36129 6.11490
#
# Compressibility (1/GPa) = 0.02920312
#
# Stress axis : x y z
#
# Youngs Moduli (GPa) = 49.95212 79.90424 51.93685
#
# Poissons Ratio (x) = 0.51977 0.02382
# Poissons Ratio (y) = 0.32493 0.22484
# Poissons Ratio (z) = 0.02291 0.34591
#
# Static dielectric constant tensor:
#      x y z
#    x 3.630390 0.000000 -0.119210 
#    y 0.000000 3.492410 0.000000 
#    z -0.119210 0.000000 3.360860 
# 
# 
# High freq. dielectric constant tensor:
#      x y z
#    x 1.734110 0.000000 -0.005130 
#    y 0.000000 1.735010 0.000000 
#    z -0.005130 0.000000 1.731310 
# 
# From -- ./inp_files/104503.got.cif
#   From: 2010.06.25/outbox.cif.g09.slc.cpg/sg12_53_cif.got.tgz:104503.got - 2010.06.28 00:19:55.
