data_PCOD8090092
_publ_section_title
;
Structure prediction by ZEFSAII (Michael W. Deem and Ramdas Pophale) SiO2 
 PCOD8090092
Probable space group: C 2/M
;
_chemical_formula_sum "Si O2"
_cell_formula_units_Z 56
_cell_length_a 8.698470
_cell_length_b 18.231147
_cell_length_c 18.566998
_cell_angle_alpha 90.000000
_cell_angle_beta 103.547024
_cell_angle_gamma 90.000000
_cell_volume 2862.492397
_symmetry_space_group_name_H-M "C 2/M"
_symmetry_group_IT_number 12
_symmetry_cell_setting 'monoclinic'
loop_
_space_group_symop_operation_xyz
x,y,z
-x,y,-z
-x,-y,-z
x,-y,z
1/2+x,1/2+y,z
1/2-x,1/2+y,-z
1/2-x,1/2-y,-z
1/2+x,1/2-y,z
loop_
_atom_site_type_symbol
_atom_site_label
_atom_site_fract_x
_atom_site_fract_y
_atom_site_fract_z
Si Si1 0.754231 0.417672 0.642895
Si Si2 0.039342 0.829895 0.214223
Si Si3 0.674880 0.829895 0.214224
Si Si4 0.611335 0.582328 0.357104
Si Si5 0.469684 0.915573 0.078627
Si Si6 0.891058 0.084427 0.921373
Si Si7 0.182737 0.830488 0.500000
O O1 0.820384 0.500000 0.640503
O O2 0.850729 0.378944 0.717478
O O3 0.570679 0.420094 0.641358
O O4 0.780770 0.373207 0.572090
O O5 0.112552 0.750000 0.225106
O O6 0.133250 0.878944 0.282521
O O7 0.060157 0.864675 0.138707
O O8 0.856157 0.825290 0.212315
O O9 0.578550 0.864676 0.138708
O O10 0.679881 0.500000 0.359497
O O11 0.708679 0.626793 0.427909
O O12 0.288698 0.900682 0.077396
O O13 0.517435 0.000000 0.096934
O O14 0.500000 0.892854 0.000000
O O15 0.920499 0.000000 0.903064
O O16 0.000000 0.107143 0.000000
O O17 0.250000 0.750000 0.500000
O O18 0.000000 0.825845 0.500000
#
# Coordination Sequence:
#
# PCOD8090092 Si02
#       7
#     8   8   8   8   8   8   8
#     4   9  18  33  55  81 107 141 186 230 271 321
#     4  11  22  36  55  80 112 147 185 229 277 329
#     4  11  22  36  55  80 112 147 185 229 277 329
#     4   9  18  33  55  81 107 141 186 230 271 321
#     4  10  21  38  60  85 112 143 181 225 274 329
#     4  10  21  38  60  85 112 143 181 225 274 329
#     4  10  19  33  55  81 111 144 180 224 272 324
#
# _framework density 19.563371
#
# number of rings (size 3 to 8) (size 9 to 14) (size 15 to 20)
#    0.000    2.000    0.000    3.857    0.000    5.143 
#    0.000    4.286    0.000    5.143    0.000    0.000 
#    0.000    0.000    0.000    0.000    0.000    0.000 
#
# Total GULP energy -347303.279551 kJ/mol
# GULP energy per Si atom -12403.688555 kJ/mol
# Density = 1.951884 g / cm^3
# Si number density = 19.563371 Si / 1000 Ang^3
#
#
#
# Elastic Constant Matrix: (Units=GPa)
#
#
# Indices 1 2 3 4 5 6 
#
# 1 56.4045 41.2168 39.1725 0.0000 -0.8571 0.0000
# 2 41.2168 186.1003 106.5053 0.0000 -3.0441 0.0000
# 3 39.1725 106.5053 166.5014 0.0000 -4.2748 0.0000
# 4 0.0000 0.0000 0.0000 36.6564 0.0000 -0.2844
# 5 -0.8571 -3.0441 -4.2748 0.0000 17.9645 0.0000
# 6 0.0000 0.0000 0.0000 -0.2844 0.0000 30.5523
#
#
#
# Elastic Compliance Matrix: (Units=1/GPa)
#
#
# Indices 1 2 3 4 5 6 
#
# 1 0.022236 -0.003046 -0.003289 0.000000 -0.000238 0.000000
# 2 -0.003046 0.008894 -0.004968 0.000000 0.000180 0.000000
# 3 -0.003289 -0.004968 0.009993 0.000000 0.001379 0.000000
# 4 0.000000 0.000000 0.000000 0.027282 0.000000 0.000254
# 5 -0.000238 0.000180 0.001379 0.000000 0.056013 0.000000
# 6 0.000000 0.000000 0.000000 0.000254 0.000000 0.032733
#
#
# Mechanical properties :
#
#
# Convention : Reuss Voigt Hill
#
# Bulk Modulus (GPa) = 54.00593 86.97728 70.49161
# Shear Modulus (GPa) = 26.89191 31.84208 29.36699
#
# Velocity S-wave (km/s) = 3.71159 4.03878 3.87863
# Velocity P-wave (km/s) = 6.78479 8.14277 7.49460
#
# Compressibility (1/GPa) = 0.01851649
#
# Stress axis : x y z
#
# Youngs Moduli (GPa) = 44.97292 112.43145 100.06998
#
# Poissons Ratio (x) = 0.34251 0.32911
# Poissons Ratio (y) = 0.13700 0.49715
# Poissons Ratio (z) = 0.14791 0.55857
#
# Static dielectric constant tensor:
#      x y z
#    x 3.352500 0.000000 -0.019230 
#    y 0.000000 3.870350 0.000000 
#    z -0.019230 0.000000 3.764620 
# 
# 
# High freq. dielectric constant tensor:
#      x y z
#    x 1.740150 0.000000 -0.001910 
#    y 0.000000 1.774370 0.000000 
#    z -0.001910 0.000000 1.781150 
# 
# From -- ./inp_files/257183.got.cif
#   From: 2010.06.25/outbox.cif.g09.slc.cpg/sg12_129_cif.got.tgz:257183.got - 2010.06.28 00:19:55.
