data_PCOD8090671
_publ_section_title
;
Structure prediction by ZEFSAII (Michael W. Deem and Ramdas Pophale) SiO2 
 PCOD8090671
Probable space group: C 2/M
;
_chemical_formula_sum "Si O2"
_cell_formula_units_Z 56
_cell_length_a 17.933947
_cell_length_b 14.019957
_cell_length_c 13.731428
_cell_angle_alpha 90.000000
_cell_angle_beta 130.993791
_cell_angle_gamma 90.000000
_cell_volume 2605.907751
_symmetry_space_group_name_H-M "C 2/M"
_symmetry_group_IT_number 12
_symmetry_cell_setting 'monoclinic'
loop_
_space_group_symop_operation_xyz
x,y,z
-x,y,-z
-x,-y,-z
x,-y,z
1/2+x,1/2+y,z
1/2-x,1/2+y,-z
1/2-x,1/2-y,-z
1/2+x,1/2-y,z
loop_
_atom_site_type_symbol
_atom_site_label
_atom_site_fract_x
_atom_site_fract_y
_atom_site_fract_z
Si Si1 0.407163 0.387175 0.857612
Si Si2 0.606579 0.890724 0.091187
Si Si3 0.402204 0.290584 0.298656
Si Si4 0.787703 0.889912 0.361996
Si Si5 0.750703 0.894858 0.048382
Si Si6 0.706643 0.108016 0.785948
Si Si7 0.419009 0.611197 0.643996
O O1 0.407983 0.500000 0.865956
O O2 0.302414 0.351193 0.810539
O O3 0.413278 0.354599 0.750372
O O4 0.500000 0.346631 0.000000
O O5 0.681821 0.845098 0.236886
O O6 0.648998 0.877712 0.019143
O O7 0.589321 0.000000 0.105504
O O8 0.500000 0.837657 0.000000
O O9 0.377050 0.347107 0.375216
O O10 0.329376 0.316258 0.147367
O O11 0.387423 0.177748 0.310687
O O12 0.510535 0.317351 0.355056
O O13 0.812349 0.876789 0.498028
O O14 0.783347 0.000000 0.329093
O O15 0.792490 0.000000 0.111184
O O16 0.734211 0.888837 0.921379
O O17 0.678614 0.000000 0.729174
O O18 0.453435 0.500000 0.666966
#
# Coordination Sequence:
#
# PCOD8090671 Si02
#       7
#     8   8   8   8   8   8   8
#     4   9  18  34  56  81 111 149 192 237 283 332
#     4   8  14  27  49  78 113 147 176 214 272 342
#     4  11  19  31  52  80 112 148 186 230 287 344
#     4   9  18  32  53  84 115 142 178 232 299 354
#     4   9  17  30  50  78 111 145 184 234 288 338
#     4  10  21  36  52  74 110 155 198 235 274 332
#     4  10  19  33  58  88 114 142 181 237 298 346
#
# _framework density 21.489633999999999
#
# number of rings (size 3 to 8) (size 9 to 14) (size 15 to 20)
#    0.000    2.571    0.000    3.857    0.000    3.429 
#    0.000    6.429    0.000    3.429    0.000    5.000 
#    0.000    0.000    0.000    0.000    0.000    0.000 
#
# Total GULP energy -346937.840525 kJ/mol
# GULP energy per Si atom -12390.637162 kJ/mol
# Density = 2.144072 g / cm^3
# Si number density = 21.489634 Si / 1000 Ang^3
#
#
#
# Elastic Constant Matrix: (Units=GPa)
#
#
# Indices 1 2 3 4 5 6 
#
# 1 114.7324 29.8144 78.0241 0.0000 4.3885 0.0000
# 2 29.8144 80.4474 19.3397 0.0000 7.5105 0.0000
# 3 78.0241 19.3397 128.8952 0.0000 -12.9606 0.0000
# 4 0.0000 0.0000 0.0000 6.5806 0.0000 3.2896
# 5 4.3885 7.5105 -12.9606 0.0000 26.9697 0.0000
# 6 0.0000 0.0000 0.0000 3.2896 0.0000 15.4431
#
#
#
# Elastic Compliance Matrix: (Units=1/GPa)
#
#
# Indices 1 2 3 4 5 6 
#
# 1 0.016900 -0.003103 -0.010459 0.000000 -0.006912 0.000000
# 2 -0.003103 0.014072 -0.000605 0.000000 -0.003705 0.000000
# 3 -0.010459 -0.000605 0.015098 0.000000 0.009126 0.000000
# 4 0.000000 0.000000 0.000000 0.170072 0.000000 -0.036228
# 5 -0.006912 -0.003705 0.009126 0.000000 0.043621 0.000000
# 6 0.000000 0.000000 0.000000 -0.036228 0.000000 0.072471
#
#
# Mechanical properties :
#
#
# Convention : Reuss Voigt Hill
#
# Bulk Modulus (GPa) = 56.38975 64.27016 60.32996
# Shear Modulus (GPa) = 13.64331 22.92513 18.28422
#
# Velocity S-wave (km/s) = 2.52241 3.26973 2.92008
# Velocity P-wave (km/s) = 5.89753 6.65036 6.28523
#
# Compressibility (1/GPa) = 0.01773372
#
# Stress axis : x y z
#
# Youngs Moduli (GPa) = 59.17320 71.06299 66.23429
#
# Poissons Ratio (x) = 0.22054 0.69275
# Poissons Ratio (y) = 0.18364 0.04009
# Poissons Ratio (z) = 0.61890 0.04302
#
# Static dielectric constant tensor:
#      x y z
#    x 3.833680 0.000000 0.009440 
#    y 0.000000 3.997980 0.000000 
#    z 0.009440 0.000000 3.969310 
# 
# 
# High freq. dielectric constant tensor:
#      x y z
#    x 1.827310 0.000000 -0.009570 
#    y 0.000000 1.833940 0.000000 
#    z -0.009570 0.000000 1.832270 
# 
# From -- ./inp_files/225404.got.cif
#   From: 2010.06.25/outbox.cif.g09.slc.cpg/sg12_113_cif.got.tgz:225404.got - 2010.06.28 00:19:55.
