data_PCOD8090930
_publ_section_title
;
Structure prediction by ZEFSAII (Michael W. Deem and Ramdas Pophale) SiO2 
 PCOD8090930
Probable space group: C 2/M
;
_chemical_formula_sum "Si O2"
_cell_formula_units_Z 60
_cell_length_a 15.553397
_cell_length_b 16.731003
_cell_length_c 12.034336
_cell_angle_alpha 90.000000
_cell_angle_beta 98.162850
_cell_angle_gamma 90.000000
_cell_volume 3099.894207
_symmetry_space_group_name_H-M "C 2/M"
_symmetry_group_IT_number 12
_symmetry_cell_setting 'monoclinic'
loop_
_space_group_symop_operation_xyz
x,y,z
-x,y,-z
-x,-y,-z
x,-y,z
1/2+x,1/2+y,z
1/2-x,1/2+y,-z
1/2-x,1/2-y,-z
1/2+x,1/2-y,z
loop_
_atom_site_type_symbol
_atom_site_label
_atom_site_fract_x
_atom_site_fract_y
_atom_site_fract_z
Si Si1 0.240016 0.161273 0.543592
Si Si2 0.343007 0.089469 0.374119
Si Si3 0.030491 0.232895 0.293930
Si Si4 0.687655 0.812935 0.205909
Si Si5 0.156428 0.706023 0.816663
Si Si6 0.102204 0.592267 0.005203
Si Si7 0.574594 0.586908 0.428928
Si Si8 0.500000 0.829755 0.500000
O O1 0.250000 0.250000 0.500000
O O2 0.290648 0.097831 0.477865
O O3 0.270356 0.152075 0.675134
O O4 0.140830 0.136837 0.516522
O O5 0.307692 0.150251 0.275605
O O6 0.441525 0.111512 0.417341
O O7 0.337519 0.000000 0.326468
O O8 0.103364 0.258727 0.218386
O O9 0.043562 0.138231 0.316376
O O10 0.932995 0.248777 0.232155
O O11 0.049197 0.275554 0.417143
O O12 0.763140 0.766784 0.150179
O O13 0.652680 0.887341 0.127909
O O14 0.139821 0.651505 0.919820
O O15 0.120161 0.500000 0.976580
O O16 0.000000 0.607308 0.000000
O O17 0.500000 0.568863 0.500000
O O18 0.609527 0.500000 0.392168
#
# Coordination Sequence:
#
# PCOD8090930 Si02
#       8
#     8   8   8   8   8   8   8   4
#     4  12  21  38  58  90 128 163 206 250 304 371
#     4  11  21  33  56  89 124 161 201 252 311 368
#     4  11  20  38  62  89 126 169 215 253 304 375
#     4  12  23  40  66  93 125 170 212 256 311 378
#     4  11  23  41  66  91 121 169 216 257 311 379
#     4  11  25  46  67  94 126 158 208 270 328 374
#     4  11  22  35  55  86 128 171 206 247 298 359
#     4  10  19  34  53  84 128 166 202 244 307 374
#
# _framework density 19.355501
#
# number of rings (size 3 to 8) (size 9 to 14) (size 15 to 20)
#    0.000    0.800    6.000    2.200    0.000    1.067 
#    0.000    1.333    0.000    0.000    0.000    1.867 
#    0.000    0.000    0.000    0.000    0.000    0.000 
#
# Total GULP energy -371911.964872 kJ/mol
# GULP energy per Si atom -12397.065496 kJ/mol
# Density = 1.931145 g / cm^3
# Si number density = 19.355501 Si / 1000 Ang^3
#
#
#
# Elastic Constant Matrix: (Units=GPa)
#
#
# Indices 1 2 3 4 5 6 
#
# 1 108.9353 45.2714 30.4893 0.0000 4.2893 0.0000
# 2 45.2714 107.8856 41.0183 0.0000 14.7800 0.0000
# 3 30.4893 41.0183 98.4517 0.0000 5.6523 0.0000
# 4 0.0000 0.0000 0.0000 120.6541 0.0000 86.4066
# 5 4.2893 14.7800 5.6523 0.0000 30.0425 0.0000
# 6 0.0000 0.0000 0.0000 86.4066 0.0000 106.5076
#
#
#
# Elastic Compliance Matrix: (Units=1/GPa)
#
#
# Indices 1 2 3 4 5 6 
#
# 1 0.011405 -0.004198 -0.001828 0.000000 0.000781 0.000000
# 2 -0.004198 0.013227 -0.003914 0.000000 -0.005172 0.000000
# 3 -0.001828 -0.003914 0.012362 0.000000 -0.000139 0.000000
# 4 0.000000 0.000000 0.000000 0.019780 0.000000 -0.016047
# 5 0.000781 -0.005172 -0.000139 0.000000 0.035745 0.000000
# 6 0.000000 0.000000 0.000000 -0.016047 0.000000 0.022408
#
#
# Mechanical properties :
#
#
# Convention : Reuss Voigt Hill
#
# Bulk Modulus (GPa) = 58.42844 60.98117 59.70481
# Shear Modulus (GPa) = 35.58408 64.67375 50.12891
#
# Velocity S-wave (km/s) = 4.29236 5.78672 5.09463
# Velocity P-wave (km/s) = 7.40394 8.73055 8.09447
#
# Compressibility (1/GPa) = 0.01711495
#
# Stress axis : x y z
#
# Youngs Moduli (GPa) = 87.67955 75.60185 80.89291
#
# Poissons Ratio (x) = 0.31737 0.14786
# Poissons Ratio (y) = 0.36807 0.31661
# Poissons Ratio (z) = 0.16027 0.29590
#
# Static dielectric constant tensor:
#      x y z
#    x 3.588120 0.000000 -0.073670 
#    y 0.000000 3.789020 0.000000 
#    z -0.073670 0.000000 3.389060 
# 
# 
# High freq. dielectric constant tensor:
#      x y z
#    x 1.767250 0.000000 0.003980 
#    y 0.000000 1.752230 0.000000 
#    z 0.003980 0.000000 1.734880 
# 
# From -- ./inp_files/146190.got.cif
#   From: 2010.06.25/outbox.cif.g09.slc.cpg/sg12_74_cif.got.tgz:146190.got - 2010.06.28 00:19:55.
