data_PCOD8090460
_publ_section_title
;
Structure prediction by ZEFSAII (Michael W. Deem and Ramdas Pophale) SiO2 
 PCOD8090460
Probable space group: C 2/M
;
_chemical_formula_sum "Si O2"
_cell_formula_units_Z 48
_cell_length_a 22.831166
_cell_length_b 9.181100
_cell_length_c 12.051144
_cell_angle_alpha 90.000000
_cell_angle_beta 68.942589
_cell_angle_gamma 90.000000
_cell_volume 2357.412204
_symmetry_space_group_name_H-M "C 2/M"
_symmetry_group_IT_number 12
_symmetry_cell_setting 'monoclinic'
loop_
_space_group_symop_operation_xyz
x,y,z
-x,y,-z
-x,-y,-z
x,-y,z
1/2+x,1/2+y,z
1/2-x,1/2+y,-z
1/2-x,1/2-y,-z
1/2+x,1/2-y,z
loop_
_atom_site_type_symbol
_atom_site_label
_atom_site_fract_x
_atom_site_fract_y
_atom_site_fract_z
Si Si1 0.570371 0.329231 0.264863
Si Si2 0.359911 0.670312 0.172449
Si Si3 0.547151 0.827908 0.732297
Si Si4 0.758654 0.333099 0.606460
Si Si5 0.315459 0.331598 0.964517
Si Si6 0.899421 0.332072 0.543005
O O1 0.555393 0.500000 0.276525
O O2 0.520502 0.248383 0.220328
O O3 0.563326 0.265527 0.393805
O O4 0.639910 0.297051 0.170389
O O5 0.375157 0.500000 0.179855
O O6 0.414353 0.765544 0.190307
O O7 0.293196 0.715111 0.270108
O O8 0.354796 0.712743 0.047049
O O9 0.582641 0.786871 0.593963
O O10 0.539528 0.000000 0.751979
O O11 0.752084 0.500000 0.578442
O O12 0.750000 0.250000 0.500000
O O13 0.826255 0.300565 0.612768
O O14 0.297602 0.500000 0.983704
O O15 0.250000 0.250000 0.000000
O O16 0.917052 0.500000 0.553522
#
# Coordination Sequence:
#
# PCOD8090460 Si02
#       6
#     8   8   8   8   8   8
#     4  11  24  40  60  87 118 156 200 244 292 349
#     4  10  21  38  61  87 119 157 195 241 296 349
#     4  11  23  39  60  87 120 157 198 245 296 350
#     4  10  19  33  56  85 116 149 186 234 289 343
#     4  10  23  43  65  89 118 154 196 243 293 349
#     4  10  21  38  59  86 121 158 197 244 295 348
#
# _framework density 20.36131
#
# number of rings (size 3 to 8) (size 9 to 14) (size 15 to 20)
#    0.000    1.667    1.667    2.500    0.000    8.000 
#    0.000    3.333    0.000    0.000    0.000    0.000 
#    0.000    0.000    0.000    0.000    0.000    0.000 
#
# Total GULP energy -297692.550933 kJ/mol
# GULP energy per Si atom -12403.856289 kJ/mol
# Density = 2.031497 g / cm^3
# Si number density = 20.361310 Si / 1000 Ang^3
#
#
#
# Elastic Constant Matrix: (Units=GPa)
#
#
# Indices 1 2 3 4 5 6 
#
# 1 115.6648 61.7844 26.0136 0.0000 11.1545 0.0000
# 2 61.7844 89.9850 42.1798 0.0000 8.8092 0.0000
# 3 26.0136 42.1798 78.0557 0.0000 16.7731 0.0000
# 4 0.0000 0.0000 0.0000 29.3065 0.0000 4.0763
# 5 11.1545 8.8092 16.7731 0.0000 30.9669 0.0000
# 6 0.0000 0.0000 0.0000 4.0763 0.0000 41.2724
#
#
#
# Elastic Compliance Matrix: (Units=1/GPa)
#
#
# Indices 1 2 3 4 5 6 
#
# 1 0.013911 -0.009892 0.001337 0.000000 -0.002921 0.000000
# 2 -0.009892 0.021917 -0.009023 0.000000 0.002216 0.000000
# 3 0.001337 -0.009023 0.019006 0.000000 -0.008209 0.000000
# 4 0.000000 0.000000 0.000000 0.034597 0.000000 -0.003417
# 5 -0.002921 0.002216 -0.008209 0.000000 0.037161 0.000000
# 6 0.000000 0.000000 0.000000 -0.003417 0.000000 0.024567
#
#
# Mechanical properties :
#
#
# Convention : Reuss Voigt Hill
#
# Bulk Modulus (GPa) = 50.81882 60.40680 55.61281
# Shear Modulus (GPa) = 25.92362 30.55768 28.24065
#
# Velocity S-wave (km/s) = 3.57204 3.87818 3.72825
# Velocity P-wave (km/s) = 6.48269 7.05589 6.77536
#
# Compressibility (1/GPa) = 0.01967775
#
# Stress axis : x y z
#
# Youngs Moduli (GPa) = 71.88770 45.62564 52.61560
#
# Poissons Ratio (x) = 0.45133 -0.07035
# Poissons Ratio (y) = 0.71111 0.47476
# Poissons Ratio (z) = -0.09612 0.41169
#
# Static dielectric constant tensor:
#      x y z
#    x 3.731320 0.000000 -0.137170 
#    y 0.000000 3.484390 0.000000 
#    z -0.137170 0.000000 3.616720 
# 
# 
# High freq. dielectric constant tensor:
#      x y z
#    x 1.806580 0.000000 -0.000920 
#    y 0.000000 1.790630 0.000000 
#    z -0.000920 0.000000 1.796140 
# 
# From -- ./inp_files/172862.got.cif
#   From: 2010.06.25/outbox.cif.g09.slc.cpg/sg12_87_cif.got.tgz:172862.got - 2010.06.28 00:19:55.
