data_PCOD8090437
_publ_section_title
;
Structure prediction by ZEFSAII (Michael W. Deem and Ramdas Pophale) SiO2 
 PCOD8090437
Probable space group: C 2/M
;
_chemical_formula_sum "Si O2"
_cell_formula_units_Z 56
_cell_length_a 29.911030
_cell_length_b 9.125922
_cell_length_c 11.577008
_cell_angle_alpha 90.000000
_cell_angle_beta 63.942725
_cell_angle_gamma 90.000000
_cell_volume 2838.916571
_symmetry_space_group_name_H-M "C 2/M"
_symmetry_group_IT_number 12
_symmetry_cell_setting 'monoclinic'
loop_
_space_group_symop_operation_xyz
x,y,z
-x,y,-z
-x,-y,-z
x,-y,z
1/2+x,1/2+y,z
1/2-x,1/2+y,-z
1/2-x,1/2-y,-z
1/2+x,1/2-y,z
loop_
_atom_site_type_symbol
_atom_site_label
_atom_site_fract_x
_atom_site_fract_y
_atom_site_fract_z
Si Si1 0.056752 0.172323 0.438537
Si Si2 0.315720 0.833282 0.986748
Si Si3 0.098575 0.830262 0.632946
Si Si4 0.015307 0.326472 0.856382
Si Si5 0.232170 0.670875 0.201560
Si Si6 0.289020 0.671792 0.538247
Si Si7 0.076026 0.331311 0.193363
O O1 0.081845 0.229551 0.527018
O O2 0.085443 0.243918 0.299811
O O3 0.000000 0.225315 0.500000
O O4 0.061960 0.000000 0.419858
O O5 0.303229 0.796618 0.867374
O O6 0.374575 0.811119 0.940553
O O7 0.299442 0.000000 0.032237
O O8 0.287596 0.726160 0.106792
O O9 0.068485 0.742619 0.764487
O O10 0.157187 0.803313 0.581089
O O11 0.084515 0.000000 0.660982
O O12 0.020684 0.500000 0.846264
O O13 0.972050 0.270056 0.819448
O O14 0.000000 0.271828 0.000000
O O15 0.234713 0.500000 0.230602
O O16 0.211203 0.759085 0.334279
O O17 0.276655 0.500000 0.562358
O O18 0.250000 0.750000 0.500000
O O19 0.068187 0.500000 0.234445
#
# Coordination Sequence:
#
# PCOD8090437 Si02
#       7
#     8   8   8   8   8   8   8
#     4  10  19  33  56  84 116 147 181 227 283 339
#     4   9  19  35  56  83 117 153 190 238 290 342
#     4  10  22  40  60  85 114 147 186 232 283 337
#     4  10  22  38  55  79 113 151 190 230 274 329
#     4  10  20  36  58  85 115 148 192 240 292 345
#     4  11  24  41  61  84 114 150 194 241 288 343
#     4  10  20  34  54  82 113 149 192 232 277 334
#
# _framework density 19.725835
#
# number of rings (size 3 to 8) (size 9 to 14) (size 15 to 20)
#    0.000    2.000    1.429    1.714    0.000    4.571 
#    0.000    1.429    0.000    0.000    0.000    0.000 
#    0.000    0.000    0.000    0.000    0.000    0.000 
#
# Total GULP energy -347287.095363 kJ/mol
# GULP energy per Si atom -12403.110549 kJ/mol
# Density = 1.968094 g / cm^3
# Si number density = 19.725835 Si / 1000 Ang^3
#
#
#
# Elastic Constant Matrix: (Units=GPa)
#
#
# Indices 1 2 3 4 5 6 
#
# 1 89.5581 37.1946 39.1689 0.0000 -11.8028 0.0000
# 2 37.1946 74.1306 54.2617 0.0000 -6.7334 0.0000
# 3 39.1689 54.2617 123.5312 0.0000 -6.0882 0.0000
# 4 0.0000 0.0000 0.0000 40.1203 0.0000 -2.8474
# 5 -11.8028 -6.7334 -6.0882 0.0000 28.1521 0.0000
# 6 0.0000 0.0000 0.0000 -2.8474 0.0000 27.7378
#
#
#
# Elastic Compliance Matrix: (Units=1/GPa)
#
#
# Indices 1 2 3 4 5 6 
#
# 1 0.014989 -0.005594 -0.002074 0.000000 0.004498 0.000000
# 2 -0.005594 0.022207 -0.007919 0.000000 0.001254 0.000000
# 3 -0.002074 -0.007919 0.012225 0.000000 -0.000120 0.000000
# 4 0.000000 0.000000 0.000000 0.025108 0.000000 0.002577
# 5 0.004498 0.001254 -0.000120 0.000000 0.037681 0.000000
# 6 0.000000 0.000000 0.000000 0.002577 0.000000 0.036317
#
#
# Mechanical properties :
#
#
# Convention : Reuss Voigt Hill
#
# Bulk Modulus (GPa) = 54.80241 60.94115 57.87178
# Shear Modulus (GPa) = 26.91318 29.64167 28.27743
#
# Velocity S-wave (km/s) = 3.69773 3.88065 3.79030
# Velocity P-wave (km/s) = 6.78774 7.14426 6.96828
#
# Compressibility (1/GPa) = 0.01824737
#
# Stress axis : x y z
#
# Youngs Moduli (GPa) = 66.71576 45.03115 81.79843
#
# Poissons Ratio (x) = 0.25191 0.16963
# Poissons Ratio (y) = 0.37322 0.64775
# Poissons Ratio (z) = 0.13835 0.35660
#
# Static dielectric constant tensor:
#      x y z
#    x 3.622000 0.000000 -0.055920 
#    y 0.000000 3.488040 0.000000 
#    z -0.055920 0.000000 3.529090 
# 
# 
# High freq. dielectric constant tensor:
#      x y z
#    x 1.769700 0.000000 -0.009680 
#    y 0.000000 1.763400 0.000000 
#    z -0.009680 0.000000 1.768890 
# 
# From -- ./inp_files/187136.got.cif
#   From: 2010.06.25/outbox.cif.g09.slc.cpg/sg12_94_cif.got.tgz:187136.got - 2010.06.28 00:19:55.
