data_PCOD8090918
_publ_section_title
;
Structure prediction by ZEFSAII (Michael W. Deem and Ramdas Pophale) SiO2 
 PCOD8090918
Probable space group: C 2/M
;
_chemical_formula_sum "Si O2"
_cell_formula_units_Z 56
_cell_length_a 17.173273
_cell_length_b 11.663248
_cell_length_c 14.879732
_cell_angle_alpha 90.000000
_cell_angle_beta 102.011705
_cell_angle_gamma 90.000000
_cell_volume 2915.098402
_symmetry_space_group_name_H-M "C 2/M"
_symmetry_group_IT_number 12
_symmetry_cell_setting 'monoclinic'
loop_
_space_group_symop_operation_xyz
x,y,z
-x,y,-z
-x,-y,-z
x,-y,z
1/2+x,1/2+y,z
1/2-x,1/2+y,-z
1/2-x,1/2-y,-z
1/2+x,1/2-y,z
loop_
_atom_site_type_symbol
_atom_site_label
_atom_site_fract_x
_atom_site_fract_y
_atom_site_fract_z
Si Si1 0.828778 0.131253 0.099626
Si Si2 0.322667 0.284711 0.901884
Si Si3 0.633933 0.374750 0.265573
Si Si4 0.534104 0.258929 0.765175
Si Si5 0.535978 0.876681 0.105933
Si Si6 0.737983 0.866321 0.554989
Si Si7 0.937479 0.630291 0.410636
O O1 0.761472 0.221342 0.111341
O O2 0.904290 0.144763 0.184274
O O3 0.798724 0.000000 0.099902
O O4 0.851205 0.156680 0.001210
O O5 0.323017 0.377092 0.822062
O O6 0.385983 0.197705 0.877568
O O7 0.600594 0.500000 0.276970
O O8 0.557118 0.296977 0.262637
O O9 0.702237 0.340890 0.350562
O O10 0.533840 0.163347 0.843219
O O11 0.560879 0.211081 0.675924
O O12 0.564431 0.000000 0.146460
O O13 0.500000 0.882328 0.000000
O O14 0.750000 0.750000 0.500000
O O15 0.648787 0.862821 0.567880
O O16 0.752467 0.000000 0.518976
O O17 0.959247 0.500000 0.387784
O O18 0.000000 0.675627 0.500000
#
# Coordination Sequence:
#
# PCOD8090918 Si02
#       7
#     8   8   8   8   8   8   8
#     4  11  22  36  54  79 111 146 188 236 286 341
#     4  10  21  37  54  78 107 148 190 233 285 335
#     4  10  21  37  58  81 113 151 191 235 286 350
#     4  11  21  36  57  85 115 151 189 232 291 341
#     4  10  19  34  53  79 111 145 187 232 278 332
#     4  10  21  40  63  89 117 153 196 244 297 355
#     4  10  21  38  61  88 117 150 193 242 289 342
#
# _framework density 19.210329000000002
#
# number of rings (size 3 to 8) (size 9 to 14) (size 15 to 20)
#    0.000    1.714    1.429    3.429    0.000    0.000 
#    0.000   10.000    0.000    3.857    0.000    0.000 
#    0.000    0.000    0.000    0.000    0.000    0.000 
#
# Total GULP energy -346865.875274 kJ/mol
# GULP energy per Si atom -12388.066974 kJ/mol
# Density = 1.916661 g / cm^3
# Si number density = 19.210329 Si / 1000 Ang^3
#
#
#
# Elastic Constant Matrix: (Units=GPa)
#
#
# Indices 1 2 3 4 5 6 
#
# 1 81.4185 24.1922 33.6972 0.0000 7.5174 0.0000
# 2 24.1922 92.6927 49.4304 0.0000 -3.0508 0.0000
# 3 33.6972 49.4304 111.4944 0.0000 3.1255 0.0000
# 4 0.0000 0.0000 0.0000 17.1942 0.0000 -6.5010
# 5 7.5174 -3.0508 3.1255 0.0000 34.2907 0.0000
# 6 0.0000 0.0000 0.0000 -6.5010 0.0000 22.2659
#
#
#
# Elastic Compliance Matrix: (Units=1/GPa)
#
#
# Indices 1 2 3 4 5 6 
#
# 1 0.014595 -0.002101 -0.003393 0.000000 -0.003077 0.000000
# 2 -0.002101 0.014547 -0.005879 0.000000 0.002291 0.000000
# 3 -0.003393 -0.005879 0.012627 0.000000 -0.000930 0.000000
# 4 0.000000 0.000000 0.000000 0.065376 0.000000 0.019088
# 5 -0.003077 0.002291 -0.000930 0.000000 0.030126 0.000000
# 6 0.000000 0.000000 0.000000 0.019088 0.000000 0.050485
#
#
# Mechanical properties :
#
#
# Convention : Reuss Voigt Hill
#
# Bulk Modulus (GPa) = 52.56738 55.58281 54.07509
# Shear Modulus (GPa) = 23.05820 26.63587 24.84704
#
# Velocity S-wave (km/s) = 3.46830 3.72767 3.60032
# Velocity P-wave (km/s) = 6.59259 6.89376 6.74486
#
# Compressibility (1/GPa) = 0.01902321
#
# Stress axis : x y z
#
# Youngs Moduli (GPa) = 68.51644 68.74317 79.19575
#
# Poissons Ratio (x) = 0.14442 0.26874
# Poissons Ratio (y) = 0.14395 0.46556
# Poissons Ratio (z) = 0.23250 0.40411
#
# Static dielectric constant tensor:
#      x y z
#    x 3.074460 0.000000 -0.438940 
#    y 0.000000 3.984290 0.000000 
#    z -0.438940 0.000000 3.223860 
# 
# 
# High freq. dielectric constant tensor:
#      x y z
#    x 1.750740 0.000000 0.006970 
#    y 0.000000 1.751580 0.000000 
#    z 0.006970 0.000000 1.748450 
# 
# From -- ./inp_files/223379.got.cif
#   From: 2010.06.25/outbox.cif.g09.slc.cpg/sg12_112_cif.got.tgz:223379.got - 2010.06.28 00:19:55.
