data_PCOD8090967
_publ_section_title
;
Structure prediction by ZEFSAII (Michael W. Deem and Ramdas Pophale) SiO2 
 PCOD8090967
Probable space group: C 2/M
;
_chemical_formula_sum "Si O2"
_cell_formula_units_Z 64
_cell_length_a 17.195302
_cell_length_b 12.095882
_cell_length_c 30.273373
_cell_angle_alpha 90.000000
_cell_angle_beta 34.178073
_cell_angle_gamma 90.000000
_cell_volume 3537.237669
_symmetry_space_group_name_H-M "C 2/M"
_symmetry_group_IT_number 12
_symmetry_cell_setting 'monoclinic'
loop_
_space_group_symop_operation_xyz
x,y,z
-x,y,-z
-x,-y,-z
x,-y,z
1/2+x,1/2+y,z
1/2-x,1/2+y,-z
1/2-x,1/2-y,-z
1/2+x,1/2-y,z
loop_
_atom_site_type_symbol
_atom_site_label
_atom_site_fract_x
_atom_site_fract_y
_atom_site_fract_z
Si Si1 0.080244 0.371715 0.067023
Si Si2 0.066329 0.870404 0.769888
Si Si3 0.791753 0.744072 0.912535
Si Si4 0.896257 0.747715 0.336094
Si Si5 0.009294 0.130064 0.365716
Si Si6 0.321639 0.130042 0.808618
Si Si7 0.296764 0.241745 0.216740
Si Si8 0.391246 0.369476 0.514812
O O1 0.091551 0.500000 0.050220
O O2 0.157080 0.348993 0.077209
O O3 0.920544 0.338180 0.144309
O O4 0.151325 0.301343 0.994790
O O5 0.110900 0.835441 0.700027
O O6 0.167207 0.812081 0.757148
O O7 0.907554 0.838694 0.853504
O O8 0.083828 0.000000 0.767043
O O9 0.758322 0.685538 0.882097
O O10 0.754402 0.683249 0.405604
O O11 0.919739 0.813131 0.370030
O O12 0.016283 0.658291 0.271148
O O13 0.168964 0.163297 0.288145
O O14 0.945691 0.170270 0.441795
O O15 0.997738 0.000000 0.365293
O O16 0.237290 0.174371 0.806549
O O17 0.301851 0.000000 0.820713
O O18 0.500000 0.327980 0.500000
O O19 0.373077 0.500000 0.525054
#
# Coordination Sequence:
#
# PCOD8090967 Si02
#       8
#     8   8   8   8   8   8   8   8
#     4  10  19  35  55  76 105 135 171 215 257 303
#     4  10  19  34  54  76 105 137 171 211 258 307
#     4   9  20  34  53  79 101 134 176 212 255 306
#     4  10  20  34  55  79 103 136 174 210 252 307
#     4  10  20  35  54  77 106 137 171 212 258 304
#     4  10  20  36  54  75 105 136 172 214 255 300
#     4  10  21  34  53  79 104 136 173 210 256 309
#     4  10  20  34  54  79 106 136 170 211 257 302
#
# _framework density 18.093215000000001
#
# number of rings (size 3 to 8) (size 9 to 14) (size 15 to 20)
#    0.000    2.125    0.000    3.375    0.000    0.500 
#    0.000    8.750    0.000    9.000    0.000    0.000 
#    0.000    0.000    0.000    0.000    0.000    0.000 
#
# Total GULP energy -396937.836550 kJ/mol
# GULP energy per Si atom -12404.307392 kJ/mol
# Density = 1.805203 g / cm^3
# Si number density = 18.093215 Si / 1000 Ang^3
#
#
#
# Elastic Constant Matrix: (Units=GPa)
#
#
# Indices 1 2 3 4 5 6 
#
# 1 87.2556 28.0783 32.8848 0.0000 10.2099 0.0000
# 2 28.0783 71.8978 25.8102 0.0000 1.3873 0.0000
# 3 32.8848 25.8102 88.7742 0.0000 7.7838 0.0000
# 4 0.0000 0.0000 0.0000 20.9165 0.0000 1.2370
# 5 10.2099 1.3873 7.7838 0.0000 31.6720 0.0000
# 6 0.0000 0.0000 0.0000 1.2370 0.0000 18.5594
#
#
#
# Elastic Compliance Matrix: (Units=1/GPa)
#
#
# Indices 1 2 3 4 5 6 
#
# 1 0.014729 -0.004284 -0.003894 0.000000 -0.003603 0.000000
# 2 -0.004284 0.016782 -0.003422 0.000000 0.001487 0.000000
# 3 -0.003894 -0.003422 0.013878 0.000000 -0.002005 0.000000
# 4 0.000000 0.000000 0.000000 0.047998 0.000000 -0.003199
# 5 -0.003603 0.001487 -0.002005 0.000000 0.033163 0.000000
# 6 0.000000 0.000000 0.000000 -0.003199 0.000000 0.054094
#
#
# Mechanical properties :
#
#
# Convention : Reuss Voigt Hill
#
# Bulk Modulus (GPa) = 45.07368 46.83049 45.95209
# Shear Modulus (GPa) = 23.66959 24.97321 24.32140
#
# Velocity S-wave (km/s) = 3.62083 3.71921 3.67035
# Velocity P-wave (km/s) = 6.51510 6.66201 6.58897
#
# Compressibility (1/GPa) = 0.02218589
#
# Stress axis : x y z
#
# Youngs Moduli (GPa) = 67.89516 59.58863 72.05651
#
# Poissons Ratio (x) = 0.25530 0.28061
# Poissons Ratio (y) = 0.29089 0.24661
# Poissons Ratio (z) = 0.26441 0.20394
#
# Static dielectric constant tensor:
#      x y z
#    x 3.524550 0.000000 0.167020 
#    y 0.000000 3.194060 0.000000 
#    z 0.167020 0.000000 3.438890 
# 
# 
# High freq. dielectric constant tensor:
#      x y z
#    x 1.710550 0.000000 0.007640 
#    y 0.000000 1.699580 0.000000 
#    z 0.007640 0.000000 1.709840 
# 
# From -- ./inp_files/296459.got.cif
#   From: 2010.06.25/outbox.cif.g09.slc.cpg/sg12_149_cif.got.tgz:296459.got - 2010.06.28 00:19:55.
