data_PCOD8090989
_publ_section_title
;
Structure prediction by ZEFSAII (Michael W. Deem and Ramdas Pophale) SiO2 
 PCOD8090989
Probable space group: C 2/M
;
_chemical_formula_sum "Si O2"
_cell_formula_units_Z 64
_cell_length_a 25.235461
_cell_length_b 9.218542
_cell_length_c 14.651082
_cell_angle_alpha 90.000000
_cell_angle_beta 104.495713
_cell_angle_gamma 90.000000
_cell_volume 3299.842216
_symmetry_space_group_name_H-M "C 2/M"
_symmetry_group_IT_number 12
_symmetry_cell_setting 'monoclinic'
loop_
_space_group_symop_operation_xyz
x,y,z
-x,y,-z
-x,-y,-z
x,-y,z
1/2+x,1/2+y,z
1/2-x,1/2+y,-z
1/2-x,1/2-y,-z
1/2+x,1/2-y,z
loop_
_atom_site_type_symbol
_atom_site_label
_atom_site_fract_x
_atom_site_fract_y
_atom_site_fract_z
Si Si1 0.886765 0.332519 0.911449
Si Si2 0.551043 0.327203 0.218176
Si Si3 0.770417 0.663211 0.635706
Si Si4 0.114076 0.331355 0.391129
Si Si5 0.165502 0.332241 0.594356
Si Si6 0.233865 0.662385 0.150450
Si Si7 0.940818 0.668016 0.125410
Si Si8 0.339441 0.829255 0.202632
O O1 0.887133 0.500000 0.877613
O O2 0.905944 0.231060 0.837440
O O3 0.825031 0.290002 0.916308
O O4 0.927164 0.311704 0.013454
O O5 0.551474 0.500000 0.218645
O O6 0.567278 0.266998 0.325299
O O7 0.491082 0.270607 0.169350
O O8 0.760771 0.500000 0.597353
O O9 0.827663 0.721516 0.622453
O O10 0.719857 0.757614 0.577265
O O11 0.772836 0.673971 0.744837
O O12 0.102800 0.500000 0.363131
O O13 0.115498 0.305700 0.501754
O O14 0.180176 0.500000 0.606850
O O15 0.149829 0.274761 0.688608
O O16 0.248558 0.500000 0.125529
O O17 0.283218 0.763992 0.137575
O O18 0.955136 0.500000 0.152718
O O19 0.890331 0.723431 0.164634
O O20 0.333151 0.000000 0.193432
#
# Coordination Sequence:
#
# PCOD8090989 Si02
#       8
#     8   8   8   8   8   8   8   8
#     4  10  20  38  61  83 109 145 185 218 269 342
#     4  12  25  38  56  83 112 138 177 239 289 320
#     4   9  16  28  48  75 110 146 178 215 264 325
#     4  10  19  34  54  77 108 148 185 217 266 335
#     4   9  18  31  52  80 111 144 180 224 267 314
#     4   9  17  31  53  81 112 146 179 218 268 324
#     4  10  22  40  61  78 104 151 191 223 268 330
#     4   9  19  36  55  82 115 145 185 227 266 314
#
# _framework density 19.394867000000001
#
# number of rings (size 3 to 8) (size 9 to 14) (size 15 to 20)
#    0.000    2.250    1.250    1.875    0.000    4.500 
#    0.000    0.625    0.000    3.750    0.000    0.000 
#    0.000    0.000    0.000    0.000    0.000    0.000 
#
# Total GULP energy -396769.689184 kJ/mol
# GULP energy per Si atom -12399.052787 kJ/mol
# Density = 1.935072 g / cm^3
# Si number density = 19.394867 Si / 1000 Ang^3
#
#
#
# Elastic Constant Matrix: (Units=GPa)
#
#
# Indices 1 2 3 4 5 6 
#
# 1 80.6084 44.1890 32.2155 0.0000 12.4593 0.0000
# 2 44.1890 77.8445 35.2876 0.0000 16.0614 0.0000
# 3 32.2155 35.2876 59.2833 0.0000 25.5719 0.0000
# 4 0.0000 0.0000 0.0000 20.5922 0.0000 7.5940
# 5 12.4593 16.0614 25.5719 0.0000 28.6563 0.0000
# 6 0.0000 0.0000 0.0000 7.5940 0.0000 31.9108
#
#
#
# Elastic Compliance Matrix: (Units=1/GPa)
#
#
# Indices 1 2 3 4 5 6 
#
# 1 0.019264 -0.008507 -0.006257 0.000000 0.001976 0.000000
# 2 -0.008507 0.021362 -0.007354 0.000000 -0.001712 0.000000
# 3 -0.006257 -0.007354 0.035271 0.000000 -0.024632 0.000000
# 4 0.000000 0.000000 0.000000 0.053234 0.000000 -0.012668
# 5 0.001976 -0.001712 -0.024632 0.000000 0.056977 0.000000
# 6 0.000000 0.000000 0.000000 -0.012668 0.000000 0.034352
#
#
# Mechanical properties :
#
#
# Convention : Reuss Voigt Hill
#
# Bulk Modulus (GPa) = 31.58505 49.01337 40.29921
# Shear Modulus (GPa) = 18.16520 23.30148 20.73334
#
# Velocity S-wave (km/s) = 3.06371 3.46992 3.27312
# Velocity P-wave (km/s) = 5.36989 6.43272 5.92519
#
# Compressibility (1/GPa) = 0.03166055
#
# Stress axis : x y z
#
# Youngs Moduli (GPa) = 51.90940 46.81207 28.35176
#
# Poissons Ratio (x) = 0.39822 0.17741
# Poissons Ratio (y) = 0.44158 0.20851
# Poissons Ratio (z) = 0.32481 0.34428
#
# Static dielectric constant tensor:
#      x y z
#    x 3.491690 0.000000 0.061120 
#    y 0.000000 3.458570 0.000000 
#    z 0.061120 0.000000 3.738140 
# 
# 
# High freq. dielectric constant tensor:
#      x y z
#    x 1.739900 0.000000 0.007430 
#    y 0.000000 1.736840 0.000000 
#    z 0.007430 0.000000 1.763550 
# 
# From -- ./inp_files/244138.got.cif
#   From: 2010.06.25/outbox.cif.g09.slc.cpg/sg12_123_cif.got.tgz:244138.got - 2010.06.28 00:19:55.
