data_PCOD8090324
_publ_section_title
;
Structure prediction by ZEFSAII (Michael W. Deem and Ramdas Pophale) SiO2 
 PCOD8090324
Probable space group: C 2/M
;
_chemical_formula_sum "Si O2"
_cell_formula_units_Z 48
_cell_length_a 18.164026
_cell_length_b 7.724483
_cell_length_c 17.132635
_cell_angle_alpha 90.000000
_cell_angle_beta 88.567236
_cell_angle_gamma 90.000000
_cell_volume 2403.089235
_symmetry_space_group_name_H-M "C 2/M"
_symmetry_group_IT_number 12
_symmetry_cell_setting 'monoclinic'
loop_
_space_group_symop_operation_xyz
x,y,z
-x,y,-z
-x,-y,-z
x,-y,z
1/2+x,1/2+y,z
1/2-x,1/2+y,-z
1/2-x,1/2-y,-z
1/2+x,1/2-y,z
loop_
_atom_site_type_symbol
_atom_site_label
_atom_site_fract_x
_atom_site_fract_y
_atom_site_fract_z
Si Si1 0.426164 0.301076 0.706850
Si Si2 0.420227 0.196894 0.014253
Si Si3 0.092325 0.500000 0.578431
Si Si4 0.418055 0.000000 0.594627
Si Si5 0.339575 0.702073 0.864445
Si Si6 0.673632 0.793979 0.840469
Si Si7 0.403725 0.306544 0.312181
O O1 0.408798 0.500000 0.683657
O O2 0.394251 0.174211 0.641006
O O3 0.387974 0.249177 0.788391
O O4 0.512771 0.268509 0.716421
O O5 0.376154 0.281966 0.087638
O O6 0.434815 0.000000 0.037915
O O7 0.500000 0.289578 0.000000
O O8 0.371897 0.200589 0.937843
O O9 0.121787 0.500000 0.488672
O O10 0.122175 0.671483 0.621077
O O11 0.004866 0.500000 0.580450
O O12 0.342471 0.500000 0.882367
O O13 0.256804 0.767048 0.853345
O O14 0.647910 0.708698 0.761182
O O15 0.668873 0.000000 0.833453
O O16 0.396764 0.500000 0.347345
#
# Coordination Sequence:
#
# PCOD8090324 Si02
#       7
#     8   8   4   4   8   8   8
#     4   9  19  34  53  82 110 138 185 227 267 328
#     4  10  21  34  52  78 108 143 186 230 271 318
#     4   9  18  34  54  85 115 135 177 225 271 333
#     4   9  18  32  58  83 109 147 169 219 289 319
#     4  10  21  35  52  76 107 147 182 229 272 317
#     4  10  20  35  52  75 110 149 182 229 272 320
#     4  10  19  33  56  81 108 144 181 224 275 323
#
# _framework density 19.97429
#
# number of rings (size 3 to 8) (size 9 to 14) (size 15 to 20)
#    0.000    2.333    0.833    1.500    1.167    2.333 
#    0.000    3.333    0.000    1.000    0.000    0.000 
#    0.000    0.000    0.000    0.000    0.000    0.000 
#
# Total GULP energy -297610.784922 kJ/mol
# GULP energy per Si atom -12400.449372 kJ/mol
# Density = 1.992883 g / cm^3
# Si number density = 19.974290 Si / 1000 Ang^3
#
#
#
# Elastic Constant Matrix: (Units=GPa)
#
#
# Indices 1 2 3 4 5 6 
#
# 1 78.7493 17.8864 28.3195 0.0000 21.0975 0.0000
# 2 17.8864 79.1747 42.4976 0.0000 9.2295 0.0000
# 3 28.3195 42.4976 132.3027 0.0000 25.7566 0.0000
# 4 0.0000 0.0000 0.0000 20.5634 0.0000 0.4676
# 5 21.0975 9.2295 25.7566 0.0000 13.5485 0.0000
# 6 0.0000 0.0000 0.0000 0.4676 0.0000 11.7065
#
#
#
# Elastic Compliance Matrix: (Units=1/GPa)
#
#
# Indices 1 2 3 4 5 6 
#
# 1 0.023004 -0.002477 0.003996 0.000000 -0.041730 0.000000
# 2 -0.002477 0.015553 -0.005007 0.000000 0.002781 0.000000
# 3 0.003996 -0.005007 0.014064 0.000000 -0.029547 0.000000
# 4 0.000000 0.000000 0.000000 0.048674 0.000000 -0.001944
# 5 -0.041730 0.002781 -0.029547 0.000000 0.193066 0.000000
# 6 0.000000 0.000000 0.000000 -0.001944 0.000000 0.085500
#
#
# Mechanical properties :
#
#
# Convention : Reuss Voigt Hill
#
# Bulk Modulus (GPa) = 21.90875 51.95930 36.93402
# Shear Modulus (GPa) = 12.43617 22.59857 17.51737
#
# Velocity S-wave (km/s) = 2.49792 3.36725 2.96462
# Velocity P-wave (km/s) = 4.39451 6.41774 5.49996
#
# Compressibility (1/GPa) = 0.04564387
#
# Stress axis : x y z
#
# Youngs Moduli (GPa) = 43.47074 64.29498 71.10517
#
# Poissons Ratio (x) = 0.15926 -0.28411
# Poissons Ratio (y) = 0.10768 0.35603
# Poissons Ratio (z) = -0.17369 0.32193
#
# Static dielectric constant tensor:
#      x y z
#    x 3.557870 0.000000 -0.103990 
#    y 0.000000 3.579510 0.000000 
#    z -0.103990 0.000000 3.684260 
# 
# 
# High freq. dielectric constant tensor:
#      x y z
#    x 1.761420 0.000000 0.000310 
#    y 0.000000 1.778230 0.000000 
#    z 0.000310 0.000000 1.774730 
# 
# From -- ./inp_files/221761.got.cif
#   From: 2010.06.25/outbox.cif.g09.slc.cpg/sg12_111_cif.got.tgz:221761.got - 2010.06.28 00:19:55.
