data_PCOD8090329
_publ_section_title
;
Structure prediction by ZEFSAII (Michael W. Deem and Ramdas Pophale) SiO2 
 PCOD8090329
Probable space group: C 2/M
;
_chemical_formula_sum "Si O2"
_cell_formula_units_Z 48
_cell_length_a 10.774529
_cell_length_b 18.134354
_cell_length_c 17.982550
_cell_angle_alpha 90.000000
_cell_angle_beta 52.680007
_cell_angle_gamma 90.000000
_cell_volume 2794.228246
_symmetry_space_group_name_H-M "C 2/M"
_symmetry_group_IT_number 12
_symmetry_cell_setting 'monoclinic'
loop_
_space_group_symop_operation_xyz
x,y,z
-x,y,-z
-x,-y,-z
x,-y,z
1/2+x,1/2+y,z
1/2-x,1/2+y,-z
1/2-x,1/2-y,-z
1/2+x,1/2-y,z
loop_
_atom_site_type_symbol
_atom_site_label
_atom_site_fract_x
_atom_site_fract_y
_atom_site_fract_z
Si Si1 0.467921 0.918560 0.293383
Si Si2 0.904571 0.340964 0.465905
Si Si3 0.079237 0.275710 0.185803
Si Si4 0.893254 0.694686 0.107590
Si Si5 0.210738 0.082650 0.268312
Si Si6 0.058749 0.804803 0.629365
O O1 0.426122 0.899018 0.392621
O O2 0.583887 0.860422 0.212235
O O3 0.304169 0.918790 0.310685
O O4 0.545668 0.000000 0.261898
O O5 0.970920 0.260696 0.418656
O O6 0.728633 0.337250 0.557572
O O7 0.000000 0.372271 0.500000
O O8 0.258474 0.249688 0.126718
O O9 0.003922 0.268675 0.130848
O O10 0.964530 0.227458 0.279321
O O11 0.812526 0.620608 0.166700
O O12 0.000000 0.671790 0.000000
O O13 0.057487 0.128454 0.343076
O O14 0.167604 0.000000 0.257371
#
# Coordination Sequence:
#
# PCOD8090329 Si02
#       6
#     8   8   8   8   8   8
#     4   9  19  34  50  72 100 136 171 203 247 299
#     4  10  21  30  50  73 101 133 171 214 241 285
#     4   9  19  33  55  75 103 135 165 207 256 305
#     4  10  19  33  56  82 102 126 167 213 256 306
#     4   9  19  35  53  73 101 133 166 205 257 301
#     4   9  20  32  50  73 101 131 171 206 251 291
#
# _framework density 17.178267000000002
#
# number of rings (size 3 to 8) (size 9 to 14) (size 15 to 20)
#    0.000    2.667    0.000    0.500   14.000    1.333 
#    0.000    1.667    0.000    0.500    0.000    0.000 
#    0.000    0.000    0.000    0.000    0.000    0.000 
#
# Total GULP energy -297535.257421 kJ/mol
# GULP energy per Si atom -12397.302393 kJ/mol
# Density = 1.713917 g / cm^3
# Si number density = 17.178267 Si / 1000 Ang^3
#
#
#
# Elastic Constant Matrix: (Units=GPa)
#
#
# Indices 1 2 3 4 5 6 
#
# 1 95.7683 52.2206 51.5512 0.0000 5.0124 -0.0001
# 2 52.2206 123.5846 39.8054 -0.0001 -9.3575 0.0000
# 3 51.5512 39.8054 103.1261 -0.0002 0.3730 0.0000
# 4 0.0000 -0.0001 -0.0002 10.6853 0.0001 -3.1763
# 5 5.0124 -9.3575 0.3730 0.0001 25.2138 0.0000
# 6 -0.0001 0.0000 0.0000 -3.1763 0.0000 22.6330
#
#
#
# Elastic Compliance Matrix: (Units=1/GPa)
#
#
# Indices 1 2 3 4 5 6 
#
# 1 0.017261 -0.005632 -0.006435 0.000000 -0.005426 0.000000
# 2 -0.005632 0.011394 -0.001602 0.000000 0.005372 0.000000
# 3 -0.006435 -0.001602 0.013530 0.000000 0.000484 0.000000
# 4 0.000000 0.000000 0.000000 0.097661 0.000000 0.013706
# 5 -0.005426 0.005372 0.000484 0.000000 0.042726 0.000000
# 6 0.000000 0.000000 0.000000 0.013706 0.000000 0.046107
#
#
# Mechanical properties :
#
#
# Convention : Reuss Voigt Hill
#
# Bulk Modulus (GPa) = 67.35227 67.73703 67.54465
# Shear Modulus (GPa) = 19.15963 23.63319 21.39641
#
# Velocity S-wave (km/s) = 3.34330 3.71315 3.53307
# Velocity P-wave (km/s) = 7.36182 7.60925 7.48656
#
# Compressibility (1/GPa) = 0.01484731
#
# Stress axis : x y z
#
# Youngs Moduli (GPa) = 57.93545 87.76474 73.90831
#
# Poissons Ratio (x) = 0.49426 0.47559
# Poissons Ratio (y) = 0.32627 0.11842
# Poissons Ratio (z) = 0.37281 0.14062
#
# Static dielectric constant tensor:
#      x y z
#    x 3.188070 0.000000 0.082320 
#    y 0.000000 3.334300 0.000000 
#    z 0.082320 0.000000 3.138810 
# 
# 
# High freq. dielectric constant tensor:
#      x y z
#    x 1.660560 0.000000 0.006860 
#    y 0.000000 1.656450 0.000000 
#    z 0.006860 0.000000 1.660220 
# 
# From -- ./inp_files/205326.got.cif
#   From: 2010.06.25/outbox.cif.g09.slc.cpg/sg12_103_cif.got.tgz:205326.got - 2010.06.28 00:19:55.
