data_PCOD8090950
_publ_section_title
;
Structure prediction by ZEFSAII (Michael W. Deem and Ramdas Pophale) SiO2 
 PCOD8090950
Probable space group: C 2/M
;
_chemical_formula_sum "Si O2"
_cell_formula_units_Z 56
_cell_length_a 18.727129
_cell_length_b 9.338604
_cell_length_c 20.644757
_cell_angle_alpha 90.000000
_cell_angle_beta 122.970772
_cell_angle_gamma 90.000000
_cell_volume 3028.992038
_symmetry_space_group_name_H-M "C 2/M"
_symmetry_group_IT_number 12
_symmetry_cell_setting 'monoclinic'
loop_
_space_group_symop_operation_xyz
x,y,z
-x,y,-z
-x,-y,-z
x,-y,z
1/2+x,1/2+y,z
1/2-x,1/2+y,-z
1/2-x,1/2-y,-z
1/2+x,1/2-y,z
loop_
_atom_site_type_symbol
_atom_site_label
_atom_site_fract_x
_atom_site_fract_y
_atom_site_fract_z
Si Si1 0.030258 0.842873 0.329960
Si Si2 0.025369 0.667025 0.583055
Si Si3 0.342879 0.657156 0.192840
Si Si4 0.288123 0.836382 0.276822
Si Si5 0.895683 0.166568 0.767834
Si Si6 0.829942 0.336664 0.063541
Si Si7 0.000325 0.336534 0.073392
O O1 0.072636 0.773799 0.286264
O O2 0.038365 0.740410 0.396266
O O3 0.930576 0.864401 0.272293
O O4 0.071361 0.000000 0.363995
O O5 0.006629 0.500000 0.580008
O O6 0.125543 0.700960 0.641974
O O7 0.000000 0.725697 0.500000
O O8 0.306188 0.500000 0.154190
O O9 0.277055 0.734950 0.208632
O O10 0.364013 0.759416 0.143874
O O11 0.206033 0.810395 0.281264
O O12 0.291136 0.000000 0.253761
O O13 0.939637 0.245847 0.849646
O O14 0.921322 0.000000 0.786175
O O15 0.804592 0.500000 0.066528
O O16 0.902644 0.328357 0.046064
O O17 0.750000 0.250000 0.000000
O O18 0.033676 0.500000 0.091320
O O19 0.000000 0.275044 0.000000
#
# Coordination Sequence:
#
# PCOD8090950 Si02
#       7
#     8   8   8   8   8   8   8
#     4   9  18  33  54  78 104 137 175 216 265 318
#     4   9  18  34  56  81 110 143 179 218 261 315
#     4  10  19  34  54  75 102 136 178 223 265 315
#     4   9  19  34  54  80 108 140 180 219 265 318
#     4  10  20  36  56  79 107 141 180 224 270 322
#     4  11  23  37  54  76 105 138 177 223 271 320
#     4  10  23  40  55  76 107 143 180 224 276 320
#
# _framework density 18.487997
#
# number of rings (size 3 to 8) (size 9 to 14) (size 15 to 20)
#    0.000    2.286    1.429    0.857    2.000    2.857 
#    0.000    0.714    0.000    0.000    0.000    0.000 
#    0.000    0.000    0.000    0.000    0.000    0.000 
#
# Total GULP energy -347096.787918 kJ/mol
# GULP energy per Si atom -12396.313854 kJ/mol
# Density = 1.844592 g / cm^3
# Si number density = 18.487997 Si / 1000 Ang^3
#
#
#
# Elastic Constant Matrix: (Units=GPa)
#
#
# Indices 1 2 3 4 5 6 
#
# 1 112.0969 46.7981 51.8415 0.0000 -23.6050 0.0000
# 2 46.7981 98.4174 52.7549 0.0000 -16.0268 0.0000
# 3 51.8415 52.7549 98.5708 0.0000 -29.8625 0.0000
# 4 0.0000 0.0000 0.0000 27.2769 0.0000 -7.4773
# 5 -23.6050 -16.0268 -29.8625 0.0000 34.1322 0.0000
# 6 0.0000 0.0000 0.0000 -7.4773 0.0000 25.8159
#
#
#
# Elastic Compliance Matrix: (Units=1/GPa)
#
#
# Indices 1 2 3 4 5 6 
#
# 1 0.012957 -0.003515 -0.003699 0.000000 0.004074 0.000000
# 2 -0.003515 0.015202 -0.006615 0.000000 -0.001080 0.000000
# 3 -0.003699 -0.006615 0.018933 0.000000 0.010900 0.000000
# 4 0.000000 0.000000 0.000000 0.039823 0.000000 0.011534
# 5 0.004074 -0.001080 0.010900 0.000000 0.041145 0.000000
# 6 0.000000 0.000000 0.000000 0.011534 0.000000 0.042077
#
#
# Mechanical properties :
#
#
# Convention : Reuss Voigt Hill
#
# Bulk Modulus (GPa) = 51.45463 67.98602 59.72032
# Shear Modulus (GPa) = 24.47725 27.95772 26.21749
#
# Velocity S-wave (km/s) = 3.64256 3.89293 3.76983
# Velocity P-wave (km/s) = 6.75151 7.55377 7.16388
#
# Compressibility (1/GPa) = 0.01943460
#
# Stress axis : x y z
#
# Youngs Moduli (GPa) = 77.17967 65.78117 52.81805
#
# Poissons Ratio (x) = 0.23121 0.19538
# Poissons Ratio (y) = 0.27127 0.34937
# Poissons Ratio (z) = 0.28549 0.43512
#
# Static dielectric constant tensor:
#      x y z
#    x 4.308310 0.000000 -1.458650 
#    y 0.000000 4.996830 0.000000 
#    z -1.458650 0.000000 5.180930 
# 
# 
# High freq. dielectric constant tensor:
#      x y z
#    x 1.719020 0.000000 -0.012570 
#    y 0.000000 1.719810 0.000000 
#    z -0.012570 0.000000 1.697660 
# 
# From -- ./inp_files/313783.got.cif
#   From: 2010.06.25/outbox.cif.g09.slc.cpg/sg12_157_cif.got.tgz:313783.got - 2010.06.28 00:19:55.
