data_PCOD8090423
_publ_section_title
;
Structure prediction by ZEFSAII (Michael W. Deem and Ramdas Pophale) SiO2 
 PCOD8090423
Probable space group: C 2/M
;
_chemical_formula_sum "Si O2"
_cell_formula_units_Z 56
_cell_length_a 17.033117
_cell_length_b 19.317401
_cell_length_c 12.088383
_cell_angle_alpha 90.000000
_cell_angle_beta 130.502868
_cell_angle_gamma 90.000000
_cell_volume 3024.391325
_symmetry_space_group_name_H-M "C 2/M"
_symmetry_group_IT_number 12
_symmetry_cell_setting 'monoclinic'
loop_
_space_group_symop_operation_xyz
x,y,z
-x,y,-z
-x,-y,-z
x,-y,z
1/2+x,1/2+y,z
1/2-x,1/2+y,-z
1/2-x,1/2-y,-z
1/2+x,1/2-y,z
loop_
_atom_site_type_symbol
_atom_site_label
_atom_site_fract_x
_atom_site_fract_y
_atom_site_fract_z
Si Si1 0.134318 0.577251 0.333664
Si Si2 0.133217 0.730255 0.916332
Si Si3 0.132207 0.077790 0.397036
Si Si4 0.104017 0.198993 0.528458
Si Si5 0.484205 0.169184 0.614857
Si Si6 0.331890 0.192694 0.808633
Si Si7 0.538523 0.319701 0.152169
O O1 0.101654 0.500000 0.268216
O O2 0.245444 0.577292 0.491987
O O3 0.058440 0.603068 0.359807
O O4 0.132578 0.623371 0.221289
O O5 0.093221 0.686244 0.775012
O O6 0.059111 0.797312 0.861186
O O7 0.250000 0.750000 0.000000
O O8 0.127347 0.688458 0.027903
O O9 0.091607 0.125327 0.459396
O O10 0.094283 0.112701 0.250079
O O11 0.087282 0.000000 0.368453
O O12 0.098624 0.266791 0.443268
O O13 0.207564 0.200991 0.696149
O O14 0.000000 0.211905 0.500000
O O15 0.500000 0.150077 0.500000
O O16 0.381391 0.256518 0.787792
O O17 0.500000 0.346072 0.000000
#
# Coordination Sequence:
#
# PCOD8090423 Si02
#       7
#     8   8   8   8   8   8   8
#     4  10  21  38  60  84 115 151 195 240 282 342
#     4  11  21  35  57  86 117 144 187 243 291 335
#     4  10  20  34  54  81 112 149 187 229 281 341
#     4  10  19  33  56  84 112 144 186 238 285 338
#     4  11  21  35  58  85 113 149 192 237 295 341
#     4  10  20  36  60  85 112 146 196 241 288 336
#     4  10  20  35  57  81 110 149 189 237 285 331
#
# _framework density 18.516123
#
# number of rings (size 3 to 8) (size 9 to 14) (size 15 to 20)
#    0.000    1.714    2.857    2.571    0.000    4.286 
#    0.000    1.429    0.000    0.857    0.000    0.000 
#    0.000    0.000    0.000    0.000    0.000    0.000 
#
# Total GULP energy -347059.780677 kJ/mol
# GULP energy per Si atom -12394.992167 kJ/mol
# Density = 1.847398 g / cm^3
# Si number density = 18.516123 Si / 1000 Ang^3
#
#
#
# Elastic Constant Matrix: (Units=GPa)
#
#
# Indices 1 2 3 4 5 6 
#
# 1 72.7016 18.5250 21.0898 0.0000 -2.7525 0.0000
# 2 18.5250 116.3518 37.3430 0.0000 -2.8357 0.0000
# 3 21.0898 37.3430 111.4471 0.0000 -11.3898 0.0000
# 4 0.0000 0.0000 0.0000 21.5922 0.0000 2.6691
# 5 -2.7525 -2.8357 -11.3898 0.0000 24.7226 0.0000
# 6 0.0000 0.0000 0.0000 2.6691 0.0000 21.3753
#
#
#
# Elastic Compliance Matrix: (Units=1/GPa)
#
#
# Indices 1 2 3 4 5 6 
#
# 1 0.014831 -0.001641 -0.002211 0.000000 0.000444 0.000000
# 2 -0.001641 0.009816 -0.003024 0.000000 -0.000450 0.000000
# 3 -0.002211 -0.003024 0.010855 0.000000 0.004408 0.000000
# 4 0.000000 0.000000 0.000000 0.047039 0.000000 -0.005874
# 5 0.000444 -0.000450 0.004408 0.000000 0.042477 0.000000
# 6 0.000000 0.000000 0.000000 -0.005874 0.000000 0.047516
#
#
# Mechanical properties :
#
#
# Convention : Reuss Voigt Hill
#
# Bulk Modulus (GPa) = 45.97961 50.49067 48.23514
# Shear Modulus (GPa) = 25.83476 28.44089 27.13783
#
# Velocity S-wave (km/s) = 3.73937 3.92344 3.83251
# Velocity P-wave (km/s) = 6.59772 6.91753 6.75952
#
# Compressibility (1/GPa) = 0.02174877
#
# Stress axis : x y z
#
# Youngs Moduli (GPa) = 67.42513 101.87877 92.12131
#
# Poissons Ratio (x) = 0.16716 0.20372
# Poissons Ratio (y) = 0.11063 0.27862
# Poissons Ratio (z) = 0.14911 0.30813
#
# Static dielectric constant tensor:
#      x y z
#    x 3.321830 0.000000 0.041130 
#    y 0.000000 3.572440 0.000000 
#    z 0.041130 0.000000 3.609490 
# 
# 
# High freq. dielectric constant tensor:
#      x y z
#    x 1.713310 0.000000 0.001380 
#    y 0.000000 1.696230 0.000000 
#    z 0.001380 0.000000 1.734560 
# 
# From -- ./inp_files/158225.got.cif
#   From: 2010.06.25/outbox.cif.g09.slc.cpg/sg12_80_cif.got.tgz:158225.got - 2010.06.28 00:19:55.
