data_PCOD8090937
_publ_section_title
;
Structure prediction by ZEFSAII (Michael W. Deem and Ramdas Pophale) SiO2 
 PCOD8090937
Probable space group: C 2/M
;
_chemical_formula_sum "Si O2"
_cell_formula_units_Z 56
_cell_length_a 22.761946
_cell_length_b 8.882854
_cell_length_c 16.257127
_cell_angle_alpha 90.000000
_cell_angle_beta 97.979843
_cell_angle_gamma 90.000000
_cell_volume 3255.216904
_symmetry_space_group_name_H-M "C 2/M"
_symmetry_group_IT_number 12
_symmetry_cell_setting 'monoclinic'
loop_
_space_group_symop_operation_xyz
x,y,z
-x,y,-z
-x,-y,-z
x,-y,z
1/2+x,1/2+y,z
1/2-x,1/2+y,-z
1/2-x,1/2-y,-z
1/2+x,1/2-y,z
loop_
_atom_site_type_symbol
_atom_site_label
_atom_site_fract_x
_atom_site_fract_y
_atom_site_fract_z
Si Si1 0.463227 0.822221 0.885300
Si Si2 0.250984 0.172545 0.239750
Si Si3 0.297033 0.333569 0.400395
Si Si4 0.701469 0.824549 0.932757
Si Si5 0.580184 0.680037 0.958796
Si Si6 0.335237 0.166955 0.556834
Si Si7 0.367576 0.823777 0.735900
O O1 0.526777 0.741401 0.891459
O O2 0.428934 0.788940 0.793859
O O3 0.471125 0.000000 0.902420
O O4 0.425445 0.750537 0.951769
O O5 0.295986 0.239980 0.315954
O O6 0.279550 0.196525 0.157057
O O7 0.186437 0.247447 0.226588
O O8 0.241749 0.000000 0.260449
O O9 0.319448 0.500000 0.383343
O O10 0.342990 0.265576 0.476177
O O11 0.232493 0.335795 0.427571
O O12 0.640779 0.734622 0.930894
O O13 0.693640 0.000000 0.954324
O O14 0.750000 0.750000 0.000000
O O15 0.577982 0.500000 0.963836
O O16 0.372737 0.232860 0.641854
O O17 0.357211 0.000000 0.538511
O O18 0.352490 0.000000 0.732027
#
# Coordination Sequence:
#
# PCOD8090937 Si02
#       7
#     8   8   8   8   8   8   8
#     4  10  19  34  54  73  96 126 160 200 241 281
#     4  10  20  31  46  68  95 127 160 195 235 281
#     4   9  16  26  41  62  90 124 158 190 229 278
#     4  11  23  37  52  72  97 127 162 198 239 284
#     4  11  22  35  51  72  97 127 162 198 239 284
#     4   8  14  25  40  62  92 122 153 189 229 276
#     4   9  18  30  47  71  97 126 158 193 236 282
#
# _framework density 17.203154999999999
#
# number of rings (size 3 to 8) (size 9 to 14) (size 15 to 20)
#    0.000    2.286    0.000    5.571    0.000    9.143 
#    0.000    0.000    0.000    0.000    0.000    1.000 
#    0.000    8.000    0.000    0.000    0.000    0.000 
#
# Total GULP energy -347130.224682 kJ/mol
# GULP energy per Si atom -12397.508024 kJ/mol
# Density = 1.716400 g / cm^3
# Si number density = 17.203155 Si / 1000 Ang^3
#
#
#
# Elastic Constant Matrix: (Units=GPa)
#
#
# Indices 1 2 3 4 5 6 
#
# 1 68.3334 41.3026 46.9638 0.0000 12.6526 0.0000
# 2 41.3026 113.5274 60.0929 0.0000 8.7990 0.0000
# 3 46.9638 60.0929 128.5208 0.0000 28.8322 0.0000
# 4 0.0000 0.0000 0.0000 28.8305 0.0000 1.9053
# 5 12.6526 8.7990 28.8322 0.0000 21.9581 0.0000
# 6 0.0000 0.0000 0.0000 1.9053 0.0000 23.3994
#
#
#
# Elastic Compliance Matrix: (Units=1/GPa)
#
#
# Indices 1 2 3 4 5 6 
#
# 1 0.021678 -0.005156 -0.004496 0.000000 -0.004521 0.000000
# 2 -0.005156 0.013129 -0.005303 0.000000 0.004673 0.000000
# 3 -0.004496 -0.005303 0.015374 0.000000 -0.015471 0.000000
# 4 0.000000 0.000000 0.000000 0.034873 0.000000 -0.002839
# 5 -0.004521 0.004673 -0.015471 0.000000 0.066589 0.000000
# 6 0.000000 0.000000 0.000000 -0.002839 0.000000 0.042967
#
#
# Mechanical properties :
#
#
# Convention : Reuss Voigt Hill
#
# Bulk Modulus (GPa) = 49.33357 67.45559 58.39458
# Shear Modulus (GPa) = 21.61891 25.63907 23.62899
#
# Velocity S-wave (km/s) = 3.54882 3.86472 3.71013
# Velocity P-wave (km/s) = 6.74770 7.69487 7.23680
#
# Compressibility (1/GPa) = 0.02027017
#
# Stress axis : x y z
#
# Youngs Moduli (GPa) = 46.12956 76.16603 65.04361
#
# Poissons Ratio (x) = 0.39274 0.29246
# Poissons Ratio (y) = 0.23786 0.34493
# Poissons Ratio (z) = 0.20741 0.40391
#
# Static dielectric constant tensor:
#      x y z
#    x 2.922280 0.000000 0.266020 
#    y 0.000000 3.444760 0.000000 
#    z 0.266020 0.000000 3.538210 
# 
# 
# High freq. dielectric constant tensor:
#      x y z
#    x 1.616000 0.000000 0.018690 
#    y 0.000000 1.679080 0.000000 
#    z 0.018690 0.000000 1.675240 
# 
# From -- ./inp_files/280316.got.cif
#   From: 2010.06.25/outbox.cif.g09.slc.cpg/sg12_141_cif.got.tgz:280316.got - 2010.06.28 00:19:55.
