data_PCOD8090848
_publ_section_title
;
Structure prediction by ZEFSAII (Michael W. Deem and Ramdas Pophale) SiO2 
 PCOD8090848
Probable space group: C 2/M
;
_chemical_formula_sum "Si O2"
_cell_formula_units_Z 44
_cell_length_a 16.025090
_cell_length_b 21.679586
_cell_length_c 6.738017
_cell_angle_alpha 90.000000
_cell_angle_beta 117.554578
_cell_angle_gamma 90.000000
_cell_volume 2075.376439
_symmetry_space_group_name_H-M "C 2/M"
_symmetry_group_IT_number 12
_symmetry_cell_setting 'monoclinic'
loop_
_space_group_symop_operation_xyz
x,y,z
-x,y,-z
-x,-y,-z
x,-y,z
1/2+x,1/2+y,z
1/2-x,1/2+y,-z
1/2-x,1/2-y,-z
1/2+x,1/2-y,z
loop_
_atom_site_type_symbol
_atom_site_label
_atom_site_fract_x
_atom_site_fract_y
_atom_site_fract_z
Si Si1 0.500000 0.894400 0.000000
Si Si2 0.586157 0.068069 0.714812
Si Si3 0.236529 0.133755 0.954971
Si Si4 0.333975 0.669818 0.724566
Si Si5 0.340115 0.807120 0.719806
Si Si6 0.099855 0.928683 0.508534
O O1 0.443519 0.937401 0.087885
O O2 0.571349 0.851465 0.199569
O O3 0.500000 0.100504 0.500000
O O4 0.602784 0.000000 0.643497
O O5 0.684257 0.103606 0.816105
O O6 0.283573 0.186122 0.867583
O O7 0.183236 0.084520 0.757028
O O8 0.162441 0.160006 0.033453
O O9 0.378239 0.737385 0.733721
O O10 0.226330 0.672882 0.533701
O O11 0.391299 0.616172 0.673063
O O12 0.000000 0.915507 0.500000
O O13 0.107944 0.000000 0.448276
#
# Coordination Sequence:
#
# PCOD8090848 Si02
#       6
#     4   8   8   8   8   8
#     4  10  19  34  52  76 111 144 170 216 268 314
#     4  10  20  33  52  80 110 142 180 214 255 318
#     4  10  20  36  58  82 111 146 182 225 276 327
#     4  10  20  38  59  80 108 146 181 226 283 330
#     4   9  20  35  55  84 113 139 181 224 269 331
#     4  10  23  40  56  80 111 143 188 238 278 326
#
# _framework density 21.200973999999999
#
# number of rings (size 3 to 8) (size 9 to 14) (size 15 to 20)
#    0.000    2.182    0.000    2.455    0.000    3.636 
#    0.000   10.909    0.000    0.000    0.000    0.000 
#    0.000    0.000    0.000    0.000    0.000    0.000 
#
# Total GULP energy -272696.765468 kJ/mol
# GULP energy per Si atom -12395.307521 kJ/mol
# Density = 2.115272 g / cm^3
# Si number density = 21.200974 Si / 1000 Ang^3
#
#
#
# Elastic Constant Matrix: (Units=GPa)
#
#
# Indices 1 2 3 4 5 6 
#
# 1 63.8869 32.8016 9.0646 0.0000 -7.3794 0.0000
# 2 32.8016 117.4283 20.7047 0.0000 -10.2072 0.0000
# 3 9.0646 20.7047 64.1575 0.0000 -1.4309 0.0000
# 4 0.0000 0.0000 0.0000 19.6472 0.0000 -3.6455
# 5 -7.3794 -10.2072 -1.4309 0.0000 43.2063 0.0000
# 6 0.0000 0.0000 0.0000 -3.6455 0.0000 16.6315
#
#
#
# Elastic Compliance Matrix: (Units=1/GPa)
#
#
# Indices 1 2 3 4 5 6 
#
# 1 0.018499 -0.004815 -0.001015 0.000000 0.001988 0.000000
# 2 -0.004815 0.010466 -0.002662 0.000000 0.001562 0.000000
# 3 -0.001015 -0.002662 0.016584 0.000000 -0.000253 0.000000
# 4 0.000000 0.000000 0.000000 0.053056 0.000000 0.011629
# 5 0.001988 0.001562 -0.000253 0.000000 0.023845 0.000000
# 6 0.000000 0.000000 0.000000 0.011629 0.000000 0.062676
#
#
# Mechanical properties :
#
#
# Convention : Reuss Voigt Hill
#
# Bulk Modulus (GPa) = 35.01120 41.17939 38.09530
# Shear Modulus (GPa) = 23.62592 28.09045 25.85819
#
# Velocity S-wave (km/s) = 3.34185 3.64395 3.49617
# Velocity P-wave (km/s) = 5.60718 6.09672 5.85707
#
# Compressibility (1/GPa) = 0.02856229
#
# Stress axis : x y z
#
# Youngs Moduli (GPa) = 54.05759 95.54615 60.30043
#
# Poissons Ratio (x) = 0.46010 0.06122
# Poissons Ratio (y) = 0.26031 0.16054
# Poissons Ratio (z) = 0.05488 0.25438
#
# Static dielectric constant tensor:
#      x y z
#    x 3.586280 0.000000 0.062750 
#    y 0.000000 3.664560 0.000000 
#    z 0.062750 0.000000 3.818730 
# 
# 
# High freq. dielectric constant tensor:
#      x y z
#    x 1.818670 0.000000 0.000640 
#    y 0.000000 1.823780 0.000000 
#    z 0.000640 0.000000 1.835520 
# 
# From -- ./inp_files/17025.got.cif
#   From: 2010.06.25/outbox.cif.g09.slc.cpg/sg12_9_cif.got.tgz:17025.got - 2010.06.28 00:19:55.
