data_PCOD8090804
_publ_section_title
;
Structure prediction by ZEFSAII (Michael W. Deem and Ramdas Pophale) SiO2 
 PCOD8090804
Probable space group: C 2/M
;
_chemical_formula_sum "Si O2"
_cell_formula_units_Z 60
_cell_length_a 27.153206
_cell_length_b 9.286147
_cell_length_c 27.230244
_cell_angle_alpha 90.000000
_cell_angle_beta 28.847723
_cell_angle_gamma 90.000000
_cell_volume 3312.764629
_symmetry_space_group_name_H-M "C 2/M"
_symmetry_group_IT_number 12
_symmetry_cell_setting 'monoclinic'
loop_
_space_group_symop_operation_xyz
x,y,z
-x,y,-z
-x,-y,-z
x,-y,z
1/2+x,1/2+y,z
1/2-x,1/2+y,-z
1/2-x,1/2-y,-z
1/2+x,1/2-y,z
loop_
_atom_site_type_symbol
_atom_site_label
_atom_site_fract_x
_atom_site_fract_y
_atom_site_fract_z
Si Si1 0.279497 0.339263 0.679410
Si Si2 0.000000 0.744450 0.500000
Si Si3 0.529620 0.833776 0.029549
Si Si4 0.656767 0.833826 0.642763
Si Si5 0.114221 0.828388 0.771394
Si Si6 0.254864 0.664761 0.811532
Si Si7 0.448370 0.159547 0.651091
Si Si8 0.863180 0.333495 0.450445
O O1 0.242151 0.500000 0.698568
O O2 0.402445 0.339619 0.569913
O O3 0.227903 0.225769 0.687358
O O4 0.238642 0.294802 0.768738
O O5 0.969398 0.651627 0.574236
O O6 0.470192 0.727174 0.117099
O O7 0.502200 0.000000 0.065318
O O8 0.500000 0.796532 0.000000
O O9 0.650188 0.804499 0.931887
O O10 0.589553 0.740598 0.739742
O O11 0.770397 0.770880 0.543226
O O12 0.605513 0.819239 0.634044
O O13 0.661563 0.000000 0.655278
O O14 0.112347 0.000000 0.770569
O O15 0.288086 0.500000 0.786335
O O16 0.347694 0.752889 0.753649
O O17 0.544157 0.223926 0.597026
O O18 0.428340 0.000000 0.687925
O O19 0.834219 0.500000 0.488120
#
# Coordination Sequence:
#
# PCOD8090804 Si02
#       8
#     8   4   8   8   8   8   8   8
#     4  10  19  34  51  71 101 140 179 214 253 306
#     4  10  20  30  48  78 108 142 174 210 250 308
#     4  10  19  37  58  76 103 141 178 219 265 316
#     4  10  20  35  56  79 104 141 184 224 266 312
#     4  12  24  34  51  80 110 137 172 223 273 319
#     4   9  19  34  53  75 101 135 177 213 251 311
#     4  10  20  33  50  74 109 144 172 209 260 317
#     4   9  19  36  56  79 109 143 180 221 264 312
#
# _framework density 18.111761000000001
#
# number of rings (size 3 to 8) (size 9 to 14) (size 15 to 20)
#    0.000    2.000    1.333    2.800    0.000    6.133 
#    0.000    0.000    0.000    0.800    0.000    0.000 
#    0.000    0.000    0.000    0.000    0.000    0.000 
#
# Total GULP energy -371953.217666 kJ/mol
# GULP energy per Si atom -12398.440589 kJ/mol
# Density = 1.807054 g / cm^3
# Si number density = 18.111761 Si / 1000 Ang^3
#
#
#
# Elastic Constant Matrix: (Units=GPa)
#
#
# Indices 1 2 3 4 5 6 
#
# 1 88.5463 38.1649 35.5219 -0.0018 -2.3923 -0.0003
# 2 38.1649 102.0546 38.6864 -0.0209 5.9988 0.0130
# 3 35.5219 38.6864 89.8485 -0.0021 0.2691 0.0015
# 4 -0.0018 -0.0209 -0.0021 29.3664 0.0053 -1.4210
# 5 -2.3923 5.9988 0.2691 0.0053 25.1157 -0.0026
# 6 -0.0003 0.0130 0.0015 -1.4210 -0.0026 24.7556
#
#
#
# Elastic Compliance Matrix: (Units=1/GPa)
#
#
# Indices 1 2 3 4 5 6 
#
# 1 0.014770 -0.004123 -0.004071 -0.000003 0.002435 0.000003
# 2 -0.004123 0.013053 -0.003980 0.000009 -0.003468 -0.000007
# 3 -0.004071 -0.003980 0.014452 -0.000002 0.000408 0.000001
# 4 -0.000003 0.000009 -0.000002 0.034147 -0.000009 0.001960
# 5 0.002435 -0.003468 0.000408 -0.000009 0.040872 0.000006
# 6 0.000003 -0.000007 0.000001 0.001960 0.000006 0.040507
#
#
# Mechanical properties :
#
#
# Convention : Reuss Voigt Hill
#
# Bulk Modulus (GPa) = 55.78441 56.13287 55.95864
# Shear Modulus (GPa) = 26.57808 27.05262 26.81535
#
# Velocity S-wave (km/s) = 3.83489 3.86897 3.85196
# Velocity P-wave (km/s) = 7.10461 7.14271 7.12368
#
# Compressibility (1/GPa) = 0.01792616
#
# Stress axis : x y z
#
# Youngs Moduli (GPa) = 67.70602 76.61009 69.19548
#
# Poissons Ratio (x) = 0.31588 0.28171
# Poissons Ratio (y) = 0.27917 0.27539
# Poissons Ratio (z) = 0.27565 0.30489
#
# Static dielectric constant tensor:
#      x y z
#    x 3.367210 -0.000010 0.072640 
#    y -0.000010 3.265640 0.000020 
#    z 0.072640 0.000020 3.390490 
# 
# 
# High freq. dielectric constant tensor:
#      x y z
#    x 1.687570 0.000000 -0.000060 
#    y 0.000000 1.699950 0.000000 
#    z -0.000060 0.000000 1.692840 
# 
# From -- ./inp_files/368867.got.cif
#   From: 2010.06.25/outbox.cif.g09.slc.cpg/sg12_185_cif.got.tgz:368867.got - 2010.06.28 00:19:55.
