data_PCOD8090378
_publ_section_title
;
Structure prediction by ZEFSAII (Michael W. Deem and Ramdas Pophale) SiO2 
 PCOD8090378
Probable space group: C 2/M
;
_chemical_formula_sum "Si O2"
_cell_formula_units_Z 48
_cell_length_a 20.372139
_cell_length_b 9.262935
_cell_length_c 14.726300
_cell_angle_alpha 90.000000
_cell_angle_beta 108.621129
_cell_angle_gamma 90.000000
_cell_volume 2633.462806
_symmetry_space_group_name_H-M "C 2/M"
_symmetry_group_IT_number 12
_symmetry_cell_setting 'monoclinic'
loop_
_space_group_symop_operation_xyz
x,y,z
-x,y,-z
-x,-y,-z
x,-y,z
1/2+x,1/2+y,z
1/2-x,1/2+y,-z
1/2-x,1/2-y,-z
1/2+x,1/2-y,z
loop_
_atom_site_type_symbol
_atom_site_label
_atom_site_fract_x
_atom_site_fract_y
_atom_site_fract_z
Si Si1 0.212657 0.331420 0.563910
Si Si2 0.191324 0.831322 0.028913
Si Si3 0.558023 0.166681 0.256731
Si Si4 0.685676 0.665684 0.234607
Si Si5 0.058802 0.328961 0.460806
Si Si6 0.051093 0.666136 0.941563
O O1 0.217764 0.500000 0.544385
O O2 0.250000 0.250000 0.500000
O O3 0.248732 0.290755 0.674727
O O4 0.132920 0.281854 0.533815
O O5 0.207493 0.803661 0.141450
O O6 0.192536 0.000000 0.005134
O O7 0.250000 0.750000 0.000000
O O8 0.116849 0.769068 0.969657
O O9 0.618911 0.242855 0.229491
O O10 0.549875 0.231667 0.354423
O O11 0.486446 0.187972 0.171527
O O12 0.579247 0.000000 0.271381
O O13 0.665204 0.500000 0.240706
O O14 0.050421 0.500000 0.455100
O O15 0.000000 0.260772 0.500000
O O16 0.074409 0.500000 0.965371
O O17 0.000000 0.713066 0.000000
#
# Coordination Sequence:
#
# PCOD8090378 Si02
#       6
#     8   8   8   8   8   8
#     4  10  19  33  56  83 109 142 183 228 276 330
#     4  11  24  40  58  83 117 153 189 236 289 339
#     4  10  19  33  57  84 108 144 188 231 273 328
#     4  10  21  35  55  83 112 145 184 233 284 333
#     4   9  18  32  52  80 110 141 179 224 272 324
#     4  10  20  35  58  86 113 145 190 237 280 333
#
# _framework density 18.226952000000001
#
# number of rings (size 3 to 8) (size 9 to 14) (size 15 to 20)
#    0.000    2.000    3.333    0.500    0.000    3.000 
#    0.000    5.000    0.000    2.000    0.000    0.000 
#    0.000    0.000    0.000    0.000    0.000    0.000 
#
# Total GULP energy -297644.119447 kJ/mol
# GULP energy per Si atom -12401.838310 kJ/mol
# Density = 1.818547 g / cm^3
# Si number density = 18.226952 Si / 1000 Ang^3
#
#
#
# Elastic Constant Matrix: (Units=GPa)
#
#
# Indices 1 2 3 4 5 6 
#
# 1 151.5820 65.9017 65.5245 0.0000 -1.8449 0.0000
# 2 65.9017 66.8287 51.7546 0.0000 -2.0505 0.0000
# 3 65.5245 51.7546 128.8406 0.0000 5.4614 0.0000
# 4 0.0000 0.0000 0.0000 17.7087 0.0000 0.4854
# 5 -1.8449 -2.0505 5.4614 0.0000 30.5265 0.0000
# 6 0.0000 0.0000 0.0000 0.4854 0.0000 30.4665
#
#
#
# Elastic Compliance Matrix: (Units=1/GPa)
#
#
# Indices 1 2 3 4 5 6 
#
# 1 0.011877 -0.010175 -0.001969 0.000000 0.000387 0.000000
# 2 -0.010175 0.030722 -0.007283 0.000000 0.002752 0.000000
# 3 -0.001969 -0.007283 0.011804 0.000000 -0.002720 0.000000
# 4 0.000000 0.000000 0.000000 0.056494 0.000000 -0.000900
# 5 0.000387 0.002752 -0.002720 0.000000 0.033453 0.000000
# 6 0.000000 0.000000 0.000000 -0.000900 0.000000 0.032837
#
#
# Mechanical properties :
#
#
# Convention : Reuss Voigt Hill
#
# Bulk Modulus (GPa) = 64.31563 79.29034 71.80299
# Shear Modulus (GPa) = 22.60147 26.67835 24.63991
#
# Velocity S-wave (km/s) = 3.52519 3.82995 3.68073
# Velocity P-wave (km/s) = 7.20638 7.94696 7.58571
#
# Compressibility (1/GPa) = 0.01554832
#
# Stress axis : x y z
#
# Youngs Moduli (GPa) = 84.19795 32.54992 84.71833
#
# Poissons Ratio (x) = 0.33120 0.16683
# Poissons Ratio (y) = 0.85672 0.61699
# Poissons Ratio (z) = 0.16581 0.23705
#
# Static dielectric constant tensor:
#      x y z
#    x 3.232340 0.000000 0.249740 
#    y 0.000000 3.149110 0.000000 
#    z 0.249740 0.000000 3.721790 
# 
# 
# High freq. dielectric constant tensor:
#      x y z
#    x 1.704400 0.000000 0.005260 
#    y 0.000000 1.685980 0.000000 
#    z 0.005260 0.000000 1.724180 
# 
# From -- ./inp_files/229819.got.cif
#   From: 2010.06.25/outbox.cif.g09.slc.cpg/sg12_115_cif.got.tgz:229819.got - 2010.06.28 00:19:55.
