data_PCOD8090310
_publ_section_title
;
Structure prediction by ZEFSAII (Michael W. Deem and Ramdas Pophale) SiO2 
 PCOD8090310
Probable space group: C 2/M
;
_chemical_formula_sum "Si O2"
_cell_formula_units_Z 56
_cell_length_a 26.875113
_cell_length_b 8.684519
_cell_length_c 14.384963
_cell_angle_alpha 90.000000
_cell_angle_beta 122.333565
_cell_angle_gamma 90.000000
_cell_volume 2836.841923
_symmetry_space_group_name_H-M "C 2/M"
_symmetry_group_IT_number 12
_symmetry_cell_setting 'monoclinic'
loop_
_space_group_symop_operation_xyz
x,y,z
-x,y,-z
-x,-y,-z
x,-y,z
1/2+x,1/2+y,z
1/2-x,1/2+y,-z
1/2-x,1/2-y,-z
1/2+x,1/2-y,z
loop_
_atom_site_type_symbol
_atom_site_label
_atom_site_fract_x
_atom_site_fract_y
_atom_site_fract_z
Si Si1 0.652007 0.180865 0.259534
Si Si2 0.498850 0.683130 0.603941
Si Si3 0.882739 0.818899 0.595531
Si Si4 0.278540 0.180367 0.380731
Si Si5 0.651678 0.820608 0.049813
Si Si6 0.890590 0.181002 0.171680
Si Si7 0.214897 0.181441 0.805235
O O1 0.610096 0.274594 0.288518
O O2 0.719721 0.225278 0.343737
O O3 0.632964 0.226346 0.135585
O O4 0.644711 0.000000 0.268790
O O5 0.500000 0.748982 0.500000
O O6 0.502309 0.500000 0.604684
O O7 0.439768 0.737860 0.596275
O O8 0.554357 0.751325 0.716489
O O9 0.826508 0.724565 0.504931
O O10 0.872608 0.000000 0.572888
O O11 0.304110 0.227761 0.306019
O O12 0.264674 0.000000 0.371332
O O13 0.719333 0.770711 0.099169
O O14 0.644279 0.000000 0.026538
O O15 0.609073 0.737096 0.934306
O O16 0.829756 0.233486 0.159007
O O17 0.896601 0.000000 0.177253
O O18 0.210780 0.000000 0.779259
#
# Coordination Sequence:
#
# PCOD8090310 Si02
#       7
#     8   8   8   8   8   8   8
#     4  10  21  38  56  77 108 142 178 218 264 319
#     4   9  19  36  57  80 106 138 177 218 261 311
#     4  11  21  35  56  79 106 141 180 222 267 314
#     4  11  21  33  53  82 112 141 176 218 267 320
#     4   9  19  34  52  77 109 141 172 217 272 321
#     4  10  19  33  56  81 105 140 183 224 264 311
#     4   9  18  33  53  79 111 145 179 215 263 319
#
# _framework density 19.740262000000001
#
# number of rings (size 3 to 8) (size 9 to 14) (size 15 to 20)
#    0.000    2.143    0.000    4.714    0.000    5.714 
#    0.000    2.143    0.000    7.286    0.000    0.000 
#    0.000    0.000    0.000    0.000    0.000    0.000 
#
# Total GULP energy -347240.376522 kJ/mol
# GULP energy per Si atom -12401.442019 kJ/mol
# Density = 1.969533 g / cm^3
# Si number density = 19.740262 Si / 1000 Ang^3
#
#
#
# Elastic Constant Matrix: (Units=GPa)
#
#
# Indices 1 2 3 4 5 6 
#
# 1 105.6950 17.5775 60.7339 0.0000 -22.9964 0.0000
# 2 17.5775 30.9675 18.5571 0.0000 -4.6894 0.0000
# 3 60.7339 18.5571 142.6192 0.0000 -13.4372 0.0000
# 4 0.0000 0.0000 0.0000 33.8800 0.0000 -7.0812
# 5 -22.9964 -4.6894 -13.4372 0.0000 26.5938 0.0000
# 6 0.0000 0.0000 0.0000 -7.0812 0.0000 18.3381
#
#
#
# Elastic Compliance Matrix: (Units=1/GPa)
#
#
# Indices 1 2 3 4 5 6 
#
# 1 0.015159 -0.004121 -0.004990 0.000000 0.009861 0.000000
# 2 -0.004121 0.036567 -0.002868 0.000000 0.001435 0.000000
# 3 -0.004990 -0.002868 0.009508 0.000000 -0.000017 0.000000
# 4 0.000000 0.000000 0.000000 0.032107 0.000000 0.012398
# 5 0.009861 0.001435 -0.000017 0.000000 0.046374 0.000000
# 6 0.000000 0.000000 0.000000 0.012398 0.000000 0.059319
#
#
# Mechanical properties :
#
#
# Convention : Reuss Voigt Hill
#
# Bulk Modulus (GPa) = 26.82662 52.55765 39.69214
# Shear Modulus (GPa) = 21.23872 27.92325 24.58099
#
# Velocity S-wave (km/s) = 3.28366 3.76511 3.53260
# Velocity P-wave (km/s) = 5.29111 6.75158 6.06546
#
# Compressibility (1/GPa) = 0.03727640
#
# Stress axis : x y z
#
# Youngs Moduli (GPa) = 65.96528 27.34712 105.17036
#
# Poissons Ratio (x) = 0.11270 0.52484
# Poissons Ratio (y) = 0.27185 0.30160
# Poissons Ratio (z) = 0.32919 0.07843
#
# Static dielectric constant tensor:
#      x y z
#    x 3.643720 0.000000 -0.203780 
#    y 0.000000 3.314260 0.000000 
#    z -0.203780 0.000000 3.764510 
# 
# 
# High freq. dielectric constant tensor:
#      x y z
#    x 1.760560 0.000000 -0.018250 
#    y 0.000000 1.748820 0.000000 
#    z -0.018250 0.000000 1.773550 
# 
# From -- ./inp_files/243673.got.cif
#   From: 2010.06.25/outbox.cif.g09.slc.cpg/sg12_122_cif.got.tgz:243673.got - 2010.06.28 00:19:55.
