data_PCOD8090137
_publ_section_title
;
Structure prediction by ZEFSAII (Michael W. Deem and Ramdas Pophale) SiO2 
 PCOD8090137
Probable space group: C 2/M
;
_chemical_formula_sum "Si O2"
_cell_formula_units_Z 40
_cell_length_a 18.098265
_cell_length_b 8.870089
_cell_length_c 26.054677
_cell_angle_alpha 90.000000
_cell_angle_beta 30.175005
_cell_angle_gamma 90.000000
_cell_volume 2102.374763
_symmetry_space_group_name_H-M "C 2/M"
_symmetry_group_IT_number 12
_symmetry_cell_setting 'monoclinic'
loop_
_space_group_symop_operation_xyz
x,y,z
-x,y,-z
-x,-y,-z
x,-y,z
1/2+x,1/2+y,z
1/2-x,1/2+y,-z
1/2-x,1/2-y,-z
1/2+x,1/2-y,z
loop_
_atom_site_type_symbol
_atom_site_label
_atom_site_fract_x
_atom_site_fract_y
_atom_site_fract_z
Si Si1 0.556227 0.177506 0.222967
Si Si2 0.098571 0.823436 0.781139
Si Si3 0.070120 0.672921 0.402493
Si Si4 0.908893 0.177437 0.407656
Si Si5 0.675691 0.326808 0.997570
O O1 0.459247 0.229963 0.232757
O O2 0.511043 0.265491 0.300575
O O3 0.530865 0.000000 0.246554
O O4 0.731477 0.218086 0.109192
O O5 0.261891 0.770917 0.696702
O O6 0.999254 0.791847 0.892579
O O7 0.095987 0.000000 0.767661
O O8 0.060156 0.500000 0.389433
O O9 0.000000 0.691380 0.500000
O O10 0.982419 0.780037 0.417130
O O11 0.750000 0.250000 0.500000
O O12 0.890719 0.000000 0.414556
O O13 0.704730 0.500000 0.989126
O O14 0.750000 0.250000 0.000000
#
# Coordination Sequence:
#
# PCOD8090137 Si02
#       5
#     8   8   8   8   8
#     4  10  19  33  55  82 112 144 182 224 265 313
#     4   9  17  32  55  82 113 147 183 222 266 315
#     4  10  21  37  57  81 109 141 177 219 269 323
#     4  12  25  40  58  79 106 139 177 221 270 324
#     4   8  15  28  49  78 109 144 182 219 260 309
#
# _framework density 19.026104
#
# number of rings (size 3 to 8) (size 9 to 14) (size 15 to 20)
#    0.000    2.200    0.000    3.600    0.000    3.600 
#    0.000    1.000    0.000    6.000    0.000    0.000 
#    0.000    0.000    0.000    0.000    0.000    0.000 
#
# Total GULP energy -247814.420460 kJ/mol
# GULP energy per Si atom -12390.721023 kJ/mol
# Density = 1.898280 g / cm^3
# Si number density = 19.026104 Si / 1000 Ang^3
#
#
#
# Elastic Constant Matrix: (Units=GPa)
#
#
# Indices 1 2 3 4 5 6 
#
# 1 77.7799 38.5965 53.2141 -0.0001 -2.4507 0.0000
# 2 38.5965 90.2562 51.3625 -0.0011 3.8587 0.0001
# 3 53.2141 51.3625 172.6348 -0.0024 -6.8027 0.0003
# 4 -0.0001 -0.0011 -0.0024 26.1935 0.0001 3.4629
# 5 -2.4507 3.8587 -6.8027 0.0001 29.8269 0.0000
# 6 0.0000 0.0001 0.0003 3.4629 0.0000 31.3428
#
#
#
# Elastic Compliance Matrix: (Units=1/GPa)
#
#
# Indices 1 2 3 4 5 6 
#
# 1 0.018414 -0.005697 -0.003928 -0.000001 0.001354 0.000000
# 2 -0.005697 0.015312 -0.002922 0.000000 -0.003115 0.000000
# 3 -0.003928 -0.002922 0.007946 0.000001 0.001868 0.000000
# 4 -0.000001 0.000000 0.000001 0.038743 0.000000 -0.004281
# 5 0.001354 -0.003115 0.001868 0.000000 0.034467 0.000000
# 6 0.000000 0.000000 0.000000 -0.004281 0.000000 0.032378
#
#
# Mechanical properties :
#
#
# Convention : Reuss Voigt Hill
#
# Bulk Modulus (GPa) = 60.32088 69.66855 64.99472
# Shear Modulus (GPa) = 28.10878 30.63916 29.37397
#
# Velocity S-wave (km/s) = 3.84784 4.01730 3.93348
# Velocity P-wave (km/s) = 7.17734 7.62988 7.40707
#
# Compressibility (1/GPa) = 0.01657801
#
# Stress axis : x y z
#
# Youngs Moduli (GPa) = 54.30773 65.30813 125.84505
#
# Poissons Ratio (x) = 0.37206 0.49426
# Poissons Ratio (y) = 0.30939 0.36776
# Poissons Ratio (z) = 0.21330 0.19085
#
# Static dielectric constant tensor:
#      x y z
#    x 3.146660 0.000000 -0.018200 
#    y 0.000000 3.560630 0.000000 
#    z -0.018200 0.000000 4.537080 
# 
# 
# High freq. dielectric constant tensor:
#      x y z
#    x 1.703030 0.000000 0.003180 
#    y 0.000000 1.739780 0.000000 
#    z 0.003180 0.000000 1.774950 
# 
# From -- ./inp_files/242841.got.cif
#   From: 2010.06.25/outbox.cif.g09.slc.cpg/sg12_122_cif.got.tgz:242841.got - 2010.06.28 00:19:55.
