data_PCOD8090941
_publ_section_title
;
Structure prediction by ZEFSAII (Michael W. Deem and Ramdas Pophale) SiO2 
 PCOD8090941
Probable space group: C 2/M
;
_chemical_formula_sum "Si O2"
_cell_formula_units_Z 48
_cell_length_a 31.644598
_cell_length_b 8.890162
_cell_length_c 20.307671
_cell_angle_alpha 90.000000
_cell_angle_beta 27.487452
_cell_angle_gamma 90.000000
_cell_volume 2636.891249
_symmetry_space_group_name_H-M "C 2/M"
_symmetry_group_IT_number 12
_symmetry_cell_setting 'monoclinic'
loop_
_space_group_symop_operation_xyz
x,y,z
-x,y,-z
-x,-y,-z
x,-y,z
1/2+x,1/2+y,z
1/2-x,1/2+y,-z
1/2-x,1/2-y,-z
1/2+x,1/2-y,z
loop_
_atom_site_type_symbol
_atom_site_label
_atom_site_fract_x
_atom_site_fract_y
_atom_site_fract_z
Si Si1 0.563916 0.824220 0.851489
Si Si2 0.427084 0.677816 0.400604
Si Si3 0.762278 0.822748 0.339034
Si Si4 0.068918 0.175588 0.457452
Si Si5 0.542364 0.173697 0.134072
Si Si6 0.772737 0.325979 0.186517
O O1 0.658489 0.732822 0.721473
O O2 0.513473 0.783100 0.853803
O O3 0.585997 0.000000 0.826754
O O4 0.500000 0.771732 0.000000
O O5 0.414185 0.500000 0.418365
O O6 0.333126 0.751378 0.504920
O O7 0.448127 0.738526 0.445357
O O8 0.510432 0.724749 0.238822
O O9 0.788223 0.773789 0.229425
O O10 0.753247 0.000000 0.355727
O O11 0.173832 0.208257 0.290928
O O12 0.000000 0.253446 0.500000
O O13 0.048141 0.000000 0.487470
O O14 0.527700 0.000000 0.172671
O O15 0.649453 0.210507 0.974488
O O16 0.779495 0.500000 0.200046
#
# Coordination Sequence:
#
# PCOD8090941 Si02
#       6
#     8   8   8   8   8   8
#     4  10  19  34  54  74 102 140 182 218 253 303
#     4  10  21  36  54  75 106 140 172 214 265 314
#     4  11  21  33  52  77 105 137 179 222 258 303
#     4   8  15  31  57  82 100 129 175 216 252 308
#     4  10  20  34  53  76 105 140 175 215 259 306
#     4   9  17  33  55  77 104 140 176 210 258 312
#
# _framework density 18.203253
#
# number of rings (size 3 to 8) (size 9 to 14) (size 15 to 20)
#    0.000    2.333    1.667    3.000    0.000    2.333 
#    0.000    0.833    0.000   12.500    0.000    0.000 
#    0.000    0.000    0.000    0.000    0.000    0.000 
#
# Total GULP energy -297605.597137 kJ/mol
# GULP energy per Si atom -12400.233214 kJ/mol
# Density = 1.816182 g / cm^3
# Si number density = 18.203253 Si / 1000 Ang^3
#
#
#
# Elastic Constant Matrix: (Units=GPa)
#
#
# Indices 1 2 3 4 5 6 
#
# 1 106.7982 31.0467 63.0003 -0.0047 -14.0604 0.0001
# 2 31.0467 65.1161 38.8648 -0.0060 -2.7943 0.0024
# 3 63.0003 38.8648 136.7726 -0.0074 -1.6276 -0.0001
# 4 -0.0047 -0.0060 -0.0074 29.2762 0.0029 5.6290
# 5 -14.0604 -2.7943 -1.6276 0.0029 25.1555 0.0003
# 6 0.0001 0.0024 -0.0001 5.6290 0.0003 10.2474
#
#
#
# Elastic Compliance Matrix: (Units=1/GPa)
#
#
# Indices 1 2 3 4 5 6 
#
# 1 0.014685 -0.003248 -0.005752 -0.000001 0.007475 0.000001
# 2 -0.003248 0.019286 -0.003984 0.000004 0.000069 -0.000007
# 3 -0.005752 -0.003984 0.011058 0.000001 -0.002942 0.000000
# 4 -0.000001 0.000004 0.000001 0.038191 -0.000004 -0.020979
# 5 0.007475 0.000069 -0.002942 -0.000004 0.043748 0.000001
# 6 0.000001 -0.000007 0.000000 -0.020979 0.000001 0.109109
#
#
# Mechanical properties :
#
#
# Convention : Reuss Voigt Hill
#
# Bulk Modulus (GPa) = 52.46009 63.83449 58.14729
# Shear Modulus (GPa) = 18.62899 24.65416 21.64157
#
# Velocity S-wave (km/s) = 3.20251 3.68419 3.45176
# Velocity P-wave (km/s) = 6.52353 7.29667 6.92090
#
# Compressibility (1/GPa) = 0.01906211
#
# Stress axis : x y z
#
# Youngs Moduli (GPa) = 68.09660 51.85064 90.43177
#
# Poissons Ratio (x) = 0.16839 0.52021
# Poissons Ratio (y) = 0.22114 0.36024
# Poissons Ratio (z) = 0.39172 0.20655
#
# Static dielectric constant tensor:
#      x y z
#    x 3.444470 -0.000010 -0.145930 
#    y -0.000010 3.117220 0.000010 
#    z -0.145930 0.000010 3.438680 
# 
# 
# High freq. dielectric constant tensor:
#      x y z
#    x 1.690650 0.000000 -0.010700 
#    y 0.000000 1.684210 0.000000 
#    z -0.010700 0.000000 1.709830 
# 
# From -- ./inp_files/230360.got.cif
#   From: 2010.06.25/outbox.cif.g09.slc.cpg/sg12_116_cif.got.tgz:230360.got - 2010.06.28 00:19:55.
