data_PCOD8090920
_publ_section_title
;
Structure prediction by ZEFSAII (Michael W. Deem and Ramdas Pophale) SiO2 
 PCOD8090920
Probable space group: C 2/M
;
_chemical_formula_sum "Si O2"
_cell_formula_units_Z 52
_cell_length_a 23.350017
_cell_length_b 13.517957
_cell_length_c 11.099181
_cell_angle_alpha 90.000000
_cell_angle_beta 58.724946
_cell_angle_gamma 90.000000
_cell_volume 2994.299572
_symmetry_space_group_name_H-M "C 2/M"
_symmetry_group_IT_number 12
_symmetry_cell_setting 'monoclinic'
loop_
_space_group_symop_operation_xyz
x,y,z
-x,y,-z
-x,-y,-z
x,-y,z
1/2+x,1/2+y,z
1/2-x,1/2+y,-z
1/2-x,1/2-y,-z
1/2+x,1/2-y,z
loop_
_atom_site_type_symbol
_atom_site_label
_atom_site_fract_x
_atom_site_fract_y
_atom_site_fract_z
Si Si1 0.381819 0.389979 0.110945
Si Si2 0.807743 0.264349 0.772826
Si Si3 0.000000 0.255182 0.000000
Si Si4 0.926635 0.613568 0.530706
Si Si5 0.707493 0.608843 0.023288
Si Si6 0.292405 0.243592 0.333572
Si Si7 0.415174 0.885448 0.260042
O O1 0.404660 0.500000 0.128351
O O2 0.442203 0.316598 0.016664
O O3 0.334097 0.345134 0.267783
O O4 0.344907 0.397982 0.025937
O O5 0.874586 0.312598 0.648460
O O6 0.826013 0.167088 0.828993
O O7 0.757093 0.228804 0.724278
O O8 0.775311 0.341497 0.901230
O O9 0.024022 0.324934 0.865306
O O10 0.907991 0.500000 0.582075
O O11 0.922121 0.631810 0.393969
O O12 0.000000 0.639738 0.500000
O O13 0.726325 0.500000 0.049562
O O14 0.250000 0.250000 0.500000
O O15 0.343588 0.151893 0.288183
O O16 0.421932 0.000000 0.217889
#
# Coordination Sequence:
#
# PCOD8090920 Si02
#       7
#     8   8   4   8   8   8   8
#     4   9  19  34  54  76 102 138 180 220 260 314
#     4  10  19  34  58  76 107 140 176 222 263 314
#     4  10  20  34  56  78 106 138 178 214 262 318
#     4  10  21  35  54  79 106 141 180 214 262 321
#     4   9  19  34  53  79 103 135 177 222 269 305
#     4  10  19  34  53  80 106 138 176 218 269 319
#     4  10  21  36  54  79 110 140 172 220 269 315
#
# _framework density 17.366332
#
# number of rings (size 3 to 8) (size 9 to 14) (size 15 to 20)
#    0.000    2.308    1.538    0.923    2.154    1.846 
#    0.000    0.000    0.000    0.462    0.000    0.000 
#    0.000    0.000    0.000    0.000    0.000    0.000 
#
# Total GULP energy -322354.281574 kJ/mol
# GULP energy per Si atom -12398.241599 kJ/mol
# Density = 1.732681 g / cm^3
# Si number density = 17.366332 Si / 1000 Ang^3
#
#
#
# Elastic Constant Matrix: (Units=GPa)
#
#
# Indices 1 2 3 4 5 6 
#
# 1 76.0190 52.6085 41.2044 0.0000 -8.8794 0.0000
# 2 52.6085 152.3181 78.5274 0.0000 -1.6675 0.0000
# 3 41.2044 78.5274 120.4684 0.0000 -7.5896 0.0000
# 4 0.0000 0.0000 0.0000 25.9454 0.0000 2.9173
# 5 -8.8794 -1.6675 -7.5896 0.0000 22.9844 0.0000
# 6 0.0000 0.0000 0.0000 2.9173 0.0000 25.0293
#
#
#
# Elastic Compliance Matrix: (Units=1/GPa)
#
#
# Indices 1 2 3 4 5 6 
#
# 1 0.018830 -0.004988 -0.002812 0.000000 0.005984 0.000000
# 2 -0.004988 0.011257 -0.005823 0.000000 -0.003033 0.000000
# 3 -0.002812 -0.005823 0.013238 0.000000 0.002863 0.000000
# 4 0.000000 0.000000 0.000000 0.039054 0.000000 -0.004552
# 5 0.005984 -0.003033 0.002863 0.000000 0.046545 0.000000
# 6 0.000000 0.000000 0.000000 -0.004552 0.000000 0.040484
#
#
# Mechanical properties :
#
#
# Convention : Reuss Voigt Hill
#
# Bulk Modulus (GPa) = 62.19096 77.05400 69.62248
# Shear Modulus (GPa) = 24.75084 26.55617 25.65350
#
# Velocity S-wave (km/s) = 3.77930 3.91471 3.84760
# Velocity P-wave (km/s) = 7.41169 8.05601 7.74056
#
# Compressibility (1/GPa) = 0.01607951
#
# Stress axis : x y z
#
# Youngs Moduli (GPa) = 53.10715 88.83531 75.53744
#
# Poissons Ratio (x) = 0.44315 0.21239
# Poissons Ratio (y) = 0.26492 0.43982
# Poissons Ratio (z) = 0.14932 0.51725
#
# Static dielectric constant tensor:
#      x y z
#    x 3.261140 0.000000 0.003040 
#    y 0.000000 3.527620 0.000000 
#    z 0.003040 0.000000 3.240350 
# 
# 
# High freq. dielectric constant tensor:
#      x y z
#    x 1.668950 0.000000 -0.000440 
#    y 0.000000 1.676810 0.000000 
#    z -0.000440 0.000000 1.671600 
# 
# From -- ./inp_files/175198.got.cif
#   From: 2010.06.25/outbox.cif.g09.slc.cpg/sg12_88_cif.got.tgz:175198.got - 2010.06.28 00:19:55.
