data_PCOD8090115
_publ_section_title
;
Structure prediction by ZEFSAII (Michael W. Deem and Ramdas Pophale) SiO2 
 PCOD8090115
Probable space group: C 2/M
;
_chemical_formula_sum "Si O2"
_cell_formula_units_Z 40
_cell_length_a 27.272223
_cell_length_b 8.916370
_cell_length_c 9.194449
_cell_angle_alpha 90.000000
_cell_angle_beta 70.821594
_cell_angle_gamma 90.000000
_cell_volume 2111.720355
_symmetry_space_group_name_H-M "C 2/M"
_symmetry_group_IT_number 12
_symmetry_cell_setting 'monoclinic'
loop_
_space_group_symop_operation_xyz
x,y,z
-x,y,-z
-x,-y,-z
x,-y,z
1/2+x,1/2+y,z
1/2-x,1/2+y,-z
1/2-x,1/2-y,-z
1/2+x,1/2-y,z
loop_
_atom_site_type_symbol
_atom_site_label
_atom_site_fract_x
_atom_site_fract_y
_atom_site_fract_z
Si Si1 0.894372 0.174800 0.960887
Si Si2 0.890302 0.677451 0.274403
Si Si3 0.298083 0.678075 0.534860
Si Si4 0.203980 0.174956 0.131459
Si Si5 0.504794 0.835240 0.167227
O O1 0.850926 0.217085 0.886115
O O2 0.949831 0.219239 0.834870
O O3 0.894876 0.000000 0.999645
O O4 0.882511 0.267820 0.117259
O O5 0.879837 0.500000 0.287305
O O6 0.851389 0.763322 0.416563
O O7 0.948064 0.716666 0.278926
O O8 0.295598 0.500000 0.521883
O O9 0.250000 0.750000 0.500000
O O10 0.295993 0.732045 0.703317
O O11 0.214168 0.000000 0.115154
O O12 0.250000 0.250000 0.000000
O O13 0.518819 0.000000 0.216534
O O14 0.500000 0.846477 0.000000
#
# Coordination Sequence:
#
# PCOD8090115 Si02
#       5
#     8   8   8   8   8
#     4  10  19  33  55  82 109 140 179 219 263 314
#     4  10  20  35  55  81 111 142 178 219 262 310
#     4  11  23  39  57  79 107 139 177 220 267 317
#     4  10  23  39  55  78 107 138 174 218 266 317
#     4   8  16  31  51  77 109 142 177 217 259 306
#
# _framework density 18.941901000000001
#
# number of rings (size 3 to 8) (size 9 to 14) (size 15 to 20)
#    0.000    2.200    0.000    4.200    0.000   10.800 
#    0.000    1.000    0.000    6.000    0.000    0.000 
#    0.000    0.000    0.000    0.000    0.000    0.000 
#
# Total GULP energy -247981.712851 kJ/mol
# GULP energy per Si atom -12399.085643 kJ/mol
# Density = 1.889879 g / cm^3
# Si number density = 18.941901 Si / 1000 Ang^3
#
#
#
# Elastic Constant Matrix: (Units=GPa)
#
#
# Indices 1 2 3 4 5 6 
#
# 1 156.7591 59.3118 78.2179 0.0000 -11.0890 0.0000
# 2 59.3118 75.6534 46.6227 0.0000 -1.5491 0.0000
# 3 78.2179 46.6227 119.7540 0.0000 -7.8557 0.0000
# 4 0.0000 0.0000 0.0000 26.5785 0.0000 -6.1379
# 5 -11.0890 -1.5491 -7.8557 0.0000 34.7678 0.0000
# 6 0.0000 0.0000 0.0000 -6.1379 0.0000 38.2313
#
#
#
# Elastic Compliance Matrix: (Units=1/GPa)
#
#
# Indices 1 2 3 4 5 6 
#
# 1 0.011127 -0.005642 -0.004928 0.000000 0.002184 0.000000
# 2 -0.005642 0.020272 -0.004330 0.000000 -0.001875 0.000000
# 3 -0.004928 -0.004330 0.013337 0.000000 0.001249 0.000000
# 4 0.000000 0.000000 0.000000 0.039073 0.000000 0.006273
# 5 0.002184 -0.001875 0.001249 0.000000 0.029658 0.000000
# 6 0.000000 0.000000 0.000000 0.006273 0.000000 0.027164
#
#
# Mechanical properties :
#
#
# Convention : Reuss Voigt Hill
#
# Bulk Modulus (GPa) = 66.95384 80.05235 73.50309
# Shear Modulus (GPa) = 28.50480 31.11644 29.81062
#
# Velocity S-wave (km/s) = 3.88345 4.05746 3.97141
# Velocity P-wave (km/s) = 7.45198 8.01900 7.74068
#
# Compressibility (1/GPa) = 0.01493566
#
# Stress axis : x y z
#
# Youngs Moduli (GPa) = 89.86791 49.33016 74.97994
#
# Poissons Ratio (x) = 0.27833 0.36951
# Poissons Ratio (y) = 0.50704 0.32466
# Poissons Ratio (z) = 0.44288 0.21360
#
# Static dielectric constant tensor:
#      x y z
#    x 3.829390 0.000000 -0.168990 
#    y 0.000000 3.565240 0.000000 
#    z -0.168990 0.000000 3.415320 
# 
# 
# High freq. dielectric constant tensor:
#      x y z
#    x 1.753190 0.000000 -0.013480 
#    y 0.000000 1.742160 0.000000 
#    z -0.013480 0.000000 1.715180 
# 
# From -- ./inp_files/100993.got.cif
#   From: 2010.06.25/outbox.cif.g09.slc.cpg/sg12_51_cif.got.tgz:100993.got - 2010.06.28 00:19:55.
