data_PCOD8090289
_publ_section_title
;
Structure prediction by ZEFSAII (Michael W. Deem and Ramdas Pophale) SiO2 
 PCOD8090289
Probable space group: C 2/M
;
_chemical_formula_sum "Si O2"
_cell_formula_units_Z 64
_cell_length_a 32.369676
_cell_length_b 14.248155
_cell_length_c 11.698899
_cell_angle_alpha 90.000000
_cell_angle_beta 38.410164
_cell_angle_gamma 90.000000
_cell_volume 3352.232231
_symmetry_space_group_name_H-M "C 2/M"
_symmetry_group_IT_number 12
_symmetry_cell_setting 'monoclinic'
loop_
_space_group_symop_operation_xyz
x,y,z
-x,y,-z
-x,-y,-z
x,-y,z
1/2+x,1/2+y,z
1/2-x,1/2+y,-z
1/2-x,1/2-y,-z
1/2+x,1/2-y,z
loop_
_atom_site_type_symbol
_atom_site_label
_atom_site_fract_x
_atom_site_fract_y
_atom_site_fract_z
Si Si1 0.241102 0.107221 0.598090
Si Si2 0.215410 0.199502 0.415935
Si Si3 0.032677 0.600877 0.307590
Si Si4 0.185580 0.398709 0.959371
Si Si5 0.854548 0.103343 0.994959
Si Si6 0.615396 0.609608 0.468816
Si Si7 0.779623 0.852047 0.940508
Si Si8 0.988944 0.199731 0.659066
O O1 0.223347 0.132916 0.507654
O O2 0.289785 0.189544 0.541386
O O3 0.173108 0.111337 0.817048
O O4 0.271282 0.000000 0.539579
O O5 0.279125 0.180739 0.194894
O O6 0.147448 0.169529 0.501736
O O7 0.023976 0.500000 0.259959
O O8 0.998564 0.692289 0.324874
O O9 0.000000 0.586291 0.500000
O O10 0.110314 0.628123 0.151935
O O11 0.188226 0.500000 0.890130
O O12 0.225211 0.414340 0.992676
O O13 0.884131 0.000000 0.908532
O O14 0.792179 0.118916 0.043941
O O15 0.913135 0.176643 0.851845
O O16 0.624781 0.500000 0.474614
O O17 0.649299 0.639211 0.276407
O O18 0.537649 0.633509 0.625799
O O19 0.750000 0.750000 0.000000
O O20 0.000000 0.189363 0.500000
#
# Coordination Sequence:
#
# PCOD8090289 Si02
#       8
#     8   8   8   8   8   8   8   8
#     4  10  21  37  58  83 112 142 179 232 284 326
#     4  10  20  38  60  81 109 144 186 230 273 326
#     4   9  19  34  50  74 108 144 183 223 270 326
#     4  10  19  33  56  80 105 143 186 225 271 332
#     4  11  21  34  51  80 114 143 178 224 279 327
#     4  11  22  36  55  81 109 144 190 227 264 326
#     4  11  20  30  49  76 111 140 175 221 274 327
#     4  11  21  34  55  75 109 154 188 221 266 328
#
# _framework density 19.091756
#
# number of rings (size 3 to 8) (size 9 to 14) (size 15 to 20)
#    0.000    1.625    1.250    6.375    1.750    0.500 
#    0.000    1.250    0.000    2.250    0.000    0.000 
#    0.000    8.000    0.000    0.000    0.000    0.000 
#
# Total GULP energy -396499.302815 kJ/mol
# GULP energy per Si atom -12390.603213 kJ/mol
# Density = 1.904830 g / cm^3
# Si number density = 19.091756 Si / 1000 Ang^3
#
#
#
# Elastic Constant Matrix: (Units=GPa)
#
#
# Indices 1 2 3 4 5 6 
#
# 1 81.9359 36.0257 38.1435 0.0000 0.2807 0.0000
# 2 36.0257 156.2176 22.2386 0.0000 -0.7262 0.0000
# 3 38.1435 22.2386 69.8708 0.0000 1.2169 0.0000
# 4 0.0000 0.0000 0.0000 34.3614 0.0000 -4.6339
# 5 0.2807 -0.7262 1.2169 0.0000 20.0621 0.0000
# 6 0.0000 0.0000 0.0000 -4.6339 0.0000 27.5945
#
#
#
# Elastic Compliance Matrix: (Units=1/GPa)
#
#
# Indices 1 2 3 4 5 6 
#
# 1 0.017456 -0.002794 -0.008643 0.000000 0.000179 0.000000
# 2 -0.002794 0.007155 -0.000758 0.000000 0.000344 0.000000
# 3 -0.008643 -0.000758 0.019291 0.000000 -0.001077 0.000000
# 4 0.000000 0.000000 0.000000 0.029777 0.000000 0.005000
# 5 0.000179 0.000344 -0.001077 0.000000 0.049920 0.000000
# 6 0.000000 0.000000 0.000000 0.005000 0.000000 0.037079
#
#
# Mechanical properties :
#
#
# Convention : Reuss Voigt Hill
#
# Bulk Modulus (GPa) = 51.25326 55.64888 53.45107
# Shear Modulus (GPa) = 26.09964 30.51137 28.30550
#
# Velocity S-wave (km/s) = 3.70139 4.00202 3.85464
# Velocity P-wave (km/s) = 6.72095 7.11099 6.91872
#
# Compressibility (1/GPa) = 0.01951095
#
# Stress axis : x y z
#
# Youngs Moduli (GPa) = 57.28539 139.75778 51.83844
#
# Poissons Ratio (x) = 0.39054 0.44806
# Poissons Ratio (y) = 0.16008 0.03929
# Poissons Ratio (z) = 0.49514 0.10592
#
# Static dielectric constant tensor:
#      x y z
#    x 3.456130 0.000000 0.086420 
#    y 0.000000 3.928590 0.000000 
#    z 0.086420 0.000000 3.385040 
# 
# 
# High freq. dielectric constant tensor:
#      x y z
#    x 1.707660 0.000000 -0.001990 
#    y 0.000000 1.774670 0.000000 
#    z -0.001990 0.000000 1.726220 
# 
# From -- ./inp_files/189433.got.cif
#   From: 2010.06.25/outbox.cif.g09.slc.cpg/sg12_95_cif.got.tgz:189433.got - 2010.06.28 00:19:55.
