data_PCOD8090768
_publ_section_title
;
Structure prediction by ZEFSAII (Michael W. Deem and Ramdas Pophale) SiO2 
 PCOD8090768
Probable space group: C 2/M
;
_chemical_formula_sum "Si O2"
_cell_formula_units_Z 56
_cell_length_a 19.908859
_cell_length_b 14.081440
_cell_length_c 9.092987
_cell_angle_alpha 90.000000
_cell_angle_beta 95.782333
_cell_angle_gamma 90.000000
_cell_volume 2536.206442
_symmetry_space_group_name_H-M "C 2/M"
_symmetry_group_IT_number 12
_symmetry_cell_setting 'monoclinic'
loop_
_space_group_symop_operation_xyz
x,y,z
-x,y,-z
-x,-y,-z
x,-y,z
1/2+x,1/2+y,z
1/2-x,1/2+y,-z
1/2-x,1/2-y,-z
1/2+x,1/2-y,z
loop_
_atom_site_type_symbol
_atom_site_label
_atom_site_fract_x
_atom_site_fract_y
_atom_site_fract_z
Si Si1 0.323855 0.892868 0.148336
Si Si2 0.178074 0.109736 0.472520
Si Si3 0.398228 0.896683 0.449780
Si Si4 0.058000 0.800027 0.611717
Si Si5 0.813296 0.203838 0.840176
Si Si6 0.070030 0.245153 0.934958
Si Si7 0.192996 0.605686 0.308631
O O1 0.332722 0.893238 0.327174
O O2 0.254029 0.837477 0.098217
O O3 0.389463 0.841687 0.093718
O O4 0.319189 0.000000 0.085119
O O5 0.128942 0.159490 0.577239
O O6 0.172670 0.159621 0.314926
O O7 0.250317 0.126361 0.558622
O O8 0.159325 0.000000 0.448606
O O9 0.448860 0.813045 0.418507
O O10 0.376099 0.884993 0.614558
O O11 0.433694 0.000000 0.436391
O O12 0.051117 0.816227 0.785203
O O13 0.000000 0.850251 0.500000
O O14 0.805574 0.318655 0.823305
O O15 0.879266 0.181789 0.953971
O O16 0.000000 0.270675 0.000000
O O17 0.200771 0.500000 0.241770
#
# Coordination Sequence:
#
# PCOD8090768 Si02
#       7
#     8   8   8   8   8   8   8
#     4  10  21  39  65  95 130 171 214 262 318 381
#     4  11  22  38  66  98 125 159 210 266 318 377
#     4   9  17  33  59  94 124 152 200 254 307 370
#     4  11  23  42  64  86 120 172 215 260 310 378
#     4  12  21  39  67  98 133 170 207 268 328 383
#     4  11  26  43  61  91 131 175 219 263 326 387
#     4  10  19  33  61  98 128 156 199 253 314 377
#
# _framework density 22.080221999999999
#
# number of rings (size 3 to 8) (size 9 to 14) (size 15 to 20)
#    0.000    1.429    2.857    3.857    0.000    1.429 
#    0.000    2.857    0.000    3.000    0.000    0.000 
#    0.000    0.000    0.000    0.000    0.000    0.000 
#
# Total GULP energy -347114.941067 kJ/mol
# GULP energy per Si atom -12396.962181 kJ/mol
# Density = 2.202997 g / cm^3
# Si number density = 22.080222 Si / 1000 Ang^3
#
#
#
# Elastic Constant Matrix: (Units=GPa)
#
#
# Indices 1 2 3 4 5 6 
#
# 1 118.6184 22.8048 59.3678 0.0000 -5.6513 0.0000
# 2 22.8048 71.9990 28.9057 0.0000 1.6997 0.0000
# 3 59.3678 28.9057 115.7098 0.0000 5.7303 0.0000
# 4 0.0000 0.0000 0.0000 13.2605 0.0000 -2.1112
# 5 -5.6513 1.6997 5.7303 0.0000 39.4595 0.0000
# 6 0.0000 0.0000 0.0000 -2.1112 0.0000 -0.6513
#
#
#
# Elastic Compliance Matrix: (Units=1/GPa)
#
#
# Indices 1 2 3 4 5 6 
#
# 1 0.011726 -0.001454 -0.005781 0.000000 0.002582 0.000000
# 2 -0.001454 0.015618 -0.003134 0.000000 -0.000426 0.000000
# 3 -0.005781 -0.003134 0.012516 0.000000 -0.002510 0.000000
# 4 0.000000 0.000000 0.000000 0.049741 0.000000 -0.161242
# 5 0.002582 -0.000426 -0.002510 0.000000 0.026095 0.000000
# 6 0.000000 0.000000 0.000000 -0.161242 0.000000 -1.012770
#
#
# Mechanical properties :
#
#
# Convention : Reuss Voigt Hill
#
# Bulk Modulus (GPa) = 52.29872 58.72042 55.50957
# Shear Modulus (GPa) = -5.74738 23.43032 8.84147
#
# Velocity S-wave (km/s) = -1.61512 3.26106 2.00323
# Velocity P-wave (km/s) = 4.50101 6.38993 5.52676
#
# Compressibility (1/GPa) = 0.01912093
#
# Stress axis : x y z
#
# Youngs Moduli (GPa) = 85.27802 64.02824 79.89920
#
# Poissons Ratio (x) = 0.09311 0.46190
# Poissons Ratio (y) = 0.12401 0.25044
# Poissons Ratio (z) = 0.49300 0.20069
#
# Static dielectric constant tensor:
#      x y z
#    x 3.770940 0.000000 0.122660 
#    y 0.000000 4.036130 0.000000 
#    z 0.122660 0.000000 4.088890 
# 
# 
# High freq. dielectric constant tensor:
#      x y z
#    x 1.857810 0.000000 0.003700 
#    y 0.000000 1.856240 0.000000 
#    z 0.003700 0.000000 1.877540 
# 
# From -- ./inp_files/86384.got.cif
#   From: 2010.06.25/outbox.cif.g09.slc.cpg/sg12_44_cif.got.tgz:86384.got - 2010.06.28 00:19:55.
