data_PCOD8090046
_publ_section_title
;
Structure prediction by ZEFSAII (Michael W. Deem and Ramdas Pophale) SiO2 
 PCOD8090046
Probable space group: C 2/M
;
_chemical_formula_sum "Si O2"
_cell_formula_units_Z 64
_cell_length_a 20.397132
_cell_length_b 9.282465
_cell_length_c 25.378647
_cell_angle_alpha 90.000000
_cell_angle_beta 133.982933
_cell_angle_gamma 90.000000
_cell_volume 3457.481552
_symmetry_space_group_name_H-M "C 2/M"
_symmetry_group_IT_number 12
_symmetry_cell_setting 'monoclinic'
loop_
_space_group_symop_operation_xyz
x,y,z
-x,y,-z
-x,-y,-z
x,-y,z
1/2+x,1/2+y,z
1/2-x,1/2+y,-z
1/2-x,1/2-y,-z
1/2+x,1/2-y,z
loop_
_atom_site_type_symbol
_atom_site_label
_atom_site_fract_x
_atom_site_fract_y
_atom_site_fract_z
Si Si1 0.701816 0.169117 0.811389
Si Si2 0.809361 0.670173 0.576895
Si Si3 0.216555 0.831425 0.032625
Si Si4 0.249241 0.667814 0.342714
Si Si5 0.157786 0.668070 0.185254
Si Si6 0.489619 0.166811 0.343325
Si Si7 0.488240 0.337430 0.055360
Si Si8 0.559821 0.337655 0.584833
O O1 0.723141 0.215299 0.883245
O O2 0.766986 0.252510 0.807737
O O3 0.596756 0.210388 0.741148
O O4 0.721611 0.000000 0.814741
O O5 0.791944 0.500000 0.561458
O O6 0.750000 0.750000 0.500000
O O7 0.780604 0.733122 0.617898
O O8 0.916485 0.706494 0.633091
O O9 0.226544 0.000000 0.027719
O O10 0.250000 0.750000 0.000000
O O11 0.112677 0.787510 0.985749
O O12 0.266727 0.500000 0.361738
O O13 0.174046 0.695943 0.256231
O O14 0.343737 0.737056 0.375187
O O15 0.161914 0.500000 0.173287
O O16 0.057172 0.727258 0.120355
O O17 0.490786 0.249714 0.398719
O O18 0.484616 0.000000 0.354445
O O19 0.507836 0.500000 0.085985
O O20 0.500000 0.328946 0.000000
O O21 0.500000 0.336072 0.500000
O O22 0.574334 0.500000 0.614007
#
# Coordination Sequence:
#
# PCOD8090046 Si02
#       8
#     8   8   8   8   8   8   8   8
#     4  10  20  38  59  81 114 156 187 226 293 348
#     4  10  21  39  58  80 112 149 189 230 280 338
#     4  10  22  39  60  85 116 152 189 232 283 339
#     4   9  19  35  54  80 112 144 180 229 282 328
#     4  11  21  34  58  89 115 145 191 245 284 327
#     4  10  21  35  57  84 109 144 188 231 277 334
#     4  10  20  38  60  82 114 156 193 229 284 346
#     4  10  19  33  55  80 108 144 182 224 278 334
#
# _framework density 18.510583
#
# number of rings (size 3 to 8) (size 9 to 14) (size 15 to 20)
#    0.000    2.000    2.500    1.125    0.000    4.000 
#    0.000    4.375    0.000    0.000    0.000    0.000 
#    0.000    0.000    0.000    0.000    0.000    0.000 
#
# Total GULP energy -396812.477780 kJ/mol
# GULP energy per Si atom -12400.389931 kJ/mol
# Density = 1.846845 g / cm^3
# Si number density = 18.510583 Si / 1000 Ang^3
#
#
#
# Elastic Constant Matrix: (Units=GPa)
#
#
# Indices 1 2 3 4 5 6 
#
# 1 119.7635 40.8307 49.9402 0.0000 -3.9496 0.0000
# 2 40.8307 48.9744 43.1751 0.0000 -0.3786 0.0000
# 3 49.9402 43.1751 113.4431 0.0000 3.6097 0.0000
# 4 0.0000 0.0000 0.0000 26.5515 0.0000 1.6025
# 5 -3.9496 -0.3786 3.6097 0.0000 37.4600 0.0000
# 6 0.0000 0.0000 0.0000 1.6025 0.0000 26.0330
#
#
#
# Elastic Compliance Matrix: (Units=1/GPa)
#
#
# Indices 1 2 3 4 5 6 
#
# 1 0.012102 -0.008040 -0.002313 0.000000 0.001418 0.000000
# 2 -0.008040 0.036148 -0.010234 0.000000 0.000504 0.000000
# 3 -0.002313 -0.010234 0.013782 0.000000 -0.001675 0.000000
# 4 0.000000 0.000000 0.000000 0.037803 0.000000 -0.002327
# 5 0.001418 0.000504 -0.001675 0.000000 0.027011 0.000000
# 6 0.000000 0.000000 0.000000 -0.002327 0.000000 0.038556
#
#
# Mechanical properties :
#
#
# Convention : Reuss Voigt Hill
#
# Bulk Modulus (GPa) = 47.94366 61.11922 54.53144
# Shear Modulus (GPa) = 23.41617 27.89123 25.65370
#
# Velocity S-wave (km/s) = 3.56056 3.88593 3.72680
# Velocity P-wave (km/s) = 6.54678 7.29549 6.93125
#
# Compressibility (1/GPa) = 0.02085782
#
# Stress axis : x y z
#
# Youngs Moduli (GPa) = 82.63169 27.66414 72.56094
#
# Poissons Ratio (x) = 0.22241 0.16782
# Poissons Ratio (y) = 0.66433 0.74261
# Poissons Ratio (z) = 0.19111 0.28312
#
# Static dielectric constant tensor:
#      x y z
#    x 3.509260 0.000000 0.082200 
#    y 0.000000 3.314190 0.000000 
#    z 0.082200 0.000000 3.520260 
# 
# 
# High freq. dielectric constant tensor:
#      x y z
#    x 1.724220 0.000000 0.005990 
#    y 0.000000 1.700510 0.000000 
#    z 0.005990 0.000000 1.730700 
# 
# From -- ./inp_files/346138.got.cif
#   From: 2010.06.25/outbox.cif.g09.slc.cpg/sg12_174_cif.got.tgz:346138.got - 2010.06.28 00:19:55.
