data_PCOD8090261
_publ_section_title
;
Structure prediction by ZEFSAII (Michael W. Deem and Ramdas Pophale) SiO2 
 PCOD8090261
Probable space group: C 2/M
;
_chemical_formula_sum "Si O2"
_cell_formula_units_Z 40
_cell_length_a 18.922770
_cell_length_b 7.525333
_cell_length_c 20.235968
_cell_angle_alpha 90.000000
_cell_angle_beta 45.217381
_cell_angle_gamma 90.000000
_cell_volume 2045.318295
_symmetry_space_group_name_H-M "C 2/M"
_symmetry_group_IT_number 12
_symmetry_cell_setting 'monoclinic'
loop_
_space_group_symop_operation_xyz
x,y,z
-x,y,-z
-x,-y,-z
x,-y,z
1/2+x,1/2+y,z
1/2-x,1/2+y,-z
1/2-x,1/2-y,-z
1/2+x,1/2-y,z
loop_
_atom_site_type_symbol
_atom_site_label
_atom_site_fract_x
_atom_site_fract_y
_atom_site_fract_z
Si Si1 0.512366 0.790226 0.919642
Si Si2 0.990209 0.799832 0.290306
Si Si3 0.827456 0.704865 0.288850
Si Si4 0.335629 0.000000 0.607221
Si Si5 0.494255 0.000000 0.612735
Si Si6 0.362815 0.792588 0.911653
O O1 0.617151 0.741643 0.816071
O O2 0.423430 0.713734 0.933603
O O3 0.501480 0.000000 0.932515
O O4 0.500000 0.701797 0.000000
O O5 0.998078 0.676967 0.348931
O O6 0.095989 0.797652 0.182101
O O7 0.901715 0.733379 0.301243
O O8 0.968253 0.000000 0.328747
O O9 0.793677 0.500000 0.310125
O O10 0.730093 0.824023 0.358499
O O11 0.389367 0.000000 0.642968
O O12 0.414993 0.000000 0.497084
O O13 0.382806 0.000000 0.890223
O O14 0.250000 0.750000 0.000000
#
# Coordination Sequence:
#
# PCOD8090261 Si02
#       6
#     8   8   8   4   4   8
#     4   8  16  32  55  83 120 159 198 246 297 354
#     4  11  21  41  67  90 123 169 212 259 311 367
#     4  10  20  40  66  93 126 162 211 263 305 372
#     4  11  26  44  65  92 129 159 200 269 331 375
#     4  11  26  46  62  94 130 157 205 267 321 387
#     4  10  19  33  55  87 126 161 203 254 299 362
#
# _framework density 19.556857000000001
#
# number of rings (size 3 to 8) (size 9 to 14) (size 15 to 20)
#    0.000    2.000    3.000    1.800    0.000    4.000 
#    0.000    4.500    0.000    0.000    0.000    0.000 
#    0.000    0.000    0.000    0.000    0.000    0.000 
#
# Total GULP energy -247971.448226 kJ/mol
# GULP energy per Si atom -12398.572411 kJ/mol
# Density = 1.951235 g / cm^3
# Si number density = 19.556857 Si / 1000 Ang^3
#
#
#
# Elastic Constant Matrix: (Units=GPa)
#
#
# Indices 1 2 3 4 5 6 
#
# 1 107.5041 46.0651 69.6453 0.0006 -0.4308 -0.0006
# 2 46.0651 115.4242 38.6921 -0.0001 0.9993 -0.0024
# 3 69.6453 38.6921 106.1145 0.0000 3.9929 0.0000
# 4 0.0006 -0.0001 0.0000 23.7744 0.0000 -4.4304
# 5 -0.4308 0.9993 3.9929 0.0000 38.9803 0.0007
# 6 -0.0006 -0.0024 0.0000 -4.4304 0.0007 25.3544
#
#
#
# Elastic Compliance Matrix: (Units=1/GPa)
#
#
# Indices 1 2 3 4 5 6 
#
# 1 0.017436 -0.003551 -0.010199 0.000000 0.001328 0.000000
# 2 -0.003551 0.010594 -0.001526 0.000000 -0.000155 0.000001
# 3 -0.010199 -0.001526 0.016741 0.000000 -0.001788 0.000000
# 4 0.000000 0.000000 0.000000 0.043478 0.000000 0.007597
# 5 0.001328 -0.000155 -0.001788 0.000000 0.025856 -0.000001
# 6 0.000000 0.000001 0.000000 0.007597 -0.000001 0.040768
#
#
# Mechanical properties :
#
#
# Convention : Reuss Voigt Hill
#
# Bulk Modulus (GPa) = 70.32996 70.87199 70.60098
# Shear Modulus (GPa) = 26.29282 29.26451 27.77866
#
# Velocity S-wave (km/s) = 3.67062 3.87250 3.77292
# Velocity P-wave (km/s) = 7.34878 7.50418 7.42688
#
# Compressibility (1/GPa) = 0.01421869
#
# Stress axis : x y z
#
# Youngs Moduli (GPa) = 57.35176 94.39336 59.73256
#
# Poissons Ratio (x) = 0.33523 0.60920
# Poissons Ratio (y) = 0.20368 0.09116
# Poissons Ratio (z) = 0.58492 0.14406
#
# Static dielectric constant tensor:
#      x y z
#    x 3.312550 0.000000 0.114100 
#    y 0.000000 3.610370 0.000000 
#    z 0.114100 0.000000 3.621140 
# 
# 
# High freq. dielectric constant tensor:
#      x y z
#    x 1.753330 0.000000 0.001860 
#    y 0.000000 1.767560 0.000000 
#    z 0.001860 0.000000 1.761510 
# 
# From -- ./inp_files/273966.got.cif
#   From: 2010.06.25/outbox.cif.g09.slc.cpg/sg12_137_cif.got.tgz:273966.got - 2010.06.28 00:19:55.
