data_PCOD8090282
_publ_section_title
;
Structure prediction by ZEFSAII (Michael W. Deem and Ramdas Pophale) SiO2 
 PCOD8090282
Probable space group: C 2/M
;
_chemical_formula_sum "Si O2"
_cell_formula_units_Z 56
_cell_length_a 18.858064
_cell_length_b 9.094397
_cell_length_c 27.669909
_cell_angle_alpha 90.000000
_cell_angle_beta 38.425701
_cell_angle_gamma 90.000000
_cell_volume 2949.302768
_symmetry_space_group_name_H-M "C 2/M"
_symmetry_group_IT_number 12
_symmetry_cell_setting 'monoclinic'
loop_
_space_group_symop_operation_xyz
x,y,z
-x,y,-z
-x,-y,-z
x,-y,z
1/2+x,1/2+y,z
1/2-x,1/2+y,-z
1/2-x,1/2-y,-z
1/2+x,1/2-y,z
loop_
_atom_site_type_symbol
_atom_site_label
_atom_site_fract_x
_atom_site_fract_y
_atom_site_fract_z
Si Si1 0.087730 0.326254 0.791208
Si Si2 0.665147 0.826583 0.645791
Si Si3 0.858411 0.676595 0.963784
Si Si4 0.265933 0.675636 0.773688
Si Si5 0.133058 0.663408 0.935616
Si Si6 0.007162 0.327887 0.641362
Si Si7 0.405465 0.827990 0.511705
O O1 0.084359 0.500000 0.797785
O O2 0.096270 0.277924 0.730669
O O3 0.197688 0.268496 0.762584
O O4 0.971242 0.263136 0.876376
O O5 0.595506 0.774075 0.635609
O O6 0.788026 0.753733 0.583687
O O7 0.684236 0.000000 0.634061
O O8 0.855157 0.500000 0.964032
O O9 0.750000 0.750000 0.000000
O O10 0.850551 0.742353 0.022046
O O11 0.272423 0.500000 0.770464
O O12 0.197788 0.740860 0.856511
O O13 0.391210 0.740186 0.708781
O O14 0.184442 0.500000 0.911082
O O15 0.000000 0.656083 0.000000
O O16 0.981777 0.500000 0.660584
O O17 0.056918 0.289137 0.562542
O O18 0.500000 0.773030 0.500000
O O19 0.384023 0.000000 0.529905
#
# Coordination Sequence:
#
# PCOD8090282 Si02
#       7
#     8   8   8   8   8   8   8
#     4   9  18  34  54  76 103 138 176 215 259 307
#     4  10  21  36  55  79 107 138 173 211 256 312
#     4  10  20  34  53  76 106 140 175 216 261 308
#     4  10  19  33  56  80 101 134 182 221 252 301
#     4   9  16  31  54  77 101 135 179 222 257 295
#     4  10  22  37  53  78 111 140 166 209 267 315
#     4  10  21  38  58  79 105 138 173 211 260 310
#
# _framework density 18.987539000000002
#
# number of rings (size 3 to 8) (size 9 to 14) (size 15 to 20)
#    0.000    2.286    1.429    1.286    2.000    1.429 
#    0.000    1.429    0.000    0.857    0.000    0.000 
#    0.000    0.000    0.000    0.000    0.000    0.000 
#
# Total GULP energy -347051.820586 kJ/mol
# GULP energy per Si atom -12394.707878 kJ/mol
# Density = 1.894432 g / cm^3
# Si number density = 18.987539 Si / 1000 Ang^3
#
#
#
# Elastic Constant Matrix: (Units=GPa)
#
#
# Indices 1 2 3 4 5 6 
#
# 1 180.3315 26.3632 79.9193 0.0000 9.5931 -0.0002
# 2 26.3632 18.4245 31.0546 0.0001 -1.0765 -0.0008
# 3 79.9193 31.0546 126.9209 0.0000 5.5432 0.0000
# 4 0.0000 0.0001 0.0000 10.4154 0.0000 -33.0477
# 5 9.5931 -1.0765 5.5432 0.0000 41.8690 0.0000
# 6 -0.0002 -0.0008 0.0000 -33.0477 0.0000 -39.0568
#
#
#
# Elastic Compliance Matrix: (Units=1/GPa)
#
#
# Indices 1 2 3 4 5 6 
#
# 1 0.008045 -0.005395 -0.003680 0.000000 -0.001495 0.000000
# 2 -0.005395 0.097217 -0.020672 -0.000002 0.006473 0.000000
# 3 -0.003680 -0.020672 0.015329 0.000000 -0.001718 0.000000
# 4 0.000000 -0.000002 0.000000 0.026056 0.000000 -0.022047
# 5 -0.001495 0.006473 -0.001718 0.000000 0.024620 0.000000
# 6 0.000000 0.000000 0.000000 -0.022047 0.000000 -0.006949
#
#
# Mechanical properties :
#
#
# Convention : Reuss Voigt Hill
#
# Bulk Modulus (GPa) = 16.36779 66.70568 41.53673
# Shear Modulus (GPa) = 20.47681 15.20151 17.83916
#
# Velocity S-wave (km/s) = 3.28751 2.83257 3.06848
# Velocity P-wave (km/s) = 4.80097 6.77536 5.87175
#
# Compressibility (1/GPa) = 0.06109560
#
# Stress axis : x y z
#
# Youngs Moduli (GPa) = 124.30774 10.28629 65.23492
#
# Poissons Ratio (x) = 0.05550 0.24007
# Poissons Ratio (y) = 0.67067 1.34854
# Poissons Ratio (z) = 0.45747 0.21264
#
# Static dielectric constant tensor:
#      x y z
#    x 3.829470 0.000000 0.267250 
#    y 0.000000 3.080660 0.000000 
#    z 0.267250 0.000000 3.708710 
# 
# 
# High freq. dielectric constant tensor:
#      x y z
#    x 1.757140 0.000000 0.008560 
#    y 0.000000 1.692850 0.000000 
#    z 0.008560 0.000000 1.754190 
# 
# From -- ./inp_files/268864.got.cif
#   From: 2010.06.25/outbox.cif.g09.slc.cpg/sg12_135_cif.got.tgz:268864.got - 2010.06.28 00:19:55.
