data_PCOD8090022
_publ_section_title
;
Structure prediction by ZEFSAII (Michael W. Deem and Ramdas Pophale) SiO2 
 PCOD8090022
Probable space group: C 2/M
;
_chemical_formula_sum "Si O2"
_cell_formula_units_Z 48
_cell_length_a 14.909550
_cell_length_b 15.429582
_cell_length_c 11.216515
_cell_angle_alpha 90.000000
_cell_angle_beta 78.016232
_cell_angle_gamma 90.000000
_cell_volume 2524.103541
_symmetry_space_group_name_H-M "C 2/M"
_symmetry_group_IT_number 12
_symmetry_cell_setting 'monoclinic'
loop_
_space_group_symop_operation_xyz
x,y,z
-x,y,-z
-x,-y,-z
x,-y,z
1/2+x,1/2+y,z
1/2-x,1/2+y,-z
1/2-x,1/2-y,-z
1/2+x,1/2-y,z
loop_
_atom_site_type_symbol
_atom_site_label
_atom_site_fract_x
_atom_site_fract_y
_atom_site_fract_z
Si Si1 0.971959 0.898692 0.322754
Si Si2 0.370512 0.000000 0.925657
Si Si3 0.930761 0.500000 0.180372
Si Si4 0.196616 0.350245 0.764560
Si Si5 0.580235 0.305387 0.896150
Si Si6 0.644645 0.602379 0.427858
Si Si7 0.735929 0.646667 0.005183
O O1 0.968493 0.857332 0.194415
O O2 0.882929 0.875179 0.428352
O O3 0.062707 0.866452 0.364679
O O4 0.976641 0.000000 0.304022
O O5 0.312514 0.911848 0.915871
O O6 0.460999 0.000000 0.816933
O O7 0.410751 0.000000 0.046273
O O8 0.884407 0.415278 0.249924
O O9 0.148861 0.261754 0.816059
O O10 0.264609 0.342934 0.632729
O O11 0.259845 0.384710 0.858085
O O12 0.638972 0.369969 0.965864
O O13 0.500000 0.261641 0.000000
O O14 0.663789 0.500000 0.407434
O O15 0.750000 0.750000 0.000000
#
# Coordination Sequence:
#
# PCOD8090022 Si02
#       7
#     8   4   4   8   8   8   8
#     4   9  20  36  57  77 106 142 176 219 264 313
#     4   9  18  32  51  69 103 144 180 204 269 315
#     4   9  18  30  54  76  97 133 178 223 255 306
#     4  10  19  33  55  80 105 136 175 226 264 305
#     4  11  23  34  50  79 115 142 172 212 265 327
#     4   9  17  36  58  80 102 133 181 228 262 305
#     4   9  20  33  48  75 111 144 172 217 263 319
#
# _framework density 19.016652000000001
#
# number of rings (size 3 to 8) (size 9 to 14) (size 15 to 20)
#    0.000    2.500    0.833    2.000    8.167    1.000 
#    0.000    0.000    0.000    0.000    0.000    1.167 
#    0.000    0.000    0.000    0.000    0.000    0.000 
#
# Total GULP energy -297344.243613 kJ/mol
# GULP energy per Si atom -12389.343484 kJ/mol
# Density = 1.897337 g / cm^3
# Si number density = 19.016652 Si / 1000 Ang^3
#
#
#
# Elastic Constant Matrix: (Units=GPa)
#
#
# Indices 1 2 3 4 5 6 
#
# 1 76.2188 37.5813 35.9399 0.0000 -22.3595 0.0000
# 2 37.5813 64.3229 23.7929 0.0000 -15.1216 0.0000
# 3 35.9399 23.7929 82.6134 0.0000 -25.1957 0.0000
# 4 0.0000 0.0000 0.0000 16.1269 0.0000 -4.0347
# 5 -22.3595 -15.1216 -25.1957 0.0000 42.2480 0.0000
# 6 0.0000 0.0000 0.0000 -4.0347 0.0000 25.9823
#
#
#
# Elastic Compliance Matrix: (Units=1/GPa)
#
#
# Indices 1 2 3 4 5 6 
#
# 1 0.021775 -0.009635 -0.005177 0.000000 0.004989 0.000000
# 2 -0.009635 0.022223 -0.001635 0.000000 0.001880 0.000000
# 3 -0.005177 -0.001635 0.016885 0.000000 0.006744 0.000000
# 4 0.000000 0.000000 0.000000 0.064515 0.000000 0.010018
# 5 0.004989 0.001880 0.006744 0.000000 0.031005 0.000000
# 6 0.000000 0.000000 0.000000 0.010018 0.000000 0.040043
#
#
# Mechanical properties :
#
#
# Convention : Reuss Voigt Hill
#
# Bulk Modulus (GPa) = 35.72900 46.42038 41.07469
# Shear Modulus (GPa) = 20.94951 25.26084 23.10518
#
# Velocity S-wave (km/s) = 3.32270 3.64861 3.48946
# Velocity P-wave (km/s) = 5.79219 6.49717 6.15478
#
# Compressibility (1/GPa) = 0.02798847
#
# Stress axis : x y z
#
# Youngs Moduli (GPa) = 45.92376 44.99927 59.22552
#
# Poissons Ratio (x) = 0.43356 0.30659
# Poissons Ratio (y) = 0.44246 0.09686
# Poissons Ratio (z) = 0.23774 0.07359
#
# Static dielectric constant tensor:
#      x y z
#    x 3.975900 0.000000 0.116250 
#    y 0.000000 3.207530 0.000000 
#    z 0.116250 0.000000 3.574590 
# 
# 
# High freq. dielectric constant tensor:
#      x y z
#    x 1.739240 0.000000 -0.019070 
#    y 0.000000 1.716720 0.000000 
#    z -0.019070 0.000000 1.718360 
# 
# From -- ./inp_files/142783.got.cif
#   From: 2010.06.25/outbox.cif.g09.slc.cpg/sg12_72_cif.got.tgz:142783.got - 2010.06.28 00:19:55.
