data_PCOD8090403
_publ_section_title
;
Structure prediction by ZEFSAII (Michael W. Deem and Ramdas Pophale) SiO2 
 PCOD8090403
Probable space group: C 2/M
;
_chemical_formula_sum "Si O2"
_cell_formula_units_Z 56
_cell_length_a 14.836460
_cell_length_b 16.901428
_cell_length_c 21.553212
_cell_angle_alpha 90.000000
_cell_angle_beta 32.008306
_cell_angle_gamma 90.000000
_cell_volume 2864.680135
_symmetry_space_group_name_H-M "C 2/M"
_symmetry_group_IT_number 12
_symmetry_cell_setting 'monoclinic'
loop_
_space_group_symop_operation_xyz
x,y,z
-x,y,-z
-x,-y,-z
x,-y,z
1/2+x,1/2+y,z
1/2-x,1/2+y,-z
1/2-x,1/2-y,-z
1/2+x,1/2-y,z
loop_
_atom_site_type_symbol
_atom_site_label
_atom_site_fract_x
_atom_site_fract_y
_atom_site_fract_z
Si Si1 0.360541 0.094258 0.356445
Si Si2 0.505536 0.649137 0.093805
Si Si3 0.054569 0.322766 0.037405
Si Si4 0.047825 0.906169 0.616285
Si Si5 0.410814 0.592014 0.826847
Si Si6 0.769611 0.593140 0.274654
Si Si7 0.759300 0.592602 0.845815
O O1 0.230913 0.124530 0.485290
O O2 0.294924 0.128353 0.328832
O O3 0.549233 0.126310 0.261024
O O4 0.368352 0.000000 0.348558
O O5 0.543931 0.741540 0.082214
O O6 0.479384 0.607343 0.175492
O O7 0.331749 0.638829 0.156845
O O8 0.663497 0.608016 0.966488
O O9 0.931525 0.388018 0.138026
O O10 0.242629 0.356340 0.929691
O O11 0.000000 0.302083 0.000000
O O12 0.019781 0.879382 0.703693
O O13 0.899454 0.870791 0.658606
O O14 0.042987 0.000000 0.614154
O O15 0.362385 0.500000 0.848380
O O16 0.751488 0.500000 0.289397
O O17 0.755088 0.500000 0.833251
#
# Coordination Sequence:
#
# PCOD8090403 Si02
#       7
#     8   8   8   8   8   8   8
#     4   9  18  33  55  83 108 141 189 234 275 319
#     4  11  22  38  56  80 114 149 183 230 281 331
#     4  12  22  36  56  83 118 149 179 227 283 337
#     4   9  18  32  53  82 114 143 179 232 282 326
#     4  11  22  36  58  86 116 147 183 226 280 336
#     4  10  19  33  56  83 113 148 185 228 275 332
#     4  10  19  35  59  81 105 143 195 239 267 317
#
# _framework density 19.54843
#
# number of rings (size 3 to 8) (size 9 to 14) (size 15 to 20)
#    0.000    1.714    2.857    3.857    0.000    3.429 
#    0.000    0.714    0.000   12.857    0.000    0.000 
#    0.000    0.000    0.000    0.000    0.000    0.000 
#
# Total GULP energy -347231.026640 kJ/mol
# GULP energy per Si atom -12401.108094 kJ/mol
# Density = 1.950394 g / cm^3
# Si number density = 19.548430 Si / 1000 Ang^3
#
#
#
# Elastic Constant Matrix: (Units=GPa)
#
#
# Indices 1 2 3 4 5 6 
#
# 1 142.5391 24.6327 88.3438 0.0008 3.5849 0.0007
# 2 24.6327 40.3553 8.0947 0.0009 0.5405 -0.0055
# 3 88.3438 8.0947 151.2187 0.0203 0.2026 -0.0099
# 4 0.0008 0.0009 0.0203 3.6722 -0.0089 -0.9682
# 5 3.5849 0.5405 0.2026 -0.0089 23.8949 -0.0006
# 6 0.0007 -0.0055 -0.0099 -0.9682 -0.0006 18.2399
#
#
#
# Elastic Compliance Matrix: (Units=1/GPa)
#
#
# Indices 1 2 3 4 5 6 
#
# 1 0.012411 -0.006166 -0.006918 0.000032 -0.001664 -0.000004
# 2 -0.006166 0.028119 0.002096 -0.000014 0.000271 0.000009
# 3 -0.006918 0.002096 0.010541 -0.000054 0.000901 0.000004
# 4 0.000032 -0.000014 -0.000054 0.276179 0.000100 0.014660
# 5 -0.001664 0.000271 0.000901 0.000100 0.042086 0.000007
# 6 -0.000004 0.000009 0.000004 0.014660 0.000007 0.055603
#
#
# Mechanical properties :
#
#
# Convention : Reuss Voigt Hill
#
# Bulk Modulus (GPa) = 34.36848 64.02840 49.19844
# Shear Modulus (GPa) = 10.95021 23.36420 17.15721
#
# Velocity S-wave (km/s) = 2.36933 3.46091 2.96578
# Velocity P-wave (km/s) = 5.01042 6.98537 6.07864
#
# Compressibility (1/GPa) = 0.02909643
#
# Stress axis : x y z
#
# Youngs Moduli (GPa) = 80.57485 35.56294 94.86522
#
# Poissons Ratio (x) = 0.21926 0.65631
# Poissons Ratio (y) = 0.49679 -0.19888
# Poissons Ratio (z) = 0.55744 -0.07455
#
# Static dielectric constant tensor:
#      x y z
#    x 3.840700 0.000000 0.042390 
#    y 0.000000 3.244300 0.000010 
#    z 0.042390 0.000010 3.699050 
# 
# 
# High freq. dielectric constant tensor:
#      x y z
#    x 1.770560 0.000000 0.000330 
#    y 0.000000 1.731440 0.000000 
#    z 0.000330 0.000000 1.755400 
# 
# From -- ./inp_files/340294.got.cif
#   From: 2010.06.25/outbox.cif.g09.slc.cpg/sg12_171_cif.got.tgz:340294.got - 2010.06.28 00:19:55.
