data_PCOD8090003
_publ_section_title
;
Structure prediction by ZEFSAII (Michael W. Deem and Ramdas Pophale) SiO2 
 PCOD8090003
Probable space group: C 2/M
;
_chemical_formula_sum "Si O2"
_cell_formula_units_Z 40
_cell_length_a 18.318054
_cell_length_b 7.680569
_cell_length_c 20.228436
_cell_angle_alpha 90.000000
_cell_angle_beta 133.461190
_cell_angle_gamma 90.000000
_cell_volume 2065.742644
_symmetry_space_group_name_H-M "C 2/M"
_symmetry_group_IT_number 12
_symmetry_cell_setting 'monoclinic'
loop_
_space_group_symop_operation_xyz
x,y,z
-x,y,-z
-x,-y,-z
x,-y,z
1/2+x,1/2+y,z
1/2-x,1/2+y,-z
1/2-x,1/2-y,-z
1/2+x,1/2-y,z
loop_
_atom_site_type_symbol
_atom_site_label
_atom_site_fract_x
_atom_site_fract_y
_atom_site_fract_z
Si Si1 0.336712 0.500000 0.396660
Si Si2 0.526688 0.793415 0.090291
Si Si3 0.361975 0.796556 0.089307
Si Si4 0.012925 0.000000 0.400807
Si Si5 0.911923 0.297343 0.266374
Si Si6 0.755732 0.806287 0.731663
O O1 0.430157 0.500000 0.406005
O O2 0.376642 0.500000 0.496966
O O3 0.269124 0.671394 0.342452
O O4 0.439422 0.719704 0.083894
O O5 0.629318 0.704299 0.175731
O O6 0.539120 0.000000 0.102353
O O7 0.500000 0.732958 0.000000
O O8 0.387940 0.726257 0.178249
O O9 0.374910 0.000000 0.098389
O O10 0.250000 0.750000 0.000000
O O11 0.001298 0.823850 0.350358
O O12 0.946042 0.500000 0.289322
O O13 0.810942 0.266110 0.245356
O O14 0.732517 0.000000 0.690375
#
# Coordination Sequence:
#
# PCOD8090003 Si02
#       6
#     4   8   8   4   8   8
#     4   9  18  34  53  84 110 130 180 223 268 326
#     4  10  20  34  53  78 109 147 180 219 263 315
#     4  10  21  34  51  78 110 144 178 223 261 313
#     4   9  18  32  58  80 105 144 169 221 282 312
#     4   9  19  34  52  80 109 138 180 222 262 315
#     4  10  19  33  55  79 108 143 175 222 268 314
#
# _framework density 19.363496999999999
#
# number of rings (size 3 to 8) (size 9 to 14) (size 15 to 20)
#    0.000    2.400    1.000    1.200    1.400    2.000 
#    0.000    4.000    0.000    1.200    0.000    0.000 
#    0.000    0.000    0.000    0.000    0.000    0.000 
#
# Total GULP energy -247986.435317 kJ/mol
# GULP energy per Si atom -12399.321766 kJ/mol
# Density = 1.931943 g / cm^3
# Si number density = 19.363497 Si / 1000 Ang^3
#
#
#
# Elastic Constant Matrix: (Units=GPa)
#
#
# Indices 1 2 3 4 5 6 
#
# 1 92.8850 35.2990 60.6207 0.0000 -5.2100 0.0000
# 2 35.2990 96.2575 67.7364 0.0000 -7.1381 0.0000
# 3 60.6207 67.7364 174.8901 0.0000 -14.6685 0.0000
# 4 0.0000 0.0000 0.0000 21.5282 0.0000 -2.7864
# 5 -5.2100 -7.1381 -14.6685 0.0000 25.0038 0.0000
# 6 0.0000 0.0000 0.0000 -2.7864 0.0000 12.2445
#
#
#
# Elastic Compliance Matrix: (Units=1/GPa)
#
#
# Indices 1 2 3 4 5 6 
#
# 1 0.014311 -0.002417 -0.004030 0.000000 -0.000073 0.000000
# 2 -0.002417 0.014708 -0.004784 0.000000 0.000889 0.000000
# 3 -0.004030 -0.004784 0.009237 0.000000 0.003214 0.000000
# 4 0.000000 0.000000 0.000000 0.047860 0.000000 0.010891
# 5 -0.000073 0.000889 0.003214 0.000000 0.042118 0.000000
# 6 0.000000 0.000000 0.000000 0.010891 0.000000 0.084148
#
#
# Mechanical properties :
#
#
# Convention : Reuss Voigt Hill
#
# Bulk Modulus (GPa) = 63.32049 76.81610 70.06830
# Shear Modulus (GPa) = 20.82388 25.11373 22.96880
#
# Velocity S-wave (km/s) = 3.28292 3.60524 3.44785
# Velocity P-wave (km/s) = 6.86600 7.55560 7.21904
#
# Compressibility (1/GPa) = 0.01579268
#
# Stress axis : x y z
#
# Youngs Moduli (GPa) = 69.87665 67.99193 108.25687
#
# Poissons Ratio (x) = 0.16435 0.43631
# Poissons Ratio (y) = 0.16891 0.51790
# Poissons Ratio (z) = 0.28163 0.32527
#
# Static dielectric constant tensor:
#      x y z
#    x 3.584510 0.000000 -0.197860 
#    y 0.000000 3.608200 0.000000 
#    z -0.197860 0.000000 3.624690 
# 
# 
# High freq. dielectric constant tensor:
#      x y z
#    x 1.730560 0.000000 -0.004540 
#    y 0.000000 1.759540 0.000000 
#    z -0.004540 0.000000 1.749560 
# 
# From -- ./inp_files/220283.got.cif
#   From: 2010.06.25/outbox.cif.g09.slc.cpg/sg12_111_cif.got.tgz:220283.got - 2010.06.28 00:19:55.
