data_PCOD8090068
_publ_section_title
;
Structure prediction by ZEFSAII (Michael W. Deem and Ramdas Pophale) SiO2 
 PCOD8090068
Probable space group: C 2/M
;
_chemical_formula_sum "Si O2"
_cell_formula_units_Z 48
_cell_length_a 20.714714
_cell_length_b 8.873664
_cell_length_c 19.241862
_cell_angle_alpha 90.000000
_cell_angle_beta 48.436947
_cell_angle_gamma 90.000000
_cell_volume 2646.438773
_symmetry_space_group_name_H-M "C 2/M"
_symmetry_group_IT_number 12
_symmetry_cell_setting 'monoclinic'
loop_
_space_group_symop_operation_xyz
x,y,z
-x,y,-z
-x,-y,-z
x,-y,z
1/2+x,1/2+y,z
1/2-x,1/2+y,-z
1/2-x,1/2-y,-z
1/2+x,1/2-y,z
loop_
_atom_site_type_symbol
_atom_site_label
_atom_site_fract_x
_atom_site_fract_y
_atom_site_fract_z
Si Si1 0.098498 0.177026 0.434953
Si Si2 0.270166 0.175700 0.558467
Si Si3 0.531605 0.675431 0.050017
Si Si4 0.780817 0.178970 0.048746
Si Si5 0.645868 0.673196 0.769015
Si Si6 0.226812 0.176112 0.222738
O O1 0.143891 0.257939 0.467605
O O2 0.145345 0.220092 0.329269
O O3 0.000000 0.232539 0.500000
O O4 0.104216 0.000000 0.445291
O O5 0.250000 0.250000 0.500000
O O6 0.186853 0.211197 0.665452
O O7 0.284993 0.000000 0.536820
O O8 0.548507 0.500000 0.025686
O O9 0.456978 0.703898 0.161015
O O10 0.500000 0.748355 0.000000
O O11 0.622320 0.744600 0.009322
O O12 0.719729 0.234549 0.155340
O O13 0.776725 0.000000 0.046467
O O14 0.750000 0.250000 0.000000
O O15 0.664643 0.500000 0.776678
O O16 0.685904 0.777085 0.800228
O O17 0.228606 0.000000 0.205243
#
# Coordination Sequence:
#
# PCOD8090068 Si02
#       6
#     8   8   8   8   8   8
#     4   9  19  37  59  80 104 139 184 225 264 321
#     4  10  20  34  55  80 111 142 174 220 272 321
#     4   9  16  31  57  80  98 131 178 216 248 305
#     4  11  22  37  55  76 109 143 177 218 263 314
#     4   9  17  33  56  80 101 135 181 217 256 309
#     4  10  19  33  55  81 107 137 174 218 269 317
#
# _framework density 18.137581999999998
#
# number of rings (size 3 to 8) (size 9 to 14) (size 15 to 20)
#    0.000    2.333    1.667    1.500    0.000    1.667 
#    3.000    2.500    0.000    0.000    0.000    0.000 
#    0.000    0.000    0.000    0.000    0.000    0.000 
#
# Total GULP energy -297571.255314 kJ/mol
# GULP energy per Si atom -12398.802305 kJ/mol
# Density = 1.809630 g / cm^3
# Si number density = 18.137582 Si / 1000 Ang^3
#
#
#
# Elastic Constant Matrix: (Units=GPa)
#
#
# Indices 1 2 3 4 5 6 
#
# 1 146.2899 50.9303 87.7861 0.0000 5.6922 0.0002
# 2 50.9303 66.2574 45.0761 -0.0001 9.8735 0.0006
# 3 87.7861 45.0761 124.1701 0.0000 7.3542 0.0000
# 4 0.0000 -0.0001 0.0000 28.1628 0.0000 5.6618
# 5 5.6922 9.8735 7.3542 0.0000 35.5936 0.0000
# 6 0.0002 0.0006 0.0000 5.6618 0.0000 30.4436
#
#
#
# Elastic Compliance Matrix: (Units=1/GPa)
#
#
# Indices 1 2 3 4 5 6 
#
# 1 0.013022 -0.005100 -0.007406 0.000000 0.000862 0.000000
# 2 -0.005100 0.022651 -0.004347 0.000000 -0.004570 0.000000
# 3 -0.007406 -0.004347 0.014908 0.000000 -0.000690 0.000000
# 4 0.000000 0.000000 0.000000 0.036887 0.000000 -0.006860
# 5 0.000862 -0.004570 -0.000690 0.000000 0.029367 0.000000
# 6 0.000000 0.000000 0.000000 -0.006860 0.000000 0.034123
#
#
# Mechanical properties :
#
#
# Convention : Reuss Voigt Hill
#
# Bulk Modulus (GPa) = 59.25532 78.25580 68.75556
# Shear Modulus (GPa) = 26.27595 29.03499 27.65547
#
# Velocity S-wave (km/s) = 3.81031 4.00536 3.90905
# Velocity P-wave (km/s) = 7.21795 8.03927 7.63966
#
# Compressibility (1/GPa) = 0.01687612
#
# Stress axis : x y z
#
# Youngs Moduli (GPa) = 76.79425 44.14891 67.07724
#
# Poissons Ratio (x) = 0.22514 0.49678
# Poissons Ratio (y) = 0.39162 0.29156
# Poissons Ratio (z) = 0.56874 0.19190
#
# Static dielectric constant tensor:
#      x y z
#    x 3.307390 0.000000 -0.141850 
#    y 0.000000 3.252240 0.000000 
#    z -0.141850 0.000000 3.594910 
# 
# 
# High freq. dielectric constant tensor:
#      x y z
#    x 1.687770 0.000000 -0.004190 
#    y 0.000000 1.692070 0.000000 
#    z -0.004190 0.000000 1.712930 
# 
# From -- ./inp_files/280762.got.cif
#   From: 2010.06.25/outbox.cif.g09.slc.cpg/sg12_141_cif.got.tgz:280762.got - 2010.06.28 00:19:55.
