data_PCOD8090420
_publ_section_title
;
Structure prediction by ZEFSAII (Michael W. Deem and Ramdas Pophale) SiO2 
 PCOD8090420
Probable space group: C 2/M
;
_chemical_formula_sum "Si O2"
_cell_formula_units_Z 56
_cell_length_a 19.396766
_cell_length_b 9.166259
_cell_length_c 24.017205
_cell_angle_alpha 90.000000
_cell_angle_beta 45.222524
_cell_angle_gamma 90.000000
_cell_volume 3031.161576
_symmetry_space_group_name_H-M "C 2/M"
_symmetry_group_IT_number 12
_symmetry_cell_setting 'monoclinic'
loop_
_space_group_symop_operation_xyz
x,y,z
-x,y,-z
-x,-y,-z
x,-y,z
1/2+x,1/2+y,z
1/2-x,1/2+y,-z
1/2-x,1/2-y,-z
1/2+x,1/2-y,z
loop_
_atom_site_type_symbol
_atom_site_label
_atom_site_fract_x
_atom_site_fract_y
_atom_site_fract_z
Si Si1 0.670167 0.826921 0.006806
Si Si2 0.822718 0.669731 0.126049
Si Si3 0.033152 0.172510 0.876124
Si Si4 0.803154 0.833754 0.301196
Si Si5 0.222616 0.667202 0.460981
Si Si6 0.165811 0.830913 0.302326
Si Si7 0.464203 0.337535 0.457747
O O1 0.566402 0.756173 0.078463
O O2 0.668293 0.000000 0.019989
O O3 0.750000 0.750000 0.000000
O O4 0.694137 0.793865 0.928783
O O5 0.849612 0.500000 0.119575
O O6 0.911146 0.764392 0.101247
O O7 0.721231 0.712433 0.213794
O O8 0.094772 0.207243 0.785340
O O9 0.015446 0.000000 0.894941
O O10 0.804748 0.805698 0.366731
O O11 0.715100 0.742826 0.326941
O O12 0.777984 0.000000 0.301980
O O13 0.214423 0.500000 0.481170
O O14 0.250000 0.750000 0.500000
O O15 0.118628 0.718964 0.499333
O O16 0.052001 0.789289 0.366055
O O17 0.176628 0.000000 0.308203
O O18 0.500000 0.340460 0.500000
O O19 0.427288 0.500000 0.461756
#
# Coordination Sequence:
#
# PCOD8090420 Si02
#       7
#     8   8   8   8   8   8   8
#     4  11  23  39  57  80 113 148 183 222 270 326
#     4   9  19  36  58  83 110 143 182 222 267 324
#     4  10  20  36  60  86 109 139 181 226 274 325
#     4   9  19  35  55  80 109 142 180 225 272 322
#     4  11  23  38  55  77 110 149 187 227 272 323
#     4   9  17  32  56  83 109 140 178 223 271 320
#     4  10  19  33  56  84 111 141 180 224 270 322
#
# _framework density 18.474767
#
# number of rings (size 3 to 8) (size 9 to 14) (size 15 to 20)
#    0.000    2.143    1.429    1.714    0.000    4.857 
#    2.571    0.000    0.000    0.000    0.000    0.000 
#    0.000    0.000    0.000    0.000    0.000    0.000 
#
# Total GULP energy -347123.391670 kJ/mol
# GULP energy per Si atom -12397.263988 kJ/mol
# Density = 1.843272 g / cm^3
# Si number density = 18.474767 Si / 1000 Ang^3
#
#
#
# Elastic Constant Matrix: (Units=GPa)
#
#
# Indices 1 2 3 4 5 6 
#
# 1 103.1630 58.0511 64.8459 0.0000 2.3911 0.0001
# 2 58.0511 93.5516 60.4982 0.0001 3.0384 0.0003
# 3 64.8459 60.4982 120.5267 0.0000 -0.3201 0.0000
# 4 0.0000 0.0001 0.0000 26.5512 0.0000 1.2562
# 5 2.3911 3.0384 -0.3201 0.0000 23.0133 0.0000
# 6 0.0001 0.0003 0.0000 1.2562 0.0000 30.7585
#
#
#
# Elastic Compliance Matrix: (Units=1/GPa)
#
#
# Indices 1 2 3 4 5 6 
#
# 1 0.017268 -0.006921 -0.005819 0.000000 -0.000961 0.000000
# 2 -0.006921 0.018713 -0.005674 0.000000 -0.001830 0.000000
# 3 -0.005819 -0.005674 0.014280 0.000000 0.001552 0.000000
# 4 0.000000 0.000000 0.000000 0.037736 0.000000 -0.001541
# 5 -0.000961 -0.001830 0.001552 0.000000 0.043816 0.000000
# 6 0.000000 0.000000 0.000000 -0.001541 0.000000 0.032574
#
#
# Mechanical properties :
#
#
# Convention : Reuss Voigt Hill
#
# Bulk Modulus (GPa) = 74.44700 76.00354 75.22527
# Shear Modulus (GPa) = 24.30811 24.98766 24.64788
#
# Velocity S-wave (km/s) = 3.63126 3.68166 3.65655
# Velocity P-wave (km/s) = 7.61350 7.70073 7.65724
#
# Compressibility (1/GPa) = 0.01343237
#
# Stress axis : x y z
#
# Youngs Moduli (GPa) = 57.91096 53.43991 70.02807
#
# Poissons Ratio (x) = 0.36985 0.40751
# Poissons Ratio (y) = 0.40079 0.39735
# Poissons Ratio (z) = 0.33699 0.30322
#
# Static dielectric constant tensor:
#      x y z
#    x 3.001640 0.000000 0.127270 
#    y 0.000000 3.636150 0.000000 
#    z 0.127270 0.000000 3.862810 
# 
# 
# High freq. dielectric constant tensor:
#      x y z
#    x 1.690960 0.000000 -0.000320 
#    y 0.000000 1.723150 0.000000 
#    z -0.000320 0.000000 1.736670 
# 
# From -- ./inp_files/342212.got.cif
#   From: 2010.06.25/outbox.cif.g09.slc.cpg/sg12_172_cif.got.tgz:342212.got - 2010.06.28 00:19:55.
