data_PCOD8090382
_publ_section_title
;
Structure prediction by ZEFSAII (Michael W. Deem and Ramdas Pophale) SiO2 
 PCOD8090382
Probable space group: C 2/M
;
_chemical_formula_sum "Si O2"
_cell_formula_units_Z 64
_cell_length_a 24.346164
_cell_length_b 8.895964
_cell_length_c 19.801008
_cell_angle_alpha 90.000000
_cell_angle_beta 125.089158
_cell_angle_gamma 90.000000
_cell_volume 3509.145615
_symmetry_space_group_name_H-M "C 2/M"
_symmetry_group_IT_number 12
_symmetry_cell_setting 'monoclinic'
loop_
_space_group_symop_operation_xyz
x,y,z
-x,y,-z
-x,-y,-z
x,-y,z
1/2+x,1/2+y,z
1/2-x,1/2+y,-z
1/2-x,1/2-y,-z
1/2+x,1/2-y,z
loop_
_atom_site_type_symbol
_atom_site_label
_atom_site_fract_x
_atom_site_fract_y
_atom_site_fract_z
Si Si1 0.179570 0.326233 0.965488
Si Si2 0.158070 0.675325 0.740470
Si Si3 0.292267 0.829525 0.866940
Si Si4 0.923575 0.822966 0.206931
Si Si5 0.802853 0.676926 0.379968
Si Si6 0.165216 0.674596 0.248349
Si Si7 0.425009 0.675674 0.714593
Si Si8 0.319212 0.677028 0.526034
O O1 0.183160 0.500000 0.946659
O O2 0.120149 0.247969 0.883390
O O3 0.250000 0.250000 0.000000
O O4 0.164137 0.307272 0.034555
O O5 0.146846 0.500000 0.743439
O O6 0.228706 0.719279 0.824263
O O7 0.098357 0.763499 0.735041
O O8 0.158160 0.718516 0.661381
O O9 0.338970 0.795443 0.835135
O O10 0.264103 0.000000 0.842998
O O11 0.000047 0.773969 0.250239
O O12 0.913926 0.000000 0.198018
O O13 0.800641 0.500000 0.390850
O O14 0.726725 0.734611 0.324023
O O15 0.840952 0.757486 0.468502
O O16 0.175249 0.500000 0.271985
O O17 0.097175 0.735014 0.233953
O O18 0.420607 0.500000 0.727258
O O19 0.377820 0.721647 0.618919
O O20 0.309414 0.500000 0.514060
O O21 0.250000 0.750000 0.500000
#
# Coordination Sequence:
#
# PCOD8090382 Si02
#       8
#     8   8   8   8   8   8   8   8
#     4  11  21  35  57  85 114 145 185 233 277 327
#     4  10  20  34  55  82 111 145 184 228 278 329
#     4   9  19  34  54  82 113 142 179 228 278 327
#     4  11  23  39  57  79 112 152 188 229 279 335
#     4  10  20  34  54  83 115 143 179 230 281 331
#     4  10  19  33  56  83 109 144 185 226 276 329
#     4  10  23  40  56  78 113 151 186 228 281 334
#     4  11  21  35  57  84 111 144 188 235 279 329
#
# _framework density 18.238056
#
# number of rings (size 3 to 8) (size 9 to 14) (size 15 to 20)
#    0.000    1.750    2.500    2.250    0.000    4.000 
#    0.000    1.250    0.000    7.500    0.000    0.000 
#    0.000    0.000    0.000    0.000    0.000    0.000 
#
# Total GULP energy -396878.419526 kJ/mol
# GULP energy per Si atom -12402.450610 kJ/mol
# Density = 1.819655 g / cm^3
# Si number density = 18.238056 Si / 1000 Ang^3
#
#
#
# Elastic Constant Matrix: (Units=GPa)
#
#
# Indices 1 2 3 4 5 6 
#
# 1 146.4399 62.1051 73.6284 0.0000 -5.0710 0.0000
# 2 62.1051 86.8126 47.9712 0.0000 0.4645 0.0000
# 3 73.6284 47.9712 110.1752 0.0000 -3.9223 0.0000
# 4 0.0000 0.0000 0.0000 28.7439 0.0000 -3.4001
# 5 -5.0710 0.4645 -3.9223 0.0000 29.9416 0.0000
# 6 0.0000 0.0000 0.0000 -3.4001 0.0000 31.4940
#
#
#
# Elastic Compliance Matrix: (Units=1/GPa)
#
#
# Indices 1 2 3 4 5 6 
#
# 1 0.012028 -0.005528 -0.005582 0.000000 0.001392 0.000000
# 2 -0.005528 0.017746 -0.004095 0.000000 -0.001748 0.000000
# 3 -0.005582 -0.004095 0.014626 0.000000 0.001034 0.000000
# 4 0.000000 0.000000 0.000000 0.035240 0.000000 0.003805
# 5 0.001392 -0.001748 0.001034 0.000000 0.033797 0.000000
# 6 0.000000 0.000000 0.000000 0.003805 0.000000 0.032163
#
#
# Mechanical properties :
#
#
# Convention : Reuss Voigt Hill
#
# Bulk Modulus (GPa) = 71.47195 78.98192 75.22693
# Shear Modulus (GPa) = 27.67474 28.68410 28.17942
#
# Velocity S-wave (km/s) = 3.89963 3.97011 3.93503
# Velocity P-wave (km/s) = 7.71684 8.02594 7.87291
#
# Compressibility (1/GPa) = 0.01399150
#
# Stress axis : x y z
#
# Youngs Moduli (GPa) = 83.14279 56.35228 68.37042
#
# Poissons Ratio (x) = 0.31149 0.38161
# Poissons Ratio (y) = 0.45958 0.27996
# Poissons Ratio (z) = 0.46406 0.23075
#
# Static dielectric constant tensor:
#      x y z
#    x 3.468740 0.000000 -0.358820 
#    y 0.000000 3.467280 0.000000 
#    z -0.358820 0.000000 3.323960 
# 
# 
# High freq. dielectric constant tensor:
#      x y z
#    x 1.702250 0.000000 -0.028370 
#    y 0.000000 1.720660 0.000000 
#    z -0.028370 0.000000 1.695330 
# 
# From -- ./inp_files/324071.got.cif
#   From: 2010.06.25/outbox.cif.g09.slc.cpg/sg12_163_cif.got.tgz:324071.got - 2010.06.28 00:19:55.
