data_PCOD8090886
_publ_section_title
;
Structure prediction by ZEFSAII (Michael W. Deem and Ramdas Pophale) SiO2 
 PCOD8090886
Probable space group: C 2/M
;
_chemical_formula_sum "Si O2"
_cell_formula_units_Z 36
_cell_length_a 24.603819
_cell_length_b 13.176955
_cell_length_c 6.676552
_cell_angle_alpha 90.000000
_cell_angle_beta 61.391010
_cell_angle_gamma 90.000000
_cell_volume 1900.285074
_symmetry_space_group_name_H-M "C 2/M"
_symmetry_group_IT_number 12
_symmetry_cell_setting 'monoclinic'
loop_
_space_group_symop_operation_xyz
x,y,z
-x,y,-z
-x,-y,-z
x,-y,z
1/2+x,1/2+y,z
1/2-x,1/2+y,-z
1/2-x,1/2-y,-z
1/2+x,1/2-y,z
loop_
_atom_site_type_symbol
_atom_site_label
_atom_site_fract_x
_atom_site_fract_y
_atom_site_fract_z
Si Si1 0.278235 0.286683 0.653496
Si Si2 0.814556 0.383664 0.892262
Si Si3 0.593733 0.615857 0.521310
Si Si4 0.942106 0.715050 0.722918
Si Si5 0.000000 0.196132 0.000000
O O1 0.250000 0.250000 0.500000
O O2 0.292117 0.184808 0.750027
O O3 0.340385 0.350146 0.507757
O O4 0.228126 0.359697 0.843105
O O5 0.806701 0.500000 0.842632
O O6 0.885977 0.363576 0.820282
O O7 0.596175 0.500000 0.446252
O O8 0.576185 0.679659 0.354769
O O9 0.544320 0.626879 0.786588
O O10 0.000000 0.666454 0.500000
O O11 0.959265 0.733694 0.924342
#
# Coordination Sequence:
#
# PCOD8090886 Si02
#       5
#     8   8   8   8   4
#     4  10  21  38  56  79 110 141 176 220 267 316
#     4  10  21  37  57  80 107 140 178 220 265 315
#     4  10  20  33  52  78 106 137 174 216 262 313
#     4   9  20  36  52  75 108 138 173 219 263 309
#     4  10  19  34  53  74 106 142 173 214 263 312
#
# _framework density 18.944524999999999
#
# number of rings (size 3 to 8) (size 9 to 14) (size 15 to 20)
#    0.000    2.222    0.000    2.333    0.000    7.111 
#    0.000    0.556    0.000    0.000    0.000    0.000 
#    0.000    0.000    0.000    0.000    0.000    0.000 
#
# Total GULP energy -223234.729707 kJ/mol
# GULP energy per Si atom -12401.929428 kJ/mol
# Density = 1.890141 g / cm^3
# Si number density = 18.944525 Si / 1000 Ang^3
#
#
#
# Elastic Constant Matrix: (Units=GPa)
#
#
# Indices 1 2 3 4 5 6 
#
# 1 123.7824 30.9053 47.4579 0.0000 -9.4365 0.0000
# 2 30.9053 103.9111 31.8578 0.0000 -13.8949 0.0000
# 3 47.4579 31.8578 82.9698 0.0000 2.8890 0.0000
# 4 0.0000 0.0000 0.0000 13.9383 0.0000 -0.1347
# 5 -9.4365 -13.8949 2.8890 0.0000 43.7852 0.0000
# 6 0.0000 0.0000 0.0000 -0.1347 0.0000 3.5982
#
#
#
# Elastic Compliance Matrix: (Units=1/GPa)
#
#
# Indices 1 2 3 4 5 6 
#
# 1 0.010763 -0.001104 -0.005814 0.000000 0.002353 0.000000
# 2 -0.001104 0.011671 -0.003980 0.000000 0.003728 0.000000
# 3 -0.005814 -0.003980 0.017033 0.000000 -0.003640 0.000000
# 4 0.000000 0.000000 0.000000 0.071771 0.000000 0.002686
# 5 0.002353 0.003728 -0.003640 0.000000 0.024769 0.000000
# 6 0.000000 0.000000 0.000000 0.002686 0.000000 0.278014
#
#
# Mechanical properties :
#
#
# Convention : Reuss Voigt Hill
#
# Bulk Modulus (GPa) = 56.58988 59.01171 57.80080
# Shear Modulus (GPa) = 11.31975 25.62718 18.47347
#
# Velocity S-wave (km/s) = 2.44708 3.68196 3.12610
# Velocity P-wave (km/s) = 6.15796 7.02091 6.60355
#
# Compressibility (1/GPa) = 0.01767100
#
# Stress axis : x y z
#
# Youngs Moduli (GPa) = 92.91188 85.68588 58.70929
#
# Poissons Ratio (x) = 0.09459 0.34136
# Poissons Ratio (y) = 0.10256 0.23364
# Poissons Ratio (z) = 0.54022 0.34099
#
# Static dielectric constant tensor:
#      x y z
#    x 3.682750 0.000000 -0.141230 
#    y 0.000000 3.194250 0.000000 
#    z -0.141230 0.000000 3.407370 
# 
# 
# High freq. dielectric constant tensor:
#      x y z
#    x 1.757510 0.000000 -0.010560 
#    y 0.000000 1.716960 0.000000 
#    z -0.010560 0.000000 1.739410 
# 
# From -- ./inp_files/19722.got.cif
#   From: 2010.06.25/outbox.cif.g09.slc.cpg/sg12_10_cif.got.tgz:19722.got - 2010.06.28 00:19:55.
