data_PCOD8090566
_publ_section_title
;
Structure prediction by ZEFSAII (Michael W. Deem and Ramdas Pophale) SiO2 
 PCOD8090566
Probable space group: C 2/M
;
_chemical_formula_sum "Si O2"
_cell_formula_units_Z 56
_cell_length_a 15.702618
_cell_length_b 8.818397
_cell_length_c 28.148530
_cell_angle_alpha 90.000000
_cell_angle_beta 135.157585
_cell_angle_gamma 90.000000
_cell_volume 2748.556502
_symmetry_space_group_name_H-M "C 2/M"
_symmetry_group_IT_number 12
_symmetry_cell_setting 'monoclinic'
loop_
_space_group_symop_operation_xyz
x,y,z
-x,y,-z
-x,-y,-z
x,-y,z
1/2+x,1/2+y,z
1/2-x,1/2+y,-z
1/2-x,1/2-y,-z
1/2+x,1/2-y,z
loop_
_atom_site_type_symbol
_atom_site_label
_atom_site_fract_x
_atom_site_fract_y
_atom_site_fract_z
Si Si1 0.044349 0.174143 0.161985
Si Si2 0.359130 0.331972 0.568691
Si Si3 0.098681 0.178253 0.076971
Si Si4 0.773674 0.180253 0.288642
Si Si5 0.643289 0.675296 0.836234
Si Si6 0.441056 0.667159 0.431718
Si Si7 0.035491 0.320365 0.705317
O O1 0.047266 0.226084 0.108257
O O2 0.134704 0.277107 0.228496
O O3 0.910887 0.195905 0.131815
O O4 0.086108 0.000000 0.182705
O O5 0.318208 0.500000 0.568654
O O6 0.250000 0.250000 0.500000
O O7 0.465795 0.343439 0.573807
O O8 0.408763 0.240966 0.633957
O O9 0.222641 0.260096 0.113214
O O10 0.122655 0.000000 0.083427
O O11 0.000000 0.232124 0.000000
O O12 0.821090 0.238151 0.359739
O O13 0.847091 0.262933 0.276247
O O14 0.793708 0.000000 0.292280
O O15 0.647431 0.500000 0.822950
O O16 0.551376 0.762419 0.765112
O O17 0.500000 0.759103 0.500000
O O18 0.406479 0.500000 0.437553
O O19 0.031173 0.500000 0.702358
#
# Coordination Sequence:
#
# PCOD8090566 Si02
#       7
#     8   8   8   8   8   8   8
#     4  10  22  39  60  89 125 161 198 250 306 359
#     4  10  20  34  53  79 112 151 196 248 305 364
#     4  10  22  42  66  91 124 166 204 245 303 369
#     4  10  19  33  57  85 113 152 200 249 301 363
#     4  11  23  39  61  92 125 159 205 255 305 359
#     4   8  16  31  50  74 106 143 186 237 288 343
#     4  11  21  36  58  81 112 157 204 253 311 365
#
# _framework density 20.374331000000002
#
# number of rings (size 3 to 8) (size 9 to 14) (size 15 to 20)
#    0.000    2.000    1.429    3.429    0.000    3.143 
#    0.000    1.429    0.000   14.571    0.000    0.000 
#    0.000    0.000    0.000    0.000    0.000    0.000 
#
# Total GULP energy -347058.340948 kJ/mol
# GULP energy per Si atom -12394.940748 kJ/mol
# Density = 2.032796 g / cm^3
# Si number density = 20.374331 Si / 1000 Ang^3
#
#
#
# Elastic Constant Matrix: (Units=GPa)
#
#
# Indices 1 2 3 4 5 6 
#
# 1 98.2470 38.3504 64.6848 0.0000 -5.5307 0.0000
# 2 38.3504 108.5364 60.0772 0.0000 5.9941 0.0000
# 3 64.6848 60.0772 173.0377 0.0000 -5.2154 0.0000
# 4 0.0000 0.0000 0.0000 31.5985 0.0000 5.5663
# 5 -5.5307 5.9941 -5.2154 0.0000 27.7022 0.0000
# 6 0.0000 0.0000 0.0000 5.5663 0.0000 23.6194
#
#
#
# Elastic Compliance Matrix: (Units=1/GPa)
#
#
# Indices 1 2 3 4 5 6 
#
# 1 0.014234 -0.002816 -0.004263 0.000000 0.002648 0.000000
# 2 -0.002816 0.012257 -0.003319 0.000000 -0.003839 0.000000
# 3 -0.004263 -0.003319 0.008570 0.000000 0.001480 0.000000
# 4 0.000000 0.000000 0.000000 0.033018 0.000000 -0.007781
# 5 0.002648 -0.003839 0.001480 0.000000 0.037736 0.000000
# 6 0.000000 0.000000 0.000000 -0.007781 0.000000 0.044172
#
#
# Mechanical properties :
#
#
# Convention : Reuss Voigt Hill
#
# Bulk Modulus (GPa) = 70.10198 78.44954 74.27576
# Shear Modulus (GPa) = 28.48394 31.03126 29.75760
#
# Velocity S-wave (km/s) = 3.74308 3.90687 3.82585
# Velocity P-wave (km/s) = 7.29127 7.67719 7.48671
#
# Compressibility (1/GPa) = 0.01426493
#
# Stress axis : x y z
#
# Youngs Moduli (GPa) = 70.25644 81.58283 116.69000
#
# Poissons Ratio (x) = 0.22971 0.49749
# Poissons Ratio (y) = 0.19782 0.38728
# Poissons Ratio (z) = 0.29953 0.27076
#
# Static dielectric constant tensor:
#      x y z
#    x 3.906480 0.000000 0.219260 
#    y 0.000000 3.643060 0.000000 
#    z 0.219260 0.000000 4.350000 
# 
# 
# High freq. dielectric constant tensor:
#      x y z
#    x 1.784900 0.000000 -0.004250 
#    y 0.000000 1.783580 0.000000 
#    z -0.004250 0.000000 1.806460 
# 
# From -- ./inp_files/377739.got.cif
#   From: 2010.06.25/outbox.cif.g09.slc.cpg/sg12_189_cif.got.tgz:377739.got - 2010.06.28 00:19:55.
