data_PCOD8090263
_publ_section_title
;
Structure prediction by ZEFSAII (Michael W. Deem and Ramdas Pophale) SiO2 
 PCOD8090263
Probable space group: C 2/M
;
_chemical_formula_sum "Si O2"
_cell_formula_units_Z 56
_cell_length_a 5.500130
_cell_length_b 26.862273
_cell_length_c 16.326595
_cell_angle_alpha 90.000000
_cell_angle_beta 78.094191
_cell_angle_gamma 90.000000
_cell_volume 2360.298169
_symmetry_space_group_name_H-M "C 2/M"
_symmetry_group_IT_number 12
_symmetry_cell_setting 'monoclinic'
loop_
_space_group_symop_operation_xyz
x,y,z
-x,y,-z
-x,-y,-z
x,-y,z
1/2+x,1/2+y,z
1/2-x,1/2+y,-z
1/2-x,1/2-y,-z
1/2+x,1/2-y,z
loop_
_atom_site_type_symbol
_atom_site_label
_atom_site_fract_x
_atom_site_fract_y
_atom_site_fract_z
Si Si1 0.120857 0.233301 0.361131
Si Si2 0.965605 0.445261 0.237722
Si Si3 0.221054 0.942616 0.549144
Si Si4 0.232255 0.555462 0.930320
Si Si5 0.721149 0.771985 0.171905
Si Si6 0.607085 0.622236 0.838018
Si Si7 0.576854 0.623655 0.321178
O O1 0.338139 0.252530 0.407543
O O2 0.162272 0.261348 0.271130
O O3 0.140574 0.173952 0.363887
O O4 0.993884 0.500000 0.274130
O O5 0.827962 0.447414 0.160764
O O6 0.810290 0.413437 0.314111
O O7 0.235579 0.423481 0.206684
O O8 0.500000 0.930255 0.500000
O O9 0.000000 0.931170 0.500000
O O10 0.167327 0.905151 0.628558
O O11 0.205629 0.000000 0.578921
O O12 0.316533 0.500000 0.954584
O O13 0.446168 0.597904 0.923706
O O14 0.000000 0.573989 0.000000
O O15 0.496274 0.750031 0.131962
O O16 0.727060 0.830596 0.147050
O O17 0.445040 0.640931 0.772093
#
# Coordination Sequence:
#
# PCOD8090263 Si02
#       7
#     8   8   8   8   8   8   8
#     4  10  19  33  55  88 117 152 192 244 300 360
#     4  10  21  34  55  90 119 147 198 255 302 352
#     4  10  24  44  62  85 120 166 206 240 297 368
#     4   9  20  38  55  80 122 162 197 242 301 368
#     4  10  19  34  55  86 119 153 191 246 299 360
#     4  11  21  33  60  90 116 153 203 252 304 357
#     4  11  22  36  62  87 118 154 201 251 302 353
#
# _framework density 23.725814
#
# number of rings (size 3 to 8) (size 9 to 14) (size 15 to 20)
#    0.000    1.857    2.857    2.571    4.000    2.286 
#    0.000    2.143    0.000    3.429    0.000    0.000 
#    0.000    0.000    0.000    0.000    0.000    0.000 
#
# Total GULP energy -346997.924234 kJ/mol
# GULP energy per Si atom -12392.783008 kJ/mol
# Density = 2.367181 g / cm^3
# Si number density = 23.725814 Si / 1000 Ang^3
#
#
#
# Elastic Constant Matrix: (Units=GPa)
#
#
# Indices 1 2 3 4 5 6 
#
# 1 146.2638 34.7729 21.5931 0.0000 -29.8995 0.0000
# 2 34.7729 145.7644 32.1658 0.0000 -27.3196 0.0000
# 3 21.5931 32.1658 57.3930 0.0000 -28.2401 0.0000
# 4 0.0000 0.0000 0.0000 19.1993 0.0000 -9.3815
# 5 -29.8995 -27.3196 -28.2401 0.0000 30.5170 0.0000
# 6 0.0000 0.0000 0.0000 -9.3815 0.0000 27.1923
#
#
#
# Elastic Compliance Matrix: (Units=1/GPa)
#
#
# Indices 1 2 3 4 5 6 
#
# 1 0.008691 -0.000678 0.001839 0.000000 0.009610 0.000000
# 2 -0.000678 0.008401 -0.001982 0.000000 0.005022 0.000000
# 3 0.001839 -0.001982 0.032784 0.000000 0.030365 0.000000
# 4 0.000000 0.000000 0.000000 0.062646 0.000000 0.021613
# 5 0.009610 0.005022 0.030365 0.000000 0.074779 0.000000
# 6 0.000000 0.000000 0.000000 0.021613 0.000000 0.044232
#
#
# Mechanical properties :
#
#
# Convention : Reuss Voigt Hill
#
# Bulk Modulus (GPa) = 20.73273 58.49832 39.61552
# Shear Modulus (GPa) = 20.05992 32.77436 26.41714
#
# Velocity S-wave (km/s) = 2.91088 3.72072 3.34044
# Velocity P-wave (km/s) = 4.47829 6.57023 5.62241
#
# Compressibility (1/GPa) = 0.04823292
#
# Stress axis : x y z
#
# Youngs Moduli (GPa) = 115.05954 119.03699 30.50294
#
# Poissons Ratio (x) = 0.08070 -0.05608
# Poissons Ratio (y) = 0.07800 0.06045
# Poissons Ratio (z) = -0.21154 0.23592
#
# Static dielectric constant tensor:
#      x y z
#    x 4.693380 0.000000 -0.296170 
#    y 0.000000 4.373980 0.000000 
#    z -0.296170 0.000000 3.792990 
# 
# 
# High freq. dielectric constant tensor:
#      x y z
#    x 1.948510 0.000000 -0.022130 
#    y 0.000000 1.947750 0.000000 
#    z -0.022130 0.000000 1.890040 
# 
# From -- ./inp_files/253583.got.cif
#   From: 2010.06.25/outbox.cif.g09.slc.cpg/sg12_127_cif.got.tgz:253583.got - 2010.06.28 00:19:55.
