data_PCOD8090207
_publ_section_title
;
Structure prediction by ZEFSAII (Michael W. Deem and Ramdas Pophale) SiO2 
 PCOD8090207
Probable space group: C 2/M
;
_chemical_formula_sum "Si O2"
_cell_formula_units_Z 64
_cell_length_a 28.325526
_cell_length_b 8.863474
_cell_length_c 14.140932
_cell_angle_alpha 90.000000
_cell_angle_beta 86.735920
_cell_angle_gamma 90.000000
_cell_volume 3544.499080
_symmetry_space_group_name_H-M "C 2/M"
_symmetry_group_IT_number 12
_symmetry_cell_setting 'monoclinic'
loop_
_space_group_symop_operation_xyz
x,y,z
-x,y,-z
-x,-y,-z
x,-y,z
1/2+x,1/2+y,z
1/2-x,1/2+y,-z
1/2-x,1/2-y,-z
1/2+x,1/2-y,z
loop_
_atom_site_type_symbol
_atom_site_label
_atom_site_fract_x
_atom_site_fract_y
_atom_site_fract_z
Si Si1 0.053072 0.677418 0.522993
Si Si2 0.093324 0.324132 0.048565
Si Si3 0.597455 0.677364 0.342058
Si Si4 0.641036 0.179208 0.853217
Si Si5 0.525443 0.323529 0.188190
Si Si6 0.665153 0.173783 0.202592
Si Si7 0.262410 0.323669 0.098081
Si Si8 0.073426 0.178683 0.719920
O O1 0.058098 0.500000 0.539825
O O2 0.089396 0.730796 0.438730
O O3 0.067139 0.766544 0.614595
O O4 0.000000 0.722741 0.500000
O O5 0.084213 0.500000 0.048986
O O6 0.044550 0.248848 0.088951
O O7 0.136502 0.278800 0.111982
O O8 0.107309 0.266461 0.942948
O O9 0.595973 0.500000 0.363262
O O10 0.557032 0.729787 0.273246
O O11 0.648240 0.724058 0.292695
O O12 0.692641 0.247591 0.859577
O O13 0.619289 0.241861 0.758756
O O14 0.645522 0.000000 0.849576
O O15 0.529532 0.500000 0.175542
O O16 0.472007 0.271336 0.213087
O O17 0.720057 0.203798 0.176907
O O18 0.655243 0.000000 0.228880
O O19 0.271270 0.500000 0.079971
O O20 0.250000 0.250000 0.000000
O O21 0.080139 0.000000 0.719479
#
# Coordination Sequence:
#
# PCOD8090207 Si02
#       8
#     8   8   8   8   8   8   8   8
#     4  11  22  36  58  85 111 146 187 230 279 331
#     4   9  18  33  52  75 109 149 186 225 271 324
#     4  10  19  33  55  84 113 144 181 228 280 328
#     4  11  23  39  55  80 114 150 192 234 280 335
#     4   9  19  33  51  77 110 146 186 228 272 324
#     4   9  18  34  54  81 113 144 182 228 277 330
#     4  11  21  36  59  85 113 148 189 234 282 329
#     4  11  23  39  56  79 112 150 189 233 282 331
#
# _framework density 18.056148
#
# number of rings (size 3 to 8) (size 9 to 14) (size 15 to 20)
#    0.000    1.875    2.500    1.875    0.000    4.500 
#    0.000    2.500    0.000    0.750    0.000    0.000 
#    0.000    0.000    0.000    0.000    0.000    0.000 
#
# Total GULP energy -396897.136401 kJ/mol
# GULP energy per Si atom -12403.035513 kJ/mol
# Density = 1.801505 g / cm^3
# Si number density = 18.056148 Si / 1000 Ang^3
#
#
#
# Elastic Constant Matrix: (Units=GPa)
#
#
# Indices 1 2 3 4 5 6 
#
# 1 103.9236 45.0294 50.9265 0.0000 3.4652 0.0000
# 2 45.0294 67.6183 35.3340 0.0000 -4.8754 0.0000
# 3 50.9265 35.3340 84.7526 0.0000 -4.7321 0.0000
# 4 0.0000 0.0000 0.0000 32.3773 0.0000 -3.9139
# 5 3.4652 -4.8754 -4.7321 0.0000 23.1543 0.0000
# 6 0.0000 0.0000 0.0000 -3.9139 0.0000 28.7484
#
#
#
# Elastic Compliance Matrix: (Units=1/GPa)
#
#
# Indices 1 2 3 4 5 6 
#
# 1 0.016649 -0.007798 -0.007065 0.000000 -0.005577 0.000000
# 2 -0.007798 0.022693 -0.004495 0.000000 0.005027 0.000000
# 3 -0.007065 -0.004495 0.018131 0.000000 0.003816 0.000000
# 4 0.000000 0.000000 0.000000 0.031403 0.000000 0.004275
# 5 -0.005577 0.005027 0.003816 0.000000 0.045862 0.000000
# 6 0.000000 0.000000 0.000000 0.004275 0.000000 0.035367
#
#
# Mechanical properties :
#
#
# Convention : Reuss Voigt Hill
#
# Bulk Modulus (GPa) = 53.30804 57.65272 55.48038
# Shear Modulus (GPa) = 23.24817 25.18961 24.21889
#
# Velocity S-wave (km/s) = 3.59214 3.73912 3.66636
# Velocity P-wave (km/s) = 6.84048 7.11620 6.97970
#
# Compressibility (1/GPa) = 0.01875890
#
# Stress axis : x y z
#
# Youngs Moduli (GPa) = 60.06342 44.06690 55.15415
#
# Poissons Ratio (x) = 0.34362 0.38964
# Poissons Ratio (y) = 0.46836 0.24790
# Poissons Ratio (z) = 0.42433 0.19806
#
# Static dielectric constant tensor:
#      x y z
#    x 3.215180 0.000000 -0.161100 
#    y 0.000000 3.340380 0.000000 
#    z -0.161100 0.000000 3.312100 
# 
# 
# High freq. dielectric constant tensor:
#      x y z
#    x 1.686060 0.000000 -0.013480 
#    y 0.000000 1.707250 0.000000 
#    z -0.013480 0.000000 1.691990 
# 
# From -- ./inp_files/243927.got.cif
#   From: 2010.06.25/outbox.cif.g09.slc.cpg/sg12_122_cif.got.tgz:243927.got - 2010.06.28 00:19:55.
