data_PCOD8090584
_publ_section_title
;
Structure prediction by ZEFSAII (Michael W. Deem and Ramdas Pophale) SiO2 
 PCOD8090584
Probable space group: C 2/M
;
_chemical_formula_sum "Si O2"
_cell_formula_units_Z 64
_cell_length_a 29.533667
_cell_length_b 9.091364
_cell_length_c 23.276880
_cell_angle_alpha 90.000000
_cell_angle_beta 30.481232
_cell_angle_gamma 90.000000
_cell_volume 3170.286155
_symmetry_space_group_name_H-M "C 2/M"
_symmetry_group_IT_number 12
_symmetry_cell_setting 'monoclinic'
loop_
_space_group_symop_operation_xyz
x,y,z
-x,y,-z
-x,-y,-z
x,-y,z
1/2+x,1/2+y,z
1/2-x,1/2+y,-z
1/2-x,1/2-y,-z
1/2+x,1/2-y,z
loop_
_atom_site_type_symbol
_atom_site_label
_atom_site_fract_x
_atom_site_fract_y
_atom_site_fract_z
Si Si1 0.699724 0.330489 0.734958
Si Si2 0.539581 0.842660 0.395796
Si Si3 0.611666 0.826517 0.518813
Si Si4 0.199013 0.839131 0.203836
Si Si5 0.872735 0.326606 0.073432
Si Si6 0.338159 0.666077 0.887411
Si Si7 0.532732 0.669339 0.838281
Si Si8 0.013494 0.674117 0.739312
O O1 0.708963 0.500000 0.745438
O O2 0.792603 0.266092 0.607307
O O3 0.668002 0.230768 0.822449
O O4 0.629384 0.318972 0.760630
O O5 0.500000 0.873851 0.500000
O O6 0.469044 0.757847 0.431453
O O7 0.630762 0.761661 0.312290
O O8 0.563194 0.000000 0.340504
O O9 0.591663 0.789127 0.607589
O O10 0.612425 0.000000 0.508087
O O11 0.301664 0.789133 0.100184
O O12 0.162730 0.838812 0.179582
O O13 0.192114 0.000000 0.239130
O O14 0.893664 0.500000 0.055445
O O15 0.962647 0.241959 0.958886
O O16 0.340088 0.500000 0.910683
O O17 0.421173 0.757966 0.819020
O O18 0.250000 0.750000 0.000000
O O19 0.505399 0.500000 0.857371
O O20 0.539587 0.755443 0.771124
O O21 0.000419 0.500000 0.761445
#
# Coordination Sequence:
#
# PCOD8090584 Si02
#       8
#     8   8   8   8   8   8   8   8
#     4  10  22  42  65  89 120 159 205 257 311 370
#     4  10  19  33  57  86 115 153 198 236 281 349
#     4   9  19  37  60  88 122 161 203 250 304 363
#     4  10  22  37  54  82 118 153 189 233 289 347
#     4  11  23  40  62  91 125 159 201 253 311 374
#     4  11  22  37  58  85 119 160 203 245 296 356
#     4  11  24  41  63  90 119 158 207 259 315 371
#     4  11  22  39  62  88 123 163 205 255 309 365
#
# _framework density 20.187453000000001
#
# number of rings (size 3 to 8) (size 9 to 14) (size 15 to 20)
#    0.000    1.625    1.250    3.375    0.000    6.750 
#    0.000    1.875    0.000    0.000    0.000    0.000 
#    0.000    0.000    0.000    0.000    0.000    0.000 
#
# Total GULP energy -396660.957579 kJ/mol
# GULP energy per Si atom -12395.654924 kJ/mol
# Density = 2.014151 g / cm^3
# Si number density = 20.187453 Si / 1000 Ang^3
#
#
#
# Elastic Constant Matrix: (Units=GPa)
#
#
# Indices 1 2 3 4 5 6 
#
# 1 83.1668 33.4936 24.6135 -0.0018 -0.2462 -0.0010
# 2 33.4936 100.6469 44.6743 0.0111 0.1454 -0.0102
# 3 24.6135 44.6743 119.4056 -0.0022 -2.2087 -0.0054
# 4 -0.0018 0.0111 -0.0022 21.5393 -0.0039 2.4736
# 5 -0.2462 0.1454 -2.2087 -0.0039 35.9005 0.0025
# 6 -0.0010 -0.0102 -0.0054 2.4736 0.0025 32.5574
#
#
#
# Elastic Compliance Matrix: (Units=1/GPa)
#
#
# Indices 1 2 3 4 5 6 
#
# 1 0.014071 -0.004072 -0.001377 0.000003 0.000028 -0.000001
# 2 -0.004072 0.013096 -0.004067 -0.000008 -0.000331 0.000004
# 3 -0.001377 -0.004067 0.010192 0.000003 0.000634 0.000000
# 4 0.000003 -0.000008 0.000003 0.046835 0.000006 -0.003558
# 5 0.000028 -0.000331 0.000634 0.000006 0.027895 -0.000003
# 6 -0.000001 0.000004 0.000000 -0.003558 -0.000003 0.030985
#
#
# Mechanical properties :
#
#
# Convention : Reuss Voigt Hill
#
# Bulk Modulus (GPa) = 54.55712 56.53135 55.54423
# Shear Modulus (GPa) = 29.72382 31.36196 30.54289
#
# Velocity S-wave (km/s) = 3.84134 3.94577 3.89390
# Velocity P-wave (km/s) = 6.83801 6.98733 6.91308
#
# Compressibility (1/GPa) = 0.01832941
#
# Stress axis : x y z
#
# Youngs Moduli (GPa) = 71.06652 76.35778 98.11804
#
# Poissons Ratio (x) = 0.31090 0.13508
# Poissons Ratio (y) = 0.28936 0.39901
# Poissons Ratio (z) = 0.09784 0.31052
#
# Static dielectric constant tensor:
#      x y z
#    x 3.776480 -0.000010 -0.126150 
#    y -0.000010 3.847280 0.000030 
#    z -0.126150 0.000030 3.648790 
# 
# 
# High freq. dielectric constant tensor:
#      x y z
#    x 1.795230 0.000000 -0.003740 
#    y 0.000000 1.781170 0.000000 
#    z -0.003740 0.000000 1.794240 
# 
# From -- ./inp_files/353277.got.cif
#   From: 2010.06.25/outbox.cif.g09.slc.cpg/sg12_177_cif.got.tgz:353277.got - 2010.06.28 00:19:55.
