data_PCOD8090842
_publ_section_title
;
Structure prediction by ZEFSAII (Michael W. Deem and Ramdas Pophale) SiO2 
 PCOD8090842
Probable space group: C 2/M
;
_chemical_formula_sum "Si O2"
_cell_formula_units_Z 48
_cell_length_a 18.690215
_cell_length_b 14.229373
_cell_length_c 19.998676
_cell_angle_alpha 90.000000
_cell_angle_beta 149.375483
_cell_angle_gamma 90.000000
_cell_volume 2709.371145
_symmetry_space_group_name_H-M "C 2/M"
_symmetry_group_IT_number 12
_symmetry_cell_setting 'monoclinic'
loop_
_space_group_symop_operation_xyz
x,y,z
-x,y,-z
-x,-y,-z
x,-y,z
1/2+x,1/2+y,z
1/2-x,1/2+y,-z
1/2-x,1/2-y,-z
1/2+x,1/2-y,z
loop_
_atom_site_type_symbol
_atom_site_label
_atom_site_fract_x
_atom_site_fract_y
_atom_site_fract_z
Si Si1 0.083518 0.102589 0.298711
Si Si2 0.113518 0.607757 0.405521
Si Si3 0.133538 0.292459 0.284684
Si Si4 0.953427 0.752813 0.536032
Si Si5 0.553981 0.896010 0.969274
Si Si6 0.364773 0.391885 0.236672
O O1 0.218401 0.111588 0.455133
O O2 0.090312 0.182644 0.248353
O O3 0.948422 0.117016 0.235324
O O4 0.081248 0.000000 0.261668
O O5 0.058418 0.500000 0.361751
O O6 0.075498 0.658517 0.305469
O O7 0.044239 0.663613 0.411870
O O8 0.300866 0.302147 0.411519
O O9 0.056356 0.334874 0.159690
O O10 0.000000 0.717480 0.500000
O O11 0.065289 0.830607 0.648948
O O12 0.710060 0.852141 0.095420
O O13 0.559089 0.000000 0.941147
O O14 0.500000 0.901475 0.000000
O O15 0.357382 0.500000 0.255969
#
# Coordination Sequence:
#
# PCOD8090842 Si02
#       6
#     8   8   8   8   8   8
#     4   9  17  32  54  79 104 131 173 220 262 304
#     4  10  19  34  55  80 109 139 176 220 261 308
#     4  11  19  35  58  79 101 141 180 219 256 308
#     4  11  21  34  54  82 109 138 178 217 262 314
#     4  10  22  36  50  75 110 141 167 209 274 325
#     4  10  19  34  52  75 107 136 170 217 264 310
#
# _framework density 17.716289
#
# number of rings (size 3 to 8) (size 9 to 14) (size 15 to 20)
#    0.000    1.833    3.333    2.500    0.000    2.000 
#    0.000    0.000    0.000    0.500    0.000    0.000 
#    0.000    0.000    0.000    0.000    0.000    0.000 
#
# Total GULP energy -297581.571806 kJ/mol
# GULP energy per Si atom -12399.232159 kJ/mol
# Density = 1.767597 g / cm^3
# Si number density = 17.716289 Si / 1000 Ang^3
#
#
#
# Elastic Constant Matrix: (Units=GPa)
#
#
# Indices 1 2 3 4 5 6 
#
# 1 73.4162 31.0075 25.3056 0.0004 -7.7324 0.0001
# 2 31.0075 108.9256 51.4137 0.0003 -7.7668 0.0001
# 3 25.3056 51.4137 85.1524 0.0009 -2.0131 0.0001
# 4 0.0004 0.0003 0.0009 -12.8338 0.0004 3.6600
# 5 -7.7324 -7.7668 -2.0131 0.0004 23.5972 0.0000
# 6 0.0001 0.0001 0.0001 3.6600 0.0000 20.8924
#
#
#
# Elastic Compliance Matrix: (Units=1/GPa)
#
#
# Indices 1 2 3 4 5 6 
#
# 1 0.016326 -0.002950 -0.002973 0.000000 0.004125 0.000000
# 2 -0.002950 0.013681 -0.007315 0.000000 0.002912 0.000000
# 3 -0.002973 -0.007315 0.016998 0.000001 -0.001932 0.000000
# 4 0.000000 0.000000 0.000001 -0.074211 0.000001 0.013001
# 5 0.004125 0.002912 -0.001932 0.000001 0.044523 0.000000
# 6 0.000000 0.000000 0.000000 0.013001 0.000000 0.045587
#
#
# Mechanical properties :
#
#
# Convention : Reuss Voigt Hill
#
# Bulk Modulus (GPa) = 48.71094 53.66085 51.18589
# Shear Modulus (GPa) = 51.96315 16.98231 34.47273
#
# Velocity S-wave (km/s) = 5.42166 3.09944 4.41593
# Velocity P-wave (km/s) = 8.16990 6.56989 7.41319
#
# Compressibility (1/GPa) = 0.02052927
#
# Stress axis : x y z
#
# Youngs Moduli (GPa) = 61.25129 73.09657 58.83066
#
# Poissons Ratio (x) = 0.21564 0.17491
# Poissons Ratio (y) = 0.18069 0.43032
# Poissons Ratio (z) = 0.18211 0.53467
#
# Static dielectric constant tensor:
#      x y z
#    x 3.149170 0.000000 0.165620 
#    y 0.000000 3.562650 0.000000 
#    z 0.165620 0.000000 3.155770 
# 
# 
# High freq. dielectric constant tensor:
#      x y z
#    x 1.677210 0.000000 0.011580 
#    y 0.000000 1.688120 0.000000 
#    z 0.011580 0.000000 1.669330 
# 
# From -- ./inp_files/73588.got.cif
#   From: 2010.06.25/outbox.cif.g09.slc.cpg/sg12_37_cif.got.tgz:73588.got - 2010.06.28 00:19:55.
