data_PCOD8090672
_publ_section_title
;
Structure prediction by ZEFSAII (Michael W. Deem and Ramdas Pophale) SiO2 
 PCOD8090672
Probable space group: C 2/M
;
_chemical_formula_sum "Si O2"
_cell_formula_units_Z 48
_cell_length_a 9.480042
_cell_length_b 17.743538
_cell_length_c 16.980921
_cell_angle_alpha 90.000000
_cell_angle_beta 54.227631
_cell_angle_gamma 90.000000
_cell_volume 2317.489247
_symmetry_space_group_name_H-M "C 2/M"
_symmetry_group_IT_number 12
_symmetry_cell_setting 'monoclinic'
loop_
_space_group_symop_operation_xyz
x,y,z
-x,y,-z
-x,-y,-z
x,-y,z
1/2+x,1/2+y,z
1/2-x,1/2+y,-z
1/2-x,1/2-y,-z
1/2+x,1/2-y,z
loop_
_atom_site_type_symbol
_atom_site_label
_atom_site_fract_x
_atom_site_fract_y
_atom_site_fract_z
Si Si1 0.731004 0.412248 0.599151
Si Si2 0.459713 0.089197 0.384224
Si Si3 0.115625 0.700274 0.884176
Si Si4 0.911268 0.089657 0.796008
Si Si5 0.583655 0.413559 0.896879
Si Si6 0.097482 0.672170 0.201021
O O1 0.718434 0.500000 0.589464
O O2 0.857077 0.397967 0.631945
O O3 0.538201 0.381236 0.683594
O O4 0.806359 0.380670 0.492335
O O5 0.453173 0.148752 0.313484
O O6 0.436909 0.000000 0.368709
O O7 0.217343 0.621076 0.852702
O O8 0.259052 0.764891 0.822982
O O9 0.987850 0.697481 0.851876
O O10 0.000000 0.711805 0.000000
O O11 0.999396 0.122743 0.846545
O O12 0.899415 0.000000 0.799593
O O13 0.532102 0.500000 0.912491
O O14 0.790848 0.405063 0.838240
O O15 0.500000 0.372314 0.000000
#
# Coordination Sequence:
#
# PCOD8090672 Si02
#       6
#     8   8   8   8   8   8
#     4   8  15  32  62  95 122 152 190 238 296 352
#     4   9  17  33  64  97 119 151 197 242 290 353
#     4  12  27  43  60  82 117 163 206 250 302 356
#     4  10  20  38  62  88 120 155 194 245 301 356
#     4  10  19  33  58  88 116 149 194 244 292 350
#     4  12  23  39  60  83 117 157 202 248 295 353
#
# _framework density 20.712070000000001
#
# number of rings (size 3 to 8) (size 9 to 14) (size 15 to 20)
#    0.000    1.833    1.667    4.500    0.000    1.667 
#    0.000    1.667    0.000    3.000    0.000    0.000 
#    0.000    0.000    0.000    0.000    0.000    0.000 
#
# Total GULP energy -297319.024262 kJ/mol
# GULP energy per Si atom -12388.292678 kJ/mol
# Density = 2.066493 g / cm^3
# Si number density = 20.712070 Si / 1000 Ang^3
#
#
#
# Elastic Constant Matrix: (Units=GPa)
#
#
# Indices 1 2 3 4 5 6 
#
# 1 95.1746 26.1890 33.7108 0.0000 6.1250 0.0000
# 2 26.1890 51.8648 44.2145 0.0000 0.3038 0.0000
# 3 33.7108 44.2145 141.4535 0.0000 7.4089 0.0000
# 4 0.0000 0.0000 0.0000 12.0503 0.0000 -7.6788
# 5 6.1250 0.3038 7.4089 0.0000 30.4035 0.0000
# 6 0.0000 0.0000 0.0000 -7.6788 0.0000 23.9323
#
#
#
# Elastic Compliance Matrix: (Units=1/GPa)
#
#
# Indices 1 2 3 4 5 6 
#
# 1 0.012531 -0.005270 -0.001225 0.000000 -0.002173 0.000000
# 2 -0.005270 0.028595 -0.007823 0.000000 0.002682 0.000000
# 3 -0.001225 -0.007823 0.009916 0.000000 -0.002091 0.000000
# 4 0.000000 0.000000 0.000000 0.104314 0.000000 0.033469
# 5 -0.002173 0.002682 -0.002091 0.000000 0.033812 0.000000
# 6 0.000000 0.000000 0.000000 0.033469 0.000000 0.052523
#
#
# Mechanical properties :
#
#
# Convention : Reuss Voigt Hill
#
# Bulk Modulus (GPa) = 44.63057 55.19129 49.91093
# Shear Modulus (GPa) = 17.99885 25.56913 21.78399
#
# Velocity S-wave (km/s) = 2.95108 3.51736 3.24659
# Velocity P-wave (km/s) = 5.76253 6.57271 6.18091
#
# Compressibility (1/GPa) = 0.02240617
#
# Stress axis : x y z
#
# Youngs Moduli (GPa) = 79.80183 34.97103 100.84618
#
# Poissons Ratio (x) = 0.18431 0.12355
# Poissons Ratio (y) = 0.42058 0.78887
# Poissons Ratio (z) = 0.09777 0.27356
#
# Static dielectric constant tensor:
#      x y z
#    x 3.676710 0.000000 -0.115850 
#    y 0.000000 3.552270 0.000000 
#    z -0.115850 0.000000 4.616430 
# 
# 
# High freq. dielectric constant tensor:
#      x y z
#    x 1.782900 0.000000 -0.004650 
#    y 0.000000 1.791800 0.000000 
#    z -0.004650 0.000000 1.832580 
# 
# From -- ./inp_files/257531.got.cif
#   From: 2010.06.25/outbox.cif.g09.slc.cpg/sg12_129_cif.got.tgz:257531.got - 2010.06.28 00:19:55.
