data_PCOD8090756
_publ_section_title
;
Structure prediction by ZEFSAII (Michael W. Deem and Ramdas Pophale) SiO2 
 PCOD8090756
Probable space group: C 2/M
;
_chemical_formula_sum "Si O2"
_cell_formula_units_Z 56
_cell_length_a 13.548750
_cell_length_b 19.629336
_cell_length_c 11.337935
_cell_angle_alpha 90.000000
_cell_angle_beta 72.030060
_cell_angle_gamma 90.000000
_cell_volume 2868.263814
_symmetry_space_group_name_H-M "C 2/M"
_symmetry_group_IT_number 12
_symmetry_cell_setting 'monoclinic'
loop_
_space_group_symop_operation_xyz
x,y,z
-x,y,-z
-x,-y,-z
x,-y,z
1/2+x,1/2+y,z
1/2-x,1/2+y,-z
1/2-x,1/2-y,-z
1/2+x,1/2-y,z
loop_
_atom_site_type_symbol
_atom_site_label
_atom_site_fract_x
_atom_site_fract_y
_atom_site_fract_z
Si Si1 0.714434 0.578012 0.711489
Si Si2 0.835282 0.423562 0.432846
Si Si3 0.526478 0.814237 0.747815
Si Si4 0.709421 0.841453 0.107545
Si Si5 0.345089 0.638831 0.623853
Si Si6 0.553180 0.664573 0.646711
Si Si7 0.299224 0.799401 0.139814
O O1 0.679747 0.500000 0.718744
O O2 0.803047 0.592492 0.580196
O O3 0.752852 0.594343 0.829674
O O4 0.613713 0.624170 0.725384
O O5 0.881708 0.500000 0.406162
O O6 0.921115 0.368717 0.360984
O O7 0.732872 0.422185 0.385092
O O8 0.409445 0.832806 0.815448
O O9 0.522048 0.739307 0.696560
O O10 0.586913 0.812503 0.849606
O O11 0.785432 0.778226 0.105416
O O12 0.717168 0.852235 0.963141
O O13 0.451807 0.618204 0.651074
O O14 0.374272 0.677413 0.492940
O O15 0.285138 0.691386 0.727812
#
# Coordination Sequence:
#
# PCOD8090756 Si02
#       7
#     8   8   8   8   8   8   8
#     4  10  22  39  57  84 122 156 189 233 287 347
#     4   9  21  37  57  85 120 156 189 233 287 341
#     4  11  21  35  61  86 115 144 191 244 284 339
#     4  11  22  36  57  82 115 151 191 232 286 339
#     4   9  19  34  58  85 115 146 188 238 287 334
#     4  10  19  33  60  92 113 143 193 238 297 337
#     4  10  21  37  55  84 112 148 187 237 285 331
#
# _framework density 19.524006
#
# number of rings (size 3 to 8) (size 9 to 14) (size 15 to 20)
#    0.000    2.000    2.857    0.429    2.000    3.429 
#    0.000    7.857    0.000    5.143    0.000    0.000 
#    0.000    0.000    0.000    0.000    0.000    0.000 
#
# Total GULP energy -346979.846583 kJ/mol
# GULP energy per Si atom -12392.137378 kJ/mol
# Density = 1.947957 g / cm^3
# Si number density = 19.524006 Si / 1000 Ang^3
#
#
#
# Elastic Constant Matrix: (Units=GPa)
#
#
# Indices 1 2 3 4 5 6 
#
# 1 86.2603 21.8746 22.0323 0.0000 8.0715 0.0000
# 2 21.8746 55.8283 12.7876 0.0000 -0.3081 0.0000
# 3 22.0323 12.7876 64.4287 0.0000 14.1348 0.0000
# 4 0.0000 0.0000 0.0000 22.1583 0.0000 4.5114
# 5 8.0715 -0.3081 14.1348 0.0000 28.2337 0.0000
# 6 0.0000 0.0000 0.0000 4.5114 0.0000 14.1060
#
#
#
# Elastic Compliance Matrix: (Units=1/GPa)
#
#
# Indices 1 2 3 4 5 6 
#
# 1 0.013841 -0.004684 -0.003285 0.000000 -0.002363 0.000000
# 2 -0.004684 0.020487 -0.003154 0.000000 0.003141 0.000000
# 3 -0.003285 -0.003154 0.019178 0.000000 -0.008697 0.000000
# 4 0.000000 0.000000 0.000000 0.048273 0.000000 -0.015439
# 5 -0.002363 0.003141 -0.008697 0.000000 0.040482 0.000000
# 6 0.000000 0.000000 0.000000 -0.015439 0.000000 0.075830
#
#
# Mechanical properties :
#
#
# Convention : Reuss Voigt Hill
#
# Bulk Modulus (GPa) = 31.98854 35.54516 33.76685
# Shear Modulus (GPa) = 19.93970 22.88780 21.41375
#
# Velocity S-wave (km/s) = 3.19923 3.42759 3.31538
# Velocity P-wave (km/s) = 5.48330 5.82322 5.65581
#
# Compressibility (1/GPa) = 0.03126120
#
# Stress axis : x y z
#
# Youngs Moduli (GPa) = 72.25060 48.81167 52.14249
#
# Poissons Ratio (x) = 0.22862 0.17128
# Poissons Ratio (y) = 0.33840 0.16444
# Poissons Ratio (z) = 0.23734 0.15394
#
# Static dielectric constant tensor:
#      x y z
#    x 3.798370 0.000000 0.190580 
#    y 0.000000 3.250300 0.000000 
#    z 0.190580 0.000000 3.753980 
# 
# 
# High freq. dielectric constant tensor:
#      x y z
#    x 1.772020 0.000000 0.009120 
#    y 0.000000 1.729110 0.000000 
#    z 0.009120 0.000000 1.760210 
# 
# From -- ./inp_files/147062.got.cif
#   From: 2010.06.25/outbox.cif.g09.slc.cpg/sg12_74_cif.got.tgz:147062.got - 2010.06.28 00:19:55.
