data_PCOD8090507
_publ_section_title
;
Structure prediction by ZEFSAII (Michael W. Deem and Ramdas Pophale) SiO2 
 PCOD8090507
Probable space group: C 2/M
;
_chemical_formula_sum "Si O2"
_cell_formula_units_Z 48
_cell_length_a 37.327186
_cell_length_b 9.532857
_cell_length_c 25.575953
_cell_angle_alpha 90.000000
_cell_angle_beta 163.325449
_cell_angle_gamma 90.000000
_cell_volume 2611.342074
_symmetry_space_group_name_H-M "C 2/M"
_symmetry_group_IT_number 12
_symmetry_cell_setting 'monoclinic'
loop_
_space_group_symop_operation_xyz
x,y,z
-x,y,-z
-x,-y,-z
x,-y,z
1/2+x,1/2+y,z
1/2-x,1/2+y,-z
1/2-x,1/2-y,-z
1/2+x,1/2-y,z
loop_
_atom_site_type_symbol
_atom_site_label
_atom_site_fract_x
_atom_site_fract_y
_atom_site_fract_z
Si Si1 0.582678 0.834804 0.410630
Si Si2 0.721189 0.166486 0.707591
Si Si3 0.703567 0.164998 0.984987
Si Si4 0.976416 0.158200 0.021921
Si Si5 0.254022 0.658379 0.556411
Si Si6 0.352437 0.342439 0.296747
O O1 0.632231 0.779676 0.535980
O O2 0.439093 0.790303 0.201822
O O3 0.668305 0.775282 0.482833
O O4 0.600414 0.000000 0.434960
O O5 0.684459 0.235617 0.710243
O O6 0.712019 0.000000 0.702554
O O7 0.860931 0.224263 0.891783
O O8 0.712144 0.000000 0.984171
O O9 0.750000 0.250000 0.000000
O O10 0.789880 0.206329 0.154803
O O11 0.100839 0.160662 0.228437
O O12 0.931766 0.000000 0.946095
O O13 0.000000 0.238340 0.000000
O O14 0.209009 0.500000 0.481497
O O15 0.250000 0.750000 0.500000
O O16 0.500000 0.338610 0.500000
O O17 0.306081 0.500000 0.245188
#
# Coordination Sequence:
#
# PCOD8090507 Si02
#       6
#     8   8   8   8   8   8
#     4   9  18  34  55  77 102 137 176 213 257 306
#     4  10  19  33  57  82 102 132 178 221 253 298
#     4  10  21  37  56  77 103 136 173 212 258 311
#     4   9  16  31  54  78 104 137 175 213 254 300
#     4  10  20  34  53  77 108 141 173 212 257 307
#     4  10  22  38  54  76 108 141 169 208 267 320
#
# _framework density 18.381353000000001
#
# number of rings (size 3 to 8) (size 9 to 14) (size 15 to 20)
#    0.000    2.333    1.667    1.000    2.333    1.000 
#    0.000    1.667    0.000    1.000    0.000    0.000 
#    0.000    0.000    0.000    0.000    0.000    0.000 
#
# Total GULP energy -297490.047438 kJ/mol
# GULP energy per Si atom -12395.418643 kJ/mol
# Density = 1.833952 g / cm^3
# Si number density = 18.381353 Si / 1000 Ang^3
#
#
#
# Elastic Constant Matrix: (Units=GPa)
#
#
# Indices 1 2 3 4 5 6 
#
# 1 157.1608 57.4603 65.6145 0.0000 -13.0215 0.0000
# 2 57.4603 47.8690 30.7206 0.0000 -6.0919 0.0000
# 3 65.6145 30.7206 129.2178 0.0000 -2.0805 0.0000
# 4 0.0000 0.0000 0.0000 9.2534 0.0000 -3.1789
# 5 -13.0215 -6.0919 -2.0805 0.0000 31.5883 0.0000
# 6 0.0000 0.0000 0.0000 -3.1789 0.0000 26.0510
#
#
#
# Elastic Compliance Matrix: (Units=1/GPa)
#
#
# Indices 1 2 3 4 5 6 
#
# 1 0.012594 -0.012647 -0.003348 0.000000 0.002532 0.000000
# 2 -0.012647 0.037970 -0.002574 0.000000 0.001940 0.000000
# 3 -0.003348 -0.002574 0.010031 0.000000 -0.001216 0.000000
# 4 0.000000 0.000000 0.000000 0.112797 0.000000 0.013764
# 5 0.002532 0.001940 -0.001216 0.000000 0.032995 0.000000
# 6 0.000000 0.000000 0.000000 0.013764 0.000000 0.040066
#
#
# Mechanical properties :
#
#
# Convention : Reuss Voigt Hill
#
# Bulk Modulus (GPa) = 42.62893 71.31538 56.97215
# Shear Modulus (GPa) = 17.15789 25.40867 21.28328
#
# Velocity S-wave (km/s) = 3.05854 3.72197 3.40645
# Velocity P-wave (km/s) = 5.97617 7.57315 6.82156
#
# Compressibility (1/GPa) = 0.02345825
#
# Stress axis : x y z
#
# Youngs Moduli (GPa) = 79.40075 26.33640 99.68992
#
# Poissons Ratio (x) = 0.33308 0.33373
# Poissons Ratio (y) = 1.00419 0.25659
# Poissons Ratio (z) = 0.26581 0.06779
#
# Static dielectric constant tensor:
#      x y z
#    x 3.449840 0.000000 0.170420 
#    y 0.000000 3.103670 0.000000 
#    z 0.170420 0.000000 3.839140 
# 
# 
# High freq. dielectric constant tensor:
#      x y z
#    x 1.723350 0.000000 0.003280 
#    y 0.000000 1.668370 0.000000 
#    z 0.003280 0.000000 1.731960 
# 
# From -- ./inp_files/164121.got.cif
#   From: 2010.06.25/outbox.cif.g09.slc.cpg/sg12_83_cif.got.tgz:164121.got - 2010.06.28 00:19:55.
