data_PCOD8090620
_publ_section_title
;
Structure prediction by ZEFSAII (Michael W. Deem and Ramdas Pophale) SiO2 
 PCOD8090620
Probable space group: C 2/M
;
_chemical_formula_sum "Si O2"
_cell_formula_units_Z 48
_cell_length_a 20.333280
_cell_length_b 8.582075
_cell_length_c 14.970643
_cell_angle_alpha 90.000000
_cell_angle_beta 112.399738
_cell_angle_gamma 90.000000
_cell_volume 2415.291534
_symmetry_space_group_name_H-M "C 2/M"
_symmetry_group_IT_number 12
_symmetry_cell_setting 'monoclinic'
loop_
_space_group_symop_operation_xyz
x,y,z
-x,y,-z
-x,-y,-z
x,-y,z
1/2+x,1/2+y,z
1/2-x,1/2+y,-z
1/2-x,1/2-y,-z
1/2+x,1/2-y,z
loop_
_atom_site_type_symbol
_atom_site_label
_atom_site_fract_x
_atom_site_fract_y
_atom_site_fract_z
Si Si1 0.837314 0.679017 0.613708
Si Si2 0.057886 0.320003 0.179070
Si Si3 0.339588 0.319524 0.910234
Si Si4 0.806138 0.321010 0.403016
Si Si5 0.104003 0.318174 0.885033
Si Si6 0.307012 0.679826 0.222541
O O1 0.811309 0.500000 0.609030
O O2 0.909909 0.706795 0.705491
O O3 0.850158 0.720007 0.516017
O O4 0.777138 0.788811 0.623758
O O5 0.064516 0.500000 0.153284
O O6 0.098361 0.217492 0.127461
O O7 0.976612 0.265147 0.138486
O O8 0.342862 0.500000 0.937576
O O9 0.263434 0.281210 0.829175
O O10 0.348416 0.219157 0.004359
O O11 0.815817 0.500000 0.381207
O O12 0.835637 0.216982 0.336947
O O13 0.108988 0.500000 0.865236
O O14 0.131666 0.222123 0.815061
O O15 0.286624 0.500000 0.203605
#
# Coordination Sequence:
#
# PCOD8090620 Si02
#       6
#     8   8   8   8   8   8
#     4   9  18  34  58  87 118 150 189 235 285 341
#     4  10  21  39  62  88 118 155 193 235 286 343
#     4  12  24  39  61  88 116 151 196 242 289 343
#     4  10  19  33  57  89 117 148 191 239 288 339
#     4  11  24  41  60  84 118 156 195 238 289 346
#     4  12  24  40  60  84 117 155 196 242 293 344
#
# _framework density 19.873377000000001
#
# number of rings (size 3 to 8) (size 9 to 14) (size 15 to 20)
#    0.000    1.333    1.667    5.000    0.000    4.000 
#    0.000    0.833    0.000    5.000    0.000    0.000 
#    0.000    0.000    0.000    0.000    0.000    0.000 
#
# Total GULP energy -297726.729752 kJ/mol
# GULP energy per Si atom -12405.280406 kJ/mol
# Density = 1.982814 g / cm^3
# Si number density = 19.873377 Si / 1000 Ang^3
#
#
#
# Elastic Constant Matrix: (Units=GPa)
#
#
# Indices 1 2 3 4 5 6 
#
# 1 69.9307 25.3711 17.2339 0.0000 -18.1359 0.0000
# 2 25.3711 62.0989 22.8783 0.0000 -0.9967 0.0000
# 3 17.2339 22.8783 102.2344 0.0000 -21.5064 0.0000
# 4 0.0000 0.0000 0.0000 30.5881 0.0000 -5.8142
# 5 -18.1359 -0.9967 -21.5064 0.0000 25.8339 0.0000
# 6 0.0000 0.0000 0.0000 -5.8142 0.0000 29.9880
#
#
#
# Elastic Compliance Matrix: (Units=1/GPa)
#
#
# Indices 1 2 3 4 5 6 
#
# 1 0.021360 -0.009149 0.001851 0.000000 0.016183 0.000000
# 2 -0.009149 0.021682 -0.005437 0.000000 -0.010113 0.000000
# 3 0.001851 -0.005437 0.013233 0.000000 0.012106 0.000000
# 4 0.000000 0.000000 0.000000 0.033943 0.000000 0.006581
# 5 0.016183 -0.010113 0.012106 0.000000 0.059757 0.000000
# 6 0.000000 0.000000 0.000000 0.006581 0.000000 0.034623
#
#
# Mechanical properties :
#
#
# Convention : Reuss Voigt Hill
#
# Bulk Modulus (GPa) = 32.46276 40.58119 36.52198
# Shear Modulus (GPa) = 22.69258 28.53406 25.61332
#
# Velocity S-wave (km/s) = 3.38281 3.79330 3.59392
# Velocity P-wave (km/s) = 5.62389 6.29680 5.96983
#
# Compressibility (1/GPa) = 0.03080452
#
# Stress axis : x y z
#
# Youngs Moduli (GPa) = 46.81669 46.12108 75.57006
#
# Poissons Ratio (x) = 0.42196 -0.13988
# Poissons Ratio (y) = 0.42833 0.41088
# Poissons Ratio (z) = -0.08666 0.25077
#
# Static dielectric constant tensor:
#      x y z
#    x 3.400190 0.000000 -0.067810 
#    y 0.000000 3.587490 0.000000 
#    z -0.067810 0.000000 3.908380 
# 
# 
# High freq. dielectric constant tensor:
#      x y z
#    x 1.749710 0.000000 -0.009320 
#    y 0.000000 1.777650 0.000000 
#    z -0.009320 0.000000 1.791930 
# 
# From -- ./inp_files/230431.got.cif
#   From: 2010.06.25/outbox.cif.g09.slc.cpg/sg12_116_cif.got.tgz:230431.got - 2010.06.28 00:19:55.
