data_PCOD8090860
_publ_section_title
;
Structure prediction by ZEFSAII (Michael W. Deem and Ramdas Pophale) SiO2 
 PCOD8090860
Probable space group: C 2/M
;
_chemical_formula_sum "Si O2"
_cell_formula_units_Z 60
_cell_length_a 12.232870
_cell_length_b 20.045899
_cell_length_c 24.006128
_cell_angle_alpha 90.000000
_cell_angle_beta 148.087958
_cell_angle_gamma 90.000000
_cell_volume 3111.837707
_symmetry_space_group_name_H-M "C 2/M"
_symmetry_group_IT_number 12
_symmetry_cell_setting 'monoclinic'
loop_
_space_group_symop_operation_xyz
x,y,z
-x,y,-z
-x,-y,-z
x,-y,z
1/2+x,1/2+y,z
1/2-x,1/2+y,-z
1/2-x,1/2-y,-z
1/2+x,1/2-y,z
loop_
_atom_site_type_symbol
_atom_site_label
_atom_site_fract_x
_atom_site_fract_y
_atom_site_fract_z
Si Si1 0.500000 0.664878 0.000000
Si Si2 0.195917 0.076024 0.239631
Si Si3 0.784944 0.653269 0.386152
Si Si4 0.367353 0.813763 0.234320
Si Si5 0.185009 0.805543 0.621807
Si Si6 0.594823 0.077373 0.100172
Si Si7 0.091516 0.170815 0.704039
Si Si8 0.200064 0.073529 0.998651
O O1 0.327887 0.704914 0.890543
O O2 0.351697 0.622256 0.974463
O O3 0.200058 0.102403 0.303975
O O4 0.327775 0.120156 0.253470
O O5 0.278836 0.000000 0.272356
O O6 0.955239 0.080123 0.120266
O O7 0.813614 0.725766 0.370463
O O8 0.643783 0.656124 0.380319
O O9 0.000000 0.623889 0.500000
O O10 0.585703 0.827598 0.298320
O O11 0.373313 0.749562 0.275556
O O12 0.135780 0.844138 0.658391
O O13 0.000000 0.826993 0.500000
O O14 0.778894 0.126121 0.196856
O O15 0.426454 0.089469 0.074852
O O16 0.668418 0.000000 0.130029
O O17 0.500000 0.098956 0.000000
O O18 0.189090 0.000000 0.019823
#
# Coordination Sequence:
#
# PCOD8090860 Si02
#       8
#     4   8   8   8   8   8   8   8
#     4  10  19  34  52  86 117 148 184 248 286 352
#     4  10  20  38  59  85 120 155 196 243 291 349
#     4  10  22  36  59  86 113 149 199 247 297 348
#     4  10  22  37  58  89 122 152 204 239 305 351
#     4  10  22  39  63  85 116 160 203 250 292 356
#     4  10  21  37  58  85 119 158 193 230 293 363
#     4  11  22  38  60  89 119 155 194 251 296 351
#     4   9  18  33  55  78 109 153 192 226 277 349
#
# _framework density 19.281210999999999
#
# number of rings (size 3 to 8) (size 9 to 14) (size 15 to 20)
#    0.000    2.000    1.333    1.800    2.800    4.000 
#    0.000    2.667    0.000    0.800    0.000    0.000 
#    0.000    0.000    0.000    0.000    0.000    0.000 
#
# Total GULP energy -371877.179628 kJ/mol
# GULP energy per Si atom -12395.905988 kJ/mol
# Density = 1.923733 g / cm^3
# Si number density = 19.281211 Si / 1000 Ang^3
#
#
#
# Elastic Constant Matrix: (Units=GPa)
#
#
# Indices 1 2 3 4 5 6 
#
# 1 85.6925 27.2267 38.9237 -0.0013 -4.5162 -0.0001
# 2 27.2267 69.7612 23.3369 -0.0006 0.3580 0.0001
# 3 38.9237 23.3369 85.0523 -0.0028 9.6137 0.0011
# 4 -0.0013 -0.0006 -0.0028 24.9968 0.0002 -8.2884
# 5 -4.5162 0.3580 9.6137 0.0002 31.0946 0.0001
# 6 -0.0001 0.0001 0.0011 -8.2884 0.0001 23.9525
#
#
#
# Elastic Compliance Matrix: (Units=1/GPa)
#
#
# Indices 1 2 3 4 5 6 
#
# 1 0.016328 -0.004101 -0.006860 0.000000 0.004540 0.000000
# 2 -0.004101 0.016857 -0.002755 0.000000 0.000062 0.000000
# 3 -0.006860 -0.002755 0.016333 0.000001 -0.006014 0.000000
# 4 0.000000 0.000000 0.000001 0.045190 -0.000001 0.015637
# 5 0.004540 0.000062 -0.006014 -0.000001 0.034678 0.000000
# 6 0.000000 0.000000 0.000000 0.015637 0.000000 0.047160
#
#
# Mechanical properties :
#
#
# Convention : Reuss Voigt Hill
#
# Bulk Modulus (GPa) = 45.28131 46.60894 45.94512
# Shear Modulus (GPa) = 23.65848 26.07669 24.86759
#
# Velocity S-wave (km/s) = 3.50669 3.68154 3.59518
# Velocity P-wave (km/s) = 6.31914 6.50365 6.41205
#
# Compressibility (1/GPa) = 0.02208417
#
# Stress axis : x y z
#
# Youngs Moduli (GPa) = 61.24461 59.32403 61.22602
#
# Poissons Ratio (x) = 0.24328 0.42003
# Poissons Ratio (y) = 0.25116 0.16870
# Poissons Ratio (z) = 0.42016 0.16346
#
# Static dielectric constant tensor:
#      x y z
#    x 3.529950 0.000000 0.099450 
#    y 0.000000 3.389190 0.000000 
#    z 0.099450 0.000000 3.660770 
# 
# 
# High freq. dielectric constant tensor:
#      x y z
#    x 1.761090 0.000000 0.004110 
#    y 0.000000 1.732280 0.000000 
#    z 0.004110 0.000000 1.752680 
# 
# From -- ./inp_files/336882.got.cif
#   From: 2010.06.25/outbox.cif.g09.slc.cpg/sg12_169_cif.got.tgz:336882.got - 2010.06.28 00:19:55.
