data_PCOD8090797
_publ_section_title
;
Structure prediction by ZEFSAII (Michael W. Deem and Ramdas Pophale) SiO2 
 PCOD8090797
Probable space group: C 2/M
;
_chemical_formula_sum "Si O2"
_cell_formula_units_Z 64
_cell_length_a 28.010597
_cell_length_b 17.712276
_cell_length_c 18.386870
_cell_angle_alpha 90.000000
_cell_angle_beta 155.346201
_cell_angle_gamma 90.000000
_cell_volume 3805.226390
_symmetry_space_group_name_H-M "C 2/M"
_symmetry_group_IT_number 12
_symmetry_cell_setting 'monoclinic'
loop_
_space_group_symop_operation_xyz
x,y,z
-x,y,-z
-x,-y,-z
x,-y,z
1/2+x,1/2+y,z
1/2-x,1/2+y,-z
1/2-x,1/2-y,-z
1/2+x,1/2-y,z
loop_
_atom_site_type_symbol
_atom_site_label
_atom_site_fract_x
_atom_site_fract_y
_atom_site_fract_z
Si Si1 0.055347 0.413158 0.752766
Si Si2 0.162082 0.347106 0.599313
Si Si3 0.326708 0.913834 0.234071
Si Si4 0.389574 0.290153 0.390759
Si Si5 0.260711 0.316928 0.074316
Si Si6 0.924603 0.911294 0.116110
Si Si7 0.910552 0.910397 0.936235
Si Si8 0.486085 0.410429 0.353196
O O1 0.062301 0.500000 0.788044
O O2 0.088046 0.402889 0.713984
O O3 0.925604 0.382183 0.581364
O O4 0.141844 0.362102 0.918669
O O5 0.124782 0.374767 0.627536
O O6 0.143417 0.257248 0.582304
O O7 0.290142 0.369549 0.753973
O O8 0.312420 0.000000 0.236854
O O9 0.202318 0.878964 0.041426
O O10 0.500000 0.258770 0.500000
O O11 0.284291 0.285806 0.188278
O O12 0.418073 0.373843 0.461962
O O13 0.361609 0.376143 0.197558
O O14 0.250000 0.250000 0.000000
O O15 0.010072 0.889277 0.300638
O O16 0.961276 0.885278 0.085560
O O17 0.914740 0.000000 0.102075
O O18 0.890330 0.000000 0.903667
O O19 0.000000 0.882263 0.000000
O O20 0.484767 0.500000 0.365185
#
# Coordination Sequence:
#
# PCOD8090797 Si02
#       8
#     8   8   8   8   8   8   8   8
#     4  11  19  27  43  67  96 128 161 192 230 286
#     4  11  19  31  44  68 100 129 157 190 247 299
#     4   9  15  24  41  65  93 126 159 190 223 278
#     4  10  22  33  46  70  99 137 171 207 239 275
#     4  11  21  31  44  66 100 136 170 202 242 278
#     4   8  14  26  47  71  90 121 162 202 240 276
#     4   9  18  32  52  77 101 125 157 201 254 306
#     4  10  19  34  51  68  96 137 182 212 234 274
#
# _framework density 16.818973
#
# number of rings (size 3 to 8) (size 9 to 14) (size 15 to 20)
#    0.000    2.125    1.250    5.625    1.750    3.750 
#    0.000    0.000    0.000    0.750    0.000    0.000 
#    0.000    0.500    0.000    0.500    0.000    0.000 
#
# Total GULP energy -396429.365550 kJ/mol
# GULP energy per Si atom -12388.417673 kJ/mol
# Density = 1.678069 g / cm^3
# Si number density = 16.818973 Si / 1000 Ang^3
#
#
#
# Elastic Constant Matrix: (Units=GPa)
#
#
# Indices 1 2 3 4 5 6 
#
# 1 51.9325 19.6117 35.1291 0.0000 3.3239 0.0000
# 2 19.6117 81.6385 41.4520 0.0000 -2.1026 0.0000
# 3 35.1291 41.4520 100.3042 0.0000 -13.2451 0.0000
# 4 0.0000 0.0000 0.0000 22.6797 0.0000 -3.2195
# 5 3.3239 -2.1026 -13.2451 0.0000 25.4378 0.0000
# 6 0.0000 0.0000 0.0000 -3.2195 0.0000 10.4813
#
#
#
# Elastic Compliance Matrix: (Units=1/GPa)
#
#
# Indices 1 2 3 4 5 6 
#
# 1 0.027242 -0.001685 -0.010022 0.000000 -0.008917 0.000000
# 2 -0.001685 0.015722 -0.006128 0.000000 -0.001671 0.000000
# 3 -0.010022 -0.006128 0.017308 0.000000 0.009815 0.000000
# 4 0.000000 0.000000 0.000000 0.046103 0.000000 0.014161
# 5 -0.008917 -0.001671 0.009815 0.000000 0.045449 0.000000
# 6 0.000000 0.000000 0.000000 0.014161 0.000000 0.099757
#
#
# Mechanical properties :
#
#
# Convention : Reuss Voigt Hill
#
# Bulk Modulus (GPa) = 40.64641 47.36230 44.00435
# Shear Modulus (GPa) = 16.92315 20.89858 18.91087
#
# Velocity S-wave (km/s) = 3.17550 3.52882 3.35681
# Velocity P-wave (km/s) = 6.13714 6.69512 6.42219
#
# Compressibility (1/GPa) = 0.02460242
#
# Stress axis : x y z
#
# Youngs Moduli (GPa) = 36.70780 63.60356 57.77626
#
# Poissons Ratio (x) = 0.10719 0.57903
# Poissons Ratio (y) = 0.06186 0.35405
# Poissons Ratio (z) = 0.36788 0.38976
#
# Static dielectric constant tensor:
#      x y z
#    x 3.056290 0.000000 -0.334620 
#    y 0.000000 3.199260 0.000000 
#    z -0.334620 0.000000 3.212470 
# 
# 
# High freq. dielectric constant tensor:
#      x y z
#    x 1.597630 0.000000 -0.029530 
#    y 0.000000 1.646890 0.000000 
#    z -0.029530 0.000000 1.640170 
# 
# From -- ./inp_files/330511.got.cif
#   From: 2010.06.25/outbox.cif.g09.slc.cpg/sg12_166_cif.got.tgz:330511.got - 2010.06.28 00:19:55.
