data_PCOD8090368
_publ_section_title
;
Structure prediction by ZEFSAII (Michael W. Deem and Ramdas Pophale) SiO2 
 PCOD8090368
Probable space group: C 2/M
;
_chemical_formula_sum "Si O2"
_cell_formula_units_Z 64
_cell_length_a 24.130754
_cell_length_b 10.290103
_cell_length_c 28.200429
_cell_angle_alpha 90.000000
_cell_angle_beta 150.007962
_cell_angle_gamma 90.000000
_cell_volume 3500.352534
_symmetry_space_group_name_H-M "C 2/M"
_symmetry_group_IT_number 12
_symmetry_cell_setting 'monoclinic'
loop_
_space_group_symop_operation_xyz
x,y,z
-x,y,-z
-x,-y,-z
x,-y,z
1/2+x,1/2+y,z
1/2-x,1/2+y,-z
1/2-x,1/2-y,-z
1/2+x,1/2-y,z
loop_
_atom_site_type_symbol
_atom_site_label
_atom_site_fract_x
_atom_site_fract_y
_atom_site_fract_z
Si Si1 0.387398 0.643639 0.214242
Si Si2 0.727290 0.649633 0.222429
Si Si3 0.048848 0.853539 0.249691
Si Si4 0.469713 0.154371 0.424563
Si Si5 0.201160 0.849154 0.093725
Si Si6 0.585952 0.737001 0.420845
Si Si7 0.982167 0.153106 0.879689
Si Si8 0.322776 0.859148 0.601668
O O1 0.333339 0.500000 0.181138
O O2 0.441486 0.651917 0.202711
O O3 0.300556 0.759643 0.149999
O O4 0.478896 0.660183 0.322921
O O5 0.738672 0.500000 0.244997
O O6 0.847928 0.712588 0.321544
O O7 0.687937 0.667580 0.139742
O O8 0.631190 0.715227 0.183265
O O9 0.009157 0.808533 0.168647
O O10 0.142952 0.756531 0.337869
O O11 0.099232 0.000000 0.285760
O O12 0.500000 0.202160 0.500000
O O13 0.559199 0.205014 0.452793
O O14 0.470901 0.000000 0.422197
O O15 0.226432 0.000000 0.099179
O O16 0.090129 0.794339 0.986948
O O17 0.620440 0.846878 0.408078
O O18 0.689617 0.639526 0.500150
O O19 0.978653 0.000000 0.885698
O O20 0.359619 0.000000 0.648947
#
# Coordination Sequence:
#
# PCOD8090368 Si02
#       8
#     8   8   8   8   8   8   8   8
#     4  10  20  35  54  77 108 144 177 213 263 321
#     4   9  17  31  52  79 107 135 174 221 268 313
#     4   9  20  36  54  79 109 142 178 216 266 320
#     4  10  20  31  50  84 114 135 171 225 272 310
#     4  10  19  33  56  83 105 134 179 226 267 313
#     4  10  20  35  55  76 107 143 179 215 260 320
#     4   9  18  33  54  79 107 139 176 223 272 315
#     4  10  21  35  56  82 108 142 180 218 260 313
#
# _framework density 18.283874000000001
#
# number of rings (size 3 to 8) (size 9 to 14) (size 15 to 20)
#    0.000    2.375    1.250    1.125    1.750    7.500 
#    0.000    0.625    0.000    5.250    0.000    0.000 
#    0.000    0.000    0.000    0.000    0.000    0.000 
#
# Total GULP energy -396664.072131 kJ/mol
# GULP energy per Si atom -12395.752254 kJ/mol
# Density = 1.824226 g / cm^3
# Si number density = 18.283874 Si / 1000 Ang^3
#
#
#
# Elastic Constant Matrix: (Units=GPa)
#
#
# Indices 1 2 3 4 5 6 
#
# 1 112.4841 36.0439 60.9575 -0.0005 -8.1798 -0.0001
# 2 36.0439 77.7192 39.2632 -0.0001 1.4798 0.0000
# 3 60.9575 39.2632 110.1655 0.0003 -3.9857 -0.0001
# 4 -0.0005 -0.0001 0.0003 11.3681 -0.0001 -0.2960
# 5 -8.1798 1.4798 -3.9857 -0.0001 31.9887 0.0000
# 6 -0.0001 0.0000 -0.0001 -0.2960 0.0000 11.6683
#
#
#
# Elastic Compliance Matrix: (Units=1/GPa)
#
#
# Indices 1 2 3 4 5 6 
#
# 1 0.013486 -0.003158 -0.006234 0.000001 0.002818 0.000000
# 2 -0.003158 0.016497 -0.004208 0.000000 -0.002095 0.000000
# 3 -0.006234 -0.004208 0.014039 -0.000001 0.000350 0.000000
# 4 0.000001 0.000000 -0.000001 0.088024 0.000000 0.002233
# 5 0.002818 -0.002095 0.000350 0.000000 0.032122 0.000000
# 6 0.000000 0.000000 0.000000 0.002233 0.000000 0.085759
#
#
# Mechanical properties :
#
#
# Convention : Reuss Voigt Hill
#
# Bulk Modulus (GPa) = 59.44956 63.65532 61.55244
# Shear Modulus (GPa) = 17.68440 21.94529 19.81485
#
# Velocity S-wave (km/s) = 3.11338 3.46823 3.29558
# Velocity P-wave (km/s) = 6.74607 7.13644 6.94400
#
# Compressibility (1/GPa) = 0.01682098
#
# Stress axis : x y z
#
# Youngs Moduli (GPa) = 74.15300 60.61617 71.22897
#
# Poissons Ratio (x) = 0.19145 0.44407
# Poissons Ratio (y) = 0.23420 0.29972
# Poissons Ratio (z) = 0.46230 0.25506
#
# Static dielectric constant tensor:
#      x y z
#    x 3.431910 0.000000 0.036710 
#    y 0.000000 3.098890 0.000000 
#    z 0.036710 0.000000 3.464120 
# 
# 
# High freq. dielectric constant tensor:
#      x y z
#    x 1.713240 0.000000 0.000640 
#    y 0.000000 1.670180 0.000000 
#    z 0.000640 0.000000 1.710920 
# 
# From -- ./inp_files/367845.got.cif
#   From: 2010.06.25/outbox.cif.g09.slc.cpg/sg12_184_cif.got.tgz:367845.got - 2010.06.28 00:19:55.
