data_PCOD8090885
_publ_section_title
;
Structure prediction by ZEFSAII (Michael W. Deem and Ramdas Pophale) SiO2 
 PCOD8090885
Probable space group: C 2/M
;
_chemical_formula_sum "Si O2"
_cell_formula_units_Z 64
_cell_length_a 14.659624
_cell_length_b 9.073213
_cell_length_c 27.138513
_cell_angle_alpha 90.000000
_cell_angle_beta 106.117636
_cell_angle_gamma 90.000000
_cell_volume 3467.807252
_symmetry_space_group_name_H-M "C 2/M"
_symmetry_group_IT_number 12
_symmetry_cell_setting 'monoclinic'
loop_
_space_group_symop_operation_xyz
x,y,z
-x,y,-z
-x,-y,-z
x,-y,z
1/2+x,1/2+y,z
1/2-x,1/2+y,-z
1/2-x,1/2-y,-z
1/2+x,1/2-y,z
loop_
_atom_site_type_symbol
_atom_site_label
_atom_site_fract_x
_atom_site_fract_y
_atom_site_fract_z
Si Si1 0.455515 0.168877 0.752864
Si Si2 0.950689 0.674442 0.942052
Si Si3 0.152024 0.174615 0.500760
Si Si4 0.261304 0.830906 0.772200
Si Si5 0.039842 0.825325 0.578150
Si Si6 0.930235 0.825220 0.308096
Si Si7 0.436719 0.174131 0.135471
Si Si8 0.225317 0.174344 0.124238
O O1 0.343207 0.182906 0.743756
O O2 0.480618 0.261131 0.708188
O O3 0.510643 0.237216 0.808324
O O4 0.486348 0.000000 0.749230
O O5 0.935230 0.500000 0.936932
O O6 0.849192 0.753306 0.924252
O O7 0.014893 0.735330 0.906793
O O8 0.000000 0.722071 0.000000
O O9 0.250000 0.250000 0.500000
O O10 0.119190 0.227070 0.550563
O O11 0.066930 0.226194 0.451654
O O12 0.167340 0.000000 0.500954
O O13 0.165759 0.770606 0.732800
O O14 0.289664 0.733067 0.822954
O O15 0.250800 0.000000 0.788242
O O16 0.067003 0.762263 0.635910
O O17 0.040180 0.000000 0.577919
O O18 0.936754 0.000000 0.309506
O O19 0.327820 0.223865 0.119663
O O20 0.447645 0.000000 0.137590
O O21 0.212939 0.000000 0.122703
#
# Coordination Sequence:
#
# PCOD8090885 Si02
#       8
#     8   8   8   8   8   8   8   8
#     4  10  19  34  53  74 106 141 170 210 265 312
#     4  10  21  39  60  79 103 138 176 213 259 317
#     4   9  17  33  57  78 102 141 183 218 265 318
#     4  10  20  34  53  75 102 138 178 212 251 311
#     4   8  17  34  52  74 109 146 172 212 272 321
#     4  10  20  34  53  79 108 137 180 223 254 308
#     4   9  18  34  54  76 105 137 166 206 262 311
#     4  11  21  34  55  78 105 136 169 213 263 309
#
# _framework density 18.455468
#
# number of rings (size 3 to 8) (size 9 to 14) (size 15 to 20)
#    0.000    2.375    2.500    1.125    0.000    2.250 
#    0.000    5.000    0.000    0.000    0.000    0.000 
#    0.000    0.000    0.000    0.000    0.000    0.000 
#
# Total GULP energy -396788.756467 kJ/mol
# GULP energy per Si atom -12399.648640 kJ/mol
# Density = 1.841346 g / cm^3
# Si number density = 18.455468 Si / 1000 Ang^3
#
#
#
# Elastic Constant Matrix: (Units=GPa)
#
#
# Indices 1 2 3 4 5 6 
#
# 1 105.3021 22.0734 29.4659 0.0000 -5.7620 0.0000
# 2 22.0734 29.4788 19.4356 0.0000 0.7870 0.0000
# 3 29.4659 19.4356 104.7525 0.0000 -6.9896 0.0000
# 4 0.0000 0.0000 0.0000 20.1533 0.0000 -1.8769
# 5 -5.7620 0.7870 -6.9896 0.0000 27.7224 0.0000
# 6 0.0000 0.0000 0.0000 -1.8769 0.0000 29.5070
#
#
#
# Elastic Compliance Matrix: (Units=1/GPa)
#
#
# Indices 1 2 3 4 5 6 
#
# 1 0.011712 -0.007696 -0.001718 0.000000 0.002220 0.000000
# 2 -0.007696 0.043947 -0.006285 0.000000 -0.004432 0.000000
# 3 -0.001718 -0.006285 0.011375 0.000000 0.002689 0.000000
# 4 0.000000 0.000000 0.000000 0.049915 0.000000 0.003175
# 5 0.002220 -0.004432 0.002689 0.000000 0.037337 0.000000
# 6 0.000000 0.000000 0.000000 0.003175 0.000000 0.034092
#
#
# Mechanical properties :
#
#
# Convention : Reuss Voigt Hill
#
# Bulk Modulus (GPa) = 28.06158 42.38702 35.22430
# Shear Modulus (GPa) = 21.58365 26.71377 24.14871
#
# Velocity S-wave (km/s) = 3.42350 3.80869 3.62122
# Velocity P-wave (km/s) = 5.55565 6.50835 6.05078
#
# Compressibility (1/GPa) = 0.03563591
#
# Stress axis : x y z
#
# Youngs Moduli (GPa) = 85.38198 22.75444 87.91042
#
# Poissons Ratio (x) = 0.17512 0.15107
# Poissons Ratio (y) = 0.65711 0.55250
# Poissons Ratio (z) = 0.14673 0.14301
#
# Static dielectric constant tensor:
#      x y z
#    x 3.497720 0.000000 -0.000670 
#    y 0.000000 3.069670 0.000000 
#    z -0.000670 0.000000 3.607570 
# 
# 
# High freq. dielectric constant tensor:
#      x y z
#    x 1.726680 0.000000 -0.000610 
#    y 0.000000 1.683360 0.000000 
#    z -0.000610 0.000000 1.715620 
# 
# From -- ./inp_files/359903.got.cif
#   From: 2010.06.25/outbox.cif.g09.slc.cpg/sg12_180_cif.got.tgz:359903.got - 2010.06.28 00:19:55.
