data_PCOD8090108
_publ_section_title
;
Structure prediction by ZEFSAII (Michael W. Deem and Ramdas Pophale) SiO2 
 PCOD8090108
Probable space group: C 2/M
;
_chemical_formula_sum "Si O2"
_cell_formula_units_Z 48
_cell_length_a 22.134714
_cell_length_b 12.251988
_cell_length_c 11.398011
_cell_angle_alpha 90.000000
_cell_angle_beta 117.434534
_cell_angle_gamma 90.000000
_cell_volume 2743.446092
_symmetry_space_group_name_H-M "C 2/M"
_symmetry_group_IT_number 12
_symmetry_cell_setting 'monoclinic'
loop_
_space_group_symop_operation_xyz
x,y,z
-x,y,-z
-x,-y,-z
x,-y,z
1/2+x,1/2+y,z
1/2-x,1/2+y,-z
1/2-x,1/2-y,-z
1/2+x,1/2-y,z
loop_
_atom_site_type_symbol
_atom_site_label
_atom_site_fract_x
_atom_site_fract_y
_atom_site_fract_z
Si Si1 0.679428 0.873932 0.504529
Si Si2 0.760330 0.627556 0.877143
Si Si3 0.860962 0.247589 0.125416
Si Si4 0.312101 0.266986 0.708992
Si Si5 0.574164 0.127430 0.610770
Si Si6 0.923408 0.872496 0.965085
O O1 0.659673 0.805013 0.372452
O O2 0.756660 0.853080 0.613515
O O3 0.628964 0.838279 0.562619
O O4 0.670143 0.000000 0.464370
O O5 0.765573 0.500000 0.857903
O O6 0.684129 0.657191 0.848573
O O7 0.777590 0.689164 0.773234
O O8 0.812327 0.660221 0.026532
O O9 0.912369 0.305620 0.259579
O O10 0.906427 0.189416 0.069065
O O11 0.374643 0.334501 0.816708
O O12 0.500000 0.160495 0.500000
O O13 0.579004 0.000000 0.644955
O O14 0.913042 0.000000 0.976902
O O15 0.000000 0.842644 0.000000
#
# Coordination Sequence:
#
# PCOD8090108 Si02
#       6
#     8   8   8   8   8   8
#     4  10  20  35  56  80 109 142 180 221 262 316
#     4  10  19  33  55  82 108 134 175 227 269 314
#     4  10  20  35  56  81 105 140 177 221 271 316
#     4  10  20  35  56  82 107 143 177 220 267 314
#     4  10  21  36  56  80 109 145 180 217 266 319
#     4  10  22  38  57  79 107 142 179 220 268 321
#
# _framework density 17.496241999999999
#
# number of rings (size 3 to 8) (size 9 to 14) (size 15 to 20)
#    0.000    2.000    1.667    2.000    2.333    0.000 
#    0.000    0.000    0.000    5.000    0.000    0.000 
#    0.000    0.000    0.000    0.000    0.000    0.000 
#
# Total GULP energy -297713.585552 kJ/mol
# GULP energy per Si atom -12404.732731 kJ/mol
# Density = 1.745642 g / cm^3
# Si number density = 17.496242 Si / 1000 Ang^3
#
#
#
# Elastic Constant Matrix: (Units=GPa)
#
#
# Indices 1 2 3 4 5 6 
#
# 1 94.4611 41.2801 57.5200 0.0000 6.7051 0.0000
# 2 41.2801 59.5429 32.5239 0.0000 -1.1332 0.0000
# 3 57.5200 32.5239 117.1839 0.0000 -1.6074 0.0000
# 4 0.0000 0.0000 0.0000 12.1082 0.0000 -2.5460
# 5 6.7051 -1.1332 -1.6074 0.0000 22.5252 0.0000
# 6 0.0000 0.0000 0.0000 -2.5460 0.0000 26.3757
#
#
#
# Elastic Compliance Matrix: (Units=1/GPa)
#
#
# Indices 1 2 3 4 5 6 
#
# 1 0.019682 -0.009956 -0.006991 0.000000 -0.006858 0.000000
# 2 -0.009956 0.024841 -0.001951 0.000000 0.004074 0.000000
# 3 -0.006991 -0.001951 0.012546 0.000000 0.002878 0.000000
# 4 0.000000 0.000000 0.000000 0.084299 0.000000 0.008137
# 5 -0.006858 0.004074 0.002878 0.000000 0.046847 0.000000
# 6 0.000000 0.000000 0.000000 0.008137 0.000000 0.038699
#
#
# Mechanical properties :
#
#
# Convention : Reuss Voigt Hill
#
# Bulk Modulus (GPa) = 51.89392 59.31510 55.60451
# Shear Modulus (GPa) = 18.44094 21.52609 19.98351
#
# Velocity S-wave (km/s) = 3.25005 3.51141 3.38325
# Velocity P-wave (km/s) = 6.61878 7.10036 6.86380
#
# Compressibility (1/GPa) = 0.01927008
#
# Stress axis : x y z
#
# Youngs Moduli (GPa) = 50.80909 40.25648 79.70394
#
# Poissons Ratio (x) = 0.40081 0.55724
# Poissons Ratio (y) = 0.50588 0.15553
# Poissons Ratio (z) = 0.35523 0.07856
#
# Static dielectric constant tensor:
#      x y z
#    x 3.275820 0.000000 -0.054200 
#    y 0.000000 3.150750 0.000000 
#    z -0.054200 0.000000 3.264270 
# 
# 
# High freq. dielectric constant tensor:
#      x y z
#    x 1.682140 0.000000 -0.006260 
#    y 0.000000 1.676750 0.000000 
#    z -0.006260 0.000000 1.682360 
# 
# From -- ./inp_files/163996.got.cif
#   From: 2010.06.25/outbox.cif.g09.slc.cpg/sg12_82_cif.got.tgz:163996.got - 2010.06.28 00:19:55.
