data_PCOD8090544
_publ_section_title
;
Structure prediction by ZEFSAII (Michael W. Deem and Ramdas Pophale) SiO2 
 PCOD8090544
Probable space group: C 2/M
;
_chemical_formula_sum "Si O2"
_cell_formula_units_Z 64
_cell_length_a 21.787990
_cell_length_b 14.686725
_cell_length_c 27.330620
_cell_angle_alpha 90.000000
_cell_angle_beta 157.105163
_cell_angle_gamma 90.000000
_cell_volume 3402.412140
_symmetry_space_group_name_H-M "C 2/M"
_symmetry_group_IT_number 12
_symmetry_cell_setting 'monoclinic'
loop_
_space_group_symop_operation_xyz
x,y,z
-x,y,-z
-x,-y,-z
x,-y,z
1/2+x,1/2+y,z
1/2-x,1/2+y,-z
1/2-x,1/2-y,-z
1/2+x,1/2-y,z
loop_
_atom_site_type_symbol
_atom_site_label
_atom_site_fract_x
_atom_site_fract_y
_atom_site_fract_z
Si Si1 0.146822 0.274423 0.840034
Si Si2 0.868481 0.599269 0.662991
Si Si3 0.034054 0.101116 0.792814
Si Si4 0.726287 0.846132 0.507977
Si Si5 0.457546 0.393730 0.525793
Si Si6 0.429470 0.228345 0.328191
Si Si7 0.433240 0.599509 0.073199
Si Si8 0.357124 0.397637 0.861080
O O1 0.101185 0.254100 0.751155
O O2 0.007916 0.326476 0.767863
O O3 0.169367 0.174229 0.879490
O O4 0.309151 0.326786 0.963696
O O5 0.934135 0.500000 0.727026
O O6 0.811290 0.586962 0.564670
O O7 0.726274 0.626036 0.595830
O O8 0.877434 0.117987 0.646980
O O9 0.997007 0.115818 0.822267
O O10 0.098876 0.000000 0.829504
O O11 0.750000 0.750000 0.500000
O O12 0.587541 0.833848 0.446488
O O13 0.500000 0.374284 0.500000
O O14 0.497953 0.500000 0.568023
O O15 0.558540 0.324119 0.633682
O O16 0.288273 0.169942 0.245863
O O17 0.351038 0.500000 0.008488
O O18 0.587891 0.603176 0.154076
O O19 0.307679 0.500000 0.841858
O O20 0.500000 0.362073 0.000000
#
# Coordination Sequence:
#
# PCOD8090544 Si02
#       8
#     8   8   8   8   8   8   8   8
#     4  11  20  36  58  86 114 142 190 237 275 331
#     4  10  19  33  57  84 110 146 187 232 278 326
#     4  11  22  36  55  82 118 152 180 226 286 336
#     4  11  19  36  55  83 118 143 182 228 281 333
#     4  10  21  37  55  81 118 155 188 225 275 333
#     4  11  21  34  60  87 110 146 190 232 279 330
#     4  10  22  39  59  83 112 150 188 228 283 338
#     4  10  21  38  58  81 112 148 189 229 275 339
#
# _framework density 18.810186000000002
#
# number of rings (size 3 to 8) (size 9 to 14) (size 15 to 20)
#    0.000    1.500    5.000    1.125    0.000    6.000 
#    0.000    0.000    0.000    3.750    0.000    0.000 
#    0.000    0.000    0.000    0.000    0.000    0.000 
#
# Total GULP energy -396555.019743 kJ/mol
# GULP energy per Si atom -12392.344367 kJ/mol
# Density = 1.876737 g / cm^3
# Si number density = 18.810186 Si / 1000 Ang^3
#
#
#
# Elastic Constant Matrix: (Units=GPa)
#
#
# Indices 1 2 3 4 5 6 
#
# 1 101.8023 48.7481 24.9791 0.0063 5.9442 0.0018
# 2 48.7481 124.8624 37.2083 0.0000 8.7280 0.0003
# 3 24.9791 37.2083 48.1293 -0.0048 11.8192 -0.0026
# 4 0.0063 0.0000 -0.0048 24.7062 -0.0013 -2.9174
# 5 5.9442 8.7280 11.8192 -0.0013 24.2822 0.0017
# 6 0.0018 0.0003 -0.0026 -2.9174 0.0017 27.5182
#
#
#
# Elastic Compliance Matrix: (Units=1/GPa)
#
#
# Indices 1 2 3 4 5 6 
#
# 1 0.012528 -0.003838 -0.003545 -0.000004 0.000038 -0.000002
# 2 -0.003838 0.011582 -0.007009 0.000000 0.000188 -0.000001
# 3 -0.003545 -0.007009 0.030897 0.000007 -0.011652 0.000005
# 4 -0.000004 0.000000 0.000007 0.040989 0.000000 0.004345
# 5 0.000038 0.000188 -0.011652 0.000000 0.046777 -0.000004
# 6 -0.000002 -0.000001 0.000005 0.004345 -0.000004 0.036800
#
#
# Mechanical properties :
#
#
# Convention : Reuss Voigt Hill
#
# Bulk Modulus (GPa) = 38.13063 55.18501 46.65782
# Shear Modulus (GPa) = 23.03116 26.22523 24.62819
#
# Velocity S-wave (km/s) = 3.50294 3.73795 3.62235
# Velocity P-wave (km/s) = 6.05607 6.93046 6.50797
#
# Compressibility (1/GPa) = 0.02622563
#
# Stress axis : x y z
#
# Youngs Moduli (GPa) = 79.82060 86.33729 32.36583
#
# Poissons Ratio (x) = 0.33132 0.11472
# Poissons Ratio (y) = 0.30631 0.22684
# Poissons Ratio (z) = 0.28293 0.60511
#
# Static dielectric constant tensor:
#      x y z
#    x 3.742460 -0.000230 0.420710 
#    y -0.000230 3.899190 0.001910 
#    z 0.420710 0.001910 -0.755140 
# 
# 
# High freq. dielectric constant tensor:
#      x y z
#    x 1.733560 0.000000 -0.000640 
#    y 0.000000 1.741270 -0.000010 
#    z -0.000640 -0.000010 1.708080 
# 
# From -- ./inp_files/344068.got.cif
#   From: 2010.06.25/outbox.cif.g09.slc.cpg/sg12_173_cif.got.tgz:344068.got - 2010.06.28 00:19:55.
