data_PCOD8090679
_publ_section_title
;
Structure prediction by ZEFSAII (Michael W. Deem and Ramdas Pophale) SiO2 
 PCOD8090679
Probable space group: C 2/M
;
_chemical_formula_sum "Si O2"
_cell_formula_units_Z 56
_cell_length_a 15.017185
_cell_length_b 9.166095
_cell_length_c 21.519509
_cell_angle_alpha 90.000000
_cell_angle_beta 101.577265
_cell_angle_gamma 90.000000
_cell_volume 2901.872888
_symmetry_space_group_name_H-M "C 2/M"
_symmetry_group_IT_number 12
_symmetry_cell_setting 'monoclinic'
loop_
_space_group_symop_operation_xyz
x,y,z
-x,y,-z
-x,-y,-z
x,-y,z
1/2+x,1/2+y,z
1/2-x,1/2+y,-z
1/2-x,1/2-y,-z
1/2+x,1/2-y,z
loop_
_atom_site_type_symbol
_atom_site_label
_atom_site_fract_x
_atom_site_fract_y
_atom_site_fract_z
Si Si1 0.580062 0.832627 0.840667
Si Si2 0.568506 0.672962 0.711970
Si Si3 0.942888 0.330720 0.932019
Si Si4 0.301804 0.167843 0.357685
Si Si5 0.103186 0.329322 0.503684
Si Si6 0.264591 0.328818 0.937101
Si Si7 0.112126 0.167766 0.381297
O O1 0.560809 0.727881 0.780732
O O2 0.502881 0.799412 0.880200
O O3 0.678469 0.796360 0.881982
O O4 0.575653 0.000000 0.818059
O O5 0.574007 0.500000 0.713403
O O6 0.658620 0.736598 0.692630
O O7 0.480232 0.729285 0.661853
O O8 0.915121 0.500000 0.933889
O O9 0.852486 0.234169 0.914389
O O10 0.000000 0.281986 0.000000
O O11 0.340141 0.223923 0.428962
O O12 0.193047 0.187386 0.342633
O O13 0.330226 0.000000 0.350741
O O14 0.114349 0.500000 0.494393
O O15 0.140022 0.251632 0.447453
O O16 0.000000 0.282106 0.500000
O O17 0.276572 0.500000 0.951085
O O18 0.250000 0.250000 0.000000
O O19 0.100444 0.000000 0.398183
#
# Coordination Sequence:
#
# PCOD8090679 Si02
#       7
#     8   8   8   8   8   8   8
#     4  10  23  42  62  84 119 161 193 234 296 354
#     4  11  24  40  58  84 116 152 199 246 286 342
#     4  10  20  39  63  90 123 155 191 236 291 352
#     4  10  21  39  60  83 117 156 193 237 296 353
#     4  10  19  33  58  89 115 148 194 241 289 349
#     4  11  22  38  62  92 121 153 193 239 293 350
#     4  10  22  38  58  84 116 153 192 242 296 343
#
# _framework density 19.297882000000001
#
# number of rings (size 3 to 8) (size 9 to 14) (size 15 to 20)
#    0.000    1.714    2.857    1.286    0.000    5.143 
#    0.000    4.286    0.000    0.000    0.000    0.000 
#    0.000    0.000    0.000    0.000    0.000    0.000 
#
# Total GULP energy -347338.652069 kJ/mol
# GULP energy per Si atom -12404.951860 kJ/mol
# Density = 1.925396 g / cm^3
# Si number density = 19.297882 Si / 1000 Ang^3
#
#
#
# Elastic Constant Matrix: (Units=GPa)
#
#
# Indices 1 2 3 4 5 6 
#
# 1 101.9431 39.5160 30.1189 0.0000 -11.3860 0.0000
# 2 39.5160 69.5016 45.9362 0.0000 -5.3543 0.0000
# 3 30.1189 45.9362 104.7723 0.0000 -13.4272 0.0000
# 4 0.0000 0.0000 0.0000 36.1270 0.0000 -2.5349
# 5 -11.3860 -5.3543 -13.4272 0.0000 22.0720 0.0000
# 6 0.0000 0.0000 0.0000 -2.5349 0.0000 30.4166
#
#
#
# Elastic Compliance Matrix: (Units=1/GPa)
#
#
# Indices 1 2 3 4 5 6 
#
# 1 0.013113 -0.007044 -0.000036 0.000000 0.005034 0.000000
# 2 -0.007044 0.024048 -0.008933 0.000000 -0.003234 0.000000
# 3 -0.000036 -0.008933 0.014307 0.000000 0.006518 0.000000
# 4 0.000000 0.000000 0.000000 0.027843 0.000000 0.002320
# 5 0.005034 -0.003234 0.006518 0.000000 0.051083 0.000000
# 6 0.000000 0.000000 0.000000 0.002320 0.000000 0.033070
#
#
# Mechanical properties :
#
#
# Convention : Reuss Voigt Hill
#
# Bulk Modulus (GPa) = 51.43671 56.37324 53.90498
# Shear Modulus (GPa) = 24.75609 28.43284 26.59446
#
# Velocity S-wave (km/s) = 3.58556 3.84261 3.71631
# Velocity P-wave (km/s) = 6.62220 6.99736 6.81237
#
# Compressibility (1/GPa) = 0.01944137
#
# Stress axis : x y z
#
# Youngs Moduli (GPa) = 76.26254 41.58335 69.89642
#
# Poissons Ratio (x) = 0.29290 0.00253
# Poissons Ratio (y) = 0.53717 0.62440
# Poissons Ratio (z) = 0.00276 0.37148
#
# Static dielectric constant tensor:
#      x y z
#    x 3.624750 0.000000 0.011090 
#    y 0.000000 3.451110 0.000000 
#    z 0.011090 0.000000 3.400000 
# 
# 
# High freq. dielectric constant tensor:
#      x y z
#    x 1.764700 0.000000 -0.004410 
#    y 0.000000 1.746340 0.000000 
#    z -0.004410 0.000000 1.746560 
# 
# From -- ./inp_files/309010.got.cif
#   From: 2010.06.25/outbox.cif.g09.slc.cpg/sg12_155_cif.got.tgz:309010.got - 2010.06.28 00:19:55.
