data_PCOD8090973
_publ_section_title
;
Structure prediction by ZEFSAII (Michael W. Deem and Ramdas Pophale) SiO2 
 PCOD8090973
Probable space group: C 2/M
;
_chemical_formula_sum "Si O2"
_cell_formula_units_Z 56
_cell_length_a 20.069940
_cell_length_b 24.023874
_cell_length_c 16.661563
_cell_angle_alpha 90.000000
_cell_angle_beta 159.486394
_cell_angle_gamma 90.000000
_cell_volume 2815.178188
_symmetry_space_group_name_H-M "C 2/M"
_symmetry_group_IT_number 12
_symmetry_cell_setting 'monoclinic'
loop_
_space_group_symop_operation_xyz
x,y,z
-x,y,-z
-x,-y,-z
x,-y,z
1/2+x,1/2+y,z
1/2-x,1/2+y,-z
1/2-x,1/2-y,-z
1/2+x,1/2-y,z
loop_
_atom_site_type_symbol
_atom_site_label
_atom_site_fract_x
_atom_site_fract_y
_atom_site_fract_z
Si Si1 0.783105 0.500000 0.369002
Si Si2 0.075997 0.886347 0.909478
Si Si3 0.835023 0.793526 0.265088
Si Si4 0.795198 0.325575 0.290378
Si Si5 0.859987 0.000000 0.964475
Si Si6 0.968665 0.203598 0.677946
Si Si7 0.324961 0.885807 0.482899
Si Si8 0.956860 0.313142 0.765084
O O1 0.783059 0.500000 0.272275
O O2 0.896201 0.444281 0.525085
O O3 0.570901 0.500000 0.164889
O O4 0.100295 0.848074 0.857974
O O5 0.854267 0.899014 0.664630
O O6 0.137114 0.855153 0.059154
O O7 0.180183 0.946291 0.024206
O O8 0.788333 0.740248 0.267528
O O9 0.000000 0.828404 0.500000
O O10 0.934470 0.775185 0.293925
O O11 0.635666 0.825961 0.026376
O O12 0.762370 0.339733 0.346526
O O13 0.000000 0.350947 0.500000
O O14 0.985381 0.251135 0.763579
O O15 0.746178 0.185261 0.417305
O O16 0.475782 0.857637 0.713569
#
# Coordination Sequence:
#
# PCOD8090973 Si02
#       8
#     4   8   8   8   4   8   8   8
#     4   9  16  30  52  78 112 143 179 216 253 313
#     4  10  19  34  54  76 108 149 184 215 259 317
#     4  11  23  37  53  77 106 140 182 233 281 318
#     4  11  21  31  47  76 107 148 175 214 263 313
#     4   9  16  30  52  80 108 143 181 216 253 315
#     4  10  21  36  54  78 107 145 182 225 272 323
#     4  10  20  34  54  78 109 148 184 215 260 321
#     4  10  20  35  55  78 106 143 185 224 267 326
#
# _framework density 19.892168999999999
#
# number of rings (size 3 to 8) (size 9 to 14) (size 15 to 20)
#    0.000    1.857    2.857    2.571    2.000    0.571 
#    5.143    1.429    0.000    0.000    0.000    2.000 
#    0.000    5.714    0.000    0.000    0.000    0.000 
#
# Total GULP energy -346882.581000 kJ/mol
# GULP energy per Si atom -12388.663607 kJ/mol
# Density = 1.984689 g / cm^3
# Si number density = 19.892169 Si / 1000 Ang^3
#
#
#
# Elastic Constant Matrix: (Units=GPa)
#
#
# Indices 1 2 3 4 5 6 
#
# 1 38.3283 27.5694 10.0454 0.0000 -7.4895 -0.0001
# 2 27.5694 115.0946 34.5323 0.0003 -21.8994 -0.0002
# 3 10.0454 34.5323 116.7200 0.0010 -18.7258 -0.0006
# 4 0.0000 0.0003 0.0010 5.2971 0.0002 -8.6398
# 5 -7.4895 -21.8994 -18.7258 0.0002 28.7164 -0.0001
# 6 -0.0001 -0.0002 -0.0006 -8.6398 -0.0001 21.1699
#
#
#
# Elastic Compliance Matrix: (Units=1/GPa)
#
#
# Indices 1 2 3 4 5 6 
#
# 1 0.031731 -0.007006 -0.000210 0.000001 0.002796 0.000000
# 2 -0.007006 0.012132 -0.002005 -0.000001 0.006118 0.000000
# 3 -0.000210 -0.002005 0.009967 -0.000005 0.004916 -0.000002
# 4 0.000001 -0.000001 -0.000005 0.564637 -0.000007 0.230438
# 5 0.002796 0.006118 0.004916 -0.000007 0.043424 -0.000003
# 6 0.000000 0.000000 -0.000002 0.230438 -0.000003 0.141283
#
#
# Mechanical properties :
#
#
# Convention : Reuss Voigt Hill
#
# Bulk Modulus (GPa) = 28.25658 46.04856 37.15257
# Shear Modulus (GPa) = 5.99944 24.23639 15.11792
#
# Velocity S-wave (km/s) = 1.73854 3.49433 2.75979
# Velocity P-wave (km/s) = 4.27384 6.28329 5.37334
#
# Compressibility (1/GPa) = 0.03538999
#
# Stress axis : x y z
#
# Youngs Moduli (GPa) = 31.51494 82.42513 100.32678
#
# Poissons Ratio (x) = 0.57745 0.02102
# Poissons Ratio (y) = 0.22079 0.20115
# Poissons Ratio (z) = 0.00660 0.16526
#
# Static dielectric constant tensor:
#      x y z
#    x 3.365590 0.000000 -0.076070 
#    y 0.000000 3.719320 0.000000 
#    z -0.076070 0.000000 3.941340 
# 
# 
# High freq. dielectric constant tensor:
#      x y z
#    x 1.746700 0.000000 0.006730 
#    y 0.000000 1.741470 0.000000 
#    z 0.006730 0.000000 1.785760 
# 
# From -- ./inp_files/286377.got.cif
#   From: 2010.06.25/outbox.cif.g09.slc.cpg/sg12_144_cif.got.tgz:286377.got - 2010.06.28 00:19:55.
