data_PCOD8090644
_publ_section_title
;
Structure prediction by ZEFSAII (Michael W. Deem and Ramdas Pophale) SiO2 
 PCOD8090644
Probable space group: C 2/M
;
_chemical_formula_sum "Si O2"
_cell_formula_units_Z 56
_cell_length_a 15.564812
_cell_length_b 18.614237
_cell_length_c 10.639237
_cell_angle_alpha 90.000000
_cell_angle_beta 67.360996
_cell_angle_gamma 90.000000
_cell_volume 2844.965608
_symmetry_space_group_name_H-M "C 2/M"
_symmetry_group_IT_number 12
_symmetry_cell_setting 'monoclinic'
loop_
_space_group_symop_operation_xyz
x,y,z
-x,y,-z
-x,-y,-z
x,-y,z
1/2+x,1/2+y,z
1/2-x,1/2+y,-z
1/2-x,1/2-y,-z
1/2+x,1/2-y,z
loop_
_atom_site_type_symbol
_atom_site_label
_atom_site_fract_x
_atom_site_fract_y
_atom_site_fract_z
Si Si1 0.627377 0.680534 0.027283
Si Si2 0.073997 0.835865 0.787239
Si Si3 0.845425 0.581310 0.294891
Si Si4 0.455388 0.799378 0.339945
Si Si5 0.648326 0.795230 0.349090
Si Si6 0.281777 0.188025 0.128417
Si Si7 0.766898 0.918395 0.398865
O O1 0.537404 0.657016 0.158210
O O2 0.716355 0.654837 0.055572
O O3 0.616984 0.643004 0.897925
O O4 0.638055 0.766001 0.988410
O O5 0.088275 0.751818 0.743750
O O6 0.126610 0.889242 0.662729
O O7 0.873886 0.500000 0.248212
O O8 0.931901 0.619083 0.316038
O O9 0.822780 0.619975 0.176894
O O10 0.759224 0.585694 0.439682
O O11 0.567311 0.799018 0.289378
O O12 0.402567 0.771712 0.494376
O O13 0.723694 0.738138 0.258065
O O14 0.700580 0.870685 0.345610
O O15 0.760938 0.000000 0.352823
#
# Coordination Sequence:
#
# PCOD8090644 Si02
#       7
#     8   8   8   8   8   8   8
#     4  10  22  32  59  82 107 146 188 234 275 319
#     4  11  19  37  56  83 111 143 191 234 276 329
#     4  10  21  37  58  84 116 150 181 229 290 343
#     4  10  19  33  58  86 110 141 186 241 286 328
#     4  10  19  33  58  85 109 142 189 242 284 321
#     4  11  19  37  57  83 111 145 193 235 279 330
#     4  10  21  37  57  82 116 153 186 227 285 340
#
# _framework density 19.683893999999999
#
# number of rings (size 3 to 8) (size 9 to 14) (size 15 to 20)
#    0.000    1.714    4.286    0.857    0.000    2.857 
#    0.000    5.714    0.000    3.429    0.000    0.000 
#    0.000    0.000    0.000    0.000    0.000    0.000 
#
# Total GULP energy -346948.279522 kJ/mol
# GULP energy per Si atom -12391.009983 kJ/mol
# Density = 1.963909 g / cm^3
# Si number density = 19.683894 Si / 1000 Ang^3
#
#
#
# Elastic Constant Matrix: (Units=GPa)
#
#
# Indices 1 2 3 4 5 6 
#
# 1 72.3073 15.1055 21.6529 0.0000 3.3143 0.0000
# 2 15.1055 77.6674 14.0492 0.0000 5.8836 0.0000
# 3 21.6529 14.0492 41.4635 0.0000 0.1448 0.0000
# 4 0.0000 0.0000 0.0000 26.2411 0.0000 3.3447
# 5 3.3143 5.8836 0.1448 0.0000 36.3191 0.0000
# 6 0.0000 0.0000 0.0000 3.3447 0.0000 17.4301
#
#
#
# Elastic Compliance Matrix: (Units=1/GPa)
#
#
# Indices 1 2 3 4 5 6 
#
# 1 0.016672 -0.001679 -0.008133 0.000000 -0.001217 0.000000
# 2 -0.001679 0.014064 -0.003881 0.000000 -0.002110 0.000000
# 3 -0.008133 -0.003881 0.029676 0.000000 0.001253 0.000000
# 4 0.000000 0.000000 0.000000 0.039064 0.000000 -0.007496
# 5 -0.001217 -0.002110 0.001253 0.000000 0.027982 0.000000
# 6 0.000000 0.000000 0.000000 -0.007496 0.000000 0.058810
#
#
# Mechanical properties :
#
#
# Convention : Reuss Voigt Hill
#
# Bulk Modulus (GPa) = 30.28046 32.56149 31.42097
# Shear Modulus (GPa) = 22.25568 25.37344 23.81456
#
# Velocity S-wave (km/s) = 3.36617 3.59422 3.48206
# Velocity P-wave (km/s) = 5.52493 5.81401 5.67131
#
# Compressibility (1/GPa) = 0.03302460
#
# Stress axis : x y z
#
# Youngs Moduli (GPa) = 59.98099 71.10432 33.69780
#
# Poissons Ratio (x) = 0.11939 0.27407
# Poissons Ratio (y) = 0.10072 0.13078
# Poissons Ratio (z) = 0.48784 0.27596
#
# Static dielectric constant tensor:
#      x y z
#    x 3.622650 0.000000 -0.070020 
#    y 0.000000 3.318470 0.000000 
#    z -0.070020 0.000000 3.754630 
# 
# 
# High freq. dielectric constant tensor:
#      x y z
#    x 1.768830 0.000000 -0.001980 
#    y 0.000000 1.726560 0.000000 
#    z -0.001980 0.000000 1.776870 
# 
# From -- ./inp_files/145503.got.cif
#   From: 2010.06.25/outbox.cif.g09.slc.cpg/sg12_73_cif.got.tgz:145503.got - 2010.06.28 00:19:55.
