data_PCOD8090508
_publ_section_title
;
Structure prediction by ZEFSAII (Michael W. Deem and Ramdas Pophale) SiO2 
 PCOD8090508
Probable space group: C 2/M
;
_chemical_formula_sum "Si O2"
_cell_formula_units_Z 64
_cell_length_a 18.749147
_cell_length_b 8.985371
_cell_length_c 20.964391
_cell_angle_alpha 90.000000
_cell_angle_beta 91.704361
_cell_angle_gamma 90.000000
_cell_volume 3530.267413
_symmetry_space_group_name_H-M "C 2/M"
_symmetry_group_IT_number 12
_symmetry_cell_setting 'monoclinic'
loop_
_space_group_symop_operation_xyz
x,y,z
-x,y,-z
-x,-y,-z
x,-y,z
1/2+x,1/2+y,z
1/2-x,1/2+y,-z
1/2-x,1/2-y,-z
1/2+x,1/2-y,z
loop_
_atom_site_type_symbol
_atom_site_label
_atom_site_fract_x
_atom_site_fract_y
_atom_site_fract_z
Si Si1 0.460765 0.163693 0.065883
Si Si2 0.109242 0.170134 0.266123
Si Si3 0.588328 0.326765 0.120067
Si Si4 0.113914 0.172862 0.459736
Si Si5 0.126416 0.174354 0.605820
Si Si6 0.512465 0.824601 0.362080
Si Si7 0.674100 0.176781 0.011102
Si Si8 0.766763 0.830895 0.637381
O O1 0.505208 0.277161 0.111119
O O2 0.379611 0.217667 0.049103
O O3 0.459718 0.000000 0.098381
O O4 0.500000 0.151387 0.000000
O O5 0.113232 0.209048 0.192056
O O6 0.052880 0.275863 0.299215
O O7 0.187548 0.195402 0.297480
O O8 0.084820 0.000000 0.277060
O O9 0.593561 0.500000 0.103317
O O10 0.641751 0.237323 0.076132
O O11 0.124769 0.225743 0.532157
O O12 0.049048 0.263087 0.427176
O O13 0.186216 0.206377 0.423515
O O14 0.093179 0.000000 0.454521
O O15 0.201892 0.216857 0.638254
O O16 0.067057 0.261123 0.644120
O O17 0.113860 0.000000 0.612542
O O18 0.510571 0.000000 0.365493
O O19 0.682445 0.000000 0.017337
O O20 0.750000 0.250000 0.000000
O O21 0.738383 0.000000 0.633077
#
# Coordination Sequence:
#
# PCOD8090508 Si02
#       8
#     8   8   8   8   8   8   8   8
#     4   8  16  31  50  75 107 139 168 203 247 291
#     4   9  20  39  57  74 101 136 172 211 257 307
#     4  10  19  33  57  82 103 135 176 212 250 302
#     4   9  19  35  53  73 101 135 165 204 262 318
#     4  11  21  33  51  75 103 133 166 208 262 315
#     4  11  22  34  52  76 100 130 171 216 256 301
#     4  10  20  34  53  80 114 144 171 208 254 299
#     4   9  18  34  53  73 101 134 169 210 255 305
#
# _framework density 18.128938000000002
#
# number of rings (size 3 to 8) (size 9 to 14) (size 15 to 20)
#    0.000    2.375    0.000    4.500    0.000    8.250 
#    0.000    1.250    0.000    1.500    0.000    0.000 
#    0.000    0.000    0.000    0.000    0.000    0.000 
#
# Total GULP energy -396813.127027 kJ/mol
# GULP energy per Si atom -12400.410220 kJ/mol
# Density = 1.808768 g / cm^3
# Si number density = 18.128938 Si / 1000 Ang^3
#
#
#
# Elastic Constant Matrix: (Units=GPa)
#
#
# Indices 1 2 3 4 5 6 
#
# 1 131.2035 60.7997 44.6905 0.0000 5.5209 0.0000
# 2 60.7997 97.6105 41.9769 0.0000 3.8104 0.0000
# 3 44.6905 41.9769 85.9451 0.0000 10.6497 0.0000
# 4 0.0000 0.0000 0.0000 23.0193 0.0000 3.5651
# 5 5.5209 3.8104 10.6497 0.0000 13.3163 0.0000
# 6 0.0000 0.0000 0.0000 3.5651 0.0000 35.7281
#
#
#
# Elastic Compliance Matrix: (Units=1/GPa)
#
#
# Indices 1 2 3 4 5 6 
#
# 1 0.011334 -0.005740 -0.003010 0.000000 -0.000650 0.000000
# 2 -0.005740 0.015903 -0.005010 0.000000 0.001836 0.000000
# 3 -0.003010 -0.005010 0.017000 0.000000 -0.010914 0.000000
# 4 0.000000 0.000000 0.000000 0.044124 0.000000 -0.004403
# 5 -0.000650 0.001836 -0.010914 0.000000 0.083568 0.000000
# 6 0.000000 0.000000 0.000000 -0.004403 0.000000 0.028429
#
#
# Mechanical properties :
#
#
# Convention : Reuss Voigt Hill
#
# Bulk Modulus (GPa) = 59.81783 67.74371 63.78077
# Shear Modulus (GPa) = 21.41790 25.56552 23.49171
#
# Velocity S-wave (km/s) = 3.44091 3.75934 3.60365
# Velocity P-wave (km/s) = 6.98955 7.50283 7.25073
#
# Compressibility (1/GPa) = 0.01671742
#
# Stress axis : x y z
#
# Youngs Moduli (GPa) = 88.22816 62.88054 58.82491
#
# Poissons Ratio (x) = 0.36095 0.17704
# Poissons Ratio (y) = 0.50646 0.29471
# Poissons Ratio (z) = 0.26553 0.31503
#
# Static dielectric constant tensor:
#      x y z
#    x 3.477260 0.000000 0.176180 
#    y 0.000000 3.359490 0.000000 
#    z 0.176180 0.000000 3.229040 
# 
# 
# High freq. dielectric constant tensor:
#      x y z
#    x 1.704200 0.000000 0.010080 
#    y 0.000000 1.706350 0.000000 
#    z 0.010080 0.000000 1.681150 
# 
# From -- ./inp_files/313972.got.cif
#   From: 2010.06.25/outbox.cif.g09.slc.cpg/sg12_157_cif.got.tgz:313972.got - 2010.06.28 00:19:55.
