data_PCOD8090743
_publ_section_title
;
Structure prediction by ZEFSAII (Michael W. Deem and Ramdas Pophale) SiO2 
 PCOD8090743
Probable space group: C 2/M
;
_chemical_formula_sum "Si O2"
_cell_formula_units_Z 56
_cell_length_a 14.144331
_cell_length_b 23.933628
_cell_length_c 8.543651
_cell_angle_alpha 90.000000
_cell_angle_beta 70.007518
_cell_angle_gamma 90.000000
_cell_volume 2717.947103
_symmetry_space_group_name_H-M "C 2/M"
_symmetry_group_IT_number 12
_symmetry_cell_setting 'monoclinic'
loop_
_space_group_symop_operation_xyz
x,y,z
-x,y,-z
-x,-y,-z
x,-y,z
1/2+x,1/2+y,z
1/2-x,1/2+y,-z
1/2-x,1/2-y,-z
1/2+x,1/2-y,z
loop_
_atom_site_type_symbol
_atom_site_label
_atom_site_fract_x
_atom_site_fract_y
_atom_site_fract_z
Si Si1 0.529571 0.266708 0.158532
Si Si2 0.084608 0.355601 0.068938
Si Si3 0.805045 0.061176 0.323258
Si Si4 0.094109 0.564852 0.350975
Si Si5 0.097024 0.062416 0.044079
Si Si6 0.306123 0.342496 0.815309
Si Si7 0.408343 0.656192 0.448580
O O1 0.538991 0.200303 0.172761
O O2 0.640347 0.291193 0.127665
O O3 0.444478 0.289799 0.327749
O O4 0.500000 0.283563 0.000000
O O5 0.107404 0.401010 0.185508
O O6 0.188283 0.343368 0.918233
O O7 0.000000 0.379954 0.000000
O O8 0.687744 0.074603 0.416560
O O9 0.879437 0.106595 0.349882
O O10 0.833359 0.000000 0.376355
O O11 0.812265 0.060464 0.130788
O O12 0.081805 0.500000 0.312653
O O13 0.000000 0.587938 0.500000
O O14 0.131215 0.102177 0.166963
O O15 0.074909 0.000000 0.123861
O O16 0.000000 0.084262 0.000000
O O17 0.316826 0.332155 0.621312
O O18 0.500000 0.634039 0.500000
#
# Coordination Sequence:
#
# PCOD8090743 Si02
#       7
#     8   8   8   8   8   8   8
#     4  10  22  42  63  88 122 163 204 251 310 378
#     4  11  25  42  63  92 121 158 213 261 307 360
#     4  10  20  37  60  91 124 163 207 242 295 371
#     4  10  23  43  66  90 122 165 212 254 298 357
#     4  10  19  33  59  93 124 161 203 245 303 375
#     4  11  21  38  62  88 127 160 202 253 316 360
#     4  10  22  37  61  92 129 161 196 250 312 364
#
# _framework density 20.603784999999998
#
# number of rings (size 3 to 8) (size 9 to 14) (size 15 to 20)
#    0.000    1.714    1.429    3.429    2.000    2.857 
#    0.000    2.857    0.000    0.000    0.000    0.000 
#    0.000    0.000    0.000    0.000    0.000    0.000 
#
# Total GULP energy -347068.551620 kJ/mol
# GULP energy per Si atom -12395.305415 kJ/mol
# Density = 2.055689 g / cm^3
# Si number density = 20.603785 Si / 1000 Ang^3
#
#
#
# Elastic Constant Matrix: (Units=GPa)
#
#
# Indices 1 2 3 4 5 6 
#
# 1 86.3365 32.3132 39.1998 0.0000 -10.7915 0.0000
# 2 32.3132 90.8343 38.5697 0.0000 5.6946 0.0000
# 3 39.1998 38.5697 115.8970 0.0000 -12.0811 0.0000
# 4 0.0000 0.0000 0.0000 5.8880 0.0000 2.5875
# 5 -10.7915 5.6946 -12.0811 0.0000 35.7693 0.0000
# 6 0.0000 0.0000 0.0000 2.5875 0.0000 18.3624
#
#
#
# Elastic Compliance Matrix: (Units=1/GPa)
#
#
# Indices 1 2 3 4 5 6 
#
# 1 0.015191 -0.004270 -0.003284 0.000000 0.004154 0.000000
# 2 -0.004270 0.014487 -0.003889 0.000000 -0.004908 0.000000
# 3 -0.003284 -0.003889 0.011396 0.000000 0.003477 0.000000
# 4 0.000000 0.000000 0.000000 0.181048 0.000000 -0.025512
# 5 0.004154 -0.004908 0.003477 0.000000 0.031166 0.000000
# 6 0.000000 0.000000 0.000000 -0.025512 0.000000 0.058054
#
#
# Mechanical properties :
#
#
# Convention : Reuss Voigt Hill
#
# Bulk Modulus (GPa) = 54.97991 57.02590 56.00291
# Shear Modulus (GPa) = 14.69336 24.20294 19.44815
#
# Velocity S-wave (km/s) = 2.67336 3.43108 3.07565
# Velocity P-wave (km/s) = 6.02258 6.59044 6.31290
#
# Compressibility (1/GPa) = 0.01818846
#
# Stress axis : x y z
#
# Youngs Moduli (GPa) = 65.82864 69.02808 87.75288
#
# Poissons Ratio (x) = 0.29475 0.28818
# Poissons Ratio (y) = 0.28108 0.34123
# Poissons Ratio (z) = 0.21618 0.26842
#
# Static dielectric constant tensor:
#      x y z
#    x 3.770500 0.000000 -0.193490 
#    y 0.000000 3.622020 0.000000 
#    z -0.193490 0.000000 3.877820 
# 
# 
# High freq. dielectric constant tensor:
#      x y z
#    x 1.810110 0.000000 -0.013740 
#    y 0.000000 1.798720 0.000000 
#    z -0.013740 0.000000 1.800950 
# 
# From -- ./inp_files/65282.got.cif
#   From: 2010.06.25/outbox.cif.g09.slc.cpg/sg12_33_cif.got.tgz:65282.got - 2010.06.28 00:19:55.
