data_PCOD8090555
_publ_section_title
;
Structure prediction by ZEFSAII (Michael W. Deem and Ramdas Pophale) SiO2 
 PCOD8090555
Probable space group: C 2/M
;
_chemical_formula_sum "Si O2"
_cell_formula_units_Z 48
_cell_length_a 26.978280
_cell_length_b 9.086731
_cell_length_c 11.590291
_cell_angle_alpha 90.000000
_cell_angle_beta 57.650058
_cell_angle_gamma 90.000000
_cell_volume 2400.313601
_symmetry_space_group_name_H-M "C 2/M"
_symmetry_group_IT_number 12
_symmetry_cell_setting 'monoclinic'
loop_
_space_group_symop_operation_xyz
x,y,z
-x,y,-z
-x,-y,-z
x,-y,z
1/2+x,1/2+y,z
1/2-x,1/2+y,-z
1/2-x,1/2-y,-z
1/2+x,1/2-y,z
loop_
_atom_site_type_symbol
_atom_site_label
_atom_site_fract_x
_atom_site_fract_y
_atom_site_fract_z
Si Si1 0.385617 0.673379 0.818503
Si Si2 0.619641 0.826723 0.404552
Si Si3 0.555605 0.674935 0.863977
Si Si4 0.522168 0.327788 0.655191
Si Si5 0.338341 0.325945 0.119514
Si Si6 0.232214 0.327482 0.404043
O O1 0.377039 0.500000 0.811607
O O2 0.358548 0.758368 0.743285
O O3 0.454081 0.714202 0.746112
O O4 0.350810 0.732576 0.974729
O O5 0.555905 0.759058 0.512547
O O6 0.666715 0.785119 0.445389
O O7 0.614099 0.000000 0.396846
O O8 0.553623 0.500000 0.874442
O O9 0.553039 0.723875 0.734728
O O10 0.613986 0.739356 0.850210
O O11 0.500000 0.741917 0.000000
O O12 0.530287 0.500000 0.620490
O O13 0.345643 0.500000 0.106481
O O14 0.274970 0.277607 0.245926
O O15 0.239037 0.500000 0.417582
O O16 0.250000 0.250000 0.500000
#
# Coordination Sequence:
#
# PCOD8090555 Si02
#       6
#     8   8   8   8   8   8
#     4  10  20  35  57  84 109 138 186 236 273 316
#     4  11  24  38  52  76 114 153 184 216 267 332
#     4   9  14  25  50  84 110 126 160 222 283 317
#     4  10  19  33  57  85 110 140 185 233 272 318
#     4   9  17  32  55  82 111 139 174 228 280 318
#     4  10  22  40  60  82 109 143 182 223 271 327
#
# _framework density 19.997385000000001
#
# number of rings (size 3 to 8) (size 9 to 14) (size 15 to 20)
#    0.000    2.167    1.667    2.000    0.000    6.000 
#    0.000    0.833    0.000    1.500    0.000    0.000 
#    0.000    0.000    0.000    0.000    0.000    0.000 
#
# Total GULP energy -297573.984691 kJ/mol
# GULP energy per Si atom -12398.916029 kJ/mol
# Density = 1.995187 g / cm^3
# Si number density = 19.997385 Si / 1000 Ang^3
#
#
#
# Elastic Constant Matrix: (Units=GPa)
#
#
# Indices 1 2 3 4 5 6 
#
# 1 76.3201 37.6036 41.3619 0.0000 6.6559 0.0000
# 2 37.6036 43.8305 38.7569 0.0000 3.9940 0.0000
# 3 41.3619 38.7569 141.3224 0.0000 6.0512 0.0000
# 4 0.0000 0.0000 0.0000 20.2465 0.0000 5.7053
# 5 6.6559 3.9940 6.0512 0.0000 38.9639 0.0000
# 6 0.0000 0.0000 0.0000 5.7053 0.0000 23.1795
#
#
#
# Elastic Compliance Matrix: (Units=1/GPa)
#
#
# Indices 1 2 3 4 5 6 
#
# 1 0.023146 -0.018178 -0.001711 0.000000 -0.001825 0.000000
# 2 -0.018178 0.044524 -0.006873 0.000000 -0.000391 0.000000
# 3 -0.001711 -0.006873 0.009482 0.000000 -0.000476 0.000000
# 4 0.000000 0.000000 0.000000 0.053072 0.000000 -0.013063
# 5 -0.001825 -0.000391 -0.000476 0.000000 0.026090 0.000000
# 6 0.000000 0.000000 0.000000 -0.013063 0.000000 0.046357
#
#
# Mechanical properties :
#
#
# Convention : Reuss Voigt Hill
#
# Bulk Modulus (GPa) = 42.32443 55.21309 48.76876
# Shear Modulus (GPa) = 18.93419 26.06135 22.49777
#
# Velocity S-wave (km/s) = 3.08040 3.61396 3.35779
# Velocity P-wave (km/s) = 5.81917 6.71449 6.28280
#
# Compressibility (1/GPa) = 0.02362702
#
# Stress axis : x y z
#
# Youngs Moduli (GPa) = 43.20472 22.45961 105.46202
#
# Poissons Ratio (x) = 0.40828 0.18042
# Poissons Ratio (y) = 0.78539 0.72488
# Poissons Ratio (z) = 0.07391 0.15437
#
# Static dielectric constant tensor:
#      x y z
#    x 3.745000 0.000000 0.048410 
#    y 0.000000 3.117030 0.000000 
#    z 0.048410 0.000000 3.823210 
# 
# 
# High freq. dielectric constant tensor:
#      x y z
#    x 1.785140 0.000000 0.005440 
#    y 0.000000 1.729180 0.000000 
#    z 0.005440 0.000000 1.795970 
# 
# From -- ./inp_files/172390.got.cif
#   From: 2010.06.25/outbox.cif.g09.slc.cpg/sg12_87_cif.got.tgz:172390.got - 2010.06.28 00:19:55.
