data_PCOD8090922
_publ_section_title
;
Structure prediction by ZEFSAII (Michael W. Deem and Ramdas Pophale) SiO2 
 PCOD8090922
Probable space group: C 2/M
;
_chemical_formula_sum "Si O2"
_cell_formula_units_Z 56
_cell_length_a 21.843330
_cell_length_b 27.792712
_cell_length_c 9.965171
_cell_angle_alpha 90.000000
_cell_angle_beta 28.327085
_cell_angle_gamma 90.000000
_cell_volume 2870.613698
_symmetry_space_group_name_H-M "C 2/M"
_symmetry_group_IT_number 12
_symmetry_cell_setting 'monoclinic'
loop_
_space_group_symop_operation_xyz
x,y,z
-x,y,-z
-x,-y,-z
x,-y,z
1/2+x,1/2+y,z
1/2-x,1/2+y,-z
1/2-x,1/2-y,-z
1/2+x,1/2-y,z
loop_
_atom_site_type_symbol
_atom_site_label
_atom_site_fract_x
_atom_site_fract_y
_atom_site_fract_z
Si Si1 0.452668 0.894372 0.948191
Si Si2 0.611556 0.443897 0.392828
Si Si3 0.679653 0.643077 0.411481
Si Si4 0.801223 0.698549 0.944090
Si Si5 0.621220 0.735240 0.673248
Si Si6 0.601747 0.054648 0.204572
Si Si7 0.567681 0.187617 0.569456
O O1 0.443850 0.938230 0.860378
O O2 0.557698 0.856215 0.692995
O O3 0.500000 0.914318 0.000000
O O4 0.313259 0.869787 0.226820
O O5 0.500000 0.436380 0.500000
O O6 0.613764 0.500000 0.438403
O O7 0.594084 0.405825 0.550148
O O8 0.750426 0.428208 0.061259
O O9 0.610580 0.679357 0.648227
O O10 0.698806 0.668123 0.228240
O O11 0.839332 0.671325 0.732277
O O12 0.927732 0.704261 0.790025
O O13 0.750000 0.750000 0.000000
O O14 0.750000 0.750000 0.500000
O O15 0.626443 0.766200 0.528438
O O16 0.500000 0.748230 0.000000
O O17 0.500000 0.082395 0.500000
O O18 0.597309 0.000000 0.253713
#
# Coordination Sequence:
#
# PCOD8090922 Si02
#       7
#     8   8   8   8   8   8   8
#     4  10  20  35  54  79 115 154 189 227 291 355
#     4   9  19  37  59  83 116 151 186 238 306 356
#     4  10  21  36  56  84 114 148 200 244 285 353
#     4  10  19  34  53  80 110 145 185 242 293 337
#     4  12  24  40  58  79 116 160 197 235 285 351
#     4   9  19  35  59  88 114 142 188 244 290 343
#     4  10  21  33  53  76 112 150 185 230 292 344
#
# _framework density 19.508023999999999
#
# number of rings (size 3 to 8) (size 9 to 14) (size 15 to 20)
#    0.000    2.000    1.429    3.000    6.000    1.429 
#    0.000    1.429    0.000    0.429    0.000    0.000 
#    0.000    0.000    0.000    0.000    0.000    0.000 
#
# Total GULP energy -346958.940661 kJ/mol
# GULP energy per Si atom -12391.390738 kJ/mol
# Density = 1.946362 g / cm^3
# Si number density = 19.508024 Si / 1000 Ang^3
#
#
#
# Elastic Constant Matrix: (Units=GPa)
#
#
# Indices 1 2 3 4 5 6 
#
# 1 118.1897 25.3865 43.9970 0.0016 4.5826 -0.0004
# 2 25.3865 65.3298 11.7401 -0.0002 -7.9366 0.0002
# 3 43.9970 11.7401 67.4495 -0.0034 1.6309 0.0076
# 4 0.0016 -0.0002 -0.0034 22.3432 0.0001 1.6784
# 5 4.5826 -7.9366 1.6309 0.0001 19.0314 -0.0015
# 6 -0.0004 0.0002 0.0076 1.6784 -0.0015 31.0015
#
#
#
# Elastic Compliance Matrix: (Units=1/GPa)
#
#
# Indices 1 2 3 4 5 6 
#
# 1 0.012102 -0.003901 -0.007120 -0.000002 -0.003930 0.000002
# 2 -0.003901 0.018000 -0.000795 0.000000 0.008514 0.000000
# 3 -0.007120 -0.000795 0.019616 0.000004 -0.000298 -0.000005
# 4 -0.000002 0.000000 0.000004 0.044939 0.000000 -0.002433
# 5 -0.003930 0.008514 -0.000298 0.000000 0.057067 0.000003
# 6 0.000002 0.000000 -0.000005 -0.002433 0.000003 0.032388
#
#
# Mechanical properties :
#
#
# Convention : Reuss Voigt Hill
#
# Bulk Modulus (GPa) = 38.33314 45.91291 42.12303
# Shear Modulus (GPa) = 23.10140 25.79825 24.44983
#
# Velocity S-wave (km/s) = 3.44495 3.64049 3.54407
# Velocity P-wave (km/s) = 5.95955 6.42319 6.19571
#
# Compressibility (1/GPa) = 0.02608709
#
# Stress axis : x y z
#
# Youngs Moduli (GPa) = 82.63360 55.55628 50.97972
#
# Poissons Ratio (x) = 0.21670 0.36297
# Poissons Ratio (y) = 0.32232 0.04050
# Poissons Ratio (z) = 0.58834 0.04414
#
# Static dielectric constant tensor:
#      x y z
#    x 3.478040 -0.000010 0.051040 
#    y -0.000010 3.705240 0.000050 
#    z 0.051040 0.000050 3.652650 
# 
# 
# High freq. dielectric constant tensor:
#      x y z
#    x 1.753270 0.000000 -0.000530 
#    y 0.000000 1.762740 0.000000 
#    z -0.000530 0.000000 1.743300 
# 
# From -- ./inp_files/91550.got.cif
#   From: 2010.06.25/outbox.cif.g09.slc.cpg/sg12_46_cif.got.tgz:91550.got - 2010.06.28 00:19:55.
