data_PCOD8090172
_publ_section_title
;
Structure prediction by ZEFSAII (Michael W. Deem and Ramdas Pophale) SiO2 
 PCOD8090172
Probable space group: C 2/M
;
_chemical_formula_sum "Si O2"
_cell_formula_units_Z 64
_cell_length_a 29.323330
_cell_length_b 8.993342
_cell_length_c 15.141090
_cell_angle_alpha 90.000000
_cell_angle_beta 59.014560
_cell_angle_gamma 90.000000
_cell_volume 3423.130269
_symmetry_space_group_name_H-M "C 2/M"
_symmetry_group_IT_number 12
_symmetry_cell_setting 'monoclinic'
loop_
_space_group_symop_operation_xyz
x,y,z
-x,y,-z
-x,-y,-z
x,-y,z
1/2+x,1/2+y,z
1/2-x,1/2+y,-z
1/2-x,1/2-y,-z
1/2+x,1/2-y,z
loop_
_atom_site_type_symbol
_atom_site_label
_atom_site_fract_x
_atom_site_fract_y
_atom_site_fract_z
Si Si1 0.863581 0.674017 0.694641
Si Si2 0.947422 0.676261 0.099517
Si Si3 0.730914 0.327852 0.431426
Si Si4 0.390249 0.671717 0.493418
Si Si5 0.034576 0.323472 0.721647
Si Si6 0.643579 0.823440 0.941444
Si Si7 0.243902 0.174122 0.769245
Si Si8 0.585768 0.823752 0.174870
O O1 0.874623 0.500000 0.671528
O O2 0.894690 0.757878 0.585981
O O3 0.800930 0.709300 0.755540
O O4 0.886351 0.735649 0.764145
O O5 0.952157 0.500000 0.091858
O O6 0.944126 0.730841 0.204058
O O7 0.894768 0.728230 0.100344
O O8 0.000000 0.743546 0.000000
O O9 0.746846 0.500000 0.417303
O O10 0.750000 0.250000 0.500000
O O11 0.668235 0.303166 0.486679
O O12 0.761506 0.252452 0.319911
O O13 0.405268 0.500000 0.485419
O O14 0.430982 0.751558 0.388849
O O15 0.038283 0.500000 0.709043
O O16 0.974448 0.265524 0.770105
O O17 0.699892 0.742148 0.877569
O O18 0.652204 0.000000 0.932448
O O19 0.618154 0.765870 0.058035
O O20 0.234667 0.000000 0.765727
O O21 0.585802 0.000000 0.173139
#
# Coordination Sequence:
#
# PCOD8090172 Si02
#       8
#     8   8   8   8   8   8   8   8
#     4   9  19  38  59  77 103 143 186 229 270 315
#     4   9  16  30  53  80 108 138 175 220 265 315
#     4  10  21  37  56  78 106 141 181 223 269 321
#     4  10  22  38  54  78 111 142 175 221 274 325
#     4  10  19  33  56  83 109 141 182 223 265 320
#     4  10  19  33  55  83 111 141 179 224 272 321
#     4  10  21  36  53  77 110 144 182 223 268 322
#     4   9  18  34  58  83 106 138 187 234 267 311
#
# _framework density 18.696338999999998
#
# number of rings (size 3 to 8) (size 9 to 14) (size 15 to 20)
#    0.000    2.375    1.250    1.125    1.750    3.000 
#    0.000    4.375    0.000    0.750    0.000    0.000 
#    0.000    0.000    0.000    0.000    0.000    0.000 
#
# Total GULP energy -396861.148728 kJ/mol
# GULP energy per Si atom -12401.910898 kJ/mol
# Density = 1.865379 g / cm^3
# Si number density = 18.696339 Si / 1000 Ang^3
#
#
#
# Elastic Constant Matrix: (Units=GPa)
#
#
# Indices 1 2 3 4 5 6 
#
# 1 101.8134 40.1900 86.8764 0.0000 23.4616 0.0000
# 2 40.1900 62.0100 57.0297 0.0000 1.5687 0.0000
# 3 86.8764 57.0297 180.7767 0.0000 2.8275 0.0000
# 4 0.0000 0.0000 0.0000 24.5287 0.0000 -6.4581
# 5 23.4616 1.5687 2.8275 0.0000 37.9983 0.0000
# 6 0.0000 0.0000 0.0000 -6.4581 0.0000 20.1837
#
#
#
# Elastic Compliance Matrix: (Units=1/GPa)
#
#
# Indices 1 2 3 4 5 6 
#
# 1 0.022882 -0.006442 -0.008757 0.000000 -0.013210 0.000000
# 2 -0.006442 0.024537 -0.004697 0.000000 0.003314 0.000000
# 3 -0.008757 -0.004697 0.011147 0.000000 0.004772 0.000000
# 4 0.000000 0.000000 0.000000 0.044519 0.000000 0.014245
# 5 -0.013210 0.003314 0.004772 0.000000 0.033982 0.000000
# 6 0.000000 0.000000 0.000000 0.014245 0.000000 0.054103
#
#
# Mechanical properties :
#
#
# Convention : Reuss Voigt Hill
#
# Bulk Modulus (GPa) = 53.26498 79.19915 66.23206
# Shear Modulus (GPa) = 21.07747 27.24238 24.15992
#
# Velocity S-wave (km/s) = 3.36126 3.82134 3.59866
# Velocity P-wave (km/s) = 6.60420 7.86911 7.26424
#
# Compressibility (1/GPa) = 0.01877406
#
# Stress axis : x y z
#
# Youngs Moduli (GPa) = 43.70336 40.75424 89.70710
#
# Poissons Ratio (x) = 0.26253 0.78561
# Poissons Ratio (y) = 0.28152 0.42135
# Poissons Ratio (z) = 0.38273 0.19142
#
# Static dielectric constant tensor:
#      x y z
#    x 3.596680 0.000000 0.079080 
#    y 0.000000 3.170600 0.000000 
#    z 0.079080 0.000000 3.568080 
# 
# 
# High freq. dielectric constant tensor:
#      x y z
#    x 1.729810 0.000000 0.001700 
#    y 0.000000 1.698180 0.000000 
#    z 0.001700 0.000000 1.737490 
# 
# From -- ./inp_files/249046.got.cif
#   From: 2010.06.25/outbox.cif.g09.slc.cpg/sg12_125_cif.got.tgz:249046.got - 2010.06.28 00:19:55.
