data_PCOD8090266
_publ_section_title
;
Structure prediction by ZEFSAII (Michael W. Deem and Ramdas Pophale) SiO2 
 PCOD8090266
Probable space group: C 2/M
;
_chemical_formula_sum "Si O2"
_cell_formula_units_Z 56
_cell_length_a 23.419848
_cell_length_b 14.276734
_cell_length_c 23.994760
_cell_angle_alpha 90.000000
_cell_angle_beta 160.968229
_cell_angle_gamma 90.000000
_cell_volume 2616.194516
_symmetry_space_group_name_H-M "C 2/M"
_symmetry_group_IT_number 12
_symmetry_cell_setting 'monoclinic'
loop_
_space_group_symop_operation_xyz
x,y,z
-x,y,-z
-x,-y,-z
x,-y,z
1/2+x,1/2+y,z
1/2-x,1/2+y,-z
1/2-x,1/2-y,-z
1/2+x,1/2-y,z
loop_
_atom_site_type_symbol
_atom_site_label
_atom_site_fract_x
_atom_site_fract_y
_atom_site_fract_z
Si Si1 0.980497 0.241381 0.544416
Si Si2 0.268250 0.889049 0.859793
Si Si3 0.677437 0.894217 0.403692
Si Si4 0.957606 0.611304 0.304520
Si Si5 0.345954 0.313897 0.041256
Si Si6 0.905118 0.678832 0.785345
Si Si7 0.550449 0.395956 0.758809
O O1 0.793237 0.189761 0.376967
O O2 0.000000 0.279920 0.500000
O O3 0.141238 0.167403 0.700935
O O4 0.984167 0.332189 0.587207
O O5 0.204627 0.851907 0.862848
O O6 0.254296 0.000000 0.834437
O O7 0.474073 0.859212 0.051482
O O8 0.562214 0.850447 0.346764
O O9 0.587185 0.892996 0.259853
O O10 0.867064 0.842452 0.576441
O O11 0.708701 0.000000 0.451497
O O12 0.973060 0.500000 0.330032
O O13 0.761726 0.641374 0.108556
O O14 0.517636 0.273428 0.169623
O O15 0.412834 0.398932 0.141725
O O16 0.250000 0.250000 0.000000
O O17 0.535282 0.500000 0.720698
#
# Coordination Sequence:
#
# PCOD8090266 Si02
#       7
#     8   8   8   8   8   8   8
#     4  12  28  48  69  94 128 181 241 285 327 385
#     4  11  23  42  67  99 135 172 218 271 336 404
#     4  10  20  34  62 101 135 172 212 258 331 412
#     4  11  23  43  67  98 138 177 223 280 337 400
#     4  12  20  33  60  99 135 169 207 259 337 406
#     4  12  23  39  68  97 139 174 214 269 336 403
#     4  10  19  33  55  91 135 169 204 253 319 403
#
# _framework density 21.405135999999999
#
# number of rings (size 3 to 8) (size 9 to 14) (size 15 to 20)
#    0.000    0.857    5.714    1.714    0.000    5.143 
#    0.000    1.429    0.000    0.857    0.000    0.000 
#    0.000    0.000    0.000    0.000    0.000    0.000 
#
# Total GULP energy -346897.268060 kJ/mol
# GULP energy per Si atom -12389.188145 kJ/mol
# Density = 2.135642 g / cm^3
# Si number density = 21.405136 Si / 1000 Ang^3
#
#
#
# Elastic Constant Matrix: (Units=GPa)
#
#
# Indices 1 2 3 4 5 6 
#
# 1 83.6019 23.7506 36.4031 0.0071 -10.8334 0.0016
# 2 23.7506 80.4454 33.9104 0.0295 -3.3529 0.0077
# 3 36.4031 33.9104 141.6980 0.0478 -2.2993 0.0080
# 4 0.0071 0.0295 0.0478 30.6577 0.0093 -4.5755
# 5 -10.8334 -3.3529 -2.2993 0.0093 17.5930 -0.0032
# 6 0.0016 0.0077 0.0080 -4.5755 -0.0032 12.1739
#
#
#
# Elastic Compliance Matrix: (Units=1/GPa)
#
#
# Indices 1 2 3 4 5 6 
#
# 1 0.015203 -0.002835 -0.003091 0.000002 0.008418 0.000005
# 2 -0.002835 0.014440 -0.002717 -0.000011 0.000651 -0.000011
# 3 -0.003091 -0.002717 0.008480 -0.000011 -0.001313 -0.000008
# 4 0.000002 -0.000011 -0.000011 0.034557 -0.000018 0.012988
# 5 0.008418 0.000651 -0.001313 -0.000018 0.061977 0.000009
# 6 0.000005 -0.000011 -0.000008 0.012988 0.000009 0.087024
#
#
# Mechanical properties :
#
#
# Convention : Reuss Voigt Hill
#
# Bulk Modulus (GPa) = 47.98787 54.87486 51.43137
# Shear Modulus (GPa) = 20.33240 26.19701 23.26470
#
# Velocity S-wave (km/s) = 3.08536 3.50217 3.30035
# Velocity P-wave (km/s) = 5.92960 6.48426 6.21312
#
# Compressibility (1/GPa) = 0.02083860
#
# Stress axis : x y z
#
# Youngs Moduli (GPa) = 65.77440 69.25129 117.92167
#
# Poissons Ratio (x) = 0.19632 0.36448
# Poissons Ratio (y) = 0.18647 0.32038
# Poissons Ratio (z) = 0.20330 0.18815
#
# Static dielectric constant tensor:
#      x y z
#    x 3.634570 -0.000030 0.098280 
#    y -0.000030 3.718750 -0.000100 
#    z 0.098280 -0.000100 4.198960 
# 
# 
# High freq. dielectric constant tensor:
#      x y z
#    x 1.806780 0.000000 0.002040 
#    y 0.000000 1.830420 -0.000010 
#    z 0.002040 -0.000010 1.861160 
# 
# From -- ./inp_files/349803.got.cif
#   From: 2010.06.25/outbox.cif.g09.slc.cpg/sg12_175_cif.got.tgz:349803.got - 2010.06.28 00:19:55.
