data_PCOD8090396
_publ_section_title
;
Structure prediction by ZEFSAII (Michael W. Deem and Ramdas Pophale) SiO2 
 PCOD8090396
Probable space group: C 2/M
;
_chemical_formula_sum "Si O2"
_cell_formula_units_Z 56
_cell_length_a 9.759668
_cell_length_b 17.926462
_cell_length_c 19.298043
_cell_angle_alpha 90.000000
_cell_angle_beta 120.579492
_cell_angle_gamma 90.000000
_cell_volume 2906.750806
_symmetry_space_group_name_H-M "C 2/M"
_symmetry_group_IT_number 12
_symmetry_cell_setting 'monoclinic'
loop_
_space_group_symop_operation_xyz
x,y,z
-x,y,-z
-x,-y,-z
x,-y,z
1/2+x,1/2+y,z
1/2-x,1/2+y,-z
1/2-x,1/2-y,-z
1/2+x,1/2-y,z
loop_
_atom_site_type_symbol
_atom_site_label
_atom_site_fract_x
_atom_site_fract_y
_atom_site_fract_z
Si Si1 0.028535 0.087747 0.307140
Si Si2 0.658001 0.917468 0.996883
Si Si3 0.107577 0.587921 0.590365
Si Si4 0.042134 0.415277 0.309381
Si Si5 0.322533 0.323094 0.151144
Si Si6 0.899554 0.915738 0.414179
Si Si7 0.997819 0.673611 0.841056
O O1 0.209181 0.109116 0.372297
O O2 0.960921 0.130116 0.223668
O O3 0.927022 0.119360 0.345700
O O4 0.006695 0.000000 0.287159
O O5 0.615709 0.880583 0.912832
O O6 0.730974 0.000000 0.002569
O O7 0.500000 0.925965 0.000000
O O8 0.782096 0.866939 0.070490
O O9 0.077669 0.500000 0.584286
O O10 0.000000 0.622297 0.500000
O O11 0.063253 0.618913 0.655496
O O12 0.992852 0.500000 0.276363
O O13 0.216833 0.414218 0.387471
O O14 0.039326 0.364322 0.241462
O O15 0.165830 0.310601 0.158811
O O16 0.401158 0.246877 0.147377
O O17 0.000000 0.873619 0.500000
O O18 0.967234 0.000000 0.425537
#
# Coordination Sequence:
#
# PCOD8090396 Si02
#       7
#     8   8   8   8   8   8   8
#     4  10  19  33  56  83 112 147 192 239 282 334
#     4   9  19  38  65  91 114 143 186 234 277 328
#     4   9  18  32  53  84 117 148 185 237 298 343
#     4  10  19  33  56  83 112 147 192 239 282 334
#     4  11  23  38  59  85 117 154 189 228 280 339
#     4   9  16  28  51  82 109 136 183 245 290 323
#     4  11  23  38  59  85 117 154 189 228 280 339
#
# _framework density 19.265495999999999
#
# number of rings (size 3 to 8) (size 9 to 14) (size 15 to 20)
#    0.000    2.143    1.429    2.143    2.000    4.571 
#    0.000    0.000    0.000    6.000    0.000    0.000 
#    0.000    0.000    0.000    0.000    0.000    0.000 
#
# Total GULP energy -347063.143212 kJ/mol
# GULP energy per Si atom -12395.112258 kJ/mol
# Density = 1.922165 g / cm^3
# Si number density = 19.265496 Si / 1000 Ang^3
#
#
#
# Elastic Constant Matrix: (Units=GPa)
#
#
# Indices 1 2 3 4 5 6 
#
# 1 73.9788 33.3906 22.5134 0.0000 -2.8207 0.0000
# 2 33.3906 95.2021 48.6630 0.0000 2.7036 0.0000
# 3 22.5134 48.6630 121.2191 0.0000 6.3147 0.0000
# 4 0.0000 0.0000 0.0000 -3.1915 0.0000 3.3558
# 5 -2.8207 2.7036 6.3147 0.0000 27.7020 0.0000
# 6 0.0000 0.0000 0.0000 3.3558 0.0000 21.6265
#
#
#
# Elastic Compliance Matrix: (Units=1/GPa)
#
#
# Indices 1 2 3 4 5 6 
#
# 1 0.016297 -0.005250 -0.001045 0.000000 0.002410 0.000000
# 2 -0.005250 0.014908 -0.004965 0.000000 -0.000858 0.000000
# 3 -0.001045 -0.004965 0.010542 0.000000 -0.002025 0.000000
# 4 0.000000 0.000000 0.000000 -0.269380 0.000000 0.041800
# 5 0.002410 -0.000858 -0.002025 0.000000 0.036889 0.000000
# 6 0.000000 0.000000 0.000000 0.041800 0.000000 0.039754
#
#
# Mechanical properties :
#
#
# Convention : Reuss Voigt Hill
#
# Bulk Modulus (GPa) = 52.00970 55.50378 53.75674
# Shear Modulus (GPa) = -40.96289 21.61625 -9.67332
#
# Velocity S-wave (km/s) = -4.61611 3.35329 -2.24320
# Velocity P-wave (km/s) = 1.16464 6.62308 4.61025
#
# Compressibility (1/GPa) = 0.01922718
#
# Stress axis : x y z
#
# Youngs Moduli (GPa) = 61.36127 67.07981 94.85767
#
# Poissons Ratio (x) = 0.35220 0.09908
# Poissons Ratio (y) = 0.32217 0.47095
# Poissons Ratio (z) = 0.06409 0.33304
#
# Static dielectric constant tensor:
#      x y z
#    x 3.450860 0.000000 -0.045280 
#    y 0.000000 3.294480 0.000000 
#    z -0.045280 0.000000 3.756690 
# 
# 
# High freq. dielectric constant tensor:
#      x y z
#    x 1.744220 0.000000 0.000250 
#    y 0.000000 1.714310 0.000000 
#    z 0.000250 0.000000 1.768730 
# 
# From -- ./inp_files/257129.got.cif
#   From: 2010.06.25/outbox.cif.g09.slc.cpg/sg12_129_cif.got.tgz:257129.got - 2010.06.28 00:19:55.
