data_PCOD8090693
_publ_section_title
;
Structure prediction by ZEFSAII (Michael W. Deem and Ramdas Pophale) SiO2 
 PCOD8090693
Probable space group: C 2/M
;
_chemical_formula_sum "Si O2"
_cell_formula_units_Z 48
_cell_length_a 22.836467
_cell_length_b 9.131039
_cell_length_c 11.975928
_cell_angle_alpha 90.000000
_cell_angle_beta 69.949431
_cell_angle_gamma 90.000000
_cell_volume 2345.872491
_symmetry_space_group_name_H-M "C 2/M"
_symmetry_group_IT_number 12
_symmetry_cell_setting 'monoclinic'
loop_
_space_group_symop_operation_xyz
x,y,z
-x,y,-z
-x,-y,-z
x,-y,z
1/2+x,1/2+y,z
1/2-x,1/2+y,-z
1/2-x,1/2-y,-z
1/2+x,1/2-y,z
loop_
_atom_site_type_symbol
_atom_site_label
_atom_site_fract_x
_atom_site_fract_y
_atom_site_fract_z
Si Si1 0.071675 0.169234 0.451334
Si Si2 0.299055 0.826088 0.226663
Si Si3 0.393044 0.331664 0.320929
Si Si4 0.823849 0.668414 0.740068
Si Si5 0.639391 0.832973 0.042695
Si Si6 0.984589 0.828304 0.887309
O O1 0.105285 0.190346 0.548124
O O2 0.109291 0.266538 0.338648
O O3 0.000000 0.223060 0.500000
O O4 0.073550 0.000000 0.411845
O O5 0.339987 0.770110 0.303199
O O6 0.230564 0.758692 0.284552
O O7 0.293483 0.000000 0.235542
O O8 0.328039 0.770510 0.090210
O O9 0.379418 0.500000 0.296707
O O10 0.459907 0.282143 0.230587
O O11 0.820107 0.500000 0.704457
O O12 0.815536 0.682101 0.879644
O O13 0.577962 0.744783 0.114678
O O14 0.620303 0.000000 0.033742
O O15 0.973052 0.000000 0.895253
O O16 0.000000 0.768718 0.000000
#
# Coordination Sequence:
#
# PCOD8090693 Si02
#       6
#     8   8   8   8   8   8
#     4  10  22  42  66  89 117 154 196 241 290 347
#     4  11  23  39  60  87 119 156 198 241 295 353
#     4  10  21  38  60  89 122 155 194 241 292 347
#     4  11  24  41  61  86 118 156 200 245 293 346
#     4  10  22  38  58  87 121 157 195 243 296 348
#     4  10  19  33  58  89 118 152 193 236 288 347
#
# _framework density 20.461469999999998
#
# number of rings (size 3 to 8) (size 9 to 14) (size 15 to 20)
#    0.000    1.667    1.667    2.500    0.000    6.000 
#    0.000    0.000    0.000    0.000    0.000    0.000 
#    0.000    0.000    0.000    0.000    0.000    0.000 
#
# Total GULP energy -297710.041476 kJ/mol
# GULP energy per Si atom -12404.585062 kJ/mol
# Density = 2.041490 g / cm^3
# Si number density = 20.461470 Si / 1000 Ang^3
#
#
#
# Elastic Constant Matrix: (Units=GPa)
#
#
# Indices 1 2 3 4 5 6 
#
# 1 122.8279 56.2926 23.3719 0.0000 -6.4876 0.0000
# 2 56.2926 78.5568 26.0417 0.0000 -1.6685 0.0000
# 3 23.3719 26.0417 70.2618 0.0000 1.4176 0.0000
# 4 0.0000 0.0000 0.0000 26.1665 0.0000 0.4062
# 5 -6.4876 -1.6685 1.4176 0.0000 29.5511 0.0000
# 6 0.0000 0.0000 0.0000 0.4062 0.0000 38.0655
#
#
#
# Elastic Compliance Matrix: (Units=1/GPa)
#
#
# Indices 1 2 3 4 5 6 
#
# 1 0.012327 -0.008448 -0.001015 0.000000 0.002278 0.000000
# 2 -0.008448 0.020337 -0.004718 0.000000 -0.000480 0.000000
# 3 -0.001015 -0.004718 0.016344 0.000000 -0.001273 0.000000
# 4 0.000000 0.000000 0.000000 0.038223 0.000000 -0.000408
# 5 0.002278 -0.000480 -0.001273 0.000000 0.034374 0.000000
# 6 0.000000 0.000000 0.000000 -0.000408 0.000000 0.026275
#
#
# Mechanical properties :
#
#
# Convention : Reuss Voigt Hill
#
# Bulk Modulus (GPa) = 48.43530 53.67319 51.05425
# Shear Modulus (GPa) = 27.30374 29.81931 28.56153
#
# Velocity S-wave (km/s) = 3.65690 3.82165 3.74019
# Velocity P-wave (km/s) = 6.44620 6.76474 6.60739
#
# Compressibility (1/GPa) = 0.02064610
#
# Stress axis : x y z
#
# Youngs Moduli (GPa) = 81.12374 49.17052 61.18278
#
# Poissons Ratio (x) = 0.41541 0.06210
# Poissons Ratio (y) = 0.68536 0.28865
# Poissons Ratio (z) = 0.08235 0.23198
#
# Static dielectric constant tensor:
#      x y z
#    x 3.605750 0.000000 0.035650 
#    y 0.000000 3.568210 0.000000 
#    z 0.035650 0.000000 3.707750 
# 
# 
# High freq. dielectric constant tensor:
#      x y z
#    x 1.804410 0.000000 0.004010 
#    y 0.000000 1.791190 0.000000 
#    z 0.004010 0.000000 1.802750 
# 
# From -- ./inp_files/172877.got.cif
#   From: 2010.06.25/outbox.cif.g09.slc.cpg/sg12_87_cif.got.tgz:172877.got - 2010.06.28 00:19:55.
