data_PCOD8090599
_publ_section_title
;
Structure prediction by ZEFSAII (Michael W. Deem and Ramdas Pophale) SiO2 
 PCOD8090599
Probable space group: C 2/M
;
_chemical_formula_sum "Si O2"
_cell_formula_units_Z 64
_cell_length_a 15.028692
_cell_length_b 9.151152
_cell_length_c 28.051667
_cell_angle_alpha 90.000000
_cell_angle_beta 58.231561
_cell_angle_gamma 90.000000
_cell_volume 3279.955562
_symmetry_space_group_name_H-M "C 2/M"
_symmetry_group_IT_number 12
_symmetry_cell_setting 'monoclinic'
loop_
_space_group_symop_operation_xyz
x,y,z
-x,y,-z
-x,-y,-z
x,-y,z
1/2+x,1/2+y,z
1/2-x,1/2+y,-z
1/2-x,1/2-y,-z
1/2+x,1/2-y,z
loop_
_atom_site_type_symbol
_atom_site_label
_atom_site_fract_x
_atom_site_fract_y
_atom_site_fract_z
Si Si1 0.998534 0.833039 0.642615
Si Si2 0.144560 0.833485 0.748978
Si Si3 0.231764 0.332883 0.859870
Si Si4 0.789183 0.166306 0.373164
Si Si5 0.351852 0.165852 0.750623
Si Si6 0.026577 0.672037 0.860588
Si Si7 0.921709 0.826590 0.562499
Si Si8 0.810548 0.170927 0.941085
O O1 0.124237 0.821028 0.609799
O O2 0.951271 0.744104 0.699814
O O3 0.961983 0.768545 0.602242
O O4 0.961355 0.000000 0.658479
O O5 0.157566 0.780465 0.691107
O O6 0.257372 0.818493 0.740661
O O7 0.062351 0.727891 0.798413
O O8 0.102673 0.000000 0.763888
O O9 0.254437 0.500000 0.839955
O O10 0.321511 0.238153 0.809323
O O11 0.115864 0.289382 0.874484
O O12 0.240796 0.305105 0.913527
O O13 0.693110 0.266188 0.415720
O O14 0.749685 0.000000 0.377958
O O15 0.382333 0.000000 0.752494
O O16 0.003563 0.500000 0.864682
O O17 0.923991 0.757662 0.904974
O O18 0.000000 0.767085 0.500000
O O19 0.917042 0.000000 0.562760
O O20 0.823969 0.000000 0.948688
O O21 0.750000 0.250000 0.000000
#
# Coordination Sequence:
#
# PCOD8090599 Si02
#       8
#     8   8   8   8   8   8   8   8
#     4  10  21  36  56  82 114 152 190 231 288 349
#     4   9  18  34  55  82 117 149 183 232 289 343
#     4   9  21  40  60  83 116 157 192 229 286 348
#     4  10  21  37  57  83 113 150 192 234 286 348
#     4  10  19  33  57  87 117 146 187 239 285 335
#     4  10  21  38  60  87 116 151 195 237 285 342
#     4  10  22  40  59  81 114 153 194 242 289 337
#     4  11  24  42  62  85 117 156 197 239 285 340
#
# _framework density 19.512460000000001
#
# number of rings (size 3 to 8) (size 9 to 14) (size 15 to 20)
#    0.000    2.125    1.250    1.125    1.750    4.250 
#    0.000    2.500    0.000    0.000    0.000    0.000 
#    0.000    0.000    0.000    0.000    0.000    0.000 
#
# Total GULP energy -396906.408971 kJ/mol
# GULP energy per Si atom -12403.325280 kJ/mol
# Density = 1.946805 g / cm^3
# Si number density = 19.512460 Si / 1000 Ang^3
#
#
#
# Elastic Constant Matrix: (Units=GPa)
#
#
# Indices 1 2 3 4 5 6 
#
# 1 65.3140 33.6821 40.5678 0.0000 -13.3405 0.0000
# 2 33.6821 85.1686 56.3656 0.0000 -8.8213 0.0000
# 3 40.5678 56.3656 124.8036 0.0000 -15.4316 0.0000
# 4 0.0000 0.0000 0.0000 34.6995 0.0000 -7.4129
# 5 -13.3405 -8.8213 -15.4316 0.0000 23.7704 0.0000
# 6 0.0000 0.0000 0.0000 -7.4129 0.0000 28.8191
#
#
#
# Elastic Compliance Matrix: (Units=1/GPa)
#
#
# Indices 1 2 3 4 5 6 
#
# 1 0.022050 -0.005426 -0.003736 0.000000 0.007936 0.000000
# 2 -0.005426 0.018126 -0.006488 0.000000 -0.000531 0.000000
# 3 -0.003736 -0.006488 0.012613 0.000000 0.003684 0.000000
# 4 0.000000 0.000000 0.000000 0.030495 0.000000 0.007844
# 5 0.007936 -0.000531 0.003684 0.000000 0.048718 0.000000
# 6 0.000000 0.000000 0.000000 0.007844 0.000000 0.036717
#
#
# Mechanical properties :
#
#
# Convention : Reuss Voigt Hill
#
# Bulk Modulus (GPa) = 46.53496 59.61305 53.07400
# Shear Modulus (GPa) = 24.13344 27.10249 25.61797
#
# Velocity S-wave (km/s) = 3.52066 3.73095 3.62733
# Velocity P-wave (km/s) = 6.35825 7.01267 6.69347
#
# Compressibility (1/GPa) = 0.02148922
#
# Stress axis : x y z
#
# Youngs Moduli (GPa) = 45.35133 55.16815 79.28513
#
# Poissons Ratio (x) = 0.29934 0.29617
# Poissons Ratio (y) = 0.24608 0.51443
# Poissons Ratio (z) = 0.16941 0.35795
#
# Static dielectric constant tensor:
#      x y z
#    x 3.615910 0.000000 0.062610 
#    y 0.000000 3.565700 0.000000 
#    z 0.062610 0.000000 3.538370 
# 
# 
# High freq. dielectric constant tensor:
#      x y z
#    x 1.765940 0.000000 0.000580 
#    y 0.000000 1.758000 0.000000 
#    z 0.000580 0.000000 1.753130 
# 
# From -- ./inp_files/375432.got.cif
#   From: 2010.06.25/outbox.cif.g09.slc.cpg/sg12_188_cif.got.tgz:375432.got - 2010.06.28 00:19:55.
