data_PCOD8090900
_publ_section_title
;
Structure prediction by ZEFSAII (Michael W. Deem and Ramdas Pophale) SiO2 
 PCOD8090900
Probable space group: C 2/M
;
_chemical_formula_sum "Si O2"
_cell_formula_units_Z 56
_cell_length_a 10.359412
_cell_length_b 17.105004
_cell_length_c 24.308909
_cell_angle_alpha 90.000000
_cell_angle_beta 138.614442
_cell_angle_gamma 90.000000
_cell_volume 2847.776286
_symmetry_space_group_name_H-M "C 2/M"
_symmetry_group_IT_number 12
_symmetry_cell_setting 'monoclinic'
loop_
_space_group_symop_operation_xyz
x,y,z
-x,y,-z
-x,-y,-z
x,-y,z
1/2+x,1/2+y,z
1/2-x,1/2+y,-z
1/2-x,1/2-y,-z
1/2+x,1/2-y,z
loop_
_atom_site_type_symbol
_atom_site_label
_atom_site_fract_x
_atom_site_fract_y
_atom_site_fract_z
Si Si1 0.456466 0.655303 0.760306
Si Si2 0.538336 0.337126 0.663497
Si Si3 0.294729 0.657529 0.956209
Si Si4 0.646462 0.408771 0.499421
Si Si5 0.466552 0.840846 0.769943
Si Si6 0.787427 0.343993 0.948114
Si Si7 0.042273 0.651581 0.671630
O O1 0.483315 0.629235 0.705793
O O2 0.464439 0.747848 0.768723
O O3 0.631359 0.622347 0.854327
O O4 0.249375 0.621835 0.714637
O O5 0.389810 0.367579 0.570325
O O6 0.751911 0.370209 0.717262
O O7 0.523764 0.244032 0.658411
O O8 0.290851 0.750705 0.950939
O O9 0.118688 0.624843 0.862701
O O10 0.500000 0.624707 0.000000
O O11 0.268408 0.625470 0.009338
O O12 0.500000 0.375451 0.500000
O O13 0.610024 0.500000 0.480683
O O14 0.870135 0.391684 0.584770
O O15 0.529206 0.873572 0.730912
O O16 0.000000 0.376604 0.000000
#
# Coordination Sequence:
#
# PCOD8090900 Si02
#       7
#     8   8   8   8   8   8   8
#     4   9  18  28  46  73 102 137 170 211 253 301
#     4  10  19  34  53  76 103 136 175 210 256 311
#     4   9  15  22  37  62  97 138 170 203 244 293
#     4  11  23  39  57  77 102 132 173 218 263 314
#     4   9  16  28  46  69 102 139 177 209 244 302
#     4   9  15  24  37  62 101 138 167 196 248 301
#     4  10  19  34  53  76 105 136 173 213 257 305
#
# _framework density 19.664466999999998
#
# number of rings (size 3 to 8) (size 9 to 14) (size 15 to 20)
#    0.000    2.429    1.429    2.143    0.000    7.429 
#    0.000    1.429    0.000    0.000    0.000    0.000 
#    0.000   22.857    0.000    0.000    0.000    0.000 
#
# Total GULP energy -347195.845515 kJ/mol
# GULP energy per Si atom -12399.851626 kJ/mol
# Density = 1.961971 g / cm^3
# Si number density = 19.664467 Si / 1000 Ang^3
#
#
#
# Elastic Constant Matrix: (Units=GPa)
#
#
# Indices 1 2 3 4 5 6 
#
# 1 181.7303 9.2886 80.5002 0.0000 -7.3911 0.0000
# 2 9.2886 13.2816 9.7071 0.0000 -4.0185 0.0000
# 3 80.5002 9.7071 170.6613 -0.0001 -10.8409 -0.0001
# 4 0.0000 0.0000 -0.0001 -2.2827 -0.0001 0.0666
# 5 -7.3911 -4.0185 -10.8409 -0.0001 46.1038 -0.0001
# 6 0.0000 0.0000 -0.0001 0.0666 -0.0001 7.1965
#
#
#
# Elastic Compliance Matrix: (Units=1/GPa)
#
#
# Indices 1 2 3 4 5 6 
#
# 1 0.007043 -0.002563 -0.003166 0.000000 0.000161 0.000000
# 2 -0.002563 0.081095 -0.003026 -0.000001 0.005946 0.000000
# 3 -0.003166 -0.003026 0.007589 0.000000 0.001013 0.000000
# 4 0.000000 -0.000001 0.000000 -0.437965 -0.000001 0.004055
# 5 0.000161 0.005946 0.001013 -0.000001 0.022473 0.000000
# 6 0.000000 0.000000 0.000000 0.004055 0.000000 0.138919
#
#
# Mechanical properties :
#
#
# Convention : Reuss Voigt Hill
#
# Bulk Modulus (GPa) = 12.78480 62.74056 37.76268
# Shear Modulus (GPa) = -36.42603 27.94867 -4.23868
#
# Velocity S-wave (km/s) = -4.30860 3.77407 -1.46976
# Velocity P-wave (km/s) = 4.27041 7.13907 4.04536
#
# Compressibility (1/GPa) = 0.07821787
#
# Stress axis : x y z
#
# Youngs Moduli (GPa) = 141.99277 12.33115 131.76223
#
# Poissons Ratio (x) = 0.03160 0.41715
# Poissons Ratio (y) = 0.36388 0.39874
# Poissons Ratio (z) = 0.44954 0.03732
#
# Static dielectric constant tensor:
#      x y z
#    x 3.839620 0.000000 -0.008830 
#    y 0.000000 2.817990 0.000000 
#    z -0.008830 0.000000 3.757150 
# 
# 
# High freq. dielectric constant tensor:
#      x y z
#    x 1.781270 0.000000 -0.000480 
#    y 0.000000 1.692400 0.000000 
#    z -0.000480 0.000000 1.784940 
# 
# From -- ./inp_files/301791.got.cif
#   From: 2010.06.25/outbox.cif.g09.slc.cpg/sg12_151_cif.got.tgz:301791.got - 2010.06.28 00:19:55.
