data_PCOD8090550
_publ_section_title
;
Structure prediction by ZEFSAII (Michael W. Deem and Ramdas Pophale) SiO2 
 PCOD8090550
Probable space group: C 2/M
;
_chemical_formula_sum "Si O2"
_cell_formula_units_Z 56
_cell_length_a 12.233279
_cell_length_b 20.058934
_cell_length_c 12.686766
_cell_angle_alpha 90.000000
_cell_angle_beta 73.848833
_cell_angle_gamma 90.000000
_cell_volume 2990.288563
_symmetry_space_group_name_H-M "C 2/M"
_symmetry_group_IT_number 12
_symmetry_cell_setting 'monoclinic'
loop_
_space_group_symop_operation_xyz
x,y,z
-x,y,-z
-x,-y,-z
x,-y,z
1/2+x,1/2+y,z
1/2-x,1/2+y,-z
1/2-x,1/2-y,-z
1/2+x,1/2-y,z
loop_
_atom_site_type_symbol
_atom_site_label
_atom_site_fract_x
_atom_site_fract_y
_atom_site_fract_z
Si Si1 0.852593 0.810818 0.868965
Si Si2 0.768682 0.172046 0.489040
Si Si3 0.233364 0.664788 0.113097
Si Si4 0.688493 0.839690 0.734035
Si Si5 0.037450 0.577286 0.202440
Si Si6 0.115022 0.571653 0.412788
Si Si7 0.891680 0.188091 0.256925
O O1 0.836578 0.732704 0.855577
O O2 0.769928 0.849904 0.811746
O O3 0.982077 0.830221 0.811780
O O4 0.825494 0.831505 0.995445
O O5 0.750000 0.250000 0.500000
O O6 0.768086 0.144919 0.609276
O O7 0.668967 0.134343 0.455636
O O8 0.878076 0.161888 0.382466
O O9 0.137471 0.610475 0.105259
O O10 0.303158 0.649999 0.202678
O O11 0.587447 0.892194 0.776350
O O12 0.632032 0.766896 0.743631
O O13 0.027727 0.500000 0.176950
O O14 0.086017 0.593796 0.303618
O O15 0.184278 0.500000 0.396194
O O16 0.000000 0.554926 0.500000
#
# Coordination Sequence:
#
# PCOD8090550 Si02
#       7
#     8   8   8   8   8   8   8
#     4  10  21  35  56  79 114 151 182 236 285 343
#     4  10  20  32  52  85 118 148 180 238 289 333
#     4  10  20  36  57  82 107 145 199 236 278 331
#     4  10  21  34  51  85 117 145 184 227 293 348
#     4  11  21  36  60  85 115 148 188 243 285 335
#     4  10  19  33  57  84 113 152 192 235 284 338
#     4  10  19  35  56  80 113 149 187 236 281 333
#
# _framework density 18.727291000000001
#
# number of rings (size 3 to 8) (size 9 to 14) (size 15 to 20)
#    0.000    1.857    4.286    0.429    0.000    1.143 
#    0.000    1.429    0.000    4.286    0.000    2.000 
#    0.000    0.000    0.000    0.000    0.000    0.000 
#
# Total GULP energy -346889.665313 kJ/mol
# GULP energy per Si atom -12388.916618 kJ/mol
# Density = 1.868467 g / cm^3
# Si number density = 18.727291 Si / 1000 Ang^3
#
#
#
# Elastic Constant Matrix: (Units=GPa)
#
#
# Indices 1 2 3 4 5 6 
#
# 1 92.8397 52.3636 44.9345 0.0000 -12.7859 0.0000
# 2 52.3636 73.8346 19.1317 0.0000 0.0065 0.0000
# 3 44.9345 19.1317 75.1986 0.0000 -12.1888 0.0000
# 4 0.0000 0.0000 0.0000 16.1418 0.0000 1.3033
# 5 -12.7859 0.0065 -12.1888 0.0000 33.9020 0.0000
# 6 0.0000 0.0000 0.0000 1.3033 0.0000 30.2759
#
#
#
# Elastic Compliance Matrix: (Units=1/GPa)
#
#
# Indices 1 2 3 4 5 6 
#
# 1 0.025001 -0.015098 -0.010161 0.000000 0.005778 0.000000
# 2 -0.015098 0.023681 0.002201 0.000000 -0.004907 0.000000
# 3 -0.010161 0.002201 0.019314 0.000000 0.003111 0.000000
# 4 0.000000 0.000000 0.000000 0.062167 0.000000 -0.002676
# 5 0.005778 -0.004907 0.003111 0.000000 0.032796 0.000000
# 6 0.000000 0.000000 0.000000 -0.002676 0.000000 0.033145
#
#
# Mechanical properties :
#
#
# Convention : Reuss Voigt Hill
#
# Bulk Modulus (GPa) = 45.70279 52.74807 49.22543
# Shear Modulus (GPa) = 20.03902 24.42680 22.23291
#
# Velocity S-wave (km/s) = 3.27470 3.61549 3.44930
# Velocity P-wave (km/s) = 6.22540 6.75696 6.49662
#
# Compressibility (1/GPa) = 0.02188050
#
# Stress axis : x y z
#
# Youngs Moduli (GPa) = 39.99869 42.22720 51.77554
#
# Poissons Ratio (x) = 0.63755 0.52611
# Poissons Ratio (y) = 0.60391 -0.11398
# Poissons Ratio (z) = 0.40644 -0.09296
#
# Static dielectric constant tensor:
#      x y z
#    x 3.226910 0.000000 -0.035360 
#    y 0.000000 3.337570 0.000000 
#    z -0.035360 0.000000 3.794200 
# 
# 
# High freq. dielectric constant tensor:
#      x y z
#    x 1.708670 0.000000 -0.006030 
#    y 0.000000 1.701260 0.000000 
#    z -0.006030 0.000000 1.745870 
# 
# From -- ./inp_files/133841.got.cif
#   From: 2010.06.25/outbox.cif.g09.slc.cpg/sg12_67_cif.got.tgz:133841.got - 2010.06.28 00:19:55.
