data_PCOD8090901
_publ_section_title
;
Structure prediction by ZEFSAII (Michael W. Deem and Ramdas Pophale) SiO2 
 PCOD8090901
Probable space group: C 2/M
;
_chemical_formula_sum "Si O2"
_cell_formula_units_Z 56
_cell_length_a 20.580691
_cell_length_b 9.108034
_cell_length_c 18.226288
_cell_angle_alpha 90.000000
_cell_angle_beta 52.659827
_cell_angle_gamma 90.000000
_cell_volume 2716.291593
_symmetry_space_group_name_H-M "C 2/M"
_symmetry_group_IT_number 12
_symmetry_cell_setting 'monoclinic'
loop_
_space_group_symop_operation_xyz
x,y,z
-x,y,-z
-x,-y,-z
x,-y,z
1/2+x,1/2+y,z
1/2-x,1/2+y,-z
1/2-x,1/2-y,-z
1/2+x,1/2-y,z
loop_
_atom_site_type_symbol
_atom_site_label
_atom_site_fract_x
_atom_site_fract_y
_atom_site_fract_z
Si Si1 0.910147 0.160973 0.852408
Si Si2 0.979038 0.824906 0.095110
Si Si3 0.331479 0.167567 0.784745
Si Si4 0.293430 0.325514 0.251319
Si Si5 0.571462 0.660966 0.652276
Si Si6 0.997622 0.332267 0.584655
Si Si7 0.716576 0.174622 0.597282
O O1 0.839628 0.251793 0.858406
O O2 0.950325 0.236040 0.897663
O O3 0.982453 0.143783 0.745280
O O4 0.874039 0.000000 0.896342
O O5 0.887799 0.774740 0.179260
O O6 0.982544 0.000000 0.096953
O O7 0.000000 0.765626 0.000000
O O8 0.252461 0.220775 0.792699
O O9 0.408569 0.192069 0.679314
O O10 0.320911 0.000000 0.814197
O O11 0.285298 0.500000 0.270230
O O12 0.248531 0.241658 0.350208
O O13 0.614290 0.500000 0.619055
O O14 0.565101 0.728180 0.575481
O O15 0.622081 0.775113 0.666821
O O16 0.026111 0.500000 0.574876
O O17 0.000000 0.282311 0.500000
O O18 0.750000 0.250000 0.500000
O O19 0.727788 0.000000 0.587142
#
# Coordination Sequence:
#
# PCOD8090901 Si02
#       7
#     8   8   8   8   8   8   8
#     4   9  17  33  56  80 109 144 187 234 274 329
#     4   9  17  33  60  88 112 146 192 237 284 340
#     4   9  19  33  52  76 108 149 183 227 288 339
#     4  10  20  38  59  83 115 148 193 242 284 341
#     4  10  19  34  53  76 104 142 187 233 280 328
#     4   9  18  31  47  72 103 142 189 231 277 336
#     4  12  25  38  55  80 112 151 189 234 288 340
#
# _framework density 20.616344000000002
#
# number of rings (size 3 to 8) (size 9 to 14) (size 15 to 20)
#    0.000    2.286    1.429    1.714    2.000    1.429 
#    0.000    0.714    0.000    1.714    0.000    0.000 
#    0.000    0.000    0.000    0.000    0.000    0.000 
#
# Total GULP energy -346903.632310 kJ/mol
# GULP energy per Si atom -12389.415440 kJ/mol
# Density = 2.056942 g / cm^3
# Si number density = 20.616344 Si / 1000 Ang^3
#
#
#
# Elastic Constant Matrix: (Units=GPa)
#
#
# Indices 1 2 3 4 5 6 
#
# 1 137.2028 48.7536 43.1558 0.0000 44.5322 0.0000
# 2 48.7536 84.2794 31.6060 0.0001 18.4979 -0.0001
# 3 43.1558 31.6060 82.9130 -0.0001 34.7288 0.0000
# 4 0.0000 0.0001 -0.0001 15.5208 0.0000 8.4584
# 5 44.5322 18.4979 34.7288 0.0000 36.3978 0.0000
# 6 0.0000 -0.0001 0.0000 8.4584 0.0000 32.1034
#
#
#
# Elastic Compliance Matrix: (Units=1/GPa)
#
#
# Indices 1 2 3 4 5 6 
#
# 1 0.013655 -0.004990 0.001217 0.000000 -0.015332 0.000000
# 2 -0.004990 0.015915 -0.004396 0.000000 0.002211 0.000000
# 3 0.001217 -0.004396 0.021306 0.000000 -0.019584 0.000000
# 4 0.000000 0.000000 0.000000 0.075232 0.000000 -0.019821
# 5 -0.015332 0.002211 -0.019584 0.000000 0.063794 0.000000
# 6 0.000000 0.000000 0.000000 -0.019821 0.000000 0.036372
#
#
# Mechanical properties :
#
#
# Convention : Reuss Voigt Hill
#
# Bulk Modulus (GPa) = 28.95389 61.26954 45.11171
# Shear Modulus (GPa) = 19.67534 28.86306 24.26920
#
# Velocity S-wave (km/s) = 3.09262 3.74573 3.43473
# Velocity P-wave (km/s) = 5.17948 6.96353 6.13668
#
# Compressibility (1/GPa) = 0.03453768
#
# Stress axis : x y z
#
# Youngs Moduli (GPa) = 73.23117 62.83305 46.93541
#
# Poissons Ratio (x) = 0.31357 -0.05710
# Poissons Ratio (y) = 0.36546 0.20631
# Poissons Ratio (z) = -0.08909 0.27618
#
# Static dielectric constant tensor:
#      x y z
#    x 4.132470 0.000000 0.303310 
#    y 0.000000 3.807200 0.000000 
#    z 0.303310 0.000000 3.597130 
# 
# 
# High freq. dielectric constant tensor:
#      x y z
#    x 1.815570 0.000000 0.021640 
#    y 0.000000 1.776380 0.000000 
#    z 0.021640 0.000000 1.788500 
# 
# From -- ./inp_files/281002.got.cif
#   From: 2010.06.25/outbox.cif.g09.slc.cpg/sg12_141_cif.got.tgz:281002.got - 2010.06.28 00:19:55.
