data_PCOD8090943
_publ_section_title
;
Structure prediction by ZEFSAII (Michael W. Deem and Ramdas Pophale) SiO2 
 PCOD8090943
Probable space group: C 2/M
;
_chemical_formula_sum "Si O2"
_cell_formula_units_Z 48
_cell_length_a 27.984455
_cell_length_b 12.788748
_cell_length_c 19.543370
_cell_angle_alpha 90.000000
_cell_angle_beta 20.317642
_cell_angle_gamma 90.000000
_cell_volume 2428.592225
_symmetry_space_group_name_H-M "C 2/M"
_symmetry_group_IT_number 12
_symmetry_cell_setting 'monoclinic'
loop_
_space_group_symop_operation_xyz
x,y,z
-x,y,-z
-x,-y,-z
x,-y,z
1/2+x,1/2+y,z
1/2-x,1/2+y,-z
1/2-x,1/2-y,-z
1/2+x,1/2-y,z
loop_
_atom_site_type_symbol
_atom_site_label
_atom_site_fract_x
_atom_site_fract_y
_atom_site_fract_z
Si Si1 0.806844 0.623063 0.623837
Si Si2 0.423688 0.733229 0.979321
Si Si3 0.798084 0.119104 0.767132
Si Si4 0.510513 0.701722 0.382650
Si Si5 0.717258 0.246068 0.623330
Si Si6 0.466530 0.379714 0.301779
O O1 0.832749 0.500000 0.594895
O O2 0.945705 0.681625 0.463469
O O3 0.772020 0.652487 0.591747
O O4 0.678506 0.656813 0.843081
O O5 0.553137 0.764302 0.853899
O O6 0.477352 0.676935 0.840005
O O7 0.351331 0.841034 0.054807
O O8 0.899397 0.123667 0.566111
O O9 0.853688 0.197491 0.752164
O O10 0.786775 0.000000 0.808624
O O11 0.553112 0.657199 0.251440
O O12 0.750000 0.250000 0.500000
O O13 0.805147 0.147728 0.533931
O O14 0.484868 0.500000 0.263559
#
# Coordination Sequence:
#
# PCOD8090943 Si02
#       6
#     8   8   8   8   8   8
#     4  10  20  36  58  80 108 144 176 218 274 321
#     4  10  21  34  51  83 112 137 180 223 262 325
#     4  10  19  35  58  78 106 146 182 223 272 315
#     4   9  19  36  55  79 104 136 188 225 257 321
#     4   9  20  35  51  76 106 135 177 217 252 316
#     4  10  19  34  54  74 105 142 176 223 274 314
#
# _framework density 19.764536
#
# number of rings (size 3 to 8) (size 9 to 14) (size 15 to 20)
#    0.000    2.333    0.000    3.000    0.000    5.333 
#    0.000   14.167    0.000    6.000    0.000    0.000 
#    0.000    0.000    0.000    0.000    0.000    0.000 
#
# Total GULP energy -297448.245760 kJ/mol
# GULP energy per Si atom -12393.676907 kJ/mol
# Density = 1.971955 g / cm^3
# Si number density = 19.764536 Si / 1000 Ang^3
#
#
#
# Elastic Constant Matrix: (Units=GPa)
#
#
# Indices 1 2 3 4 5 6 
#
# 1 98.9046 39.7417 17.0884 0.0000 5.1023 0.0000
# 2 39.7417 115.4407 38.0814 -0.0001 -6.7097 0.0001
# 3 17.0884 38.0814 38.6451 -0.0002 -1.7630 0.0000
# 4 0.0000 -0.0001 -0.0002 16.9835 0.0000 0.6775
# 5 5.1023 -6.7097 -1.7630 0.0000 35.7240 0.0000
# 6 0.0000 0.0001 0.0000 0.6775 0.0000 21.4447
#
#
#
# Elastic Compliance Matrix: (Units=1/GPa)
#
#
# Indices 1 2 3 4 5 6 
#
# 1 0.012035 -0.003697 -0.001793 0.000000 -0.002502 0.000000
# 2 -0.003697 0.014086 -0.012128 0.000000 0.002575 0.000000
# 3 -0.001793 -0.012128 0.038615 0.000000 -0.000116 0.000000
# 4 0.000000 0.000000 0.000000 0.058955 0.000000 -0.001863
# 5 -0.002502 0.002575 -0.000116 0.000000 0.028828 0.000000
# 6 0.000000 0.000000 0.000000 -0.001863 0.000000 0.046690
#
#
# Mechanical properties :
#
#
# Convention : Reuss Voigt Hill
#
# Bulk Modulus (GPa) = 33.89804 49.20151 41.54977
# Shear Modulus (GPa) = 20.46852 25.36904 22.91878
#
# Velocity S-wave (km/s) = 3.22159 3.58657 3.40897
# Velocity P-wave (km/s) = 5.57013 6.48839 6.04672
#
# Compressibility (1/GPa) = 0.02950023
#
# Stress axis : x y z
#
# Youngs Moduli (GPa) = 83.08971 70.99403 25.89680
#
# Poissons Ratio (x) = 0.26249 0.04642
# Poissons Ratio (y) = 0.30721 0.31407
# Poissons Ratio (z) = 0.14894 0.86100
#
# Static dielectric constant tensor:
#      x y z
#    x 4.000110 0.000000 -0.210320 
#    y 0.000000 3.350530 0.000000 
#    z -0.210320 0.000000 3.751830 
# 
# 
# High freq. dielectric constant tensor:
#      x y z
#    x 1.791070 0.000000 0.000370 
#    y 0.000000 1.746980 0.000000 
#    z 0.000370 0.000000 1.759190 
# 
# From -- ./inp_files/329997.got.cif
#   From: 2010.06.25/outbox.cif.g09.slc.cpg/sg12_165_cif.got.tgz:329997.got - 2010.06.28 00:19:55.
