data_PCOD8090479
_publ_section_title
;
Structure prediction by ZEFSAII (Michael W. Deem and Ramdas Pophale) SiO2 
 PCOD8090479
Probable space group: C 2/M
;
_chemical_formula_sum "Si O2"
_cell_formula_units_Z 52
_cell_length_a 15.978369
_cell_length_b 14.152510
_cell_length_c 18.830962
_cell_angle_alpha 90.000000
_cell_angle_beta 143.033414
_cell_angle_gamma 90.000000
_cell_volume 2560.737958
_symmetry_space_group_name_H-M "C 2/M"
_symmetry_group_IT_number 12
_symmetry_cell_setting 'monoclinic'
loop_
_space_group_symop_operation_xyz
x,y,z
-x,y,-z
-x,-y,-z
x,-y,z
1/2+x,1/2+y,z
1/2-x,1/2+y,-z
1/2-x,1/2-y,-z
1/2+x,1/2-y,z
loop_
_atom_site_type_symbol
_atom_site_label
_atom_site_fract_x
_atom_site_fract_y
_atom_site_fract_z
Si Si1 0.859424 0.606266 0.766075
Si Si2 0.276608 0.893354 0.558425
Si Si3 0.000000 0.836180 0.000000
Si Si4 0.762347 0.690835 0.841619
Si Si5 0.045913 0.210381 0.321219
Si Si6 0.956870 0.891432 0.124260
Si Si7 0.163227 0.605871 0.968729
O O1 0.891010 0.500000 0.813391
O O2 0.756129 0.607963 0.629436
O O3 0.778785 0.660104 0.772188
O O4 0.011875 0.655033 0.851193
O O5 0.132478 0.867770 0.423373
O O6 0.392748 0.814322 0.621954
O O7 0.323497 0.000000 0.566572
O O8 0.861689 0.778714 0.922652
O O9 0.979903 0.893934 0.912739
O O10 0.605051 0.719530 0.747841
O O11 0.807335 0.608939 0.926828
O O12 0.046618 0.173830 0.239501
O O13 0.956511 0.000000 0.152186
O O14 0.796626 0.849920 0.017413
O O15 0.149630 0.500000 0.931778
#
# Coordination Sequence:
#
# PCOD8090479 Si02
#       7
#     8   8   4   8   8   8   8
#     4  10  19  33  56  86 121 154 194 247 298 352
#     4  10  22  41  63  89 116 155 204 249 293 346
#     4  12  23  34  55  88 122 158 195 240 296 352
#     4  11  21  34  55  88 124 156 193 239 295 360
#     4  10  23  40  64  87 117 160 201 244 295 352
#     4  10  22  39  59  84 119 160 204 247 292 346
#     4   9  18  33  55  82 115 156 197 242 299 355
#
# _framework density 20.306647000000002
#
# number of rings (size 3 to 8) (size 9 to 14) (size 15 to 20)
#    0.000    1.846    1.538    2.077    2.154    4.923 
#    0.000    2.308    0.000    0.000    0.000    5.385 
#    0.000    0.000    0.000    0.000    0.000    0.000 
#
# Total GULP energy -322151.890711 kJ/mol
# GULP energy per Si atom -12390.457335 kJ/mol
# Density = 2.026043 g / cm^3
# Si number density = 20.306647 Si / 1000 Ang^3
#
#
#
# Elastic Constant Matrix: (Units=GPa)
#
#
# Indices 1 2 3 4 5 6 
#
# 1 97.7708 21.3581 51.2097 0.0000 -1.1366 0.0000
# 2 21.3581 86.8059 40.1882 0.0000 4.2292 0.0000
# 3 51.2097 40.1882 115.9198 0.0000 -0.2686 0.0001
# 4 0.0000 0.0000 0.0000 26.1245 0.0000 -5.9370
# 5 -1.1366 4.2292 -0.2686 0.0000 28.4796 0.0000
# 6 0.0000 0.0000 0.0001 -5.9370 0.0000 -1.1506
#
#
#
# Elastic Compliance Matrix: (Units=1/GPa)
#
#
# Indices 1 2 3 4 5 6 
#
# 1 0.013348 -0.000695 -0.005655 0.000000 0.000583 0.000000
# 2 -0.000695 0.013883 -0.004511 0.000000 -0.002132 0.000000
# 3 -0.005655 -0.004511 0.012690 0.000000 0.000564 0.000001
# 4 0.000000 0.000000 0.000000 0.017619 0.000000 -0.090908
# 5 0.000583 -0.002132 0.000564 0.000000 0.035458 0.000000
# 6 0.000000 0.000000 0.000001 -0.090908 0.000000 -0.400018
#
#
# Mechanical properties :
#
#
# Convention : Reuss Voigt Hill
#
# Bulk Modulus (GPa) = 54.94389 58.44535 56.69462
# Shear Modulus (GPa) = -17.90625 23.20672 2.65024
#
# Velocity S-wave (km/s) = -2.97272 3.38422 1.14365
# Velocity P-wave (km/s) = 3.91575 6.64187 5.45195
#
# Compressibility (1/GPa) = 0.01820038
#
# Stress axis : x y z
#
# Youngs Moduli (GPa) = 74.91597 72.02897 78.80223
#
# Poissons Ratio (x) = 0.05004 0.44560
# Poissons Ratio (y) = 0.05205 0.35549
# Poissons Ratio (z) = 0.42362 0.32494
#
# Static dielectric constant tensor:
#      x y z
#    x 3.677400 0.000000 -0.070640 
#    y 0.000000 3.725250 0.000000 
#    z -0.070640 0.000000 3.815640 
# 
# 
# High freq. dielectric constant tensor:
#      x y z
#    x 1.779610 0.000000 -0.005680 
#    y 0.000000 1.797900 0.000000 
#    z -0.005680 0.000000 1.791350 
# 
# From -- ./inp_files/270739.got.cif
#   From: 2010.06.25/outbox.cif.g09.slc.cpg/sg12_136_cif.got.tgz:270739.got - 2010.06.28 00:19:55.
