data_PCOD8090988
_publ_section_title
;
Structure prediction by ZEFSAII (Michael W. Deem and Ramdas Pophale) SiO2 
 PCOD8090988
Probable space group: C 2/M
;
_chemical_formula_sum "Si O2"
_cell_formula_units_Z 56
_cell_length_a 14.268477
_cell_length_b 13.386673
_cell_length_c 16.822009
_cell_angle_alpha 90.000000
_cell_angle_beta 65.430002
_cell_angle_gamma 90.000000
_cell_volume 2922.192725
_symmetry_space_group_name_H-M "C 2/M"
_symmetry_group_IT_number 12
_symmetry_cell_setting 'monoclinic'
loop_
_space_group_symop_operation_xyz
x,y,z
-x,y,-z
-x,-y,-z
x,-y,z
1/2+x,1/2+y,z
1/2-x,1/2+y,-z
1/2-x,1/2-y,-z
1/2+x,1/2-y,z
loop_
_atom_site_type_symbol
_atom_site_label
_atom_site_fract_x
_atom_site_fract_y
_atom_site_fract_z
Si Si1 0.556970 0.208095 0.188315
Si Si2 0.218578 0.110562 0.449829
Si Si3 0.101860 0.617298 0.010025
Si Si4 0.640605 0.815262 0.472382
Si Si5 0.542638 0.113103 0.360499
Si Si6 0.653799 0.111753 0.746165
Si Si7 0.297672 0.615488 0.836288
O O1 0.616503 0.161152 0.092917
O O2 0.581461 0.151504 0.261806
O O3 0.434844 0.195688 0.212175
O O4 0.598203 0.321414 0.183741
O O5 0.255414 0.142618 0.524736
O O6 0.141497 0.197404 0.448970
O O7 0.316464 0.108873 0.356480
O O8 0.166595 0.000000 0.469926
O O9 0.091010 0.500000 0.021214
O O10 0.205039 0.647637 0.927044
O O11 0.000000 0.659491 0.000000
O O12 0.549160 0.824281 0.568040
O O13 0.633210 0.878635 0.393814
O O14 0.505883 0.000000 0.363228
O O15 0.754631 0.137475 0.762760
O O16 0.613074 0.000000 0.786424
O O17 0.328939 0.500000 0.836042
#
# Coordination Sequence:
#
# PCOD8090988 Si02
#       7
#     8   8   8   8   8   8   8
#     4  12  21  34  60  87 111 144 190 229 275 333
#     4  10  19  34  54  77 107 145 186 226 273 328
#     4  10  19  35  60  89 113 140 184 233 274 324
#     4  10  20  33  53  77 108 143 181 226 282 328
#     4  11  21  35  54  80 108 138 181 235 280 322
#     4  10  19  35  59  85 111 144 189 238 275 320
#     4  10  22  38  57  84 119 149 179 227 283 333
#
# _framework density 19.163692000000001
#
# number of rings (size 3 to 8) (size 9 to 14) (size 15 to 20)
#    0.000    1.571    2.857    4.286    0.000    0.000 
#    0.000    2.143    0.000    3.000    0.000    0.000 
#    0.000    0.000    0.000    0.000    0.000    0.000 
#
# Total GULP energy -346990.357038 kJ/mol
# GULP energy per Si atom -12392.512751 kJ/mol
# Density = 1.912007 g / cm^3
# Si number density = 19.163692 Si / 1000 Ang^3
#
#
#
# Elastic Constant Matrix: (Units=GPa)
#
#
# Indices 1 2 3 4 5 6 
#
# 1 63.9824 44.2415 22.0949 0.0000 1.5988 0.0000
# 2 44.2415 124.0235 41.3355 0.0000 -14.9190 0.0000
# 3 22.0949 41.3355 92.8114 0.0000 20.2415 0.0000
# 4 0.0000 0.0000 0.0000 27.2462 0.0000 -3.6628
# 5 1.5988 -14.9190 20.2415 0.0000 26.6495 0.0000
# 6 0.0000 0.0000 0.0000 -3.6628 0.0000 35.9337
#
#
#
# Elastic Compliance Matrix: (Units=1/GPa)
#
#
# Indices 1 2 3 4 5 6 
#
# 1 0.021612 -0.008372 -0.000133 0.000000 -0.005883 0.000000
# 2 -0.008372 0.015767 -0.008466 0.000000 0.015759 0.000000
# 3 -0.000133 -0.008466 0.018707 0.000000 -0.018941 0.000000
# 4 0.000000 0.000000 0.000000 0.037212 0.000000 0.003793
# 5 -0.005883 0.015759 -0.018941 0.000000 0.061086 0.000000
# 6 0.000000 0.000000 0.000000 0.003793 0.000000 0.028216
#
#
# Mechanical properties :
#
#
# Convention : Reuss Voigt Hill
#
# Bulk Modulus (GPa) = 45.16110 55.12899 50.14505
# Shear Modulus (GPa) = 22.32908 29.50892 25.91900
#
# Velocity S-wave (km/s) = 3.41717 3.92833 3.68163
# Velocity P-wave (km/s) = 6.25992 7.02891 6.65553
#
# Compressibility (1/GPa) = 0.02214295
#
# Stress axis : x y z
#
# Youngs Moduli (GPa) = 46.27166 63.42411 53.45452
#
# Poissons Ratio (x) = 0.53102 0.00711
# Poissons Ratio (y) = 0.38741 0.45254
# Poissons Ratio (z) = 0.00616 0.53694
#
# Static dielectric constant tensor:
#      x y z
#    x 3.437150 0.000000 0.287440 
#    y 0.000000 3.507610 0.000000 
#    z 0.287440 0.000000 3.683010 
# 
# 
# High freq. dielectric constant tensor:
#      x y z
#    x 1.725190 0.000000 0.022250 
#    y 0.000000 1.731780 0.000000 
#    z 0.022250 0.000000 1.753540 
# 
# From -- ./inp_files/268656.got.cif
#   From: 2010.06.25/outbox.cif.g09.slc.cpg/sg12_135_cif.got.tgz:268656.got - 2010.06.28 00:19:55.
