data_PCOD8090083
_publ_section_title
;
Structure prediction by ZEFSAII (Michael W. Deem and Ramdas Pophale) SiO2 
 PCOD8090083
Probable space group: C 2/M
;
_chemical_formula_sum "Si O2"
_cell_formula_units_Z 64
_cell_length_a 18.513995
_cell_length_b 10.096527
_cell_length_c 18.367670
_cell_angle_alpha 90.000000
_cell_angle_beta 80.798071
_cell_angle_gamma 90.000000
_cell_volume 3389.229360
_symmetry_space_group_name_H-M "C 2/M"
_symmetry_group_IT_number 12
_symmetry_cell_setting 'monoclinic'
loop_
_space_group_symop_operation_xyz
x,y,z
-x,y,-z
-x,-y,-z
x,-y,z
1/2+x,1/2+y,z
1/2-x,1/2+y,-z
1/2-x,1/2-y,-z
1/2+x,1/2-y,z
loop_
_atom_site_type_symbol
_atom_site_label
_atom_site_fract_x
_atom_site_fract_y
_atom_site_fract_z
Si Si1 0.435135 0.154377 0.364177
Si Si2 0.287930 0.780754 0.609400
Si Si3 0.592489 0.852988 0.304951
Si Si4 0.659150 0.643306 0.533528
Si Si5 0.792131 0.656604 0.107835
Si Si6 0.843642 0.344391 0.855633
Si Si7 0.181457 0.350827 0.733286
Si Si8 0.577017 0.152791 0.012936
O O1 0.516389 0.215201 0.341660
O O2 0.393366 0.238250 0.432563
O O3 0.395986 0.175251 0.293006
O O4 0.434092 0.000000 0.389177
O O5 0.354931 0.861171 0.633424
O O6 0.320188 0.663313 0.554293
O O7 0.234182 0.866919 0.567919
O O8 0.245246 0.732560 0.686912
O O9 0.628517 0.788380 0.227028
O O10 0.570343 0.000000 0.284040
O O11 0.620138 0.500000 0.547111
O O12 0.772081 0.500000 0.100357
O O13 0.722077 0.750165 0.107689
O O14 0.826720 0.684959 0.181260
O O15 0.853072 0.709518 0.041777
O O16 0.818819 0.500000 0.855809
O O17 0.909570 0.327533 0.903058
O O18 0.206847 0.500000 0.718340
O O19 0.572546 0.000000 0.991596
O O20 0.500000 0.220359 0.000000
#
# Coordination Sequence:
#
# PCOD8090083 Si02
#       8
#     8   8   8   8   8   8   8   8
#     4   9  20  36  53  75 106 141 177 219 268 320
#     4  10  19  34  54  77 107 137 174 220 268 320
#     4  10  20  34  54  79 106 141 180 222 267 313
#     4  10  21  36  56  79 105 139 177 220 268 322
#     4  10  19  33  55  81 109 142 178 217 264 315
#     4  10  20  35  55  81 111 142 180 223 265 310
#     4   9  17  31  52  77 104 138 176 215 261 315
#     4   9  19  33  54  84 113 143 179 220 262 309
#
# _framework density 18.883348000000002
#
# number of rings (size 3 to 8) (size 9 to 14) (size 15 to 20)
#    0.000    2.375    1.250    1.125    1.750    4.000 
#    0.000    3.750    0.000    1.500    0.000    0.000 
#    0.000    0.000    0.000    0.000    0.000    0.000 
#
# Total GULP energy -396583.062580 kJ/mol
# GULP energy per Si atom -12393.220706 kJ/mol
# Density = 1.884037 g / cm^3
# Si number density = 18.883348 Si / 1000 Ang^3
#
#
#
# Elastic Constant Matrix: (Units=GPa)
#
#
# Indices 1 2 3 4 5 6 
#
# 1 123.8195 32.9121 40.5197 0.0000 -8.8228 0.0000
# 2 32.9121 66.6366 24.4932 0.0000 -8.0258 0.0000
# 3 40.5197 24.4932 96.8192 0.0000 -0.0303 0.0000
# 4 0.0000 0.0000 0.0000 13.6907 0.0000 -0.7195
# 5 -8.8228 -8.0258 -0.0303 0.0000 25.1184 0.0000
# 6 0.0000 0.0000 0.0000 -0.7195 0.0000 18.2372
#
#
#
# Elastic Compliance Matrix: (Units=1/GPa)
#
#
# Indices 1 2 3 4 5 6 
#
# 1 0.010313 -0.003537 -0.003421 0.000000 0.002488 0.000000
# 2 -0.003537 0.018490 -0.003196 0.000000 0.004662 0.000000
# 3 -0.003421 -0.003196 0.012568 0.000000 -0.002207 0.000000
# 4 0.000000 0.000000 0.000000 0.073194 0.000000 0.002888
# 5 0.002488 0.004662 -0.002207 0.000000 0.042172 0.000000
# 6 0.000000 0.000000 0.000000 0.002888 0.000000 0.054947
#
#
# Mechanical properties :
#
#
# Convention : Reuss Voigt Hill
#
# Bulk Modulus (GPa) = 47.47383 53.68060 50.57721
# Shear Modulus (GPa) = 20.91947 24.03262 22.47605
#
# Velocity S-wave (km/s) = 3.33201 3.57135 3.45375
# Velocity P-wave (km/s) = 6.32442 6.74501 6.53810
#
# Compressibility (1/GPa) = 0.02106424
#
# Stress axis : x y z
#
# Youngs Moduli (GPa) = 96.96468 54.08416 79.56784
#
# Poissons Ratio (x) = 0.19128 0.27217
# Poissons Ratio (y) = 0.34293 0.25429
# Poissons Ratio (z) = 0.33168 0.17285
#
# Static dielectric constant tensor:
#      x y z
#    x 3.525140 0.000000 -0.008280 
#    y 0.000000 3.146700 0.000000 
#    z -0.008280 0.000000 3.535430 
# 
# 
# High freq. dielectric constant tensor:
#      x y z
#    x 1.732310 0.000000 0.003400 
#    y 0.000000 1.696980 0.000000 
#    z 0.003400 0.000000 1.744330 
# 
# From -- ./inp_files/276462.got.cif
#   From: 2010.06.25/outbox.cif.g09.slc.cpg/sg12_139_cif.got.tgz:276462.got - 2010.06.28 00:19:55.
