data_PCOD8090082
_publ_section_title
;
Structure prediction by ZEFSAII (Michael W. Deem and Ramdas Pophale) SiO2 
 PCOD8090082
Probable space group: C 2/M
;
_chemical_formula_sum "Si O2"
_cell_formula_units_Z 64
_cell_length_a 18.031860
_cell_length_b 22.022605
_cell_length_c 12.405520
_cell_angle_alpha 90.000000
_cell_angle_beta 46.188568
_cell_angle_gamma 90.000000
_cell_volume 3554.954303
_symmetry_space_group_name_H-M "C 2/M"
_symmetry_group_IT_number 12
_symmetry_cell_setting 'monoclinic'
loop_
_space_group_symop_operation_xyz
x,y,z
-x,y,-z
-x,-y,-z
x,-y,z
1/2+x,1/2+y,z
1/2-x,1/2+y,-z
1/2-x,1/2-y,-z
1/2+x,1/2-y,z
loop_
_atom_site_type_symbol
_atom_site_label
_atom_site_fract_x
_atom_site_fract_y
_atom_site_fract_z
Si Si1 0.786616 0.932075 0.326935
Si Si2 0.146776 0.570489 0.660465
Si Si3 0.106176 0.862629 0.955527
Si Si4 0.953748 0.639811 0.932150
Si Si5 0.741775 0.928387 0.791586
Si Si6 0.635044 0.741580 0.082266
Si Si7 0.935476 0.153453 0.665195
Si Si8 0.499070 0.433670 0.236418
O O1 0.700810 0.907377 0.495521
O O2 0.799817 0.886438 0.213193
O O3 0.893724 0.934808 0.279822
O O4 0.758906 0.000000 0.313849
O O5 0.118967 0.500000 0.682002
O O6 0.224585 0.581649 0.681436
O O7 0.041692 0.606676 0.776138
O O8 0.136152 0.797735 0.972214
O O9 0.000000 0.855346 0.000000
O O10 0.091390 0.909663 0.068168
O O11 0.919372 0.695600 0.892468
O O12 0.861370 0.592151 0.042509
O O13 0.000000 0.662375 0.000000
O O14 0.832259 0.883304 0.738180
O O15 0.764228 0.000000 0.793707
O O16 0.580386 0.709895 0.238729
O O17 0.750000 0.750000 0.000000
O O18 0.000000 0.179114 0.500000
O O19 0.012298 0.106685 0.646031
O O20 0.531498 0.500000 0.242411
#
# Coordination Sequence:
#
# PCOD8090082 Si02
#       8
#     8   8   8   8   8   8   8   8
#     4   9  16  30  52  82 113 135 167 218 266 313
#     4   9  18  32  54  84 111 134 171 222 270 315
#     4   9  18  32  54  77 104 138 180 215 259 314
#     4  10  20  37  58  78 103 141 186 225 261 308
#     4  10  19  33  55  81 109 141 173 213 269 328
#     4  11  22  40  56  72 102 143 185 223 259 306
#     4  11  22  35  52  77 111 140 174 218 266 320
#     4   9  17  29  50  79 111 143 171 206 263 326
#
# _framework density 18.003045
#
# number of rings (size 3 to 8) (size 9 to 14) (size 15 to 20)
#    0.000    2.250    1.250    2.250    0.000    5.000 
#    2.250    0.000    0.000    5.250    0.000    1.750 
#    0.000    0.000    0.000    0.000    0.000    0.000 
#
# Total GULP energy -396662.103577 kJ/mol
# GULP energy per Si atom -12395.690737 kJ/mol
# Density = 1.796207 g / cm^3
# Si number density = 18.003045 Si / 1000 Ang^3
#
#
#
# Elastic Constant Matrix: (Units=GPa)
#
#
# Indices 1 2 3 4 5 6 
#
# 1 46.4212 29.3601 25.6844 0.0000 2.4376 0.0000
# 2 29.3601 89.8164 49.8458 0.0000 5.9819 0.0000
# 3 25.6844 49.8458 133.7148 0.0000 8.8795 0.0000
# 4 0.0000 0.0000 0.0000 16.4023 0.0000 -7.3966
# 5 2.4376 5.9819 8.8795 0.0000 23.6715 0.0000
# 6 0.0000 0.0000 0.0000 -7.3966 0.0000 20.8156
#
#
#
# Elastic Compliance Matrix: (Units=1/GPa)
#
#
# Indices 1 2 3 4 5 6 
#
# 1 0.027784 -0.007717 -0.002461 0.000000 0.000012 0.000000
# 2 -0.007717 0.016243 -0.004464 0.000000 -0.001635 0.000000
# 3 -0.002461 -0.004464 0.009767 0.000000 -0.002282 0.000000
# 4 0.000000 0.000000 0.000000 0.072601 0.000000 0.025798
# 5 0.000012 -0.001635 -0.002282 0.000000 0.043513 0.000000
# 6 0.000000 0.000000 0.000000 0.025798 0.000000 0.057208
#
#
# Mechanical properties :
#
#
# Convention : Reuss Voigt Hill
#
# Bulk Modulus (GPa) = 40.80087 53.30367 47.05227
# Shear Modulus (GPa) = 18.89865 23.18203 21.04034
#
# Velocity S-wave (km/s) = 3.24350 3.59231 3.42235
# Velocity P-wave (km/s) = 6.06131 6.84680 6.46600
#
# Compressibility (1/GPa) = 0.02450928
#
# Stress axis : x y z
#
# Youngs Moduli (GPa) = 35.99223 61.56540 102.38673
#
# Poissons Ratio (x) = 0.47513 0.25195
# Poissons Ratio (y) = 0.27777 0.45705
# Poissons Ratio (z) = 0.08857 0.27483
#
# Static dielectric constant tensor:
#      x y z
#    x 3.417540 0.000000 0.243210 
#    y 0.000000 2.920740 0.000000 
#    z 0.243210 0.000000 3.519040 
# 
# 
# High freq. dielectric constant tensor:
#      x y z
#    x 1.685770 0.000000 0.005030 
#    y 0.000000 1.693310 0.000000 
#    z 0.005030 0.000000 1.699550 
# 
# From -- ./inp_files/159558.got.cif
#   From: 2010.06.25/outbox.cif.g09.slc.cpg/sg12_80_cif.got.tgz:159558.got - 2010.06.28 00:19:55.
