data_PCOD8090888
_publ_section_title
;
Structure prediction by ZEFSAII (Michael W. Deem and Ramdas Pophale) SiO2 
 PCOD8090888
Probable space group: C 2/M
;
_chemical_formula_sum "Si O2"
_cell_formula_units_Z 64
_cell_length_a 32.558347
_cell_length_b 15.024534
_cell_length_c 21.244342
_cell_angle_alpha 90.000000
_cell_angle_beta 18.068084
_cell_angle_gamma 90.000000
_cell_volume 3223.102350
_symmetry_space_group_name_H-M "C 2/M"
_symmetry_group_IT_number 12
_symmetry_cell_setting 'monoclinic'
loop_
_space_group_symop_operation_xyz
x,y,z
-x,y,-z
-x,-y,-z
x,-y,z
1/2+x,1/2+y,z
1/2-x,1/2+y,-z
1/2-x,1/2-y,-z
1/2+x,1/2-y,z
loop_
_atom_site_type_symbol
_atom_site_label
_atom_site_fract_x
_atom_site_fract_y
_atom_site_fract_z
Si Si1 0.069384 0.598651 0.202097
Si Si2 0.102781 0.398061 0.296859
Si Si3 0.574791 0.402889 0.796058
Si Si4 0.298536 0.154644 0.555357
Si Si5 0.158084 0.772684 0.875370
Si Si6 0.863667 0.159799 0.426951
Si Si7 0.846746 0.783130 0.973009
Si Si8 0.870895 0.598906 0.147198
O O1 0.135617 0.500000 0.094265
O O2 0.039618 0.610943 0.319681
O O3 0.930419 0.596423 0.367474
O O4 0.155549 0.681405 0.049792
O O5 0.141329 0.500000 0.256479
O O6 0.235644 0.339427 0.099450
O O7 0.000000 0.363170 0.500000
O O8 0.505444 0.500000 0.899116
O O9 0.681618 0.403488 0.696554
O O10 0.641684 0.392165 0.630639
O O11 0.471319 0.325356 0.958465
O O12 0.273975 0.193208 0.661300
O O13 0.315930 0.239325 0.483920
O O14 0.195215 0.787838 0.893016
O O15 0.130545 0.667760 0.908094
O O16 0.764866 0.106843 0.616016
O O17 0.011173 0.168073 0.242738
O O18 0.879850 0.500000 0.105687
O O19 0.000000 0.620729 0.000000
#
# Coordination Sequence:
#
# PCOD8090888 Si02
#       8
#     8   8   8   8   8   8   8   8
#     4  10  21  36  56  83 110 138 177 220 265 323
#     4  10  21  38  61  86 109 136 174 221 272 326
#     4  11  21  32  51  77 108 146 182 223 272 318
#     4  10  19  34  53  74 107 144 178 222 271 317
#     4  10  21  35  51  77 109 142 183 224 266 322
#     4   9  20  36  53  78 107 141 186 226 264 317
#     4  10  21  37  59  81 109 145 175 220 275 319
#     4  10  20  35  55  76 106 149 190 229 269 312
#
# _framework density 19.856646000000001
#
# number of rings (size 3 to 8) (size 9 to 14) (size 15 to 20)
#    0.000    2.000    0.000    4.125    0.000    6.500 
#    0.000    1.250    0.000    0.375    0.000    0.000 
#    0.000    0.000    0.000    0.000    0.000    0.000 
#
# Total GULP energy -396684.460626 kJ/mol
# GULP energy per Si atom -12396.389395 kJ/mol
# Density = 1.981145 g / cm^3
# Si number density = 19.856646 Si / 1000 Ang^3
#
#
#
# Elastic Constant Matrix: (Units=GPa)
#
#
# Indices 1 2 3 4 5 6 
#
# 1 61.7885 28.7200 12.1024 -0.0002 -3.1622 0.0001
# 2 28.7200 111.3270 33.4840 -0.0002 0.3241 0.0000
# 3 12.1024 33.4840 69.3521 -0.0007 0.0959 0.0000
# 4 -0.0002 -0.0002 -0.0007 25.6631 0.0003 -4.8618
# 5 -3.1622 0.3241 0.0959 0.0003 20.2195 0.0000
# 6 0.0001 0.0000 0.0000 -4.8618 0.0000 11.0324
#
#
#
# Elastic Compliance Matrix: (Units=1/GPa)
#
#
# Indices 1 2 3 4 5 6 
#
# 1 0.018637 -0.004489 -0.001089 0.000000 0.002992 0.000000
# 2 -0.004489 0.011590 -0.004811 0.000000 -0.000865 0.000000
# 3 -0.001089 -0.004811 0.016932 0.000000 -0.000174 0.000000
# 4 0.000000 0.000000 0.000000 0.042516 -0.000001 0.018736
# 5 0.002992 -0.000865 -0.000174 -0.000001 0.049940 -0.000001
# 6 0.000000 0.000000 0.000000 0.018736 -0.000001 0.098899
#
#
# Mechanical properties :
#
#
# Convention : Reuss Voigt Hill
#
# Bulk Modulus (GPa) = 37.90623 43.45339 40.67981
# Shear Modulus (GPa) = 18.65064 22.59375 20.62220
#
# Velocity S-wave (km/s) = 3.06807 3.37685 3.22616
# Velocity P-wave (km/s) = 5.62869 6.09387 5.86589
#
# Compressibility (1/GPa) = 0.02638088
#
# Stress axis : x y z
#
# Youngs Moduli (GPa) = 53.65585 86.27909 59.05825
#
# Poissons Ratio (x) = 0.38732 0.06432
# Poissons Ratio (y) = 0.24087 0.28415
# Poissons Ratio (z) = 0.05843 0.41512
#
# Static dielectric constant tensor:
#      x y z
#    x 3.485390 0.000000 0.117480 
#    y 0.000000 3.722960 0.000000 
#    z 0.117480 0.000000 3.492320 
# 
# 
# High freq. dielectric constant tensor:
#      x y z
#    x 1.764250 0.000000 0.005550 
#    y 0.000000 1.784040 0.000000 
#    z 0.005550 0.000000 1.760740 
# 
# From -- ./inp_files/330347.got.cif
#   From: 2010.06.25/outbox.cif.g09.slc.cpg/sg12_166_cif.got.tgz:330347.got - 2010.06.28 00:19:55.
