data_PCOD8090791
_publ_section_title
;
Structure prediction by ZEFSAII (Michael W. Deem and Ramdas Pophale) SiO2 
 PCOD8090791
Probable space group: C 2/M
;
_chemical_formula_sum "Si O2"
_cell_formula_units_Z 64
_cell_length_a 18.530966
_cell_length_b 21.586198
_cell_length_c 9.198506
_cell_angle_alpha 90.000000
_cell_angle_beta 83.805239
_cell_angle_gamma 90.000000
_cell_volume 3658.037570
_symmetry_space_group_name_H-M "C 2/M"
_symmetry_group_IT_number 12
_symmetry_cell_setting 'monoclinic'
loop_
_space_group_symop_operation_xyz
x,y,z
-x,y,-z
-x,-y,-z
x,-y,z
1/2+x,1/2+y,z
1/2-x,1/2+y,-z
1/2-x,1/2-y,-z
1/2+x,1/2-y,z
loop_
_atom_site_type_symbol
_atom_site_label
_atom_site_fract_x
_atom_site_fract_y
_atom_site_fract_z
Si Si1 0.595793 0.265493 0.339074
Si Si2 0.434560 0.749398 0.325482
Si Si3 0.179420 0.572749 0.934035
Si Si4 0.329749 0.145768 0.764762
Si Si5 0.037294 0.624830 0.843963
Si Si6 0.055383 0.570804 0.373285
Si Si7 0.309927 0.290143 0.159637
Si Si8 0.286132 0.671722 0.847131
O O1 0.602456 0.248362 0.507588
O O2 0.513350 0.283118 0.316573
O O3 0.620367 0.207324 0.233723
O O4 0.650553 0.321857 0.287923
O O5 0.441575 0.818312 0.262985
O O6 0.385061 0.707894 0.230414
O O7 0.193592 0.500000 0.955932
O O8 0.108111 0.582559 0.852221
O O9 0.250549 0.603386 0.842523
O O10 0.167640 0.608693 0.086382
O O11 0.365536 0.103019 0.631900
O O12 0.247918 0.165715 0.743536
O O13 0.977730 0.581072 0.779434
O O14 0.000000 0.648910 0.000000
O O15 0.067704 0.500000 0.408700
O O16 0.000000 0.601723 0.500000
O O17 0.279658 0.220235 0.161096
O O18 0.323101 0.316384 0.995782
#
# Coordination Sequence:
#
# PCOD8090791 Si02
#       8
#     8   8   8   8   8   8   8   8
#     4  10  21  35  54  77 113 136 176 211 275 319
#     4  11  21  34  53  83 105 145 167 216 266 326
#     4  11  21  35  54  77 104 141 186 221 253 302
#     4  10  19  34  50  74 104 142 170 218 257 306
#     4  12  22  32  52  77 106 142 185 212 248 304
#     4  11  22  35  49  70 106 149 184 215 252 299
#     4   9  19  32  53  75 107 133 177 212 269 309
#     4   9  19  35  51  78 105 139 173 222 261 316
#
# _framework density 17.495719000000001
#
# number of rings (size 3 to 8) (size 9 to 14) (size 15 to 20)
#    0.000    1.625    3.750    2.250    1.750    2.500 
#    2.250    0.000    0.000    0.000    0.000    9.625 
#    0.000    0.000    0.000    0.000    0.000    0.000 
#
# Total GULP energy -396696.764665 kJ/mol
# GULP energy per Si atom -12396.773896 kJ/mol
# Density = 1.745590 g / cm^3
# Si number density = 17.495719 Si / 1000 Ang^3
#
#
#
# Elastic Constant Matrix: (Units=GPa)
#
#
# Indices 1 2 3 4 5 6 
#
# 1 92.7734 40.7070 42.6188 0.0000 -5.2137 0.0000
# 2 40.7070 71.0145 29.8229 0.0000 -9.9009 0.0000
# 3 42.6188 29.8229 80.6251 0.0000 -11.3258 0.0000
# 4 0.0000 0.0000 0.0000 19.1344 0.0000 -5.3169
# 5 -5.2137 -9.9009 -11.3258 0.0000 35.3263 0.0000
# 6 0.0000 0.0000 0.0000 -5.3169 0.0000 23.6121
#
#
#
# Elastic Compliance Matrix: (Units=1/GPa)
#
#
# Indices 1 2 3 4 5 6 
#
# 1 0.016786 -0.007132 -0.006459 0.000000 -0.001592 0.000000
# 2 -0.007132 0.019974 -0.003121 0.000000 0.003545 0.000000
# 3 -0.006459 -0.003121 0.017503 0.000000 0.003784 0.000000
# 4 0.000000 0.000000 0.000000 0.055750 0.000000 0.012554
# 5 -0.001592 0.003545 0.003784 0.000000 0.030279 0.000000
# 6 0.000000 0.000000 0.000000 0.012554 0.000000 0.045178
#
#
# Mechanical properties :
#
#
# Convention : Reuss Voigt Hill
#
# Bulk Modulus (GPa) = 47.98170 52.30114 50.14142
# Shear Modulus (GPa) = 22.13963 24.36551 23.25257
#
# Velocity S-wave (km/s) = 3.56115 3.73588 3.64956
# Velocity P-wave (km/s) = 6.66284 6.96905 6.81766
#
# Compressibility (1/GPa) = 0.02084128
#
# Stress axis : x y z
#
# Youngs Moduli (GPa) = 59.57460 50.06413 57.13295
#
# Poissons Ratio (x) = 0.35703 0.36901
# Poissons Ratio (y) = 0.42486 0.17829
# Poissons Ratio (z) = 0.38478 0.15623
#
# Static dielectric constant tensor:
#      x y z
#    x 3.465780 0.000000 -0.193540 
#    y 0.000000 3.063600 0.000000 
#    z -0.193540 0.000000 3.324900 
# 
# 
# High freq. dielectric constant tensor:
#      x y z
#    x 1.674550 0.000000 -0.012590 
#    y 0.000000 1.638350 0.000000 
#    z -0.012590 0.000000 1.676230 
# 
# From -- ./inp_files/77525.got.cif
#   From: 2010.06.25/outbox.cif.g09.slc.cpg/sg12_39_cif.got.tgz:77525.got - 2010.06.28 00:19:55.
