data_PCOD8090313
_publ_section_title
;
Structure prediction by ZEFSAII (Michael W. Deem and Ramdas Pophale) SiO2 
 PCOD8090313
Probable space group: C 2/M
;
_chemical_formula_sum "Si O2"
_cell_formula_units_Z 64
_cell_length_a 14.359855
_cell_length_b 9.198051
_cell_length_c 29.393688
_cell_angle_alpha 90.000000
_cell_angle_beta 60.550901
_cell_angle_gamma 90.000000
_cell_volume 3380.763459
_symmetry_space_group_name_H-M "C 2/M"
_symmetry_group_IT_number 12
_symmetry_cell_setting 'monoclinic'
loop_
_space_group_symop_operation_xyz
x,y,z
-x,y,-z
-x,-y,-z
x,-y,z
1/2+x,1/2+y,z
1/2-x,1/2+y,-z
1/2-x,1/2-y,-z
1/2+x,1/2-y,z
loop_
_atom_site_type_symbol
_atom_site_label
_atom_site_fract_x
_atom_site_fract_y
_atom_site_fract_z
Si Si1 0.722324 0.834117 0.619891
Si Si2 0.884738 0.835980 0.505984
Si Si3 0.576257 0.669071 0.941894
Si Si4 0.545252 0.163971 0.594423
Si Si5 0.776400 0.329769 0.216471
Si Si6 0.312932 0.827047 0.677644
Si Si7 0.487232 0.330290 0.144250
Si Si8 0.714701 0.331554 0.129111
O O1 0.801594 0.770244 0.562183
O O2 0.602346 0.827676 0.629645
O O3 0.724431 0.732431 0.663787
O O4 0.754784 0.000000 0.624862
O O5 0.000000 0.825905 0.500000
O O6 0.883878 0.749819 0.459065
O O7 0.850412 0.000000 0.502727
O O8 0.599750 0.500000 0.942806
O O9 0.516614 0.700791 0.908685
O O10 0.690091 0.747684 0.918872
O O11 0.500000 0.729092 0.000000
O O12 0.426512 0.225932 0.630080
O O13 0.538667 0.000000 0.577969
O O14 0.783867 0.500000 0.225989
O O15 0.702067 0.247889 0.270248
O O16 0.720560 0.300820 0.181467
O O17 0.895140 0.262831 0.190628
O O18 0.305136 0.000000 0.684971
O O19 0.467496 0.500000 0.159776
O O20 0.600987 0.277500 0.136810
O O21 0.730734 0.500000 0.114213
#
# Coordination Sequence:
#
# PCOD8090313 Si02
#       8
#     8   8   8   8   8   8   8   8
#     4  10  21  38  56  78 108 139 173 213 259 313
#     4  10  19  33  56  81 106 139 174 211 258 311
#     4   9  18  32  51  79 115 151 184 221 266 312
#     4  10  22  37  55  79 107 138 173 214 259 312
#     4  10  21  37  56  77 102 134 174 221 269 317
#     4  11  23  38  55  78 105 135 172 215 266 317
#     4   9  18  35  56  78 108 143 181 223 264 314
#     4   9  19  35  55  79 106 141 183 223 267 314
#
# _framework density 18.930637000000001
#
# number of rings (size 3 to 8) (size 9 to 14) (size 15 to 20)
#    0.000    2.250    1.250    1.125    0.000    4.500 
#    0.000    2.500    0.000    0.000    0.000    0.000 
#    0.000    0.000    0.000    0.000    0.000    0.000 
#
# Total GULP energy -396866.977647 kJ/mol
# GULP energy per Si atom -12402.093051 kJ/mol
# Density = 1.888755 g / cm^3
# Si number density = 18.930637 Si / 1000 Ang^3
#
#
#
# Elastic Constant Matrix: (Units=GPa)
#
#
# Indices 1 2 3 4 5 6 
#
# 1 100.3492 30.3409 23.9908 0.0000 -0.6941 0.0000
# 2 30.3409 67.6408 42.3003 0.0000 -0.2472 0.0000
# 3 23.9908 42.3003 93.0042 0.0000 1.9662 0.0000
# 4 0.0000 0.0000 0.0000 33.1904 0.0000 -1.7153
# 5 -0.6941 -0.2472 1.9662 0.0000 17.2423 0.0000
# 6 0.0000 0.0000 0.0000 -1.7153 0.0000 27.2249
#
#
#
# Elastic Compliance Matrix: (Units=1/GPa)
#
#
# Indices 1 2 3 4 5 6 
#
# 1 0.011584 -0.004638 -0.000889 0.000000 0.000501 0.000000
# 2 -0.004638 0.022550 -0.009085 0.000000 0.001172 0.000000
# 3 -0.000889 -0.009085 0.015153 0.000000 -0.001894 0.000000
# 4 0.000000 0.000000 0.000000 0.030228 0.000000 0.001905
# 5 0.000501 0.001172 -0.001894 0.000000 0.058250 0.000000
# 6 0.000000 0.000000 0.000000 0.001905 0.000000 0.036851
#
#
# Mechanical properties :
#
#
# Convention : Reuss Voigt Hill
#
# Bulk Modulus (GPa) = 49.84195 50.47312 50.15754
# Shear Modulus (GPa) = 23.74999 26.48901 25.11950
#
# Velocity S-wave (km/s) = 3.54585 3.74474 3.64665
# Velocity P-wave (km/s) = 6.56886 6.73924 6.65460
#
# Compressibility (1/GPa) = 0.02006342
#
# Stress axis : x y z
#
# Youngs Moduli (GPa) = 86.32929 44.34625 65.99165
#
# Poissons Ratio (x) = 0.20568 0.05868
# Poissons Ratio (y) = 0.40040 0.59950
# Poissons Ratio (z) = 0.07676 0.40286
#
# Static dielectric constant tensor:
#      x y z
#    x 3.488060 0.000000 -0.010460 
#    y 0.000000 3.429250 0.000000 
#    z -0.010460 0.000000 3.432930 
# 
# 
# High freq. dielectric constant tensor:
#      x y z
#    x 1.739680 0.000000 0.000330 
#    y 0.000000 1.730440 0.000000 
#    z 0.000330 0.000000 1.730590 
# 
# From -- ./inp_files/375049.got.cif
#   From: 2010.06.25/outbox.cif.g09.slc.cpg/sg12_188_cif.got.tgz:375049.got - 2010.06.28 00:19:55.
