data_PCOD8090596
_publ_section_title
;
Structure prediction by ZEFSAII (Michael W. Deem and Ramdas Pophale) SiO2 
 PCOD8090596
Probable space group: C 2/M
;
_chemical_formula_sum "Si O2"
_cell_formula_units_Z 48
_cell_length_a 30.164452
_cell_length_b 8.894750
_cell_length_c 16.908764
_cell_angle_alpha 90.000000
_cell_angle_beta 148.811051
_cell_angle_gamma 90.000000
_cell_volume 2349.389967
_symmetry_space_group_name_H-M "C 2/M"
_symmetry_group_IT_number 12
_symmetry_cell_setting 'monoclinic'
loop_
_space_group_symop_operation_xyz
x,y,z
-x,y,-z
-x,-y,-z
x,-y,z
1/2+x,1/2+y,z
1/2-x,1/2+y,-z
1/2-x,1/2-y,-z
1/2+x,1/2-y,z
loop_
_atom_site_type_symbol
_atom_site_label
_atom_site_fract_x
_atom_site_fract_y
_atom_site_fract_z
Si Si1 0.310022 0.322249 0.782448
Si Si2 0.662261 0.676918 0.641687
Si Si3 0.955401 0.673797 0.104830
Si Si4 0.010739 0.328287 0.662863
Si Si5 0.425842 0.666015 0.822441
Si Si6 0.184923 0.674958 0.840961
O O1 0.298755 0.500000 0.773660
O O2 0.219762 0.239998 0.657616
O O3 0.341320 0.279379 0.741147
O O4 0.378178 0.270084 0.952009
O O5 0.672868 0.500000 0.664149
O O6 0.564219 0.717000 0.476395
O O7 0.697406 0.749951 0.775303
O O8 0.938163 0.500000 0.060238
O O9 0.958184 0.707536 0.201658
O O10 0.046839 0.720620 0.205591
O O11 0.977966 0.500000 0.606053
O O12 0.088211 0.298329 0.721609
O O13 0.411347 0.500000 0.763572
O O14 0.500000 0.657589 0.000000
O O15 0.206762 0.500000 0.868074
O O16 0.250000 0.750000 0.000000
#
# Coordination Sequence:
#
# PCOD8090596 Si02
#       6
#     8   8   8   8   8   8
#     4  10  20  36  58  82 113 152 192 235 283 337
#     4  12  25  39  58  85 115 148 190 236 284 338
#     4  10  19  33  57  87 116 146 188 239 284 333
#     4  10  23  41  58  81 115 153 188 226 279 338
#     4   8  16  31  52  80 112 148 189 232 282 336
#     4  11  23  41  65  89 116 149 187 231 277 331
#
# _framework density 20.430834999999998
#
# number of rings (size 3 to 8) (size 9 to 14) (size 15 to 20)
#    0.000    1.833    0.000    5.500    0.000    9.667 
#    0.000    0.833    0.000    0.000    0.000    0.000 
#    0.000    0.000    0.000    0.000    0.000    0.000 
#
# Total GULP energy -297657.118721 kJ/mol
# GULP energy per Si atom -12402.379947 kJ/mol
# Density = 2.038433 g / cm^3
# Si number density = 20.430835 Si / 1000 Ang^3
#
#
#
# Elastic Constant Matrix: (Units=GPa)
#
#
# Indices 1 2 3 4 5 6 
#
# 1 71.4635 32.3504 -2.6489 0.0000 19.8245 0.0000
# 2 32.3504 117.4819 28.8095 0.0000 13.1079 0.0000
# 3 -2.6489 28.8095 49.2298 0.0000 17.2473 0.0000
# 4 0.0000 0.0000 0.0000 34.9806 0.0000 1.7018
# 5 19.8245 13.1079 17.2473 0.0000 23.9677 0.0000
# 6 0.0000 0.0000 0.0000 1.7018 0.0000 33.5825
#
#
#
# Elastic Compliance Matrix: (Units=1/GPa)
#
#
# Indices 1 2 3 4 5 6 
#
# 1 0.026276 -0.007981 0.016272 0.000000 -0.029078 0.000000
# 2 -0.007981 0.012413 -0.010199 0.000000 0.007153 0.000000
# 3 0.016272 -0.010199 0.040004 0.000000 -0.036668 0.000000
# 4 0.000000 0.000000 0.000000 0.028658 0.000000 -0.001452
# 5 -0.029078 0.007153 -0.036668 0.000000 0.088249 0.000000
# 6 0.000000 0.000000 0.000000 -0.001452 0.000000 0.029851
#
#
# Mechanical properties :
#
#
# Convention : Reuss Voigt Hill
#
# Bulk Modulus (GPa) = 13.35568 39.46636 26.41102
# Shear Modulus (GPa) = 19.66751 30.48377 25.07564
#
# Velocity S-wave (km/s) = 3.10601 3.86689 3.50715
# Velocity P-wave (km/s) = 4.40616 6.26866 5.41804
#
# Compressibility (1/GPa) = 0.07487449
#
# Stress axis : x y z
#
# Youngs Moduli (GPa) = 38.05775 80.56161 24.99775
#
# Poissons Ratio (x) = 0.64299 -0.40676
# Poissons Ratio (y) = 0.30375 0.25496
# Poissons Ratio (z) = -0.61927 0.82168
#
# Static dielectric constant tensor:
#      x y z
#    x 4.167450 0.000000 0.290390 
#    y 0.000000 3.758680 0.000000 
#    z 0.290390 0.000000 3.392650 
# 
# 
# High freq. dielectric constant tensor:
#      x y z
#    x 1.817020 0.000000 0.013470 
#    y 0.000000 1.802910 0.000000 
#    z 0.013470 0.000000 1.775200 
# 
# From -- ./inp_files/274604.got.cif
#   From: 2010.06.25/outbox.cif.g09.slc.cpg/sg12_138_cif.got.tgz:274604.got - 2010.06.28 00:19:55.
