data_PCOD8090746
_publ_section_title
;
Structure prediction by ZEFSAII (Michael W. Deem and Ramdas Pophale) SiO2 
 PCOD8090746
Probable space group: C 2/M
;
_chemical_formula_sum "Si O2"
_cell_formula_units_Z 64
_cell_length_a 13.695320
_cell_length_b 13.917764
_cell_length_c 20.043295
_cell_angle_alpha 90.000000
_cell_angle_beta 74.674910
_cell_angle_gamma 90.000000
_cell_volume 3684.569769
_symmetry_space_group_name_H-M "C 2/M"
_symmetry_group_IT_number 12
_symmetry_cell_setting 'monoclinic'
loop_
_space_group_symop_operation_xyz
x,y,z
-x,y,-z
-x,-y,-z
x,-y,z
1/2+x,1/2+y,z
1/2-x,1/2+y,-z
1/2-x,1/2-y,-z
1/2+x,1/2-y,z
loop_
_atom_site_type_symbol
_atom_site_label
_atom_site_fract_x
_atom_site_fract_y
_atom_site_fract_z
Si Si1 0.724980 0.892956 0.290174
Si Si2 0.882866 0.208403 0.348634
Si Si3 0.896101 0.889928 0.484365
Si Si4 0.389174 0.109394 0.935292
Si Si5 0.418919 0.801949 0.060766
Si Si6 0.234522 0.296920 0.157634
Si Si7 0.751974 0.109047 0.632476
Si Si8 0.884243 0.212590 0.709523
O O1 0.823617 0.869193 0.315480
O O2 0.750623 0.885198 0.206279
O O3 0.637381 0.815338 0.323903
O O4 0.687124 0.000000 0.313801
O O5 0.873702 0.180601 0.427407
O O6 0.840694 0.316218 0.344319
O O7 0.997160 0.200808 0.302498
O O8 0.803070 0.878525 0.551411
O O9 0.000000 0.856035 0.500000
O O10 0.906851 0.000000 0.457714
O O11 0.509990 0.131225 0.904341
O O12 0.324120 0.174548 0.897895
O O13 0.366207 0.000000 0.921938
O O14 0.356884 0.132257 0.018206
O O15 0.346075 0.739077 0.118725
O O16 0.500000 0.739816 0.000000
O O17 0.170979 0.213579 0.207915
O O18 0.836921 0.127427 0.673809
O O19 0.711271 0.000000 0.648737
#
# Coordination Sequence:
#
# PCOD8090746 Si02
#       8
#     8   8   8   8   8   8   8   8
#     4   9  21  35  53  78 109 144 185 220 266 333
#     4  11  20  36  57  82 109 145 182 235 271 318
#     4  10  19  33  60  82 105 146 188 223 275 327
#     4   9  18  33  58  81 103 139 181 223 266 321
#     4   8  19  32  57  80 105 137 179 224 260 316
#     4  10  19  34  55  79 110 142 178 215 277 319
#     4  10  21  38  55  83 111 141 185 231 271 324
#     4   9  22  34  55  77 112 142 183 219 272 322
#
# _framework density 17.369734999999999
#
# number of rings (size 3 to 8) (size 9 to 14) (size 15 to 20)
#    1.500    0.875    1.250    2.250    1.750    1.000 
#    0.000    2.500    0.000    3.375    0.000    0.000 
#    0.000    0.000    0.000    0.000    0.000    0.000 
#
# Total GULP energy -396429.240943 kJ/mol
# GULP energy per Si atom -12388.413779 kJ/mol
# Density = 1.733020 g / cm^3
# Si number density = 17.369735 Si / 1000 Ang^3
#
#
#
# Elastic Constant Matrix: (Units=GPa)
#
#
# Indices 1 2 3 4 5 6 
#
# 1 52.4202 -0.3597 6.3103 0.0000 7.8397 0.0000
# 2 -0.3597 59.3976 7.1255 0.0000 6.3801 0.0000
# 3 6.3103 7.1255 37.8967 0.0000 -6.6349 0.0000
# 4 0.0000 0.0000 0.0000 20.7811 0.0000 2.1875
# 5 7.8397 6.3801 -6.6349 0.0000 25.3096 0.0000
# 6 0.0000 0.0000 0.0000 2.1875 0.0000 17.6507
#
#
#
# Elastic Compliance Matrix: (Units=1/GPa)
#
#
# Indices 1 2 3 4 5 6 
#
# 1 0.020959 0.001646 -0.005250 0.000000 -0.008283 0.000000
# 2 0.001646 0.018099 -0.004785 0.000000 -0.006327 0.000000
# 3 -0.005250 -0.004785 0.030036 0.000000 0.010706 0.000000
# 4 0.000000 0.000000 0.000000 0.048757 0.000000 -0.006043
# 5 -0.008283 -0.006327 0.010706 0.000000 0.046478 0.000000
# 6 0.000000 0.000000 0.000000 -0.006043 0.000000 0.057404
#
#
# Mechanical properties :
#
#
# Convention : Reuss Voigt Hill
#
# Bulk Modulus (GPa) = 19.11413 19.54074 19.32743
# Shear Modulus (GPa) = 19.53523 21.85751 20.69637
#
# Velocity S-wave (km/s) = 3.35725 3.55120 3.45558
# Velocity P-wave (km/s) = 5.10454 5.29990 5.20314
#
# Compressibility (1/GPa) = 0.05231731
#
# Stress axis : x y z
#
# Youngs Moduli (GPa) = 47.71301 55.25083 33.29368
#
# Poissons Ratio (x) = -0.09097 0.17478
# Poissons Ratio (y) = -0.07856 0.15931
# Poissons Ratio (z) = 0.25048 0.26437
#
# Static dielectric constant tensor:
#      x y z
#    x 3.143460 0.000000 0.144190 
#    y 0.000000 3.008030 0.000000 
#    z 0.144190 0.000000 3.079870 
# 
# 
# High freq. dielectric constant tensor:
#      x y z
#    x 1.671290 0.000000 0.016300 
#    y 0.000000 1.650900 0.000000 
#    z 0.016300 0.000000 1.660290 
# 
# From -- ./inp_files/305428.got.cif
#   From: 2010.06.25/outbox.cif.g09.slc.cpg/sg12_153_cif.got.tgz:305428.got - 2010.06.28 00:19:55.
