data_PCOD8090294
_publ_section_title
;
Structure prediction by ZEFSAII (Michael W. Deem and Ramdas Pophale) SiO2 
 PCOD8090294
Probable space group: C 2/M
;
_chemical_formula_sum "Si O2"
_cell_formula_units_Z 64
_cell_length_a 30.422297
_cell_length_b 11.628993
_cell_length_c 17.589555
_cell_angle_alpha 90.000000
_cell_angle_beta 150.764842
_cell_angle_gamma 90.000000
_cell_volume 3039.207562
_symmetry_space_group_name_H-M "C 2/M"
_symmetry_group_IT_number 12
_symmetry_cell_setting 'monoclinic'
loop_
_space_group_symop_operation_xyz
x,y,z
-x,y,-z
-x,-y,-z
x,-y,z
1/2+x,1/2+y,z
1/2-x,1/2+y,-z
1/2-x,1/2-y,-z
1/2+x,1/2-y,z
loop_
_atom_site_type_symbol
_atom_site_label
_atom_site_fract_x
_atom_site_fract_y
_atom_site_fract_z
Si Si1 0.982754 0.869463 0.750076
Si Si2 0.567748 0.129669 0.540068
Si Si3 0.662096 0.756249 0.546643
Si Si4 0.635717 0.778509 0.909654
Si Si5 0.509299 0.215746 0.100473
Si Si6 0.678151 0.128193 0.132606
Si Si7 0.699537 0.124012 0.866315
Si Si8 0.806852 0.634161 0.560140
O O1 0.047951 0.790194 0.799554
O O2 0.882301 0.851229 0.565581
O O3 0.987735 0.832192 0.845481
O O4 0.013285 0.000000 0.789532
O O5 0.500000 0.187463 0.500000
O O6 0.586022 0.200591 0.491003
O O7 0.663719 0.128025 0.726706
O O8 0.535180 0.000000 0.471303
O O9 0.754593 0.717923 0.725706
O O10 0.681668 0.855931 0.513952
O O11 0.618639 0.851919 0.806719
O O12 0.674875 0.853967 0.037411
O O13 0.713149 0.698943 0.994946
O O14 0.598018 0.140204 0.252080
O O15 0.500000 0.255822 0.000000
O O16 0.422229 0.139776 0.987115
O O17 0.713381 0.000000 0.202422
O O18 0.737256 0.000000 0.943139
O O19 0.769659 0.500000 0.519196
O O20 0.750000 0.750000 0.500000
#
# Coordination Sequence:
#
# PCOD8090294 Si02
#       8
#     8   8   8   8   8   8   8   8
#     4  10  22  39  60  85 120 162 200 248 315 378
#     4  10  20  35  58  86 117 158 206 258 313 367
#     4  11  22  40  61  91 128 163 208 258 314 380
#     4  10  20  36  55  83 116 154 203 255 303 369
#     4  10  23  42  64  93 122 157 208 261 307 369
#     4  11  22  38  62  90 123 165 209 258 313 372
#     4  10  19  33  56  80 111 153 200 253 307 363
#     4  11  25  44  69  99 132 169 212 262 320 383
#
# _framework density 21.058121
#
# number of rings (size 3 to 8) (size 9 to 14) (size 15 to 20)
#    0.000    1.625    1.250    3.375    0.000    4.750 
#    0.000    6.875    0.000    1.500    0.000    0.000 
#    0.000    0.000    0.000    0.000    0.000    0.000 
#
# Total GULP energy -396426.610875 kJ/mol
# GULP energy per Si atom -12388.331590 kJ/mol
# Density = 2.101019 g / cm^3
# Si number density = 21.058121 Si / 1000 Ang^3
#
#
#
# Elastic Constant Matrix: (Units=GPa)
#
#
# Indices 1 2 3 4 5 6 
#
# 1 126.2127 43.5277 35.7341 0.0000 -15.9012 0.0000
# 2 43.5277 96.9609 36.8907 0.0000 -1.2251 0.0000
# 3 35.7341 36.8907 69.7350 0.0000 -3.5502 0.0000
# 4 0.0000 0.0000 0.0000 38.3804 0.0000 8.5288
# 5 -15.9012 -1.2251 -3.5502 0.0000 35.1570 0.0000
# 6 0.0000 0.0000 0.0000 8.5288 0.0000 21.1368
#
#
#
# Elastic Compliance Matrix: (Units=1/GPa)
#
#
# Indices 1 2 3 4 5 6 
#
# 1 0.010612 -0.003411 -0.003413 0.000000 0.004336 0.000000
# 2 -0.003411 0.014011 -0.005747 0.000000 -0.001635 0.000000
# 3 -0.003413 -0.005747 0.019139 0.000000 0.000189 0.000000
# 4 0.000000 0.000000 0.000000 0.028621 0.000000 -0.011549
# 5 0.004336 -0.001635 0.000189 0.000000 0.030367 0.000000
# 6 0.000000 0.000000 0.000000 -0.011549 0.000000 0.051971
#
#
# Mechanical properties :
#
#
# Convention : Reuss Voigt Hill
#
# Bulk Modulus (GPa) = 53.70618 58.35705 56.03162
# Shear Modulus (GPa) = 26.87180 30.71858 28.79519
#
# Velocity S-wave (km/s) = 3.57610 3.82351 3.70187
# Velocity P-wave (km/s) = 6.52767 6.87494 6.70355
#
# Compressibility (1/GPa) = 0.01861983
#
# Stress axis : x y z
#
# Youngs Moduli (GPa) = 94.23339 71.37474 52.24983
#
# Poissons Ratio (x) = 0.24343 0.17832
# Poissons Ratio (y) = 0.32140 0.30029
# Poissons Ratio (z) = 0.32160 0.41021
#
# Static dielectric constant tensor:
#      x y z
#    x 4.147890 0.000000 -0.036090 
#    y 0.000000 4.192590 0.000000 
#    z -0.036090 0.000000 3.743110 
# 
# 
# High freq. dielectric constant tensor:
#      x y z
#    x 1.837940 0.000000 -0.006520 
#    y 0.000000 1.808960 0.000000 
#    z -0.006520 0.000000 1.832000 
# 
# From -- ./inp_files/296502.got.cif
#   From: 2010.06.25/outbox.cif.g09.slc.cpg/sg12_149_cif.got.tgz:296502.got - 2010.06.28 00:19:55.
