data_PCOD8090086
_publ_section_title
;
Structure prediction by ZEFSAII (Michael W. Deem and Ramdas Pophale) SiO2 
 PCOD8090086
Probable space group: C 2/M
;
_chemical_formula_sum "Si O2"
_cell_formula_units_Z 64
_cell_length_a 15.262338
_cell_length_b 9.035484
_cell_length_c 28.987410
_cell_angle_alpha 90.000000
_cell_angle_beta 56.119247
_cell_angle_gamma 90.000000
_cell_volume 3318.672682
_symmetry_space_group_name_H-M "C 2/M"
_symmetry_group_IT_number 12
_symmetry_cell_setting 'monoclinic'
loop_
_space_group_symop_operation_xyz
x,y,z
-x,y,-z
-x,-y,-z
x,-y,z
1/2+x,1/2+y,z
1/2-x,1/2+y,-z
1/2-x,1/2-y,-z
1/2+x,1/2-y,z
loop_
_atom_site_type_symbol
_atom_site_label
_atom_site_fract_x
_atom_site_fract_y
_atom_site_fract_z
Si Si1 0.901317 0.175423 0.366860
Si Si2 0.740171 0.673474 0.164813
Si Si3 0.503604 0.675615 0.241059
Si Si4 0.089800 0.166988 0.061049
Si Si5 0.188232 0.667330 0.953118
Si Si6 0.483228 0.175219 0.431030
Si Si7 0.664811 0.175242 0.444256
Si Si8 0.427126 0.826603 0.173555
O O1 0.949004 0.225981 0.304278
O O2 0.973983 0.244085 0.385098
O O3 0.782480 0.240505 0.405302
O O4 0.902688 0.000000 0.371919
O O5 0.728110 0.500000 0.159716
O O6 0.622967 0.739677 0.205728
O O7 0.797403 0.737595 0.102206
O O8 0.809305 0.707931 0.189672
O O9 0.501650 0.500000 0.235789
O O10 0.437399 0.745057 0.219016
O O11 0.198975 0.169767 0.055849
O O12 0.009051 0.268583 0.112087
O O13 0.046120 0.000000 0.070220
O O14 0.104659 0.232920 0.005400
O O15 0.143862 0.500000 0.964360
O O16 0.593255 0.227022 0.422048
O O17 0.387325 0.227551 0.492373
O O18 0.480641 0.000000 0.424226
O O19 0.668065 0.000000 0.442683
O O20 0.446305 0.000000 0.174684
#
# Coordination Sequence:
#
# PCOD8090086 Si02
#       8
#     8   8   8   8   8   8   8   8
#     4  10  20  33  54  79 105 137 179 223 265 310
#     4   9  19  37  57  75 101 140 176 209 263 323
#     4  10  21  40  57  73 104 143 177 218 269 315
#     4  10  19  33  55  81 110 138 168 211 264 316
#     4   9  17  33  56  77 103 140 175 206 252 321
#     4   9  17  32  54  76 109 146 178 212 257 318
#     4   8  16  32  52  78 109 146 177 209 263 320
#     4  11  22  36  57  80 102 134 179 221 257 313
#
# _framework density 19.284818999999999
#
# number of rings (size 3 to 8) (size 9 to 14) (size 15 to 20)
#    0.000    2.500    1.250    1.875    0.000    2.500 
#    0.000    6.875    0.000    0.000    0.000    0.000 
#    0.000    0.000    0.000    0.000    0.000    0.000 
#
# Total GULP energy -396779.895688 kJ/mol
# GULP energy per Si atom -12399.371740 kJ/mol
# Density = 1.924093 g / cm^3
# Si number density = 19.284819 Si / 1000 Ang^3
#
#
#
# Elastic Constant Matrix: (Units=GPa)
#
#
# Indices 1 2 3 4 5 6 
#
# 1 88.8351 27.6402 59.4768 0.0000 27.0696 0.0000
# 2 27.6402 34.8055 31.1044 0.0000 6.1314 0.0000
# 3 59.4768 31.1044 125.8756 0.0000 23.2384 0.0000
# 4 0.0000 0.0000 0.0000 19.2497 0.0000 4.0907
# 5 27.0696 6.1314 23.2384 0.0000 18.9728 0.0000
# 6 0.0000 0.0000 0.0000 4.0907 0.0000 23.2197
#
#
#
# Elastic Compliance Matrix: (Units=1/GPa)
#
#
# Indices 1 2 3 4 5 6 
#
# 1 0.026794 -0.012371 -0.004243 0.000000 -0.029033 0.000000
# 2 -0.012371 0.042600 -0.006975 0.000000 0.012427 0.000000
# 3 -0.004243 -0.006975 0.013102 0.000000 -0.007739 0.000000
# 4 0.000000 0.000000 0.000000 0.053969 0.000000 -0.009508
# 5 -0.029033 0.012427 -0.007739 0.000000 0.099592 0.000000
# 6 0.000000 0.000000 0.000000 -0.009508 0.000000 0.044742
#
#
# Mechanical properties :
#
#
# Convention : Reuss Voigt Hill
#
# Bulk Modulus (GPa) = 28.31628 53.99545 41.15586
# Shear Modulus (GPa) = 14.71668 21.04145 17.87907
#
# Velocity S-wave (km/s) = 2.76546 3.30675 3.04814
# Velocity P-wave (km/s) = 4.99121 6.52987 5.81168
#
# Compressibility (1/GPa) = 0.03531537
#
# Stress axis : x y z
#
# Youngs Moduli (GPa) = 37.32205 23.47422 76.32604
#
# Poissons Ratio (x) = 0.29041 0.32388
# Poissons Ratio (y) = 0.46172 0.53241
# Poissons Ratio (z) = 0.15837 0.16374
#
# Static dielectric constant tensor:
#      x y z
#    x 3.670030 0.000000 -0.075530 
#    y 0.000000 3.257430 0.000000 
#    z -0.075530 0.000000 3.650480 
# 
# 
# High freq. dielectric constant tensor:
#      x y z
#    x 1.756080 0.000000 0.004110 
#    y 0.000000 1.719770 0.000000 
#    z 0.004110 0.000000 1.751500 
# 
# From -- ./inp_files/375025.got.cif
#   From: 2010.06.25/outbox.cif.g09.slc.cpg/sg12_188_cif.got.tgz:375025.got - 2010.06.28 00:19:55.
